data_PCOD9239315
_publ_section_title
;
Structure prediction by ZEFSAII (Michael W. Deem and Ramdas Pophale) SiO2 
 PCOD9239315
Probable space group: P 21/C
;
_chemical_formula_sum "Si O2"
_cell_formula_units_Z 28
_cell_length_a 8.996437
_cell_length_b 6.700897
_cell_length_c 23.733025
_cell_angle_alpha 90.000000
_cell_angle_beta 43.594998
_cell_angle_gamma 90.000000
_cell_volume 986.566411
_symmetry_space_group_name_H-M "P 21/C"
_symmetry_group_IT_number 14
_symmetry_cell_setting 'monoclinic'
loop_
_space_group_symop_operation_xyz
x,y,z
-x,1/2+y,1/2-z
-x,-y,-z
x,1/2-y,1/2+z
loop_
_atom_site_type_symbol
_atom_site_label
_atom_site_fract_x
_atom_site_fract_y
_atom_site_fract_z
Si Si1 0.112534 0.353475 0.064317
Si Si2 0.786461 0.025114 0.814836
Si Si3 0.484486 0.428965 0.179383
Si Si4 0.737544 0.932117 0.364688
Si Si5 0.690032 0.938902 0.728677
Si Si6 0.254183 0.580149 0.555866
Si Si7 0.096043 0.721159 0.480804
O O1 0.283562 0.441314 0.062173
O O2 0.899322 0.463486 0.144397
O O3 0.092389 0.347623 0.001661
O O4 0.116554 0.120069 0.080768
O O5 0.640374 0.060681 0.799749
O O6 0.789884 0.162231 0.869251
O O7 0.024748 0.019343 0.723968
O O8 0.720276 0.806715 0.855374
O O9 0.428188 0.522904 0.134738
O O10 0.529330 0.566345 0.220370
O O11 0.687230 0.279814 0.112690
O O12 0.291758 0.286928 0.254709
O O13 0.500000 0.500000 0.500000
O O14 0.183658 0.719283 0.522008
O O15 0.000000 0.500000 0.500000
#
# Coordination Sequence:
#
# PCOD9239315 Si02
#       7
#     4   4   4   4   4   4   4
#     4   8  16  29  44  66  95 122 149 196 245 274
#     4   9  18  31  47  73  98 124 155 197 247 281
#     4  10  19  31  50  75  96 127 163 197 246 288
#     4   9  17  30  48  71  98 123 159 199 241 291
#     4   9  18  31  46  71 101 123 158 202 242 284
#     4  10  17  28  48  73  99 127 161 198 234 286
#     4   9  17  28  44  69  98 124 155 197 237 278
#
# _framework density 28.381262
#
# number of rings (size 3 to 8) (size 9 to 14) (size 15 to 20)
#    0.000    2.857    0.000    2.571    0.000    6.857 
#    0.000    0.000    0.000    0.000    0.000  128.000 
#    0.000    0.000    0.000    0.000    0.000    0.000 
#
# Total GULP energy -156121.504464 kJ/mol
# GULP energy per Si atom -5575.768017 kJ/mol
# Density = 2.831666 g / cm^3
# Si number density = 28.381262 Si / 1000 Ang^3
#
#
#
# Elastic Constant Matrix: (Units=GPa)
#
#
# Indices 1 2 3 4 5 6 
#
# 1 278.1999 56.9070 90.9822 0.0000 87.6578 0.0000
# 2 56.9070 59.4059 45.1051 0.0000 19.5664 0.0000
# 3 90.9822 45.1051 102.1987 0.0000 42.8216 0.0000
# 4 0.0000 0.0000 0.0000 39.0821 0.0000 15.3701
# 5 87.6578 19.5664 42.8216 0.0000 77.4868 0.0000
# 6 0.0000 0.0000 0.0000 15.3701 0.0000 56.9518
#
#
#
# Elastic Compliance Matrix: (Units=1/GPa)
#
#
# Indices 1 2 3 4 5 6 
#
# 1 0.006696 -0.002746 -0.002428 0.000000 -0.005539 0.000000
# 2 -0.002746 0.026448 -0.010061 0.000000 0.001988 0.000000
# 3 -0.002428 -0.010061 0.018442 0.000000 -0.004904 0.000000
# 4 0.000000 0.000000 0.000000 0.028625 0.000000 -0.007725
# 5 -0.005539 0.001988 -0.004904 0.000000 0.021380 0.000000
# 6 0.000000 0.000000 0.000000 -0.007725 0.000000 0.019644
#
#
# Mechanical properties :
#
#
# Convention : Reuss Voigt Hill
#
# Bulk Modulus (GPa) = 47.35884 91.75478 69.55681
# Shear Modulus (GPa) = 31.49736 51.15816 41.32776
#
# Velocity S-wave (km/s) = 3.33497 4.25023 3.82011
# Velocity P-wave (km/s) = 5.61714 7.51568 6.63467
#
# Compressibility (1/GPa) = 0.02111538
#
# Stress axis : x y z
#
# Youngs Moduli (GPa) = 149.35025 37.80960 54.22529
#
# Poissons Ratio (x) = 0.10383 0.13164
# Poissons Ratio (y) = 0.41015 0.54557
# Poissons Ratio (z) = 0.36258 0.38041
#
# Static dielectric constant tensor:
#      x y z
#    x 2.362650 0.000000 -0.006360 
#    y 0.000000 2.285220 0.000000 
#    z -0.006360 0.000000 2.319580 
# 
# From -- ./inp_files/55213.got.cif
#   From: 2010.05.17/outbox.cif.g08.bks.cpg/sg14_28_cif.got.tgz:55213.got - 2010.06.03 17:49:19.
