data_PCOD9239397
_publ_section_title
;
Structure prediction by ZEFSAII (Michael W. Deem and Ramdas Pophale) SiO2 
 PCOD9239397
Probable space group: P 21/C
;
_chemical_formula_sum "Si O2"
_cell_formula_units_Z 24
_cell_length_a 15.417717
_cell_length_b 5.413617
_cell_length_c 22.119021
_cell_angle_alpha 90.000000
_cell_angle_beta 146.717095
_cell_angle_gamma 90.000000
_cell_volume 1013.133241
_symmetry_space_group_name_H-M "P 21/C"
_symmetry_group_IT_number 14
_symmetry_cell_setting 'monoclinic'
loop_
_space_group_symop_operation_xyz
x,y,z
-x,1/2+y,1/2-z
-x,-y,-z
x,1/2-y,1/2+z
loop_
_atom_site_type_symbol
_atom_site_label
_atom_site_fract_x
_atom_site_fract_y
_atom_site_fract_z
Si Si1 0.908341 0.695431 0.404644
Si Si2 0.046598 0.908798 0.176867
Si Si3 0.184273 0.081926 0.533821
Si Si4 0.417877 0.917485 0.571353
Si Si5 0.461897 0.080184 0.046074
Si Si6 0.840693 0.144810 0.149557
O O1 0.849531 0.545512 0.312621
O O2 0.790040 0.825236 0.382549
O O3 0.000000 0.500000 0.500000
O O4 0.041972 0.883990 0.458142
O O5 0.126680 0.692054 0.261729
O O6 0.895112 0.798958 0.052744
O O7 0.992266 0.101280 0.196710
O O8 0.337461 0.977261 0.588956
O O9 0.502547 0.651587 0.613258
O O10 0.266239 0.864767 0.439287
O O11 0.509060 0.154379 0.598464
O O12 0.271212 0.084820 0.930536
O O13 0.500000 0.000000 0.000000
#
# Coordination Sequence:
#
# PCOD9239397 Si02
#       6
#     4   4   4   4   4   4
#     4   9  19  29  47  67 108 141 177 219 256 327
#     4  11  19  32  45  80 111 146 176 211 274 344
#     4  10  17  32  47  71 107 142 180 218 267 324
#     4  10  19  34  53  77 104 141 180 226 274 324
#     4  10  21  36  52  77 109 142 186 229 272 323
#     4  10  22  28  54  75 116 145 176 217 283 334
#
# _framework density 23.688887000000001
#
# number of rings (size 3 to 8) (size 9 to 14) (size 15 to 20)
#    1.000    1.000    3.333    1.500    2.333    0.000 
#    0.000    0.000    0.000    0.000    0.000    0.000 
#   20.000    0.000    0.000    0.000    0.000    0.000 
#
# Total GULP energy -133766.793807 kJ/mol
# GULP energy per Si atom -5573.616409 kJ/mol
# Density = 2.363497 g / cm^3
# Si number density = 23.688887 Si / 1000 Ang^3
#
#
#
# Elastic Constant Matrix: (Units=GPa)
#
#
# Indices 1 2 3 4 5 6 
#
# 1 107.2654 19.5617 18.7813 0.0000 -19.3413 0.0000
# 2 19.5617 109.6172 12.0446 0.0000 2.6755 0.0000
# 3 18.7813 12.0446 52.7381 0.0000 -11.9620 0.0000
# 4 0.0000 0.0000 0.0000 20.3525 0.0000 -15.2734
# 5 -19.3413 2.6755 -11.9620 0.0000 19.8101 0.0000
# 6 0.0000 0.0000 0.0000 -15.2734 0.0000 43.6284
#
#
#
# Elastic Compliance Matrix: (Units=1/GPa)
#
#
# Indices 1 2 3 4 5 6 
#
# 1 0.011983 -0.002284 -0.001184 0.000000 0.011292 0.000000
# 2 -0.002284 0.009945 -0.002628 0.000000 -0.005160 0.000000
# 3 -0.001184 -0.002628 0.022944 0.000000 0.013053 0.000000
# 4 0.000000 0.000000 0.000000 0.066642 0.000000 0.023330
# 5 0.011292 -0.005160 0.013053 0.000000 0.070083 0.000000
# 6 0.000000 0.000000 0.000000 0.023330 0.000000 0.031088
#
#
# Mechanical properties :
#
#
# Convention : Reuss Voigt Hill
#
# Bulk Modulus (GPa) = 30.60081 41.15512 35.87797
# Shear Modulus (GPa) = 21.20694 31.37373 26.29034
#
# Velocity S-wave (km/s) = 2.99528 3.64319 3.33501
# Velocity P-wave (km/s) = 4.99080 5.92520 5.47796
#
# Compressibility (1/GPa) = 0.03267887
#
# Stress axis : x y z
#
# Youngs Moduli (GPa) = 83.45356 100.55344 43.58366
#
# Poissons Ratio (x) = 0.22965 0.05162
# Poissons Ratio (y) = 0.19060 0.11455
# Poissons Ratio (z) = 0.09884 0.26429
#
# Static dielectric constant tensor:
#      x y z
#    x 2.015190 0.000000 0.048410 
#    y 0.000000 1.978590 0.000000 
#    z 0.048410 0.000000 1.958070 
# 
# From -- ./inp_files/73430.got.cif
#   From: 2010.05.17/outbox.cif.g08.bks.cpg/sg14_37_cif.got.tgz:73430.got - 2010.06.03 17:49:19.
