data_PCOD9239125
_publ_section_title
;
Structure prediction by ZEFSAII (Michael W. Deem and Ramdas Pophale) SiO2 
 PCOD9239125
Probable space group: P 21/C
;
_chemical_formula_sum "Si O2"
_cell_formula_units_Z 32
_cell_length_a 23.653140
_cell_length_b 13.071367
_cell_length_c 17.143227
_cell_angle_alpha 90.000000
_cell_angle_beta 165.402701
_cell_angle_gamma 90.000000
_cell_volume 1335.807374
_symmetry_space_group_name_H-M "P 21/C"
_symmetry_group_IT_number 14
_symmetry_cell_setting 'monoclinic'
loop_
_space_group_symop_operation_xyz
x,y,z
-x,1/2+y,1/2-z
-x,-y,-z
x,1/2-y,1/2+z
loop_
_atom_site_type_symbol
_atom_site_label
_atom_site_fract_x
_atom_site_fract_y
_atom_site_fract_z
Si Si1 0.597395 0.134387 0.472313
Si Si2 0.029511 0.791156 0.138345
Si Si3 0.634605 0.678268 0.890978
Si Si4 0.135496 0.606139 0.173661
Si Si5 0.258700 0.555117 0.167959
Si Si6 0.601919 0.244025 0.637936
Si Si7 0.128916 0.154972 0.444990
Si Si8 0.609792 0.901332 0.530689
O O1 0.765551 0.146480 0.624426
O O2 0.392691 0.201985 0.166792
O O3 0.684828 0.192123 0.667411
O O4 0.559634 0.018345 0.445168
O O5 0.003216 0.696742 0.040587
O O6 0.036615 0.726709 0.227335
O O7 0.833362 0.874674 0.877735
O O8 0.395781 0.620569 0.551040
O O9 0.834209 0.648357 0.098723
O O10 0.656926 0.653862 0.011051
O O11 0.169257 0.607330 0.126757
O O12 0.000000 0.500000 0.000000
O O13 0.500000 0.500000 0.500000
O O14 0.301853 0.660877 0.182325
O O15 0.101880 0.463057 0.933421
O O16 0.365606 0.295527 0.292718
O O17 0.574315 0.151430 0.661203
#
# Coordination Sequence:
#
# PCOD9239125 Si02
#       8
#     4   4   4   4   4   4   4   4
#     4  10  20  40  58  80 117 153 195 246 282 347
#     4  10  20  35  58  85 108 154 201 228 278 351
#     4  10  22  38  54  86 120 143 193 251 289 338
#     4  11  19  32  60  86 116 144 187 238 288 338
#     4  10  15  30  57  84 107 147 194 232 271 341
#     4   9  18  33  56  84 109 151 201 230 271 359
#     4   9  17  32  58  81 113 150 192 231 286 346
#     4  11  23  36  60  85 113 158 193 239 294 346
#
# _framework density 23.955549999999999
#
# number of rings (size 3 to 8) (size 9 to 14) (size 15 to 20)
#    0.000    2.000    6.250    0.750    0.000    2.000 
#    0.000    2.500    2.750    0.000    0.000    0.000 
#    0.000    0.000    0.000    0.000    0.000    0.000 
#
# Total GULP energy -178142.783224 kJ/mol
# GULP energy per Si atom -5566.961976 kJ/mol
# Density = 2.390103 g / cm^3
# Si number density = 23.955550 Si / 1000 Ang^3
#
#
#
# Elastic Constant Matrix: (Units=GPa)
#
#
# Indices 1 2 3 4 5 6 
#
# 1 98.4266 33.4556 15.8466 0.0000 5.6622 0.0000
# 2 33.4556 142.4920 12.7782 0.0000 -1.6487 0.0000
# 3 15.8466 12.7782 26.2985 0.0000 -3.0912 0.0000
# 4 0.0000 0.0000 0.0000 12.7988 0.0000 6.2963
# 5 5.6622 -1.6487 -3.0912 0.0000 13.6943 0.0000
# 6 0.0000 0.0000 0.0000 6.2963 0.0000 31.6037
#
#
#
# Elastic Compliance Matrix: (Units=1/GPa)
#
#
# Indices 1 2 3 4 5 6 
#
# 1 0.012542 -0.002378 -0.007237 0.000000 -0.007106 0.000000
# 2 -0.002378 0.007789 -0.002184 0.000000 0.001428 0.000000
# 3 -0.007237 -0.002184 0.044961 0.000000 0.012879 0.000000
# 4 0.000000 0.000000 0.000000 0.086622 0.000000 -0.017257
# 5 -0.007106 0.001428 0.012879 0.000000 0.079040 0.000000
# 6 0.000000 0.000000 0.000000 -0.017257 0.000000 0.035080
#
#
# Mechanical properties :
#
#
# Convention : Reuss Voigt Hill
#
# Bulk Modulus (GPa) = 23.98446 43.48641 33.73544
# Shear Modulus (GPa) = 16.47288 25.29515 20.88402
#
# Velocity S-wave (km/s) = 2.62514 3.25302 2.95580
# Velocity P-wave (km/s) = 4.38432 5.68347 5.07564
#
# Compressibility (1/GPa) = 0.04169366
#
# Stress axis : x y z
#
# Youngs Moduli (GPa) = 79.73149 128.39267 22.24162
#
# Poissons Ratio (x) = 0.30531 0.16097
# Poissons Ratio (y) = 0.18960 0.04857
# Poissons Ratio (z) = 0.57704 0.28037
#
# Static dielectric constant tensor:
#      x y z
#    x 2.945460 0.000000 -0.643720 
#    y 0.000000 1.737920 0.000000 
#    z -0.643720 0.000000 3.070250 
# 
# From -- ./inp_files/62015.got.cif
#   From: 2010.05.17/outbox.cif.g08.bks.cpg/sg14_32_cif.got.tgz:62015.got - 2010.06.03 17:49:19.
