data_PCOD9239119
_publ_section_title
;
Structure prediction by ZEFSAII (Michael W. Deem and Ramdas Pophale) SiO2 
 PCOD9239119
Probable space group: P 21/C
;
_chemical_formula_sum "Si O2"
_cell_formula_units_Z 24
_cell_length_a 7.740390
_cell_length_b 20.892436
_cell_length_c 5.537858
_cell_angle_alpha 90.000000
_cell_angle_beta 90.246351
_cell_angle_gamma 90.000000
_cell_volume 895.549766
_symmetry_space_group_name_H-M "P 21/C"
_symmetry_group_IT_number 14
_symmetry_cell_setting 'monoclinic'
loop_
_space_group_symop_operation_xyz
x,y,z
-x,1/2+y,1/2-z
-x,-y,-z
x,1/2-y,1/2+z
loop_
_atom_site_type_symbol
_atom_site_label
_atom_site_fract_x
_atom_site_fract_y
_atom_site_fract_z
Si Si1 0.596913 0.001801 0.750544
Si Si2 0.989139 0.286498 0.271690
Si Si3 0.603214 0.345718 0.252522
Si Si4 0.851825 0.059287 0.249182
Si Si5 0.515572 0.868365 0.749022
Si Si6 0.938905 0.578479 0.749975
O O1 0.658604 0.926002 0.749839
O O2 0.500000 0.000000 0.500000
O O3 0.650093 0.077220 0.750927
O O4 0.500000 0.000000 0.000000
O O5 0.015314 0.255616 0.533528
O O6 0.786718 0.309361 0.258530
O O7 0.111320 0.348318 0.251367
O O8 0.492579 0.333169 0.494548
O O9 0.494864 0.333005 0.007162
O O10 0.680485 0.101113 0.249952
O O11 0.958701 0.070732 0.494614
O O12 0.958721 0.070740 0.004838
O O13 0.815509 0.982923 0.248961
#
# Coordination Sequence:
#
# PCOD9239119 Si02
#       6
#     4   4   4   4   4   4
#     4   8  16  25  42  65  89 113 136 174 224 266
#     4  12  22  32  46  64  92 132 160 185 221 274
#     4  10  18  30  42  65  95 116 150 183 217 276
#     4  10  17  30  50  66  92 117 146 194 246 276
#     4  10  15  28  48  68  89 116 140 182 240 278
#     4  10  20  31  44  68  91 120 154 192 230 276
#
# _framework density 26.799182999999999
#
# number of rings (size 3 to 8) (size 9 to 14) (size 15 to 20)
#    0.000    2.000    3.333    2.000    0.000    0.000 
#    0.000    0.000    0.000    0.000    0.000    2.333 
#    0.000    0.000    0.000    0.000    0.000    0.000 
#
# Total GULP energy -133846.182334 kJ/mol
# GULP energy per Si atom -5576.924264 kJ/mol
# Density = 2.673819 g / cm^3
# Si number density = 26.799183 Si / 1000 Ang^3
#
#
#
# Elastic Constant Matrix: (Units=GPa)
#
#
# Indices 1 2 3 4 5 6 
#
# 1 68.7953 2.0321 46.6068 0.0000 -1.7977 0.0000
# 2 2.0321 67.6864 -3.7757 0.0000 -12.5320 0.0000
# 3 46.6068 -3.7757 235.0765 0.0000 -10.4377 0.0000
# 4 0.0000 0.0000 0.0000 44.6829 0.0000 -0.0664
# 5 -1.7977 -12.5320 -10.4377 0.0000 27.9225 0.0000
# 6 0.0000 0.0000 0.0000 -0.0664 0.0000 38.6032
#
#
#
# Elastic Compliance Matrix: (Units=1/GPa)
#
#
# Indices 1 2 3 4 5 6 
#
# 1 0.016831 -0.000792 -0.003373 0.000000 -0.000533 0.000000
# 2 -0.000792 0.016231 0.000751 0.000000 0.007515 0.000000
# 3 -0.003373 0.000751 0.005024 0.000000 0.001998 0.000000
# 4 0.000000 0.000000 0.000000 0.022380 0.000000 0.000039
# 5 -0.000533 0.007515 0.001998 0.000000 0.039899 0.000000
# 6 0.000000 0.000000 0.000000 0.000039 0.000000 0.025905
#
#
# Mechanical properties :
#
#
# Convention : Reuss Voigt Hill
#
# Bulk Modulus (GPa) = 31.99262 51.25383 41.62323
# Shear Modulus (GPa) = 34.83947 44.02139 39.43043
#
# Velocity S-wave (km/s) = 3.60949 4.05735 3.83995
# Velocity P-wave (km/s) = 5.41618 6.41218 5.93511
#
# Compressibility (1/GPa) = 0.03125720
#
# Stress axis : x y z
#
# Youngs Moduli (GPa) = 59.41545 61.61039 199.06435
#
# Poissons Ratio (x) = 0.04880 0.67150
# Poissons Ratio (y) = 0.04706 -0.14958
# Poissons Ratio (z) = 0.20042 -0.04629
#
# Static dielectric constant tensor:
#      x y z
#    x 2.346940 0.000000 0.101210 
#    y 0.000000 2.202520 0.000000 
#    z 0.101210 0.000000 2.483270 
# 
# From -- ./inp_files/2782.got.cif
#   From: 2010.05.17/outbox.cif.g08.bks.cpg/sg14_2_cif.got.tgz:2782.got - 2010.06.03 17:49:19.
