data_PCOD9239394
_publ_section_title
;
Structure prediction by ZEFSAII (Michael W. Deem and Ramdas Pophale) SiO2 
 PCOD9239394
Probable space group: P 21/C
;
_chemical_formula_sum "Si O2"
_cell_formula_units_Z 32
_cell_length_a 8.500074
_cell_length_b 20.711959
_cell_length_c 10.867760
_cell_angle_alpha 90.000000
_cell_angle_beta 48.061146
_cell_angle_gamma 90.000000
_cell_volume 1423.227255
_symmetry_space_group_name_H-M "P 21/C"
_symmetry_group_IT_number 14
_symmetry_cell_setting 'monoclinic'
loop_
_space_group_symop_operation_xyz
x,y,z
-x,1/2+y,1/2-z
-x,-y,-z
x,1/2-y,1/2+z
loop_
_atom_site_type_symbol
_atom_site_label
_atom_site_fract_x
_atom_site_fract_y
_atom_site_fract_z
Si Si1 0.578250 0.628740 0.746266
Si Si2 0.764350 0.566490 0.881808
Si Si3 0.095345 0.428248 0.937483
Si Si4 0.218657 0.874728 0.054954
Si Si5 0.031018 0.816617 0.922823
Si Si6 0.032673 0.935520 0.765205
Si Si7 0.616079 0.994134 0.071463
Si Si8 0.782225 0.181221 0.694436
O O1 0.617554 0.605210 0.864683
O O2 0.513368 0.561372 0.709327
O O3 0.401495 0.681802 0.810813
O O4 0.792012 0.660881 0.579539
O O5 0.730627 0.575803 0.045176
O O6 0.001245 0.592663 0.721428
O O7 0.786591 0.489382 0.847849
O O8 0.934873 0.373318 0.061724
O O9 0.000000 0.500000 0.000000
O O10 0.106302 0.421727 0.785124
O O11 0.317894 0.842611 0.123818
O O12 0.353083 0.930374 0.917868
O O13 0.153785 0.824234 0.986665
O O14 0.079856 0.744728 0.854124
O O15 0.109316 0.869457 0.783808
O O16 0.857043 0.968192 0.943751
O O17 0.500000 0.000000 0.000000
#
# Coordination Sequence:
#
# PCOD9239394 Si02
#       8
#     4   4   4   4   4   4   4   4
#     4  10  20  37  61  90 116 153 208 245 297 351
#     4   8  16  34  60  84 112 149 191 244 294 351
#     4   9  19  36  60  84 117 158 194 236 308 357
#     4   9  18  35  56  84 113 147 191 241 299 341
#     4  10  22  37  59  84 116 157 196 240 290 359
#     4   9  18  34  59  87 117 153 192 242 303 356
#     4  10  17  31  61  91 112 141 197 260 291 337
#     4  11  22  37  61  81 120 163 191 248 295 355
#
# _framework density 22.484110999999999
#
# number of rings (size 3 to 8) (size 9 to 14) (size 15 to 20)
#    0.000    2.500    1.250    1.500    1.750    3.000 
#    0.000    7.500    5.500    0.000    0.000    0.000 
#    0.000    0.000    0.000    0.000    0.000    0.000 
#
# Total GULP energy -178296.781968 kJ/mol
# GULP energy per Si atom -5571.774437 kJ/mol
# Density = 2.243294 g / cm^3
# Si number density = 22.484111 Si / 1000 Ang^3
#
#
#
# Elastic Constant Matrix: (Units=GPa)
#
#
# Indices 1 2 3 4 5 6 
#
# 1 90.3349 41.1474 17.5980 0.0000 17.1092 0.0000
# 2 41.1474 93.0071 32.8204 0.0000 5.4298 0.0000
# 3 17.5980 32.8204 53.2717 0.0000 7.6822 0.0000
# 4 0.0000 0.0000 0.0000 10.2587 0.0000 -1.3123
# 5 17.1092 5.4298 7.6822 0.0000 28.4055 0.0000
# 6 0.0000 0.0000 0.0000 -1.3123 0.0000 31.1330
#
#
#
# Elastic Compliance Matrix: (Units=1/GPa)
#
#
# Indices 1 2 3 4 5 6 
#
# 1 0.015521 -0.006384 -0.000023 0.000000 -0.008122 0.000000
# 2 -0.006384 0.016368 -0.008407 0.000000 0.002990 0.000000
# 3 -0.000023 -0.008407 0.024688 0.000000 -0.005056 0.000000
# 4 0.000000 0.000000 0.000000 0.098007 0.000000 0.004131
# 5 -0.008122 0.002990 -0.005056 0.000000 0.040892 0.000000
# 6 0.000000 0.000000 0.000000 0.004131 0.000000 0.032294
#
#
# Mechanical properties :
#
#
# Convention : Reuss Voigt Hill
#
# Bulk Modulus (GPa) = 37.10644 46.63834 41.87239
# Shear Modulus (GPa) = 18.77018 23.62931 21.19974
#
# Velocity S-wave (km/s) = 2.89246 3.24533 3.07396
# Velocity P-wave (km/s) = 5.26254 5.90175 5.59129
#
# Compressibility (1/GPa) = 0.02694950
#
# Stress axis : x y z
#
# Youngs Moduli (GPa) = 64.43023 61.09349 40.50631
#
# Poissons Ratio (x) = 0.39005 0.00091
# Poissons Ratio (y) = 0.41135 0.34052
# Poissons Ratio (z) = 0.00145 0.51359
#
# Static dielectric constant tensor:
#      x y z
#    x 1.889310 0.000000 -0.003320 
#    y 0.000000 1.836610 0.000000 
#    z -0.003320 0.000000 1.879770 
# 
# From -- ./inp_files/26629.got.cif
#   From: 2010.05.17/outbox.cif.g08.bks.cpg/sg14_14_cif.got.tgz:26629.got - 2010.06.03 17:49:19.
