data_PCOD9239565
_publ_section_title
;
Structure prediction by ZEFSAII (Michael W. Deem and Ramdas Pophale) SiO2 
 PCOD9239565
Probable space group: P 21/C
;
_chemical_formula_sum "Si O2"
_cell_formula_units_Z 32
_cell_length_a 17.095776
_cell_length_b 13.309214
_cell_length_c 12.973283
_cell_angle_alpha 90.000000
_cell_angle_beta 144.775474
_cell_angle_gamma 90.000000
_cell_volume 1702.561683
_symmetry_space_group_name_H-M "P 21/C"
_symmetry_group_IT_number 14
_symmetry_cell_setting 'monoclinic'
loop_
_space_group_symop_operation_xyz
x,y,z
-x,1/2+y,1/2-z
-x,-y,-z
x,1/2-y,1/2+z
loop_
_atom_site_type_symbol
_atom_site_label
_atom_site_fract_x
_atom_site_fract_y
_atom_site_fract_z
Si Si1 0.084381 0.736938 0.698749
Si Si2 0.513975 0.575236 0.774781
Si Si3 0.099514 0.055972 0.027054
Si Si4 0.679777 0.371201 0.942475
Si Si5 0.202705 0.898746 0.985936
Si Si6 0.508118 0.235396 0.892993
Si Si7 0.600939 0.906952 0.586784
Si Si8 0.753960 0.280242 0.814330
O O1 0.117223 0.783253 0.622314
O O2 0.949739 0.669709 0.550807
O O3 0.196724 0.650533 0.846708
O O4 0.117573 0.825750 0.816933
O O5 0.594302 0.470972 0.864426
O O6 0.349060 0.566002 0.598136
O O7 0.558626 0.635379 0.721402
O O8 0.561338 0.629579 0.930586
O O9 0.245840 0.058417 0.238326
O O10 0.118525 0.990839 0.942985
O O11 0.000000 0.000000 0.000000
O O12 0.578310 0.281758 0.866254
O O13 0.737734 0.357617 0.890359
O O14 0.240198 0.827369 0.123049
O O15 0.420837 0.320654 0.852517
O O16 0.625896 0.211076 0.101300
O O17 0.500000 0.000000 0.500000
#
# Coordination Sequence:
#
# PCOD9239565 Si02
#       8
#     4   4   4   4   4   4   4   4
#     4  10  22  40  59  89 125 164 208 252 310 377
#     4  12  21  35  63  93 125 161 203 259 317 370
#     4  12  23  38  67  93 116 170 217 249 310 374
#     4  10  20  34  58  90 120 159 208 252 303 372
#     4  11  20  38  64  90 123 164 210 259 309 371
#     4  11  19  35  57  90 124 158 195 252 318 359
#     4  12  22  39  64  91 129 155 209 271 305 365
#     4  10  17  36  61  85 121 160 201 245 310 375
#
# _framework density 18.795207000000001
#
# number of rings (size 3 to 8) (size 9 to 14) (size 15 to 20)
#    0.000    1.000    8.750    0.750    0.000    0.500 
#    4.500    0.000    0.000    3.000    0.000    0.000 
#    0.000    0.000    0.000    0.000    0.000    0.000 
#
# Total GULP energy -178370.942729 kJ/mol
# GULP energy per Si atom -5574.091960 kJ/mol
# Density = 1.875243 g / cm^3
# Si number density = 18.795207 Si / 1000 Ang^3
#
#
#
# Elastic Constant Matrix: (Units=GPa)
#
#
# Indices 1 2 3 4 5 6 
#
# 1 96.7992 34.6787 31.8230 0.0000 -6.8596 0.0000
# 2 34.6787 33.3568 15.5017 0.0000 1.1128 0.0000
# 3 31.8230 15.5017 69.8783 0.0000 4.9805 0.0000
# 4 0.0000 0.0000 0.0000 30.1261 0.0000 -1.4196
# 5 -6.8596 1.1128 4.9805 0.0000 34.2697 0.0000
# 6 0.0000 0.0000 0.0000 -1.4196 0.0000 37.9536
#
#
#
# Elastic Compliance Matrix: (Units=1/GPa)
#
#
# Indices 1 2 3 4 5 6 
#
# 1 0.018399 -0.016987 -0.004964 0.000000 0.004956 0.000000
# 2 -0.016987 0.049108 -0.002831 0.000000 -0.004583 0.000000
# 3 -0.004964 -0.002831 0.017444 0.000000 -0.003437 0.000000
# 4 0.000000 0.000000 0.000000 0.033252 0.000000 0.001244
# 5 0.004956 -0.004583 -0.003437 0.000000 0.030821 0.000000
# 6 0.000000 0.000000 0.000000 0.001244 0.000000 0.026394
#
#
# Mechanical properties :
#
#
# Convention : Reuss Voigt Hill
#
# Bulk Modulus (GPa) = 28.25922 40.44902 34.35412
# Shear Modulus (GPa) = 21.11671 28.33862 24.72766
#
# Velocity S-wave (km/s) = 3.35552 3.88720 3.63111
# Velocity P-wave (km/s) = 5.48459 6.45869 5.99147
#
# Compressibility (1/GPa) = 0.03538668
#
# Stress axis : x y z
#
# Youngs Moduli (GPa) = 54.34936 20.36342 57.32523
#
# Poissons Ratio (x) = 0.34591 0.28457
# Poissons Ratio (y) = 0.92323 0.16230
# Poissons Ratio (z) = 0.26980 0.05765
#
# Static dielectric constant tensor:
#      x y z
#    x 1.702340 0.000000 0.007500 
#    y 0.000000 1.704200 0.000000 
#    z 0.007500 0.000000 1.651580 
# 
# From -- ./inp_files/32775.got.cif
#   From: 2010.05.17/outbox.cif.g08.bks.cpg/sg14_17_cif.got.tgz:32775.got - 2010.06.03 17:49:19.
