data_PCOD9239792
_publ_section_title
;
Structure prediction by ZEFSAII (Michael W. Deem and Ramdas Pophale) SiO2 
 PCOD9239792
Probable space group: P 21/C
;
_chemical_formula_sum "Si O2"
_cell_formula_units_Z 28
_cell_length_a 12.775406
_cell_length_b 5.258755
_cell_length_c 27.150036
_cell_angle_alpha 90.000000
_cell_angle_beta 69.000621
_cell_angle_gamma 90.000000
_cell_volume 1702.870426
_symmetry_space_group_name_H-M "P 21/C"
_symmetry_group_IT_number 14
_symmetry_cell_setting 'monoclinic'
loop_
_space_group_symop_operation_xyz
x,y,z
-x,1/2+y,1/2-z
-x,-y,-z
x,1/2-y,1/2+z
loop_
_atom_site_type_symbol
_atom_site_label
_atom_site_fract_x
_atom_site_fract_y
_atom_site_fract_z
Si Si1 0.600429 0.163063 0.783411
Si Si2 0.762744 0.238564 0.081280
Si Si3 0.848787 0.339215 0.284822
Si Si4 0.542197 0.334635 0.178828
Si Si5 0.064886 0.158410 0.678768
Si Si6 0.870885 0.730830 0.031088
Si Si7 0.979842 0.387437 0.084467
O O1 0.726167 0.164599 0.782047
O O2 0.526642 0.403177 0.814121
O O3 0.595843 0.169034 0.724641
O O4 0.541534 0.902451 0.809456
O O5 0.641119 0.290792 0.123202
O O6 0.799540 0.469698 0.039431
O O7 0.856422 0.262998 0.108867
O O8 0.789686 0.966965 0.053197
O O9 0.873426 0.583490 0.315010
O O10 0.943935 0.344202 0.226357
O O11 0.868189 0.082619 0.312026
O O12 0.043561 0.125654 0.624548
O O13 0.949264 0.663502 0.065573
O O14 0.950793 0.751475 0.970573
#
# Coordination Sequence:
#
# PCOD9239792 Si02
#       7
#     4   4   4   4   4   4   4
#     4  10  20  35  49  74 103 130 173 216 238 308
#     4  10  18  32  48  78 104 130 159 206 258 308
#     4  10  21  36  48  77 103 137 172 206 237 306
#     4  10  20  32  54  74  98 137 168 203 271 289
#     4  10  21  33  54  73 104 139 171 196 254 302
#     4   9  20  30  51  76 112 125 165 207 263 301
#     4   9  20  32  52  77 109 131 163 209 256 306
#
# _framework density 16.442826
#
# number of rings (size 3 to 8) (size 9 to 14) (size 15 to 20)
#    0.857    1.429    0.000    3.000    2.000    0.000 
#    2.571    0.000    0.000    0.000    0.000   20.000 
#    0.000    0.000    0.000    0.000    0.000    0.000 
#
# Total GULP energy -155933.829128 kJ/mol
# GULP energy per Si atom -5569.065326 kJ/mol
# Density = 1.640540 g / cm^3
# Si number density = 16.442826 Si / 1000 Ang^3
#
#
#
# Elastic Constant Matrix: (Units=GPa)
#
#
# Indices 1 2 3 4 5 6 
#
# 1 93.8964 10.8643 21.6633 0.0000 1.5199 0.0000
# 2 10.8643 86.3989 7.8702 0.0000 1.4550 0.0000
# 3 21.6633 7.8702 37.2313 0.0000 2.3914 0.0000
# 4 0.0000 0.0000 0.0000 10.0644 0.0000 -2.2861
# 5 1.5199 1.4550 2.3914 0.0000 23.0217 0.0000
# 6 0.0000 0.0000 0.0000 -2.2861 0.0000 13.0608
#
#
#
# Elastic Compliance Matrix: (Units=1/GPa)
#
#
# Indices 1 2 3 4 5 6 
#
# 1 0.012372 -0.000917 -0.007003 0.000000 -0.000031 0.000000
# 2 -0.000917 0.011875 -0.001945 0.000000 -0.000488 0.000000
# 3 -0.007003 -0.001945 0.031518 0.000000 -0.002689 0.000000
# 4 0.000000 0.000000 0.000000 0.103474 0.000000 0.018112
# 5 -0.000031 -0.000488 -0.002689 0.000000 0.043750 0.000000
# 6 0.000000 0.000000 0.000000 0.018112 0.000000 0.079735
#
#
# Mechanical properties :
#
#
# Convention : Reuss Voigt Hill
#
# Bulk Modulus (GPa) = 27.75145 33.14690 30.44918
# Shear Modulus (GPa) = 15.89996 21.03796 18.46896
#
# Velocity S-wave (km/s) = 3.11301 3.58084 3.35509
# Velocity P-wave (km/s) = 5.46217 6.10730 5.79372
#
# Compressibility (1/GPa) = 0.03603415
#
# Stress axis : x y z
#
# Youngs Moduli (GPa) = 80.82520 84.21069 31.72821
#
# Poissons Ratio (x) = 0.07725 0.22219
# Poissons Ratio (y) = 0.07414 0.06171
# Poissons Ratio (z) = 0.56602 0.16380
#
# Static dielectric constant tensor:
#      x y z
#    x 1.535780 0.000000 -0.007410 
#    y 0.000000 1.579980 0.000000 
#    z -0.007410 0.000000 1.530930 
# 
# From -- ./inp_files/76779.got.cif
#   From: 2010.05.17/outbox.cif.g08.bks.cpg/sg14_39_cif.got.tgz:76779.got - 2010.06.03 17:49:19.
