data_PCOD9239975
_publ_section_title
;
Structure prediction by ZEFSAII (Michael W. Deem and Ramdas Pophale) SiO2 
 PCOD9239975
Probable space group: P 21/C
;
_chemical_formula_sum "Si O2"
_cell_formula_units_Z 32
_cell_length_a 14.595588
_cell_length_b 16.969702
_cell_length_c 21.635423
_cell_angle_alpha 90.000000
_cell_angle_beta 17.441666
_cell_angle_gamma 90.000000
_cell_volume 1606.194545
_symmetry_space_group_name_H-M "P 21/C"
_symmetry_group_IT_number 14
_symmetry_cell_setting 'monoclinic'
loop_
_space_group_symop_operation_xyz
x,y,z
-x,1/2+y,1/2-z
-x,-y,-z
x,1/2-y,1/2+z
loop_
_atom_site_type_symbol
_atom_site_label
_atom_site_fract_x
_atom_site_fract_y
_atom_site_fract_z
Si Si1 0.066828 0.306522 0.455832
Si Si2 0.328815 0.029986 0.733510
Si Si3 0.870709 0.593873 0.210842
Si Si4 0.263071 0.750174 0.448362
Si Si5 0.402488 0.992993 0.309260
Si Si6 0.069014 0.393620 0.570324
Si Si7 0.676785 0.097484 0.025567
Si Si8 0.979381 0.451447 0.753866
O O1 0.168841 0.389180 0.357880
O O2 0.380109 0.258383 0.264463
O O3 0.959597 0.326488 0.594188
O O4 0.823946 0.266922 0.566847
O O5 0.628318 0.045836 0.500382
O O6 0.443743 0.989656 0.723228
O O7 0.109890 0.971528 0.838001
O O8 0.830710 0.562128 0.305798
O O9 0.563694 0.616000 0.373560
O O10 0.090604 0.669540 0.076064
O O11 0.057105 0.530316 0.048813
O O12 0.156634 0.674732 0.556406
O O13 0.483879 0.059241 0.206969
O O14 0.576931 0.914628 0.171827
O O15 0.022990 0.386203 0.672569
O O16 0.904631 0.032069 0.851924
#
# Coordination Sequence:
#
# PCOD9239975 Si02
#       8
#     4   4   4   4   4   4   4   4
#     4  11  21  38  63  85 123 151 204 247 307 360
#     4  10  18  35  61  90 115 153 199 255 296 358
#     4  11  21  39  61  85 125 163 200 247 306 362
#     4  12  22  38  63  89 119 160 199 249 308 361
#     4   9  18  34  58  87 114 149 204 248 295 340
#     4  10  18  33  59  87 114 150 197 256 296 349
#     4  11  22  37  62  92 119 159 207 250 298 365
#     4  10  21  36  60  88 121 157 205 248 302 356
#
# _framework density 19.922865999999999
#
# number of rings (size 3 to 8) (size 9 to 14) (size 15 to 20)
#    0.000    1.500    5.000    4.875    0.000    0.000 
#    0.000    0.000   13.750    0.000    0.000    0.000 
#    0.000    0.000    0.000    0.000    0.000    0.000 
#
# Total GULP energy -178586.049970 kJ/mol
# GULP energy per Si atom -5580.814062 kJ/mol
# Density = 1.987752 g / cm^3
# Si number density = 19.922866 Si / 1000 Ang^3
#
#
#
# Elastic Constant Matrix: (Units=GPa)
#
#
# Indices 1 2 3 4 5 6 
#
# 1 81.9467 11.9151 34.6074 0.0000 8.9687 0.0000
# 2 11.9151 58.2697 1.6563 0.0000 8.5380 0.0000
# 3 34.6074 1.6563 52.7520 0.0000 17.0452 0.0000
# 4 0.0000 0.0000 0.0000 19.6013 0.0000 -0.8547
# 5 8.9687 8.5380 17.0452 0.0000 40.0470 0.0000
# 6 0.0000 0.0000 0.0000 -0.8547 0.0000 29.7245
#
#
#
# Elastic Compliance Matrix: (Units=1/GPa)
#
#
# Indices 1 2 3 4 5 6 
#
# 1 0.017600 -0.003541 -0.012065 0.000000 0.001948 0.000000
# 2 -0.003541 0.018455 0.003199 0.000000 -0.004503 0.000000
# 3 -0.012065 0.003199 0.030283 0.000000 -0.010869 0.000000
# 4 0.000000 0.000000 0.000000 0.051081 0.000000 0.001469
# 5 0.001948 -0.004503 -0.010869 0.000000 0.030121 0.000000
# 6 0.000000 0.000000 0.000000 0.001469 0.000000 0.033685
#
#
# Mechanical properties :
#
#
# Convention : Reuss Voigt Hill
#
# Bulk Modulus (GPa) = 24.08288 32.14733 28.11510
# Shear Modulus (GPa) = 22.73979 27.52720 25.13349
#
# Velocity S-wave (km/s) = 3.38211 3.72114 3.55567
# Velocity P-wave (km/s) = 5.23124 5.88502 5.56773
#
# Compressibility (1/GPa) = 0.04152327
#
# Stress axis : x y z
#
# Youngs Moduli (GPa) = 56.81904 54.18702 33.02175
#
# Poissons Ratio (x) = 0.19190 0.39839
# Poissons Ratio (y) = 0.20122 -0.10563
# Poissons Ratio (z) = 0.68549 -0.17333
#
# Static dielectric constant tensor:
#      x y z
#    x 1.734860 0.000000 -0.005510 
#    y 0.000000 1.748170 0.000000 
#    z -0.005510 0.000000 1.723400 
# 
# From -- ./inp_files/68799.got.cif
#   From: 2010.05.17/outbox.cif.g08.bks.cpg/sg14_35_cif.got.tgz:68799.got - 2010.06.03 17:49:19.
