data_PCOD9239636
_publ_section_title
;
Structure prediction by ZEFSAII (Michael W. Deem and Ramdas Pophale) SiO2 
 PCOD9239636
Probable space group: P 21/C
;
_chemical_formula_sum "Si O2"
_cell_formula_units_Z 32
_cell_length_a 5.566007
_cell_length_b 14.771234
_cell_length_c 16.511259
_cell_angle_alpha 90.000000
_cell_angle_beta 64.933927
_cell_angle_gamma 90.000000
_cell_volume 1229.652898
_symmetry_space_group_name_H-M "P 21/C"
_symmetry_group_IT_number 14
_symmetry_cell_setting 'monoclinic'
loop_
_space_group_symop_operation_xyz
x,y,z
-x,1/2+y,1/2-z
-x,-y,-z
x,1/2-y,1/2+z
loop_
_atom_site_type_symbol
_atom_site_label
_atom_site_fract_x
_atom_site_fract_y
_atom_site_fract_z
Si Si1 0.358540 0.824085 0.676598
Si Si2 0.159209 0.167884 0.310561
Si Si3 0.609092 0.542528 0.841963
Si Si4 0.437119 0.314993 0.030935
Si Si5 0.565377 0.038405 0.098319
Si Si6 0.033121 0.738529 0.989152
Si Si7 0.893368 0.918631 0.938799
Si Si8 0.791800 0.453638 0.236626
O O1 0.546874 0.793706 0.722149
O O2 0.470212 0.793205 0.573644
O O3 0.054939 0.794294 0.721118
O O4 0.383473 0.933585 0.664466
O O5 0.176348 0.061276 0.289960
O O6 0.042573 0.184114 0.418175
O O7 0.533330 0.583304 0.940006
O O8 0.387485 0.579457 0.811963
O O9 0.911487 0.575489 0.783938
O O10 0.648877 0.261571 0.055747
O O11 0.121871 0.300796 0.066191
O O12 0.324775 0.101125 0.099670
O O13 0.403193 0.954579 0.158770
O O14 0.797369 0.067013 0.129251
O O15 0.754006 0.005770 0.998590
O O16 0.921543 0.840255 0.001407
#
# Coordination Sequence:
#
# PCOD9239636 Si02
#       8
#     4   4   4   4   4   4   4   4
#     4   8  15  26  42  70 104 141 185 214 240 291
#     4   8  16  28  47  74 105 142 174 206 265 332
#     4  10  18  29  48  76 111 149 176 215 261 318
#     4  10  18  29  48  76 110 148 180 213 257 319
#     4  10  21  38  61  85 100 131 188 247 282 312
#     4  10  19  33  53  76 108 144 179 224 267 329
#     4  10  21  38  61  82 100 131 188 244 284 309
#     4  10  19  33  53  79 112 142 178 225 271 326
#
# _framework density 26.023603999999999
#
# number of rings (size 3 to 8) (size 9 to 14) (size 15 to 20)
#    0.000    2.500    0.000    2.625    0.000    0.000 
#    0.000    7.500    8.250    0.000    3.250    0.000 
#    0.000    0.000    0.000    0.000    0.000    0.000 
#
# Total GULP energy -178225.903003 kJ/mol
# GULP energy per Si atom -5569.559469 kJ/mol
# Density = 2.596437 g / cm^3
# Si number density = 26.023604 Si / 1000 Ang^3
#
#
#
# Elastic Constant Matrix: (Units=GPa)
#
#
# Indices 1 2 3 4 5 6 
#
# 1 314.1123 17.0833 16.4859 0.0000 -31.8796 0.0000
# 2 17.0833 51.5057 15.0473 0.0000 4.3828 0.0000
# 3 16.4859 15.0473 55.8370 0.0000 -6.9441 0.0000
# 4 0.0000 0.0000 0.0000 14.9629 0.0000 3.1334
# 5 -31.8796 4.3828 -6.9441 0.0000 22.0218 0.0000
# 6 0.0000 0.0000 0.0000 3.1334 0.0000 28.4819
#
#
#
# Elastic Compliance Matrix: (Units=1/GPa)
#
#
# Indices 1 2 3 4 5 6 
#
# 1 0.003890 -0.001830 0.000094 0.000000 0.006025 0.000000
# 2 -0.001830 0.022790 -0.006760 0.000000 -0.009317 0.000000
# 3 0.000094 -0.006760 0.020699 0.000000 0.008009 0.000000
# 4 0.000000 0.000000 0.000000 0.068408 0.000000 -0.007526
# 5 0.006025 -0.009317 0.008009 0.000000 0.058511 0.000000
# 6 0.000000 0.000000 0.000000 -0.007526 0.000000 0.035938
#
#
# Mechanical properties :
#
#
# Convention : Reuss Voigt Hill
#
# Bulk Modulus (GPa) = 32.90912 57.63201 45.27057
# Shear Modulus (GPa) = 21.06533 37.94920 29.50727
#
# Velocity S-wave (km/s) = 2.84821 3.82286 3.37094
# Velocity P-wave (km/s) = 4.84662 6.45599 5.70831
#
# Compressibility (1/GPa) = 0.03038671
#
# Stress axis : x y z
#
# Youngs Moduli (GPa) = 257.09394 43.87871 48.31102
#
# Poissons Ratio (x) = 0.08031 -0.00454
# Poissons Ratio (y) = 0.47055 0.32658
# Poissons Ratio (z) = -0.02418 0.29662
#
# Static dielectric constant tensor:
#      x y z
#    x 2.207310 0.000000 -0.014140 
#    y 0.000000 2.062370 0.000000 
#    z -0.014140 0.000000 2.054050 
# 
# From -- ./inp_files/63859.got.cif
#   From: 2010.05.17/outbox.cif.g08.bks.cpg/sg14_32_cif.got.tgz:63859.got - 2010.06.03 17:49:19.
