data_PCOD9239727
_publ_section_title
;
Structure prediction by ZEFSAII (Michael W. Deem and Ramdas Pophale) SiO2 
 PCOD9239727
Probable space group: P 21/C
;
_chemical_formula_sum "Si O2"
_cell_formula_units_Z 28
_cell_length_a 16.570540
_cell_length_b 17.973704
_cell_length_c 6.995418
_cell_angle_alpha 90.000000
_cell_angle_beta 40.185047
_cell_angle_gamma 90.000000
_cell_volume 1344.378435
_symmetry_space_group_name_H-M "P 21/C"
_symmetry_group_IT_number 14
_symmetry_cell_setting 'monoclinic'
loop_
_space_group_symop_operation_xyz
x,y,z
-x,1/2+y,1/2-z
-x,-y,-z
x,1/2-y,1/2+z
loop_
_atom_site_type_symbol
_atom_site_label
_atom_site_fract_x
_atom_site_fract_y
_atom_site_fract_z
Si Si1 0.899102 0.066146 0.189533
Si Si2 0.103678 0.151386 0.687536
Si Si3 0.402872 0.096714 0.532347
Si Si4 0.154846 0.177628 0.038406
Si Si5 0.694655 0.534305 0.164518
Si Si6 0.061357 0.919471 0.438868
Si Si7 0.658509 0.450246 0.619830
O O1 0.900830 0.090335 0.406330
O O2 0.766667 0.027111 0.404716
O O3 0.958671 0.126081 0.938002
O O4 0.000000 0.000000 0.000000
O O5 0.134849 0.234395 0.572070
O O6 0.199721 0.089533 0.439819
O O7 0.126738 0.148845 0.875622
O O8 0.387010 0.083978 0.331967
O O9 0.546805 0.109820 0.328457
O O10 0.368405 0.017799 0.689068
O O11 0.299180 0.153653 0.802163
O O12 0.053608 0.139794 0.365212
O O13 0.642910 0.489776 0.438686
O O14 0.201440 0.920184 0.099462
O O15 0.000000 0.000000 0.500000
#
# Coordination Sequence:
#
# PCOD9239727 Si02
#       7
#     4   4   4   4   4   4   4
#     4   8  16  29  48  75 104 129 168 214 265 309
#     4   9  19  31  49  80 105 141 172 219 266 316
#     4  10  20  34  52  82 105 132 180 222 257 318
#     4  10  20  33  51  75 109 136 179 218 262 321
#     4   9  18  34  54  78 105 137 175 223 269 307
#     4  10  18  31  51  76 101 136 170 219 266 305
#     4  10  20  33  56  78 105 136 173 222 269 307
#
# _framework density 20.827469000000001
#
# number of rings (size 3 to 8) (size 9 to 14) (size 15 to 20)
#    0.000    2.571    1.429    1.286    2.000    1.143 
#    0.000    0.000    0.000   12.000    0.000    0.000 
#    0.000    0.000    0.000    0.000    0.000    0.000 
#
# Total GULP energy -155901.532515 kJ/mol
# GULP energy per Si atom -5567.911876 kJ/mol
# Density = 2.078006 g / cm^3
# Si number density = 20.827469 Si / 1000 Ang^3
#
#
#
# Elastic Constant Matrix: (Units=GPa)
#
#
# Indices 1 2 3 4 5 6 
#
# 1 57.6142 10.6396 38.4538 0.0000 -20.0909 0.0000
# 2 10.6396 87.7981 33.7850 0.0000 -23.8234 0.0000
# 3 38.4538 33.7850 88.2348 0.0000 -26.6335 0.0000
# 4 0.0000 0.0000 0.0000 33.1849 0.0000 2.2984
# 5 -20.0909 -23.8234 -26.6335 0.0000 38.2321 0.0000
# 6 0.0000 0.0000 0.0000 2.2984 0.0000 20.2405
#
#
#
# Elastic Compliance Matrix: (Units=1/GPa)
#
#
# Indices 1 2 3 4 5 6 
#
# 1 0.026624 0.003066 -0.010101 0.000000 0.008864 0.000000
# 2 0.003066 0.014906 -0.004753 0.000000 0.007588 0.000000
# 3 -0.010101 -0.004753 0.019069 0.000000 0.005014 0.000000
# 4 0.000000 0.000000 0.000000 0.030373 0.000000 -0.003449
# 5 0.008864 0.007588 0.005014 0.000000 0.039036 0.000000
# 6 0.000000 0.000000 0.000000 -0.003449 0.000000 0.049797
#
#
# Mechanical properties :
#
#
# Convention : Reuss Voigt Hill
#
# Bulk Modulus (GPa) = 27.01088 44.37822 35.69455
# Shear Modulus (GPa) = 23.17789 28.38275 25.78032
#
# Velocity S-wave (km/s) = 3.33956 3.69556 3.52206
# Velocity P-wave (km/s) = 5.27895 6.28994 5.80649
#
# Compressibility (1/GPa) = 0.03702212
#
# Stress axis : x y z
#
# Youngs Moduli (GPa) = 37.56064 67.08555 52.44098
#
# Poissons Ratio (x) = -0.20568 0.52971
# Poissons Ratio (y) = -0.11516 0.24926
# Poissons Ratio (z) = 0.37940 0.31887
#
# Static dielectric constant tensor:
#      x y z
#    x 1.929620 0.000000 0.032240 
#    y 0.000000 1.737890 0.000000 
#    z 0.032240 0.000000 1.843880 
# 
# From -- ./inp_files/16500.got.cif
#   From: 2010.05.17/outbox.cif.g08.bks.cpg/sg14_9_cif.got.tgz:16500.got - 2010.06.03 17:49:19.
