data_PCOD9239927
_publ_section_title
;
Structure prediction by ZEFSAII (Michael W. Deem and Ramdas Pophale) SiO2 
 PCOD9239927
Probable space group: P 21/C
;
_chemical_formula_sum "Si O2"
_cell_formula_units_Z 32
_cell_length_a 11.217453
_cell_length_b 6.670756
_cell_length_c 23.079584
_cell_angle_alpha 90.000000
_cell_angle_beta 89.209739
_cell_angle_gamma 90.000000
_cell_volume 1726.855427
_symmetry_space_group_name_H-M "P 21/C"
_symmetry_group_IT_number 14
_symmetry_cell_setting 'monoclinic'
loop_
_space_group_symop_operation_xyz
x,y,z
-x,1/2+y,1/2-z
-x,-y,-z
x,1/2-y,1/2+z
loop_
_atom_site_type_symbol
_atom_site_label
_atom_site_fract_x
_atom_site_fract_y
_atom_site_fract_z
Si Si1 0.503023 0.482448 0.640658
Si Si2 0.275755 0.006639 0.218602
Si Si3 0.843048 0.817418 0.358827
Si Si4 0.588589 0.868557 0.575451
Si Si5 0.942817 0.290073 0.801431
Si Si6 0.294171 0.668483 0.842683
Si Si7 0.376589 0.176314 0.557784
Si Si8 0.057643 0.581411 0.331662
O O1 0.401966 0.537519 0.687798
O O2 0.569422 0.677313 0.616317
O O3 0.436788 0.369584 0.587800
O O4 0.594826 0.320115 0.665557
O O5 0.233453 0.221214 0.193880
O O6 0.283170 0.974843 0.286940
O O7 0.174904 0.849020 0.199163
O O8 0.750972 0.850888 0.411109
O O9 0.948505 0.660777 0.370997
O O10 0.909633 0.015446 0.337542
O O11 0.678810 0.028503 0.602795
O O12 0.627640 0.803935 0.511126
O O13 0.462660 0.987480 0.570856
O O14 0.968923 0.350513 0.734906
O O15 0.049168 0.158296 0.827628
O O16 0.178384 0.809131 0.848189
#
# Coordination Sequence:
#
# PCOD9239927 Si02
#       8
#     4   4   4   4   4   4   4   4
#     4  10  20  36  56  83 111 148 182 226 282 333
#     4   9  21  34  50  82 114 141 181 228 272 340
#     4  10  19  35  59  79 108 143 191 235 273 319
#     4  10  20  37  60  80 111 149 185 230 286 330
#     4  10  18  33  55  76 105 146 181 224 279 327
#     4  10  23  35  50  83 119 149 179 224 285 341
#     4   9  20  38  59  84 105 141 198 239 267 329
#     4  10  20  34  50  80 110 144 187 225 272 342
#
# _framework density 18.530791000000001
#
# number of rings (size 3 to 8) (size 9 to 14) (size 15 to 20)
#    0.000    2.250    1.250    1.125    1.750    3.000 
#    2.250    0.625    0.000    1.500    0.000    0.000 
#    0.000    0.000    0.000    0.000    0.000    0.000 
#
# Total GULP energy -178546.016955 kJ/mol
# GULP energy per Si atom -5579.563030 kJ/mol
# Density = 1.848861 g / cm^3
# Si number density = 18.530791 Si / 1000 Ang^3
#
#
#
# Elastic Constant Matrix: (Units=GPa)
#
#
# Indices 1 2 3 4 5 6 
#
# 1 72.4425 16.0270 34.6951 0.0000 -15.0447 0.0000
# 2 16.0270 74.0539 11.5784 0.0000 -6.0870 0.0000
# 3 34.6951 11.5784 37.8170 0.0000 -5.7196 0.0000
# 4 0.0000 0.0000 0.0000 15.4936 0.0000 -6.3978
# 5 -15.0447 -6.0870 -5.7196 0.0000 23.4518 0.0000
# 6 0.0000 0.0000 0.0000 -6.3978 0.0000 22.7654
#
#
#
# Elastic Compliance Matrix: (Units=1/GPa)
#
#
# Indices 1 2 3 4 5 6 
#
# 1 0.027637 -0.001398 -0.023155 0.000000 0.011720 0.000000
# 2 -0.001398 0.014423 -0.002806 0.000000 0.002162 0.000000
# 3 -0.023155 -0.002806 0.047958 0.000000 -0.003886 0.000000
# 4 0.000000 0.000000 0.000000 0.073016 0.000000 0.020520
# 5 0.011720 0.002162 -0.003886 0.000000 0.049772 0.000000
# 6 0.000000 0.000000 0.000000 0.020520 0.000000 0.049693
#
#
# Mechanical properties :
#
#
# Convention : Reuss Voigt Hill
#
# Bulk Modulus (GPa) = 28.32904 34.32381 31.32643
# Shear Modulus (GPa) = 15.19834 20.47634 17.83734
#
# Velocity S-wave (km/s) = 2.86696 3.32775 3.10591
# Velocity P-wave (km/s) = 5.12641 5.77304 5.45930
#
# Compressibility (1/GPa) = 0.03529947
#
# Stress axis : x y z
#
# Youngs Moduli (GPa) = 36.18362 69.33515 20.85160
#
# Poissons Ratio (x) = 0.09691 0.48282
# Poissons Ratio (y) = 0.05057 0.05852
# Poissons Ratio (z) = 0.83783 0.19459
#
# Static dielectric constant tensor:
#      x y z
#    x 1.650250 0.000000 0.009310 
#    y 0.000000 1.656990 0.000000 
#    z 0.009310 0.000000 1.608230 
# 
# From -- ./inp_files/72755.got.cif
#   From: 2010.05.17/outbox.cif.g08.bks.cpg/sg14_37_cif.got.tgz:72755.got - 2010.06.03 17:49:19.
