data_PCOD9239929
_publ_section_title
;
Structure prediction by ZEFSAII (Michael W. Deem and Ramdas Pophale) SiO2 
 PCOD9239929
Probable space group: P 21/C
;
_chemical_formula_sum "Si O2"
_cell_formula_units_Z 28
_cell_length_a 16.909483
_cell_length_b 7.592291
_cell_length_c 11.809300
_cell_angle_alpha 90.000000
_cell_angle_beta 50.181961
_cell_angle_gamma 90.000000
_cell_volume 1164.487662
_symmetry_space_group_name_H-M "P 21/C"
_symmetry_group_IT_number 14
_symmetry_cell_setting 'monoclinic'
loop_
_space_group_symop_operation_xyz
x,y,z
-x,1/2+y,1/2-z
-x,-y,-z
x,1/2-y,1/2+z
loop_
_atom_site_type_symbol
_atom_site_label
_atom_site_fract_x
_atom_site_fract_y
_atom_site_fract_z
Si Si1 0.823024 0.012762 0.846522
Si Si2 0.572114 0.034684 0.325123
Si Si3 0.088035 0.592719 0.264216
Si Si4 0.459508 0.349195 0.702908
Si Si5 0.025065 0.605820 0.088948
Si Si6 0.644414 0.375370 0.349484
Si Si7 0.867475 0.022703 0.045795
O O1 0.876533 0.206315 0.786864
O O2 0.734374 0.028752 0.835704
O O3 0.794316 0.993808 0.004918
O O4 0.909009 0.867031 0.740904
O O5 0.505737 0.123696 0.285070
O O6 0.656251 0.177483 0.289804
O O7 0.500000 0.000000 0.500000
O O8 0.595278 0.838536 0.260505
O O9 0.154921 0.499238 0.300767
O O10 0.082628 0.514753 0.142426
O O11 0.971430 0.585708 0.419132
O O12 0.553157 0.359906 0.526136
O O13 0.385964 0.505571 0.729553
O O14 0.091861 0.775517 0.998596
O O15 0.000000 0.500000 0.000000
#
# Coordination Sequence:
#
# PCOD9239929 Si02
#       7
#     4   4   4   4   4   4   4
#     4  10  20  35  56  85 113 147 199 245 291 345
#     4  10  20  38  65  89 117 160 204 236 304 381
#     4   9  18  33  54  76 108 150 189 230 290 349
#     4  10  20  40  64  87 123 164 196 247 312 368
#     4  10  18  33  55  77 111 151 186 235 289 347
#     4  10  22  38  62  89 121 161 203 256 302 358
#     4   9  18  34  56  77 110 153 192 235 295 354
#
# _framework density 24.044908
#
# number of rings (size 3 to 8) (size 9 to 14) (size 15 to 20)
#    0.000    2.286    2.857    0.000    0.000    1.143 
#    2.571    0.000    0.000    0.000    0.000    0.000 
#    0.000    0.000    0.000    0.000    0.000    0.000 
#
# Total GULP energy -156205.984870 kJ/mol
# GULP energy per Si atom -5578.785174 kJ/mol
# Density = 2.399018 g / cm^3
# Si number density = 24.044908 Si / 1000 Ang^3
#
#
#
# Elastic Constant Matrix: (Units=GPa)
#
#
# Indices 1 2 3 4 5 6 
#
# 1 125.2160 18.8982 38.2902 0.0000 50.1159 0.0000
# 2 18.8982 80.1054 19.5103 0.0000 13.0419 0.0000
# 3 38.2902 19.5103 93.6945 0.0000 44.9284 0.0000
# 4 0.0000 0.0000 0.0000 24.8971 0.0000 9.0172
# 5 50.1159 13.0419 44.9284 0.0000 51.8347 0.0000
# 6 0.0000 0.0000 0.0000 9.0172 0.0000 31.5383
#
#
#
# Elastic Compliance Matrix: (Units=1/GPa)
#
#
# Indices 1 2 3 4 5 6 
#
# 1 0.013224 -0.001235 0.001429 0.000000 -0.013713 0.000000
# 2 -0.001235 0.013344 -0.002116 0.000000 -0.000329 0.000000
# 3 0.001429 -0.002116 0.018716 0.000000 -0.017071 0.000000
# 4 0.000000 0.000000 0.000000 0.044805 0.000000 -0.012810
# 5 -0.013713 -0.000329 -0.017071 0.000000 0.047430 0.000000
# 6 0.000000 0.000000 0.000000 -0.012810 0.000000 0.035370
#
#
# Mechanical properties :
#
#
# Convention : Reuss Voigt Hill
#
# Bulk Modulus (GPa) = 24.13215 50.26814 37.20015
# Shear Modulus (GPa) = 26.24030 36.47516 31.35773
#
# Velocity S-wave (km/s) = 3.30707 3.89904 3.61519
# Velocity P-wave (km/s) = 4.96391 6.42039 5.73854
#
# Compressibility (1/GPa) = 0.04143849
#
# Stress axis : x y z
#
# Youngs Moduli (GPa) = 75.61844 74.94056 53.43150
#
# Poissons Ratio (x) = 0.09256 -0.07633
# Poissons Ratio (y) = 0.09340 0.11306
# Poissons Ratio (z) = -0.10803 0.15858
#
# Static dielectric constant tensor:
#      x y z
#    x 1.975870 0.000000 -0.011530 
#    y 0.000000 1.932970 0.000000 
#    z -0.011530 0.000000 1.992000 
# 
# From -- ./inp_files/31522.got.cif
#   From: 2010.05.17/outbox.cif.g08.bks.cpg/sg14_16_cif.got.tgz:31522.got - 2010.06.03 17:49:19.
