data_PCOD9239340
_publ_section_title
;
Structure prediction by ZEFSAII (Michael W. Deem and Ramdas Pophale) SiO2 
 PCOD9239340
Probable space group: P 21/C
;
_chemical_formula_sum "Si O2"
_cell_formula_units_Z 28
_cell_length_a 8.887436
_cell_length_b 6.788778
_cell_length_c 22.615071
_cell_angle_alpha 90.000000
_cell_angle_beta 124.771253
_cell_angle_gamma 90.000000
_cell_volume 1120.829338
_symmetry_space_group_name_H-M "P 21/C"
_symmetry_group_IT_number 14
_symmetry_cell_setting 'monoclinic'
loop_
_space_group_symop_operation_xyz
x,y,z
-x,1/2+y,1/2-z
-x,-y,-z
x,1/2-y,1/2+z
loop_
_atom_site_type_symbol
_atom_site_label
_atom_site_fract_x
_atom_site_fract_y
_atom_site_fract_z
Si Si1 0.817131 0.711902 0.860282
Si Si2 0.099266 0.788898 0.013877
Si Si3 0.566960 0.240636 0.675332
Si Si4 0.159302 0.316481 0.350734
Si Si5 0.466204 0.580728 0.557604
Si Si6 0.086546 0.727434 0.816345
Si Si7 0.819641 0.313101 0.341750
O O1 0.612282 0.648149 0.833207
O O2 0.951302 0.643614 0.836580
O O3 0.793234 0.948133 0.838429
O O4 0.940915 0.673070 0.945785
O O5 0.268876 0.822843 0.009230
O O6 0.201598 0.736545 0.097207
O O7 0.000000 0.000000 0.000000
O O8 0.484776 0.419284 0.615523
O O9 0.694655 0.279293 0.762247
O O10 0.721616 0.140360 0.666788
O O11 0.369993 0.266079 0.395988
O O12 0.048503 0.247195 0.269292
O O13 0.149396 0.554026 0.347492
O O14 0.033918 0.268619 0.377931
O O15 0.500000 0.500000 0.500000
#
# Coordination Sequence:
#
# PCOD9239340 Si02
#       7
#     4   4   4   4   4   4   4
#     4  10  19  32  52  75 107 135 170 220 270 312
#     4  10  17  30  47  74 106 128 172 225 267 307
#     4  10  19  30  50  74 103 137 169 215 276 313
#     4   9  19  32  51  75 105 134 172 221 270 314
#     4  11  19  30  51  77 104 134 178 226 276 312
#     4   9  19  33  48  79 105 134 175 218 262 324
#     4   9  18  32  46  75 106 131 173 221 266 320
#
# _framework density 24.981501999999999
#
# number of rings (size 3 to 8) (size 9 to 14) (size 15 to 20)
#    0.000    2.286    2.857    3.429    2.000    0.000 
#    0.000    0.000    0.000    0.000    3.714   13.000 
#    0.000    0.000    0.000    0.000    0.000    0.000 
#
# Total GULP energy -155959.877583 kJ/mol
# GULP energy per Si atom -5569.995628 kJ/mol
# Density = 2.492464 g / cm^3
# Si number density = 24.981502 Si / 1000 Ang^3
#
#
#
# Elastic Constant Matrix: (Units=GPa)
#
#
# Indices 1 2 3 4 5 6 
#
# 1 213.2981 8.7119 31.2700 0.0000 24.5798 0.0000
# 2 8.7119 84.2493 2.6260 0.0000 5.3957 0.0000
# 3 31.2700 2.6260 117.9621 0.0000 6.0584 0.0000
# 4 0.0000 0.0000 0.0000 19.3199 0.0000 8.3766
# 5 24.5798 5.3957 6.0584 0.0000 63.6433 0.0000
# 6 0.0000 0.0000 0.0000 8.3766 0.0000 -6.3128
#
#
#
# Elastic Compliance Matrix: (Units=1/GPa)
#
#
# Indices 1 2 3 4 5 6 
#
# 1 0.005096 -0.000372 -0.001249 0.000000 -0.001818 0.000000
# 2 -0.000372 0.011967 -0.000124 0.000000 -0.000859 0.000000
# 3 -0.001249 -0.000124 0.008829 0.000000 -0.000347 0.000000
# 4 0.000000 0.000000 0.000000 0.032857 0.000000 0.043599
# 5 -0.001818 -0.000859 -0.000347 0.000000 0.016521 0.000000
# 6 0.000000 0.000000 0.000000 0.043599 0.000000 -0.100557
#
#
# Mechanical properties :
#
#
# Convention : Reuss Voigt Hill
#
# Bulk Modulus (GPa) = 44.63744 55.63614 50.13679
# Shear Modulus (GPa) = -348.91447 40.19018 -154.36215
#
# Velocity S-wave (km/s) = -11.83099 4.01533 -7.86923
# Velocity P-wave (km/s) = 12.98933 6.61940 7.90273
#
# Compressibility (1/GPa) = 0.02240272
#
# Stress axis : x y z
#
# Youngs Moduli (GPa) = 196.22970 83.56415 113.26232
#
# Poissons Ratio (x) = 0.03105 0.14149
# Poissons Ratio (y) = 0.07292 0.01402
# Poissons Ratio (z) = 0.24514 0.01034
#
# Static dielectric constant tensor:
#      x y z
#    x 2.010700 0.000000 -0.076370 
#    y 0.000000 2.124120 0.000000 
#    z -0.076370 0.000000 1.845450 
# 
# From -- ./inp_files/60465.got.cif
#   From: 2010.05.17/outbox.cif.g08.bks.cpg/sg14_31_cif.got.tgz:60465.got - 2010.06.03 17:49:19.
