data_PCOD9239664
_publ_section_title
;
Structure prediction by ZEFSAII (Michael W. Deem and Ramdas Pophale) SiO2 
 PCOD9239664
Probable space group: P 21/C
;
_chemical_formula_sum "Si O2"
_cell_formula_units_Z 30
_cell_length_a 12.803500
_cell_length_b 5.136754
_cell_length_c 25.445871
_cell_angle_alpha 90.000000
_cell_angle_beta 107.673512
_cell_angle_gamma 90.000000
_cell_volume 1594.547368
_symmetry_space_group_name_H-M "P 21/C"
_symmetry_group_IT_number 14
_symmetry_cell_setting 'monoclinic'
loop_
_space_group_symop_operation_xyz
x,y,z
-x,1/2+y,1/2-z
-x,-y,-z
x,1/2-y,1/2+z
loop_
_atom_site_type_symbol
_atom_site_label
_atom_site_fract_x
_atom_site_fract_y
_atom_site_fract_z
Si Si1 0.371499 0.457214 0.487272
Si Si2 0.252408 0.951221 0.427479
Si Si3 0.870018 0.910565 0.697036
Si Si4 0.000000 0.500000 0.500000
Si Si5 0.975314 0.936568 0.558024
Si Si6 0.871481 0.089411 0.266324
Si Si7 0.791600 0.542785 0.864631
Si Si8 0.251840 0.531800 0.577280
O O1 0.500000 0.500000 0.500000
O O2 0.308268 0.673355 0.443030
O O3 0.336479 0.500128 0.542634
O O4 0.331613 0.173893 0.462422
O O5 0.209872 0.023051 0.363023
O O6 0.140910 0.956835 0.444556
O O7 0.854648 0.123972 0.740406
O O8 0.998324 0.929125 0.699347
O O9 0.853430 0.624726 0.718293
O O10 0.022183 0.373574 0.443675
O O11 0.132047 0.499352 0.532415
O O12 0.078109 0.054689 0.602714
O O13 0.000000 0.000000 0.500000
O O14 0.793775 0.025385 0.303617
O O15 0.739020 0.808253 0.877130
O O16 0.745830 0.309441 0.893611
#
# Coordination Sequence:
#
# PCOD9239664 Si02
#       8
#     4   4   4   2   4   4   4   4
#     4  12  26  43  60  86 121 160 205 254 292 350
#     4  12  23  39  62  84 115 166 201 242 301 348
#     4  10  21  36  55  83 120 161 201 235 287 361
#     4  10  18  30  48  78 122 142 180 232 270 350
#     4  11  19  31  49  83 120 155 187 228 277 364
#     4  10  20  36  53  85 125 157 193 241 288 358
#     4  11  21  33  56  85 120 160 182 231 301 346
#     4  11  22  34  55  86 117 152 193 233 290 366
#
# _framework density 18.814115999999999
#
# number of rings (size 3 to 8) (size 9 to 14) (size 15 to 20)
#    0.000    1.067    4.000    4.400    0.000    0.000 
#    0.000    0.000    0.000    0.000    0.000   18.667 
#    0.000    0.000    0.000    0.000    0.000    0.000 
#
# Total GULP energy -167076.521911 kJ/mol
# GULP energy per Si atom -5569.217397 kJ/mol
# Density = 1.877129 g / cm^3
# Si number density = 18.814116 Si / 1000 Ang^3
#
#
#
# Elastic Constant Matrix: (Units=GPa)
#
#
# Indices 1 2 3 4 5 6 
#
# 1 82.3967 -2.4162 16.1828 0.0000 -12.3992 0.0000
# 2 -2.4162 56.4459 -21.2585 0.0000 3.5384 0.0000
# 3 16.1828 -21.2585 39.3544 0.0000 -10.3363 0.0000
# 4 0.0000 0.0000 0.0000 17.5494 0.0000 -0.1534
# 5 -12.3992 3.5384 -10.3363 0.0000 16.6789 0.0000
# 6 0.0000 0.0000 0.0000 -0.1534 0.0000 14.5533
#
#
#
# Elastic Compliance Matrix: (Units=1/GPa)
#
#
# Indices 1 2 3 4 5 6 
#
# 1 0.014205 -0.001632 -0.004609 0.000000 0.008050 0.000000
# 2 -0.001632 0.022577 0.013485 0.000000 0.002354 0.000000
# 3 -0.004609 0.013485 0.039342 0.000000 0.018094 0.000000
# 4 0.000000 0.000000 0.000000 0.056987 0.000000 0.000601
# 5 0.008050 0.002354 0.018094 0.000000 0.076655 0.000000
# 6 0.000000 0.000000 0.000000 0.000601 0.000000 0.068719
#
#
# Mechanical properties :
#
#
# Convention : Reuss Voigt Hill
#
# Bulk Modulus (GPa) = 11.03580 18.13480 14.58530
# Shear Modulus (GPa) = 16.99516 22.13559 19.56537
#
# Velocity S-wave (km/s) = 3.00879 3.43380 3.22829
# Velocity P-wave (km/s) = 4.23661 5.03797 4.65457
#
# Compressibility (1/GPa) = 0.09061414
#
# Stress axis : x y z
#
# Youngs Moduli (GPa) = 70.39718 44.29190 25.41798
#
# Poissons Ratio (x) = 0.07230 0.11714
# Poissons Ratio (y) = 0.11491 -0.34277
# Poissons Ratio (z) = 0.32443 -0.59730
#
# Static dielectric constant tensor:
#      x y z
#    x 1.625150 0.000000 -0.031310 
#    y 0.000000 1.674070 0.000000 
#    z -0.031310 0.000000 1.673540 
# 
# From -- ./inp_files/72780.got.cif
#   From: 2010.05.17/outbox.cif.g08.bks.cpg/sg14_37_cif.got.tgz:72780.got - 2010.06.03 17:49:19.
