data_PCOD9239972
_publ_section_title
;
Structure prediction by ZEFSAII (Michael W. Deem and Ramdas Pophale) SiO2 
 PCOD9239972
Probable space group: P 21/C
;
_chemical_formula_sum "Si O2"
_cell_formula_units_Z 28
_cell_length_a 8.052489
_cell_length_b 13.793232
_cell_length_c 17.968315
_cell_angle_alpha 90.000000
_cell_angle_beta 148.058576
_cell_angle_gamma 90.000000
_cell_volume 1055.849179
_symmetry_space_group_name_H-M "P 21/C"
_symmetry_group_IT_number 14
_symmetry_cell_setting 'monoclinic'
loop_
_space_group_symop_operation_xyz
x,y,z
-x,1/2+y,1/2-z
-x,-y,-z
x,1/2-y,1/2+z
loop_
_atom_site_type_symbol
_atom_site_label
_atom_site_fract_x
_atom_site_fract_y
_atom_site_fract_z
Si Si1 0.486352 0.980449 0.840088
Si Si2 0.399172 0.627823 0.459450
Si Si3 0.184572 0.380389 0.656162
Si Si4 0.464228 0.570547 0.071843
Si Si5 0.923482 0.739112 0.189214
Si Si6 0.147233 0.116377 0.463233
Si Si7 0.787785 0.652015 0.837907
O O1 0.446573 0.950304 0.911511
O O2 0.766815 0.921109 0.907822
O O3 0.167724 0.939138 0.680597
O O4 0.471373 0.089985 0.803898
O O5 0.720731 0.664440 0.619754
O O6 0.141411 0.602517 0.424109
O O7 0.246179 0.720733 0.355295
O O8 0.443040 0.431844 0.805816
O O9 0.253218 0.266350 0.685802
O O10 0.423511 0.456237 0.038382
O O11 0.723931 0.644924 0.140141
O O12 0.129905 0.622657 0.936520
O O13 0.925775 0.719814 0.102017
O O14 0.201352 0.128282 0.570640
#
# Coordination Sequence:
#
# PCOD9239972 Si02
#       7
#     4   4   4   4   4   4   4
#     4  10  20  37  55  86 117 148 194 248 298 341
#     4  10  22  37  57  88 119 156 196 244 292 353
#     4  11  20  35  57  83 116 153 187 243 300 355
#     4  10  18  34  54  83 116 141 201 250 296 339
#     4  10  20  35  57  89 116 153 197 243 297 355
#     4  10  18  33  59  86 110 145 197 265 294 329
#     4  11  19  34  59  84 115 148 198 251 296 341
#
# _framework density 26.518937999999999
#
# number of rings (size 3 to 8) (size 9 to 14) (size 15 to 20)
#    0.000    1.714    4.286    2.143    0.000    1.143 
#    0.000    0.000    0.000    6.000    0.000    0.000 
#    0.000    0.000    0.000    0.000    0.000    0.000 
#
# Total GULP energy -156577.491051 kJ/mol
# GULP energy per Si atom -5592.053252 kJ/mol
# Density = 2.645858 g / cm^3
# Si number density = 26.518938 Si / 1000 Ang^3
#
#
#
# Elastic Constant Matrix: (Units=GPa)
#
#
# Indices 1 2 3 4 5 6 
#
# 1 91.4670 46.2158 30.1659 0.0000 -28.9359 0.0000
# 2 46.2158 85.3265 6.2398 0.0000 1.1028 0.0000
# 3 30.1659 6.2398 109.0709 0.0000 -10.9034 0.0000
# 4 0.0000 0.0000 0.0000 35.2017 0.0000 2.1576
# 5 -28.9359 1.1028 -10.9034 0.0000 49.7429 0.0000
# 6 0.0000 0.0000 0.0000 2.1576 0.0000 44.2395
#
#
#
# Elastic Compliance Matrix: (Units=1/GPa)
#
#
# Indices 1 2 3 4 5 6 
#
# 1 0.022208 -0.011877 -0.004238 0.000000 0.012253 0.000000
# 2 -0.011877 0.018129 0.001551 0.000000 -0.006971 0.000000
# 3 -0.004238 0.001551 0.010226 0.000000 -0.000258 0.000000
# 4 0.000000 0.000000 0.000000 0.028493 0.000000 -0.001390
# 5 0.012253 -0.006971 -0.000258 0.000000 0.027329 0.000000
# 6 0.000000 0.000000 0.000000 -0.001390 0.000000 0.022672
#
#
# Mechanical properties :
#
#
# Convention : Reuss Voigt Hill
#
# Bulk Modulus (GPa) = 46.65204 50.12307 48.38756
# Shear Modulus (GPa) = 30.24253 39.38634 34.81444
#
# Velocity S-wave (km/s) = 3.38066 3.85803 3.62721
# Velocity P-wave (km/s) = 5.73312 6.22798 5.98567
#
# Compressibility (1/GPa) = 0.02143529
#
# Stress axis : x y z
#
# Youngs Moduli (GPa) = 45.02898 55.15907 97.79125
#
# Poissons Ratio (x) = 0.65513 0.41441
# Poissons Ratio (y) = 0.53481 -0.15166
# Poissons Ratio (z) = 0.19082 -0.08554
#
# Static dielectric constant tensor:
#      x y z
#    x 2.195680 0.000000 -0.058780 
#    y 0.000000 2.115750 0.000000 
#    z -0.058780 0.000000 2.067430 
# 
# From -- ./inp_files/24889.got.cif
#   From: 2010.05.17/outbox.cif.g08.bks.cpg/sg14_13_cif.got.tgz:24889.got - 2010.06.03 17:49:19.
