data_PCOD9239301
_publ_section_title
;
Structure prediction by ZEFSAII (Michael W. Deem and Ramdas Pophale) SiO2 
 PCOD9239301
Probable space group: P 21/C
;
_chemical_formula_sum "Si O2"
_cell_formula_units_Z 20
_cell_length_a 6.811972
_cell_length_b 11.795248
_cell_length_c 11.399142
_cell_angle_alpha 90.000000
_cell_angle_beta 118.885638
_cell_angle_gamma 90.000000
_cell_volume 801.956340
_symmetry_space_group_name_H-M "P 21/C"
_symmetry_group_IT_number 14
_symmetry_cell_setting 'monoclinic'
loop_
_space_group_symop_operation_xyz
x,y,z
-x,1/2+y,1/2-z
-x,-y,-z
x,1/2-y,1/2+z
loop_
_atom_site_type_symbol
_atom_site_label
_atom_site_fract_x
_atom_site_fract_y
_atom_site_fract_z
Si Si1 0.486865 0.519480 0.754038
Si Si2 0.764897 0.364508 0.983557
Si Si3 0.665544 0.376632 0.524563
Si Si4 0.636527 0.808758 0.473891
Si Si5 0.935814 0.958409 0.702058
O O1 0.426588 0.544393 0.603634
O O2 0.592648 0.637830 0.834789
O O3 0.257332 0.487247 0.756801
O O4 0.670925 0.423553 0.839875
O O5 0.796108 0.229838 0.997058
O O6 0.544378 0.376989 0.001266
O O7 0.939288 0.438162 0.109193
O O8 0.457128 0.316085 0.532174
O O9 0.846465 0.433453 0.659785
O O10 0.865943 0.848868 0.600821
#
# Coordination Sequence:
#
# PCOD9239301 Si02
#       5
#     4   4   4   4   4
#     4   9  15  31  52  72  93 118 165 195 230 284
#     4   7  16  31  46  70  95 122 151 199 238 265
#     4  10  17  27  54  74  92 124 162 193 233 280
#     4   7  16  31  46  70  95 122 151 199 238 265
#     4   9  15  31  52  72  93 118 165 195 230 284
#
# _framework density 24.939014
#
# number of rings (size 3 to 8) (size 9 to 14) (size 15 to 20)
#    1.200    2.400    0.000    3.000    0.000    0.000 
#    0.000    8.000    0.000    7.200    0.000    0.000 
#    0.000    0.000    0.000    0.000    0.000    0.000 
#
# Total GULP energy -111560.291281 kJ/mol
# GULP energy per Si atom -5578.014564 kJ/mol
# Density = 2.488225 g / cm^3
# Si number density = 24.939014 Si / 1000 Ang^3
#
#
#
# Elastic Constant Matrix: (Units=GPa)
#
#
# Indices 1 2 3 4 5 6 
#
# 1 80.6523 37.6659 53.8957 0.0000 14.7177 0.0000
# 2 37.6659 160.5288 106.2969 0.0000 13.4187 0.0000
# 3 53.8957 106.2969 277.1656 0.0000 19.5744 0.0000
# 4 0.0000 0.0000 0.0000 18.2196 0.0000 -0.8992
# 5 14.7177 13.4187 19.5744 0.0000 27.4214 0.0000
# 6 0.0000 0.0000 0.0000 -0.8992 0.0000 32.1046
#
#
#
# Elastic Compliance Matrix: (Units=1/GPa)
#
#
# Indices 1 2 3 4 5 6 
#
# 1 0.015669 -0.001921 -0.001877 0.000000 -0.006130 0.000000
# 2 -0.001921 0.008680 -0.002873 0.000000 -0.001166 0.000000
# 3 -0.001877 -0.002873 0.005165 0.000000 -0.001273 0.000000
# 4 0.000000 0.000000 0.000000 0.054962 0.000000 0.001539
# 5 -0.006130 -0.001166 -0.001273 0.000000 0.041237 0.000000
# 6 0.000000 0.000000 0.000000 0.001539 0.000000 0.031191
#
#
# Mechanical properties :
#
#
# Convention : Reuss Voigt Hill
#
# Bulk Modulus (GPa) = 61.83834 101.56263 81.70048
# Shear Modulus (GPa) = 28.46771 36.91500 32.69135
#
# Velocity S-wave (km/s) = 3.38226 3.85152 3.62450
# Velocity P-wave (km/s) = 6.33266 7.78407 7.09558
#
# Compressibility (1/GPa) = 0.01617120
#
# Stress axis : x y z
#
# Youngs Moduli (GPa) = 63.81973 115.20687 193.61994
#
# Poissons Ratio (x) = 0.22133 0.36347
# Poissons Ratio (y) = 0.12260 0.55628
# Poissons Ratio (z) = 0.11980 0.33099
#
# Static dielectric constant tensor:
#      x y z
#    x 2.055020 0.000000 -0.028800 
#    y 0.000000 2.004380 0.000000 
#    z -0.028800 0.000000 1.914220 
# 
# From -- ./inp_files/24670.got.cif
#   From: 2010.05.17/outbox.cif.g08.bks.cpg/sg14_13_cif.got.tgz:24670.got - 2010.06.03 17:49:19.
