data_PCOD9239336
_publ_section_title
;
Structure prediction by ZEFSAII (Michael W. Deem and Ramdas Pophale) SiO2 
 PCOD9239336
Probable space group: P 21/C
;
_chemical_formula_sum "Si O2"
_cell_formula_units_Z 32
_cell_length_a 7.592036
_cell_length_b 15.691542
_cell_length_c 13.451205
_cell_angle_alpha 90.000000
_cell_angle_beta 74.853859
_cell_angle_gamma 90.000000
_cell_volume 1546.787030
_symmetry_space_group_name_H-M "P 21/C"
_symmetry_group_IT_number 14
_symmetry_cell_setting 'monoclinic'
loop_
_space_group_symop_operation_xyz
x,y,z
-x,1/2+y,1/2-z
-x,-y,-z
x,1/2-y,1/2+z
loop_
_atom_site_type_symbol
_atom_site_label
_atom_site_fract_x
_atom_site_fract_y
_atom_site_fract_z
Si Si1 0.836131 0.710363 0.132975
Si Si2 0.528850 0.643724 0.445801
Si Si3 0.127100 0.811789 0.742283
Si Si4 0.252709 0.552515 0.378298
Si Si5 0.000289 0.898843 0.105114
Si Si6 0.459593 0.210230 0.689426
Si Si7 0.833384 0.726250 0.911040
Si Si8 0.322425 0.852571 0.175599
O O1 0.972064 0.660469 0.186349
O O2 0.928728 0.803382 0.112553
O O3 0.644241 0.727780 0.215950
O O4 0.824197 0.684762 0.020188
O O5 0.458543 0.565990 0.388627
O O6 0.438496 0.726225 0.402550
O O7 0.733795 0.679485 0.424962
O O8 0.461264 0.629049 0.566333
O O9 0.027086 0.748151 0.836094
O O10 0.215537 0.888176 0.789179
O O11 0.269789 0.747816 0.671010
O O12 0.172745 0.460263 0.366975
O O13 0.123851 0.583485 0.489418
O O14 0.140584 0.905539 0.177005
O O15 0.292363 0.174756 0.648332
O O16 0.582473 0.144985 0.731449
#
# Coordination Sequence:
#
# PCOD9239336 Si02
#       8
#     4   4   4   4   4   4   4   4
#     4  10  17  30  46  73  99 123 161 201 240 282
#     4   9  18  29  47  69 101 122 158 196 235 289
#     4  10  18  27  50  68  97 125 163 200 234 282
#     4  10  17  33  45  70 101 136 153 191 246 296
#     4   9  20  29  47  69 107 128 154 194 247 296
#     4   9  16  28  49  67  94 124 157 205 231 283
#     4   9  17  28  43  71  98 119 154 202 239 279
#     4  10  17  30  47  74  94 127 164 197 235 280
#
# _framework density 20.688044999999999
#
# number of rings (size 3 to 8) (size 9 to 14) (size 15 to 20)
#    0.750    1.750    3.750    0.000    0.000    0.000 
#    0.000    1.875    0.000    0.000    0.000   15.750 
#    0.000    0.000    0.000    0.000    0.000    0.000 
#
# Total GULP energy -178144.179441 kJ/mol
# GULP energy per Si atom -5567.005608 kJ/mol
# Density = 2.064096 g / cm^3
# Si number density = 20.688045 Si / 1000 Ang^3
#
#
#
# Elastic Constant Matrix: (Units=GPa)
#
#
# Indices 1 2 3 4 5 6 
#
# 1 56.1336 3.5932 16.2251 0.0000 19.2786 0.0000
# 2 3.5932 23.9996 8.4237 0.0000 6.3564 0.0000
# 3 16.2251 8.4237 100.7472 0.0000 31.0693 0.0000
# 4 0.0000 0.0000 0.0000 14.2496 0.0000 6.6728
# 5 19.2786 6.3564 31.0693 0.0000 30.1390 0.0000
# 6 0.0000 0.0000 0.0000 6.6728 0.0000 18.5341
#
#
#
# Elastic Compliance Matrix: (Units=1/GPa)
#
#
# Indices 1 2 3 4 5 6 
#
# 1 0.022935 0.000379 0.001207 0.000000 -0.015995 0.000000
# 2 0.000379 0.044238 -0.001184 0.000000 -0.008351 0.000000
# 3 0.001207 -0.001184 0.014648 0.000000 -0.015623 0.000000
# 4 0.000000 0.000000 0.000000 0.084408 0.000000 -0.030389
# 5 -0.015995 -0.008351 -0.015623 0.000000 0.061277 0.000000
# 6 0.000000 0.000000 0.000000 -0.030389 0.000000 0.064896
#
#
# Mechanical properties :
#
#
# Convention : Reuss Voigt Hill
#
# Bulk Modulus (GPa) = 12.10290 26.37380 19.23835
# Shear Modulus (GPa) = 15.66707 22.76043 19.21375
#
# Velocity S-wave (km/s) = 2.75490 3.32048 3.05082
# Velocity P-wave (km/s) = 3.99777 5.24183 4.66149
#
# Compressibility (1/GPa) = 0.08262481
#
# Stress axis : x y z
#
# Youngs Moduli (GPa) = 43.60202 22.60484 68.26696
#
# Poissons Ratio (x) = -0.00856 -0.08242
# Poissons Ratio (y) = -0.01651 0.08086
# Poissons Ratio (z) = -0.05264 0.02677
#
# Static dielectric constant tensor:
#      x y z
#    x 1.832160 0.000000 0.053910 
#    y 0.000000 1.722990 0.000000 
#    z 0.053910 0.000000 1.791430 
# 
# From -- ./inp_files/32867.got.cif
#   From: 2010.05.17/outbox.cif.g08.bks.cpg/sg14_17_cif.got.tgz:32867.got - 2010.06.03 17:49:19.
