data_PCOD9239766
_publ_section_title
;
Structure prediction by ZEFSAII (Michael W. Deem and Ramdas Pophale) SiO2 
 PCOD9239766
Probable space group: P 21/C
;
_chemical_formula_sum "Si O2"
_cell_formula_units_Z 32
_cell_length_a 16.744231
_cell_length_b 20.775897
_cell_length_c 4.937275
_cell_angle_alpha 90.000000
_cell_angle_beta 108.798804
_cell_angle_gamma 90.000000
_cell_volume 1625.939919
_symmetry_space_group_name_H-M "P 21/C"
_symmetry_group_IT_number 14
_symmetry_cell_setting 'monoclinic'
loop_
_space_group_symop_operation_xyz
x,y,z
-x,1/2+y,1/2-z
-x,-y,-z
x,1/2-y,1/2+z
loop_
_atom_site_type_symbol
_atom_site_label
_atom_site_fract_x
_atom_site_fract_y
_atom_site_fract_z
Si Si1 0.262204 0.120632 0.319705
Si Si2 0.380495 0.913494 0.124819
Si Si3 0.419906 0.290074 0.984365
Si Si4 0.081003 0.793017 0.870762
Si Si5 0.732839 0.295729 0.314491
Si Si6 0.507242 0.095269 0.277903
Si Si7 0.322961 0.454742 0.401056
Si Si8 0.101256 0.297304 0.709117
O O1 0.326916 0.180127 0.352042
O O2 0.261504 0.082672 0.038087
O O3 0.173699 0.149988 0.312629
O O4 0.302854 0.072645 0.584006
O O5 0.330976 0.852014 0.182822
O O6 0.434929 0.941064 0.437739
O O7 0.319620 0.969205 0.943813
O O8 0.439444 0.895043 0.935704
O O9 0.430150 0.227109 0.809154
O O10 0.482586 0.341487 0.922992
O O11 0.079790 0.771637 0.557026
O O12 0.992839 0.825685 0.850751
O O13 0.171625 0.822000 0.040470
O O14 0.722649 0.235400 0.508507
O O15 0.419186 0.064171 0.087285
O O16 0.109564 0.260513 0.434047
#
# Coordination Sequence:
#
# PCOD9239766 Si02
#       8
#     4   4   4   4   4   4   4   4
#     4  11  21  35  54  78 108 142 178 216 254 309
#     4  12  23  38  59  76 101 140 183 224 264 315
#     4  11  21  34  50  74 108 137 163 208 271 316
#     4   8  16  31  52  79 109 137 166 208 259 313
#     4  10  21  37  57  83 110 133 167 219 275 321
#     4  11  23  37  54  76 100 139 185 227 260 306
#     4  11  23  39  54  74 105 142 185 224 261 301
#     4  10  18  31  55  84 110 140 176 210 256 316
#
# _framework density 19.680924000000001
#
# number of rings (size 3 to 8) (size 9 to 14) (size 15 to 20)
#    0.000    1.500    0.000    7.500    0.000    3.000 
#    0.000    0.000    0.000    1.500    0.000    0.000 
#    0.000    0.000    0.000    0.000    0.000    0.000 
#
# Total GULP energy -178717.474824 kJ/mol
# GULP energy per Si atom -5584.921088 kJ/mol
# Density = 1.963613 g / cm^3
# Si number density = 19.680924 Si / 1000 Ang^3
#
#
#
# Elastic Constant Matrix: (Units=GPa)
#
#
# Indices 1 2 3 4 5 6 
#
# 1 112.2655 17.9485 8.2462 0.0000 4.6363 0.0000
# 2 17.9485 26.1994 -18.7223 0.0000 5.8813 0.0000
# 3 8.2462 -18.7223 59.4059 0.0000 -12.5696 0.0000
# 4 0.0000 0.0000 0.0000 14.4864 0.0000 -3.0612
# 5 4.6363 5.8813 -12.5696 0.0000 29.0612 0.0000
# 6 0.0000 0.0000 0.0000 -3.0612 0.0000 14.5801
#
#
#
# Elastic Compliance Matrix: (Units=1/GPa)
#
#
# Indices 1 2 3 4 5 6 
#
# 1 0.011164 -0.011122 -0.005455 0.000000 -0.001890 0.000000
# 2 -0.011122 0.060685 0.020304 0.000000 -0.001725 0.000000
# 3 -0.005455 0.020304 0.025652 0.000000 0.007856 0.000000
# 4 0.000000 0.000000 0.000000 0.072235 0.000000 0.015166
# 5 -0.001890 -0.001725 0.007856 0.000000 0.038459 0.000000
# 6 0.000000 0.000000 0.000000 0.015166 0.000000 0.071771
#
#
# Mechanical properties :
#
#
# Convention : Reuss Voigt Hill
#
# Bulk Modulus (GPa) = 9.52780 23.64621 16.58701
# Shear Modulus (GPa) = 16.26035 24.31878 20.28957
#
# Velocity S-wave (km/s) = 2.87749 3.51900 3.21429
# Velocity P-wave (km/s) = 3.98642 5.34341 4.71400
#
# Compressibility (1/GPa) = 0.10495597
#
# Stress axis : x y z
#
# Youngs Moduli (GPa) = 89.57081 16.47849 38.98345
#
# Poissons Ratio (x) = 0.18328 0.21265
# Poissons Ratio (y) = 0.99623 -0.79154
# Poissons Ratio (z) = 0.48859 -0.33459
#
# Static dielectric constant tensor:
#      x y z
#    x 1.701970 0.000000 0.026130 
#    y 0.000000 1.683070 0.000000 
#    z 0.026130 0.000000 1.706010 
# 
# From -- ./inp_files/3914.got.cif
#   From: 2010.05.17/outbox.cif.g08.bks.cpg/sg14_2_cif.got.tgz:3914.got - 2010.06.03 17:49:19.
