data_PCOD9239455
_publ_section_title
;
Structure prediction by ZEFSAII (Michael W. Deem and Ramdas Pophale) SiO2 
 PCOD9239455
Probable space group: P 21/C
;
_chemical_formula_sum "Si O2"
_cell_formula_units_Z 32
_cell_length_a 18.124582
_cell_length_b 9.047359
_cell_length_c 15.925702
_cell_angle_alpha 90.000000
_cell_angle_beta 150.703217
_cell_angle_gamma 90.000000
_cell_volume 1277.889627
_symmetry_space_group_name_H-M "P 21/C"
_symmetry_group_IT_number 14
_symmetry_cell_setting 'monoclinic'
loop_
_space_group_symop_operation_xyz
x,y,z
-x,1/2+y,1/2-z
-x,-y,-z
x,1/2-y,1/2+z
loop_
_atom_site_type_symbol
_atom_site_label
_atom_site_fract_x
_atom_site_fract_y
_atom_site_fract_z
Si Si1 0.096719 0.566201 0.671579
Si Si2 0.962716 0.758337 0.812182
Si Si3 0.491953 0.803624 0.358661
Si Si4 0.099905 0.857072 0.616339
Si Si5 0.581617 0.628256 0.764723
Si Si6 0.239001 0.862055 0.521753
Si Si7 0.419787 0.879074 0.523994
Si Si8 0.320592 0.446572 0.429844
O O1 0.042547 0.736587 0.627872
O O2 0.271128 0.602220 0.818857
O O3 0.000000 0.500000 0.500000
O O4 0.087203 0.430928 0.730106
O O5 0.823345 0.644601 0.680086
O O6 0.068927 0.725571 0.998285
O O7 0.071843 0.700631 0.847255
O O8 0.583152 0.807723 0.360200
O O9 0.330773 0.752161 0.169808
O O10 0.570599 0.682983 0.496079
O O11 0.498595 0.965367 0.400759
O O12 0.257369 0.927858 0.804786
O O13 0.000000 0.000000 0.500000
O O14 0.726615 0.521755 0.901455
O O15 0.545855 0.753050 0.660604
O O16 0.431210 0.524904 0.606808
O O17 0.328301 0.866147 0.522376
#
# Coordination Sequence:
#
# PCOD9239455 Si02
#       8
#     4   4   4   4   4   4   4   4
#     4  10  19  34  59  84 111 148 194 237 276 341
#     4  10  20  36  55  86 116 140 183 245 299 331
#     4   9  18  33  54  77 107 151 188 225 277 350
#     4   9  19  34  57  82 108 149 194 231 272 348
#     4   9  18  33  55  76 110 149 192 225 275 351
#     4   9  20  36  54  85 116 142 179 242 295 338
#     4  10  17  35  58  81 107 154 197 222 281 355
#     4  10  17  33  57  80 106 150 195 228 273 350
#
# _framework density 25.041288000000002
#
# number of rings (size 3 to 8) (size 9 to 14) (size 15 to 20)
#    0.000    2.500    2.500    0.750    0.000    0.000 
#    4.500    5.000    0.000    3.000    0.000    0.000 
#    0.000    0.000    0.000    0.000    0.000    0.000 
#
# Total GULP energy -178247.867374 kJ/mol
# GULP energy per Si atom -5570.245855 kJ/mol
# Density = 2.498429 g / cm^3
# Si number density = 25.041288 Si / 1000 Ang^3
#
#
#
# Elastic Constant Matrix: (Units=GPa)
#
#
# Indices 1 2 3 4 5 6 
#
# 1 56.8341 26.9830 33.3241 0.0000 -4.8496 0.0000
# 2 26.9830 186.6129 29.8295 0.0000 -3.4779 0.0000
# 3 33.3241 29.8295 96.8321 0.0000 -18.6885 0.0000
# 4 0.0000 0.0000 0.0000 34.4129 0.0000 -12.5097
# 5 -4.8496 -3.4779 -18.6885 0.0000 30.5330 0.0000
# 6 0.0000 0.0000 0.0000 -12.5097 0.0000 5.0859
#
#
#
# Elastic Compliance Matrix: (Units=1/GPa)
#
#
# Indices 1 2 3 4 5 6 
#
# 1 0.022872 -0.002140 -0.007436 0.000000 -0.001163 0.000000
# 2 -0.002140 0.005843 -0.001134 0.000000 -0.000369 0.000000
# 3 -0.007436 -0.001134 0.014722 0.000000 0.007701 0.000000
# 4 0.000000 0.000000 0.000000 0.274523 0.000000 0.675246
# 5 -0.001163 -0.000369 0.007701 0.000000 0.037238 0.000000
# 6 0.000000 0.000000 0.000000 0.675246 0.000000 1.857528
#
#
# Mechanical properties :
#
#
# Convention : Reuss Voigt Hill
#
# Bulk Modulus (GPa) = 45.42414 57.83916 51.63165
# Shear Modulus (GPa) = 2.23066 30.68253 16.45659
#
# Velocity S-wave (km/s) = 0.94484 3.50419 2.56633
# Velocity P-wave (km/s) = 4.40107 6.28651 5.42630
#
# Compressibility (1/GPa) = 0.02201472
#
# Stress axis : x y z
#
# Youngs Moduli (GPa) = 43.72120 171.15630 67.92538
#
# Poissons Ratio (x) = 0.36630 0.50512
# Poissons Ratio (y) = 0.09357 0.07706
# Poissons Ratio (z) = 0.32513 0.19418
#
# Static dielectric constant tensor:
#      x y z
#    x 2.200560 0.000000 -0.039230 
#    y 0.000000 2.072140 0.000000 
#    z -0.039230 0.000000 2.010830 
# 
# From -- ./inp_files/75214.got.cif
#   From: 2010.05.17/outbox.cif.g08.bks.cpg/sg14_38_cif.got.tgz:75214.got - 2010.06.03 17:49:19.
