data_PCOD9239618
_publ_section_title
;
Structure prediction by ZEFSAII (Michael W. Deem and Ramdas Pophale) SiO2 
 PCOD9239618
Probable space group: P 21/C
;
_chemical_formula_sum "Si O2"
_cell_formula_units_Z 28
_cell_length_a 5.436985
_cell_length_b 11.224948
_cell_length_c 17.344112
_cell_angle_alpha 90.000000
_cell_angle_beta 83.179781
_cell_angle_gamma 90.000000
_cell_volume 1051.018602
_symmetry_space_group_name_H-M "P 21/C"
_symmetry_group_IT_number 14
_symmetry_cell_setting 'monoclinic'
loop_
_space_group_symop_operation_xyz
x,y,z
-x,1/2+y,1/2-z
-x,-y,-z
x,1/2-y,1/2+z
loop_
_atom_site_type_symbol
_atom_site_label
_atom_site_fract_x
_atom_site_fract_y
_atom_site_fract_z
Si Si1 0.500633 0.041688 0.090136
Si Si2 0.748796 0.809030 0.567789
Si Si3 0.020128 0.382111 0.553858
Si Si4 0.467924 0.869238 0.233251
Si Si5 0.791075 0.324102 0.843580
Si Si6 0.227473 0.390504 0.146145
Si Si7 0.262848 0.930904 0.394099
O O1 0.528237 0.937910 0.152641
O O2 0.224182 0.093106 0.112057
O O3 0.735529 0.128220 0.090929
O O4 0.500000 0.000000 0.000000
O O5 0.850004 0.714567 0.504599
O O6 0.454443 0.799280 0.594121
O O7 0.784686 0.951182 0.555558
O O8 0.947017 0.787511 0.630070
O O9 0.000000 0.500000 0.500000
O O10 0.707743 0.833167 0.274435
O O11 0.335612 0.956016 0.301033
O O12 0.290386 0.757194 0.224919
O O13 0.799043 0.467050 0.836567
O O14 0.480338 0.374123 0.087796
O O15 0.983822 0.356885 0.109439
#
# Coordination Sequence:
#
# PCOD9239618 Si02
#       7
#     4   4   4   4   4   4   4
#     4  10  20  28  40  65  91 122 153 175 218 278
#     4  10  18  32  44  63  94 121 158 187 222 274
#     4  10  18  28  40  63  88 118 152 176 216 275
#     4  10  20  30  49  63  99 123 159 185 228 276
#     4  10  18  28  48  64  87 128 149 189 234 265
#     4   8  18  30  41  66  87 116 158 185 229 269
#     4   8  18  30  44  62  84 125 152 195 224 254
#
# _framework density 26.640823000000001
#
# number of rings (size 3 to 8) (size 9 to 14) (size 15 to 20)
#    0.857    1.714    0.000    4.286    4.000    0.000 
#    0.000    0.000    0.000    0.000    0.000    0.000 
#    0.000    2.286    0.000    0.571    0.000    0.000 
#
# Total GULP energy -156252.527074 kJ/mol
# GULP energy per Si atom -5580.447395 kJ/mol
# Density = 2.658019 g / cm^3
# Si number density = 26.640823 Si / 1000 Ang^3
#
#
#
# Elastic Constant Matrix: (Units=GPa)
#
#
# Indices 1 2 3 4 5 6 
#
# 1 199.1790 18.4168 9.0268 0.0000 10.0912 0.0000
# 2 18.4168 70.8771 35.5681 0.0000 -5.3639 0.0000
# 3 9.0268 35.5681 88.0168 0.0000 -5.8963 0.0000
# 4 0.0000 0.0000 0.0000 40.3526 0.0000 -1.6466
# 5 10.0912 -5.3639 -5.8963 0.0000 32.8763 0.0000
# 6 0.0000 0.0000 0.0000 -1.6466 0.0000 38.4148
#
#
#
# Elastic Compliance Matrix: (Units=1/GPa)
#
#
# Indices 1 2 3 4 5 6 
#
# 1 0.005254 -0.001472 -0.000069 0.000000 -0.001865 0.000000
# 2 -0.001472 0.018196 -0.007058 0.000000 0.002155 0.000000
# 3 -0.000069 -0.007058 0.014317 0.000000 0.001437 0.000000
# 4 0.000000 0.000000 0.000000 0.024825 0.000000 0.001064
# 5 -0.001865 0.002155 0.001437 0.000000 0.031599 0.000000
# 6 0.000000 0.000000 0.000000 0.001064 0.000000 0.026077
#
#
# Mechanical properties :
#
#
# Convention : Reuss Voigt Hill
#
# Bulk Modulus (GPa) = 48.61445 53.78849 51.20147
# Shear Modulus (GPa) = 34.64450 41.99949 38.32199
#
# Velocity S-wave (km/s) = 3.61006 3.97483 3.79683
# Velocity P-wave (km/s) = 5.97197 6.42649 6.20340
#
# Compressibility (1/GPa) = 0.02057002
#
# Stress axis : x y z
#
# Youngs Moduli (GPa) = 190.31917 54.95623 69.84701
#
# Poissons Ratio (x) = 0.08088 0.00482
# Poissons Ratio (y) = 0.28011 0.49298
# Poissons Ratio (z) = 0.01315 0.38788
#
# Static dielectric constant tensor:
#      x y z
#    x 2.230480 0.000000 -0.030890 
#    y 0.000000 2.168720 0.000000 
#    z -0.030890 0.000000 2.089010 
# 
# From -- ./inp_files/71170.got.cif
#   From: 2010.05.17/outbox.cif.g08.bks.cpg/sg14_36_cif.got.tgz:71170.got - 2010.06.03 17:49:19.
