data_PCOD9239440
_publ_section_title
;
Structure prediction by ZEFSAII (Michael W. Deem and Ramdas Pophale) SiO2 
 PCOD9239440
Probable space group: P 21/C
;
_chemical_formula_sum "Si O2"
_cell_formula_units_Z 32
_cell_length_a 12.611733
_cell_length_b 5.713339
_cell_length_c 24.037892
_cell_angle_alpha 90.000000
_cell_angle_beta 91.267380
_cell_angle_gamma 90.000000
_cell_volume 1731.629133
_symmetry_space_group_name_H-M "P 21/C"
_symmetry_group_IT_number 14
_symmetry_cell_setting 'monoclinic'
loop_
_space_group_symop_operation_xyz
x,y,z
-x,1/2+y,1/2-z
-x,-y,-z
x,1/2-y,1/2+z
loop_
_atom_site_type_symbol
_atom_site_label
_atom_site_fract_x
_atom_site_fract_y
_atom_site_fract_z
Si Si1 0.752059 0.952191 0.377096
Si Si2 0.570209 0.964095 0.581242
Si Si3 0.358195 0.918023 0.302885
Si Si4 0.863418 0.223636 0.744158
Si Si5 0.083437 0.222175 0.695018
Si Si6 0.593949 0.772724 0.793334
Si Si7 0.391067 0.268915 0.529766
Si Si8 0.375072 0.654513 0.610814
O O1 0.859472 0.821418 0.363292
O O2 0.740256 0.229169 0.383935
O O3 0.672473 0.908894 0.323770
O O4 0.696032 0.855090 0.431859
O O5 0.646313 0.043132 0.631236
O O6 0.619914 0.803282 0.533967
O O7 0.474546 0.828091 0.610646
O O8 0.506842 0.175659 0.550875
O O9 0.254939 0.785202 0.280622
O O10 0.366239 0.155326 0.266772
O O11 0.470953 0.795706 0.291126
O O12 0.879667 0.975582 0.778910
O O13 0.956513 0.218844 0.698871
O O14 0.881976 0.475426 0.774349
O O15 0.606294 0.985257 0.837243
O O16 0.382388 0.531840 0.550778
#
# Coordination Sequence:
#
# PCOD9239440 Si02
#       8
#     4   4   4   4   4   4   4   4
#     4  10  19  34  54  74 106 139 185 231 271 321
#     4  10  19  33  48  72 111 145 181 222 269 333
#     4  12  21  34  51  80 116 149 172 227 284 344
#     4  10  23  37  60  80 117 147 189 226 284 339
#     4  10  21  41  57  84 107 151 191 236 271 338
#     4  11  22  31  47  80 112 138 174 212 286 344
#     4   9  19  33  50  74 104 145 191 221 264 325
#     4  10  17  33  50  77 102 148 179 225 268 332
#
# _framework density 18.479707999999999
#
# number of rings (size 3 to 8) (size 9 to 14) (size 15 to 20)
#    0.000    1.750    5.000    1.875    3.500    1.000 
#    0.000    0.000    0.000    0.750    0.000    0.875 
#    0.000    0.000    0.000    0.000    0.000    0.000 
#
# Total GULP energy -178187.472394 kJ/mol
# GULP energy per Si atom -5568.358512 kJ/mol
# Density = 1.843765 g / cm^3
# Si number density = 18.479708 Si / 1000 Ang^3
#
#
#
# Elastic Constant Matrix: (Units=GPa)
#
#
# Indices 1 2 3 4 5 6 
#
# 1 63.6128 4.2272 12.7281 0.0000 -14.2741 0.0000
# 2 4.2272 54.9117 4.4456 0.0000 -3.6316 0.0000
# 3 12.7281 4.4456 75.6764 0.0000 -8.8688 0.0000
# 4 0.0000 0.0000 0.0000 25.9827 0.0000 -8.9035
# 5 -14.2741 -3.6316 -8.8688 0.0000 23.7263 0.0000
# 6 0.0000 0.0000 0.0000 -8.9035 0.0000 21.1186
#
#
#
# Elastic Compliance Matrix: (Units=1/GPa)
#
#
# Indices 1 2 3 4 5 6 
#
# 1 0.018445 -0.000587 -0.001859 0.000000 0.010312 0.000000
# 2 -0.000587 0.018461 -0.000728 0.000000 0.002200 0.000000
# 3 -0.001859 -0.000728 0.014041 0.000000 0.004018 0.000000
# 4 0.000000 0.000000 0.000000 0.044986 0.000000 0.018966
# 5 0.010312 0.002200 0.004018 0.000000 0.050190 0.000000
# 6 0.000000 0.000000 0.000000 0.018966 0.000000 0.055348
#
#
# Mechanical properties :
#
#
# Convention : Reuss Voigt Hill
#
# Bulk Modulus (GPa) = 22.42290 26.33362 24.37826
# Shear Modulus (GPa) = 22.45326 25.68554 24.06940
#
# Velocity S-wave (km/s) = 3.48950 3.73222 3.61290
# Velocity P-wave (km/s) = 5.32875 5.73181 5.53395
#
# Compressibility (1/GPa) = 0.04459726
#
# Stress axis : x y z
#
# Youngs Moduli (GPa) = 54.21503 54.16913 71.22228
#
# Poissons Ratio (x) = 0.03182 0.13242
# Poissons Ratio (y) = 0.03185 0.05184
# Poissons Ratio (z) = 0.10080 0.03943
#
# Static dielectric constant tensor:
#      x y z
#    x 1.643630 0.000000 -0.034650 
#    y 0.000000 1.790750 0.000000 
#    z -0.034650 0.000000 1.659260 
# 
# From -- ./inp_files/72758.got.cif
#   From: 2010.05.17/outbox.cif.g08.bks.cpg/sg14_37_cif.got.tgz:72758.got - 2010.06.03 17:49:19.
