data_PCOD9239392
_publ_section_title
;
Structure prediction by ZEFSAII (Michael W. Deem and Ramdas Pophale) SiO2 
 PCOD9239392
Probable space group: P 21/C
;
_chemical_formula_sum "Si O2"
_cell_formula_units_Z 24
_cell_length_a 20.768591
_cell_length_b 5.146202
_cell_length_c 31.484903
_cell_angle_alpha 90.000000
_cell_angle_beta 16.720979
_cell_angle_gamma 90.000000
_cell_volume 968.173086
_symmetry_space_group_name_H-M "P 21/C"
_symmetry_group_IT_number 14
_symmetry_cell_setting 'monoclinic'
loop_
_space_group_symop_operation_xyz
x,y,z
-x,1/2+y,1/2-z
-x,-y,-z
x,1/2-y,1/2+z
loop_
_atom_site_type_symbol
_atom_site_label
_atom_site_fract_x
_atom_site_fract_y
_atom_site_fract_z
Si Si1 0.710498 0.998264 0.926139
Si Si2 0.299993 0.302412 0.202318
Si Si3 0.559277 0.687958 0.095764
Si Si4 0.624390 0.678594 0.152558
Si Si5 0.074035 0.936521 0.406373
Si Si6 0.232113 0.504991 0.161741
O O1 0.440250 0.061567 0.092232
O O2 0.710193 0.901229 0.975517
O O3 0.818325 0.247220 0.835117
O O4 0.808435 0.757148 0.838292
O O5 0.502085 0.454644 0.098948
O O6 0.164923 0.469437 0.253053
O O7 0.128000 0.190013 0.344580
O O8 0.635799 0.622821 0.094773
O O9 0.310546 0.797078 0.259084
O O10 0.521746 0.429787 0.242261
O O11 0.874913 0.719659 0.010722
O O12 0.000000 0.000000 0.500000
O O13 0.500000 0.500000 0.000000
#
# Coordination Sequence:
#
# PCOD9239392 Si02
#       6
#     4   4   4   4   4   4
#     4  10  19  33  58 100 130 164 217 271 318 403
#     4  10  21  34  63 100 127 174 220 271 331 401
#     4  11  23  40  70  99 133 176 226 272 344 401
#     4  12  28  46  67  95 133 179 227 283 341 405
#     4  11  24  44  65  98 138 176 226 285 334 404
#     4  10  17  31  57  96 131 164 217 263 327 394
#
# _framework density 24.788955999999999
#
# number of rings (size 3 to 8) (size 9 to 14) (size 15 to 20)
#    0.000    1.333    5.000    3.000    7.000    1.333 
#    0.000    0.000    0.000    0.000   17.333    0.000 
#    0.000    0.000    0.000    0.000    0.000    0.000 
#
# Total GULP energy -134097.413255 kJ/mol
# GULP energy per Si atom -5587.392219 kJ/mol
# Density = 2.473253 g / cm^3
# Si number density = 24.788956 Si / 1000 Ang^3
#
#
#
# Elastic Constant Matrix: (Units=GPa)
#
#
# Indices 1 2 3 4 5 6 
#
# 1 135.9525 9.3270 26.9450 -0.0001 10.2639 0.0002
# 2 9.3270 124.0021 16.3341 0.0000 18.0861 0.0001
# 3 26.9450 16.3341 85.9056 -0.0001 12.4567 0.0002
# 4 -0.0001 0.0000 -0.0001 24.6769 0.0000 22.5901
# 5 10.2639 18.0861 12.4567 0.0000 43.8510 -0.0001
# 6 0.0002 0.0001 0.0002 22.5901 -0.0001 16.0436
#
#
#
# Elastic Compliance Matrix: (Units=1/GPa)
#
#
# Indices 1 2 3 4 5 6 
#
# 1 0.007904 -0.000126 -0.002289 0.000000 -0.001148 0.000000
# 2 -0.000126 0.008696 -0.001145 0.000000 -0.003232 0.000000
# 3 -0.002289 -0.001145 0.012964 -0.000001 -0.002675 0.000001
# 4 0.000000 0.000000 -0.000001 -0.140237 0.000001 0.197459
# 5 -0.001148 -0.003232 -0.002675 0.000001 0.025166 -0.000001
# 6 0.000000 0.000000 0.000001 0.197459 -0.000001 -0.215700
#
#
# Mechanical properties :
#
#
# Convention : Reuss Voigt Hill
#
# Bulk Modulus (GPa) = 44.55365 50.11916 47.33641
# Shear Modulus (GPa) = -17.44564 36.46457 9.50947
#
# Velocity S-wave (km/s) = -2.65574 3.83952 1.96074
# Velocity P-wave (km/s) = 2.93399 6.31808 4.92577
#
# Compressibility (1/GPa) = 0.02244485
#
# Stress axis : x y z
#
# Youngs Moduli (GPa) = 126.51083 114.99424 77.13523
#
# Poissons Ratio (x) = 0.01444 0.17656
# Poissons Ratio (y) = 0.01589 0.08836
# Poissons Ratio (z) = 0.28958 0.13172
#
# Static dielectric constant tensor:
#      x y z
#    x 2.137090 0.000000 0.027860 
#    y 0.000000 2.111550 0.000000 
#    z 0.027860 0.000000 2.024200 
# 
# From -- ./inp_files/80455.got.cif
#   From: 2010.05.17/outbox.cif.g08.bks.cpg/sg14_41_cif.got.tgz:80455.got - 2010.06.03 17:49:19.
