data_PCOD9239405
_publ_section_title
;
Structure prediction by ZEFSAII (Michael W. Deem and Ramdas Pophale) SiO2 
 PCOD9239405
Probable space group: P 21/C
;
_chemical_formula_sum "Si O2"
_cell_formula_units_Z 24
_cell_length_a 5.801721
_cell_length_b 12.108807
_cell_length_c 16.819762
_cell_angle_alpha 90.000000
_cell_angle_beta 89.999939
_cell_angle_gamma 90.000000
_cell_volume 1181.620572
_symmetry_space_group_name_H-M "P 21/C"
_symmetry_group_IT_number 14
_symmetry_cell_setting 'monoclinic'
loop_
_space_group_symop_operation_xyz
x,y,z
-x,1/2+y,1/2-z
-x,-y,-z
x,1/2-y,1/2+z
loop_
_atom_site_type_symbol
_atom_site_label
_atom_site_fract_x
_atom_site_fract_y
_atom_site_fract_z
Si Si1 0.585396 0.823499 0.342735
Si Si2 0.864772 0.607043 0.689956
Si Si3 0.749999 0.500001 0.199826
Si Si4 0.914603 0.176499 0.342734
Si Si5 0.250000 0.000001 0.543357
Si Si6 0.635231 0.107042 0.189955
O O1 0.689170 0.832596 0.252544
O O2 0.501085 0.699870 0.358830
O O3 0.359206 0.899754 0.347257
O O4 0.753472 0.889010 0.401694
O O5 0.750002 0.500001 0.648302
O O6 0.051013 0.549740 0.746354
O O7 0.001092 0.699871 0.641172
O O8 0.551016 0.549740 0.253649
O O9 0.859202 0.600248 0.152743
O O10 0.746529 0.110986 0.401692
O O11 0.810831 0.167401 0.252543
O O12 0.500000 0.000000 0.500000
O O13 0.000000 0.000000 0.500000
#
# Coordination Sequence:
#
# PCOD9239405 Si02
#       6
#     4   4   4   4   4   4
#     4  11  20  35  59  86 128 156 211 261 327 391
#     4  10  20  32  58  91 119 158 193 282 344 374
#     4  10  17  32  52  92 118 147 192 258 342 374
#     4  11  20  35  59  86 128 156 211 261 327 391
#     4  12  27  42  62  90 130 181 216 254 304 392
#     4  10  20  32  58  91 119 158 193 282 344 374
#
# _framework density 20.311088000000002
#
# number of rings (size 3 to 8) (size 9 to 14) (size 15 to 20)
#    0.000    1.333    8.333    1.000    0.000    0.000 
#    0.000    0.000    0.000    2.000    0.000    0.000 
#    0.000    0.000    0.000    0.000    0.000    0.000 
#
# Total GULP energy -133602.869986 kJ/mol
# GULP energy per Si atom -5566.786249 kJ/mol
# Density = 2.026486 g / cm^3
# Si number density = 20.311088 Si / 1000 Ang^3
#
#
#
# Elastic Constant Matrix: (Units=GPa)
#
#
# Indices 1 2 3 4 5 6 
#
# 1 73.7466 32.9775 9.7152 0.0000 0.0005 0.0000
# 2 32.9775 173.7217 28.7411 0.0000 0.0005 0.0000
# 3 9.7152 28.7411 33.8596 0.0000 0.0000 0.0000
# 4 0.0000 0.0000 0.0000 15.3420 0.0000 0.0002
# 5 0.0005 0.0005 0.0000 0.0000 20.6986 0.0000
# 6 0.0000 0.0000 0.0000 0.0002 0.0000 49.0646
#
#
#
# Elastic Compliance Matrix: (Units=1/GPa)
#
#
# Indices 1 2 3 4 5 6 
#
# 1 0.014956 -0.002477 -0.002189 0.000000 0.000000 0.000000
# 2 -0.002477 0.007107 -0.005322 0.000000 0.000000 0.000000
# 3 -0.002189 -0.005322 0.034679 0.000000 0.000000 0.000000
# 4 0.000000 0.000000 0.000000 0.065180 0.000000 0.000000
# 5 0.000000 0.000000 0.000000 0.000000 0.048313 0.000000
# 6 0.000000 0.000000 0.000000 0.000000 0.000000 0.020381
#
#
# Mechanical properties :
#
#
# Convention : Reuss Voigt Hill
#
# Bulk Modulus (GPa) = 27.19842 47.13281 37.16561
# Shear Modulus (GPa) = 22.43690 31.01399 26.72544
#
# Velocity S-wave (km/s) = 3.32725 3.91186 3.63134
# Velocity P-wave (km/s) = 5.30856 6.60752 5.99334
#
# Compressibility (1/GPa) = 0.03676684
#
# Stress axis : x y z
#
# Youngs Moduli (GPa) = 66.86316 140.70598 28.83577
#
# Poissons Ratio (x) = 0.34852 0.06311
# Poissons Ratio (y) = 0.16562 0.15346
# Poissons Ratio (z) = 0.14634 0.74883
#
# Static dielectric constant tensor:
#      x y z
#    x 1.789830 0.000000 0.000000 
#    y 0.000000 1.862470 0.000000 
#    z 0.000000 0.000000 1.779710 
# 
# From -- ./inp_files/52977.got.cif
#   From: 2010.05.17/outbox.cif.g08.bks.cpg/sg14_27_cif.got.tgz:52977.got - 2010.06.03 17:49:19.
