data_PCOD9239893
_publ_section_title
;
Structure prediction by ZEFSAII (Michael W. Deem and Ramdas Pophale) SiO2 
 PCOD9239893
Probable space group: P 21/C
;
_chemical_formula_sum "Si O2"
_cell_formula_units_Z 20
_cell_length_a 11.737143
_cell_length_b 5.252276
_cell_length_c 18.808419
_cell_angle_alpha 90.000000
_cell_angle_beta 42.448697
_cell_angle_gamma 90.000000
_cell_volume 782.565709
_symmetry_space_group_name_H-M "P 21/C"
_symmetry_group_IT_number 14
_symmetry_cell_setting 'monoclinic'
loop_
_space_group_symop_operation_xyz
x,y,z
-x,1/2+y,1/2-z
-x,-y,-z
x,1/2-y,1/2+z
loop_
_atom_site_type_symbol
_atom_site_label
_atom_site_fract_x
_atom_site_fract_y
_atom_site_fract_z
Si Si1 0.357929 0.309626 0.132117
Si Si2 0.154043 0.686079 0.707269
Si Si3 0.449143 0.338373 0.234559
Si Si4 0.111801 0.250984 0.456518
Si Si5 0.788755 0.670726 0.430525
O O1 0.250043 0.565458 0.188568
O O2 0.496830 0.315229 0.129654
O O3 0.375710 0.269465 0.038004
O O4 0.245575 0.058421 0.197790
O O5 0.180681 0.619841 0.610993
O O6 0.958974 0.699092 0.819368
O O7 0.460463 0.622985 0.260119
O O8 0.254942 0.260639 0.331779
O O9 0.205479 0.274885 0.489635
O O10 0.000000 0.500000 0.500000
O O11 0.000000 0.000000 0.500000
#
# Coordination Sequence:
#
# PCOD9239893 Si02
#       5
#     4   4   4   4   4
#     4  10  20  36  62  86 121 179 218 261 325 410
#     4  10  18  32  61  93 129 159 218 266 346 376
#     4  12  26  48  67  96 142 189 222 274 358 420
#     4  12  27  43  71 108 138 171 233 294 337 393
#     4  10  21  35  63  95 132 167 221 278 330 400
#
# _framework density 25.556961999999999
#
# number of rings (size 3 to 8) (size 9 to 14) (size 15 to 20)
#    1.200    0.000    2.000    4.800    2.800    0.000 
#    0.000    2.000    0.000    0.000    0.000    0.000 
#    0.000    0.000    0.000    0.000    0.000    0.000 
#
# Total GULP energy -111735.573507 kJ/mol
# GULP energy per Si atom -5586.778675 kJ/mol
# Density = 2.549879 g / cm^3
# Si number density = 25.556962 Si / 1000 Ang^3
#
#
#
# Elastic Constant Matrix: (Units=GPa)
#
#
# Indices 1 2 3 4 5 6 
#
# 1 141.6911 30.5433 8.0770 0.0000 37.4222 0.0000
# 2 30.5433 152.4341 8.6752 0.0000 3.6352 0.0000
# 3 8.0770 8.6752 83.8571 0.0000 3.3154 0.0000
# 4 0.0000 0.0000 0.0000 22.5597 0.0000 -6.9452
# 5 37.4222 3.6352 3.3154 0.0000 30.2540 0.0000
# 6 0.0000 0.0000 0.0000 -6.9452 0.0000 45.0301
#
#
#
# Elastic Compliance Matrix: (Units=1/GPa)
#
#
# Indices 1 2 3 4 5 6 
#
# 1 0.011006 -0.001868 -0.000339 0.000000 -0.013352 0.000000
# 2 -0.001868 0.006932 -0.000598 0.000000 0.001543 0.000000
# 3 -0.000339 -0.000598 0.012052 0.000000 -0.000830 0.000000
# 4 0.000000 0.000000 0.000000 0.046536 0.000000 0.007178
# 5 -0.013352 0.001543 -0.000830 0.000000 0.049475 0.000000
# 6 0.000000 0.000000 0.000000 0.007178 0.000000 0.023314
#
#
# Mechanical properties :
#
#
# Convention : Reuss Voigt Hill
#
# Bulk Modulus (GPa) = 41.01640 52.50816 46.76228
# Shear Modulus (GPa) = 30.66508 41.61455 36.13981
#
# Velocity S-wave (km/s) = 3.46767 4.03960 3.76452
# Velocity P-wave (km/s) = 5.66718 6.50754 6.10184
#
# Compressibility (1/GPa) = 0.02438049
#
# Stress axis : x y z
#
# Youngs Moduli (GPa) = 90.85999 144.26541 82.97117
#
# Poissons Ratio (x) = 0.26942 0.02813
# Poissons Ratio (y) = 0.16969 0.04963
# Poissons Ratio (z) = 0.03080 0.08630
#
# Static dielectric constant tensor:
#      x y z
#    x 2.106970 0.000000 0.055820 
#    y 0.000000 1.992530 0.000000 
#    z 0.055820 0.000000 2.014470 
# 
# From -- ./inp_files/66203.got.cif
#   From: 2010.05.17/outbox.cif.g08.bks.cpg/sg14_34_cif.got.tgz:66203.got - 2010.06.03 17:49:19.
