data_PCOD9239856
_publ_section_title
;
Structure prediction by ZEFSAII (Michael W. Deem and Ramdas Pophale) SiO2 
 PCOD9239856
Probable space group: P 21/C
;
_chemical_formula_sum "Si O2"
_cell_formula_units_Z 20
_cell_length_a 19.095353
_cell_length_b 8.368823
_cell_length_c 5.465649
_cell_angle_alpha 90.000000
_cell_angle_beta 111.780510
_cell_angle_gamma 90.000000
_cell_volume 811.088325
_symmetry_space_group_name_H-M "P 21/C"
_symmetry_group_IT_number 14
_symmetry_cell_setting 'monoclinic'
loop_
_space_group_symop_operation_xyz
x,y,z
-x,1/2+y,1/2-z
-x,-y,-z
x,1/2-y,1/2+z
loop_
_atom_site_type_symbol
_atom_site_label
_atom_site_fract_x
_atom_site_fract_y
_atom_site_fract_z
Si Si1 0.584644 0.552528 0.660527
Si Si2 0.813715 0.293998 0.355799
Si Si3 0.818762 0.838881 0.900364
Si Si4 0.980877 0.174303 0.564636
Si Si5 0.357689 0.091052 0.265399
O O1 0.500000 0.500000 0.500000
O O2 0.633963 0.508093 0.486328
O O3 0.593803 0.745512 0.692566
O O4 0.613424 0.494389 0.962221
O O5 0.772401 0.246405 0.550961
O O6 0.840645 0.476747 0.400443
O O7 0.890138 0.190055 0.455832
O O8 0.840655 0.738327 0.688525
O O9 0.727319 0.852924 0.791877
O O10 0.007123 0.288315 0.374543
O O11 0.000000 0.000000 0.500000
#
# Coordination Sequence:
#
# PCOD9239856 Si02
#       5
#     4   4   4   4   4
#     4  10  18  32  56  78 114 149 197 251 320 380
#     4  10  23  43  64  95 138 170 215 275 323 389
#     4  12  21  40  70  94 123 175 222 272 327 400
#     4  10  21  42  67  98 135 176 216 268 324 385
#     4  10  19  35  55  83 110 155 203 262 317 382
#
# _framework density 24.658228000000001
#
# number of rings (size 3 to 8) (size 9 to 14) (size 15 to 20)
#    0.000    1.600    4.000    2.400    0.000    0.000 
#    0.000   24.000   26.400    0.000    0.000    0.000 
#    0.000    0.000    0.000    0.000    0.000    0.000 
#
# Total GULP energy -111888.805255 kJ/mol
# GULP energy per Si atom -5594.440263 kJ/mol
# Density = 2.460210 g / cm^3
# Si number density = 24.658228 Si / 1000 Ang^3
#
#
#
# Elastic Constant Matrix: (Units=GPa)
#
#
# Indices 1 2 3 4 5 6 
#
# 1 56.0612 3.9260 -8.0840 0.0000 -4.6409 0.0000
# 2 3.9260 91.8274 12.0432 0.0000 -8.1444 0.0000
# 3 -8.0840 12.0432 201.4898 0.0000 -48.1128 0.0000
# 4 0.0000 0.0000 0.0000 29.5437 0.0000 -10.0529
# 5 -4.6409 -8.1444 -48.1128 0.0000 40.7147 0.0000
# 6 0.0000 0.0000 0.0000 -10.0529 0.0000 26.5955
#
#
#
# Elastic Compliance Matrix: (Units=1/GPa)
#
#
# Indices 1 2 3 4 5 6 
#
# 1 0.018469 -0.000661 0.001744 0.000000 0.004034 0.000000
# 2 -0.000661 0.011115 -0.000248 0.000000 0.001855 0.000000
# 3 0.001744 -0.000248 0.007082 0.000000 0.008518 0.000000
# 4 0.000000 0.000000 0.000000 0.038844 0.000000 0.014683
# 5 0.004034 0.001855 0.008518 0.000000 0.035457 0.000000
# 6 0.000000 0.000000 0.000000 0.014683 0.000000 0.043150
#
#
# Mechanical properties :
#
#
# Convention : Reuss Voigt Hill
#
# Bulk Modulus (GPa) = 26.08468 40.57208 33.32838
# Shear Modulus (GPa) = 30.26146 42.13701 36.19923
#
# Velocity S-wave (km/s) = 3.50699 4.13830 3.83566
# Velocity P-wave (km/s) = 5.19616 6.27085 5.75863
#
# Compressibility (1/GPa) = 0.03833667
#
# Stress axis : x y z
#
# Youngs Moduli (GPa) = 54.14403 89.96614 141.20933
#
# Poissons Ratio (x) = 0.05943 -0.24622
# Poissons Ratio (y) = 0.03577 0.03500
# Poissons Ratio (z) = -0.09441 0.02230
#
# Static dielectric constant tensor:
#      x y z
#    x 1.960010 0.000000 -0.026020 
#    y 0.000000 1.921480 0.000000 
#    z -0.026020 0.000000 2.084220 
# 
# From -- ./inp_files/4327.got.cif
#   From: 2010.05.17/outbox.cif.g08.bks.cpg/sg14_3_cif.got.tgz:4327.got - 2010.06.03 17:49:19.
