data_PCOD9239797
_publ_section_title
;
Structure prediction by ZEFSAII (Michael W. Deem and Ramdas Pophale) SiO2 
 PCOD9239797
Probable space group: P 21/C
;
_chemical_formula_sum "Si O2"
_cell_formula_units_Z 32
_cell_length_a 5.539799
_cell_length_b 20.264555
_cell_length_c 15.441302
_cell_angle_alpha 90.000000
_cell_angle_beta 117.096430
_cell_angle_gamma 90.000000
_cell_volume 1543.201650
_symmetry_space_group_name_H-M "P 21/C"
_symmetry_group_IT_number 14
_symmetry_cell_setting 'monoclinic'
loop_
_space_group_symop_operation_xyz
x,y,z
-x,1/2+y,1/2-z
-x,-y,-z
x,1/2-y,1/2+z
loop_
_atom_site_type_symbol
_atom_site_label
_atom_site_fract_x
_atom_site_fract_y
_atom_site_fract_z
Si Si1 0.093972 0.161875 0.937138
Si Si2 0.250996 0.265946 0.846631
Si Si3 0.868814 0.116487 0.081463
Si Si4 0.843326 0.522852 0.616701
Si Si5 0.496376 0.476061 0.261139
Si Si6 0.518641 0.171552 0.748991
Si Si7 0.653175 0.206983 0.178133
Si Si8 0.400567 0.387136 0.781630
O O1 0.222942 0.232314 0.934909
O O2 0.826047 0.164122 0.832519
O O3 0.240311 0.094656 0.931573
O O4 0.002373 0.150161 0.020255
O O5 0.381878 0.209797 0.806953
O O6 0.396865 0.336945 0.862019
O O7 0.959859 0.277740 0.755731
O O8 0.778241 0.041522 0.048109
O O9 0.659747 0.167351 0.089910
O O10 0.095937 0.105469 0.193641
O O11 0.686670 0.512510 0.682612
O O12 0.175669 0.526036 0.670526
O O13 0.417186 0.402634 0.216111
O O14 0.468461 0.540317 0.194728
O O15 0.503172 0.223367 0.667510
O O16 0.544094 0.155596 0.230732
#
# Coordination Sequence:
#
# PCOD9239797 Si02
#       8
#     4   4   4   4   4   4   4   4
#     4  10  19  30  45  69 100 135 163 196 237 287
#     4   9  17  31  47  63  92 125 165 203 240 279
#     4  10  19  30  45  69 100 135 163 196 237 287
#     4  10  19  32  44  72 102 138 165 193 230 287
#     4  10  18  32  51  70  97 131 166 201 239 286
#     4   9  18  31  47  68  92 128 163 204 238 281
#     4   9  17  31  47  63  92 125 165 203 240 279
#     4   9  18  31  47  68  92 128 163 204 238 281
#
# _framework density 20.736111000000001
#
# number of rings (size 3 to 8) (size 9 to 14) (size 15 to 20)
#    0.000    2.500    2.500    0.375    0.000    1.000 
#    0.000    2.500    0.000    0.000    0.000    0.875 
#    0.000   18.000    0.000    0.500    0.000    0.250 
#
# Total GULP energy -178193.165519 kJ/mol
# GULP energy per Si atom -5568.536422 kJ/mol
# Density = 2.068891 g / cm^3
# Si number density = 20.736111 Si / 1000 Ang^3
#
#
#
# Elastic Constant Matrix: (Units=GPa)
#
#
# Indices 1 2 3 4 5 6 
#
# 1 67.8324 32.8756 9.9719 0.0000 -16.3324 0.0000
# 2 32.8756 179.0955 30.2084 0.0000 -25.4248 0.0000
# 3 9.9719 30.2084 28.1768 0.0000 -9.5998 0.0000
# 4 0.0000 0.0000 0.0000 26.7335 0.0000 -8.3658
# 5 -16.3324 -25.4248 -9.5998 0.0000 30.4300 0.0000
# 6 0.0000 0.0000 0.0000 -8.3658 0.0000 36.2181
#
#
#
# Elastic Compliance Matrix: (Units=1/GPa)
#
#
# Indices 1 2 3 4 5 6 
#
# 1 0.017693 -0.001916 -0.001700 0.000000 0.007359 0.000000
# 2 -0.001916 0.007439 -0.006196 0.000000 0.003232 0.000000
# 3 -0.001700 -0.006196 0.045557 0.000000 0.008282 0.000000
# 4 0.000000 0.000000 0.000000 0.040321 0.000000 0.009313
# 5 0.007359 0.003232 0.008282 0.000000 0.042125 0.000000
# 6 0.000000 0.000000 0.000000 0.009313 0.000000 0.029762
#
#
# Mechanical properties :
#
#
# Convention : Reuss Voigt Hill
#
# Bulk Modulus (GPa) = 19.58341 46.80182 33.19261
# Shear Modulus (GPa) = 22.77456 32.14624 27.46040
#
# Velocity S-wave (km/s) = 3.31766 3.94160 3.64301
# Velocity P-wave (km/s) = 4.91329 6.58287 5.80838
#
# Compressibility (1/GPa) = 0.05106364
#
# Stress axis : x y z
#
# Youngs Moduli (GPa) = 56.52055 134.41909 21.95065
#
# Poissons Ratio (x) = 0.25760 0.03731
# Poissons Ratio (y) = 0.10832 0.13601
# Poissons Ratio (z) = 0.09608 0.83290
#
# Static dielectric constant tensor:
#      x y z
#    x 1.918850 0.000000 0.065340 
#    y 0.000000 1.839840 0.000000 
#    z 0.065340 0.000000 1.747740 
# 
# From -- ./inp_files/38001.got.cif
#   From: 2010.05.17/outbox.cif.g08.bks.cpg/sg14_20_cif.got.tgz:38001.got - 2010.06.03 17:49:19.
