data_PCOD9239302
_publ_section_title
;
Structure prediction by ZEFSAII (Michael W. Deem and Ramdas Pophale) SiO2 
 PCOD9239302
Probable space group: P 21/C
;
_chemical_formula_sum "Si O2"
_cell_formula_units_Z 30
_cell_length_a 15.264722
_cell_length_b 5.461495
_cell_length_c 16.928197
_cell_angle_alpha 90.000000
_cell_angle_beta 62.015890
_cell_angle_gamma 90.000000
_cell_volume 1246.264117
_symmetry_space_group_name_H-M "P 21/C"
_symmetry_group_IT_number 14
_symmetry_cell_setting 'monoclinic'
loop_
_space_group_symop_operation_xyz
x,y,z
-x,1/2+y,1/2-z
-x,-y,-z
x,1/2-y,1/2+z
loop_
_atom_site_type_symbol
_atom_site_label
_atom_site_fract_x
_atom_site_fract_y
_atom_site_fract_z
Si Si1 0.178252 0.483162 0.277446
Si Si2 0.500000 0.000000 0.500000
Si Si3 0.206634 0.498274 0.590654
Si Si4 0.606027 0.474867 0.374850
Si Si5 0.161402 0.003254 0.596494
Si Si6 0.924593 0.013955 0.699971
Si Si7 0.625702 0.355027 0.728016
Si Si8 0.547790 0.364796 0.118292
O O1 0.195454 0.490635 0.174863
O O2 0.118489 0.734784 0.318069
O O3 0.282328 0.491383 0.278890
O O4 0.120166 0.233163 0.318385
O O5 0.445735 0.771732 0.573035
O O6 0.407207 0.010723 0.472846
O O7 0.301935 0.485261 0.607231
O O8 0.196612 0.255606 0.544251
O O9 0.113829 0.507427 0.692422
O O10 0.199236 0.749073 0.546951
O O11 0.633663 0.399954 0.273837
O O12 0.535217 0.716799 0.401611
O O13 0.042261 0.006718 0.647489
O O14 0.520968 0.484207 0.793215
O O15 0.617311 0.305139 0.639137
#
# Coordination Sequence:
#
# PCOD9239302 Si02
#       8
#     4   2   4   4   4   4   4   4
#     4  10  18  28  44  75 108 153 176 236 282 366
#     4  10  26  40  58  80 118 164 204 258 308 358
#     4  10  18  28  49  72 108 149 188 233 286 362
#     4  11  21  39  55  82 115 158 198 249 304 356
#     4  10  17  28  44  75 111 152 179 230 299 372
#     4  10  17  28  45  71 117 150 179 227 304 369
#     4  11  21  33  58  84 114 151 206 244 308 361
#     4  11  22  39  58  85 113 159 200 260 303 364
#
# _framework density 24.071943000000001
#
# number of rings (size 3 to 8) (size 9 to 14) (size 15 to 20)
#    0.000    1.600    4.000    6.000    1.867    0.000 
#    0.000    0.000    0.000    0.000    0.000    0.000 
#    0.000   11.733    0.000    0.000    0.000    0.000 
#
# Total GULP energy -167262.657675 kJ/mol
# GULP energy per Si atom -5575.421922 kJ/mol
# Density = 2.401715 g / cm^3
# Si number density = 24.071943 Si / 1000 Ang^3
#
#
#
# Elastic Constant Matrix: (Units=GPa)
#
#
# Indices 1 2 3 4 5 6 
#
# 1 66.7629 27.4556 18.2493 0.0000 0.8634 0.0000
# 2 27.4556 167.3902 8.0160 0.0000 -13.0707 0.0000
# 3 18.2493 8.0160 40.7680 0.0000 4.8262 0.0000
# 4 0.0000 0.0000 0.0000 -23.1392 0.0000 -35.4561
# 5 0.8634 -13.0707 4.8262 0.0000 25.5657 0.0000
# 6 0.0000 0.0000 0.0000 -35.4561 0.0000 17.4038
#
#
#
# Elastic Compliance Matrix: (Units=1/GPa)
#
#
# Indices 1 2 3 4 5 6 
#
# 1 0.018137 -0.002657 -0.007531 0.000000 -0.000549 0.000000
# 2 -0.002657 0.006720 -0.000562 0.000000 0.003632 0.000000
# 3 -0.007531 -0.000562 0.028655 0.000000 -0.005442 0.000000
# 4 0.000000 0.000000 0.000000 -0.010485 0.000000 -0.021361
# 5 -0.000549 0.003632 -0.005442 0.000000 0.042018 0.000000
# 6 0.000000 0.000000 0.000000 -0.021361 0.000000 0.013941
#
#
# Mechanical properties :
#
#
# Convention : Reuss Voigt Hill
#
# Bulk Modulus (GPa) = 31.23849 42.48476 36.86163
# Shear Modulus (GPa) = 38.12248 18.71274 28.41761
#
# Velocity S-wave (km/s) = 3.98388 2.79116 3.43961
# Velocity P-wave (km/s) = 5.84526 5.29857 5.57861
#
# Compressibility (1/GPa) = 0.03201179
#
# Stress axis : x y z
#
# Youngs Moduli (GPa) = 55.13652 148.80137 34.89785
#
# Poissons Ratio (x) = 0.39537 0.26282
# Poissons Ratio (y) = 0.14650 0.01961
# Poissons Ratio (z) = 0.41525 0.08361
#
# Static dielectric constant tensor:
#      x y z
#    x 1.912200 0.000000 -0.065700 
#    y 0.000000 1.439260 0.000000 
#    z -0.065700 0.000000 1.586460 
# 
# From -- ./inp_files/58438.got.cif
#   From: 2010.05.17/outbox.cif.g08.bks.cpg/sg14_30_cif.got.tgz:58438.got - 2010.06.03 17:49:19.
