data_PCOD9239532
_publ_section_title
;
Structure prediction by ZEFSAII (Michael W. Deem and Ramdas Pophale) SiO2 
 PCOD9239532
Probable space group: P 21/C
;
_chemical_formula_sum "Si O2"
_cell_formula_units_Z 32
_cell_length_a 8.954971
_cell_length_b 19.697519
_cell_length_c 11.649514
_cell_angle_alpha 90.000000
_cell_angle_beta 123.666512
_cell_angle_gamma 90.000000
_cell_volume 1710.220378
_symmetry_space_group_name_H-M "P 21/C"
_symmetry_group_IT_number 14
_symmetry_cell_setting 'monoclinic'
loop_
_space_group_symop_operation_xyz
x,y,z
-x,1/2+y,1/2-z
-x,-y,-z
x,1/2-y,1/2+z
loop_
_atom_site_type_symbol
_atom_site_label
_atom_site_fract_x
_atom_site_fract_y
_atom_site_fract_z
Si Si1 0.242378 0.718418 0.324140
Si Si2 0.340245 0.546232 0.888013
Si Si3 0.930507 0.352994 0.152918
Si Si4 0.933580 0.852738 0.029764
Si Si5 0.312487 0.878483 0.057247
Si Si6 0.788994 0.985575 0.899293
Si Si7 0.912215 0.801834 0.509745
Si Si8 0.487072 0.177278 0.657163
O O1 0.175080 0.781148 0.375944
O O2 0.292615 0.655083 0.425021
O O3 0.408409 0.753070 0.327686
O O4 0.079261 0.698164 0.169439
O O5 0.192447 0.579420 0.908715
O O6 0.254469 0.502357 0.749981
O O7 0.417314 0.614890 0.865382
O O8 0.500000 0.500000 0.000000
O O9 0.033498 0.358790 0.319135
O O10 0.042759 0.342789 0.085996
O O11 0.881731 0.777579 0.971288
O O12 0.128203 0.863378 0.051189
O O13 0.783981 0.906965 0.929524
O O14 0.474158 0.841439 0.193450
O O15 0.320263 0.960330 0.070089
O O16 0.000000 0.000000 0.000000
O O17 0.717823 0.824618 0.469562
#
# Coordination Sequence:
#
# PCOD9239532 Si02
#       8
#     4   4   4   4   4   4   4   4
#     4  10  19  37  57  84 116 153 196 241 295 353
#     4  10  20  38  61  84 115 152 198 249 289 350
#     4  10  18  37  58  81 120 151 185 247 297 338
#     4  10  18  36  60  89 112 154 201 239 293 358
#     4  10  17  35  61  80 118 150 193 252 292 344
#     4   9  17  34  59  85 107 155 201 234 284 356
#     4  11  22  36  60  89 121 153 194 247 307 353
#     4  10  21  38  56  87 118 154 192 245 307 351
#
# _framework density 18.711040000000001
#
# number of rings (size 3 to 8) (size 9 to 14) (size 15 to 20)
#    0.000    2.000    7.500    0.000    0.000    4.000 
#    6.750    0.625    0.000    2.250    0.000    0.000 
#    0.000    0.000    0.000    0.000    0.000    0.000 
#
# Total GULP energy -178141.198373 kJ/mol
# GULP energy per Si atom -5566.912449 kJ/mol
# Density = 1.866845 g / cm^3
# Si number density = 18.711040 Si / 1000 Ang^3
#
#
#
# Elastic Constant Matrix: (Units=GPa)
#
#
# Indices 1 2 3 4 5 6 
#
# 1 37.9399 2.5908 34.9878 0.0000 3.6040 0.0000
# 2 2.5908 71.7186 36.8167 0.0000 -9.0601 0.0000
# 3 34.9878 36.8167 98.2374 0.0000 3.2335 0.0000
# 4 0.0000 0.0000 0.0000 29.7399 0.0000 2.9976
# 5 3.6040 -9.0601 3.2335 0.0000 13.7934 0.0000
# 6 0.0000 0.0000 0.0000 2.9976 0.0000 8.3867
#
#
#
# Elastic Compliance Matrix: (Units=1/GPa)
#
#
# Indices 1 2 3 4 5 6 
#
# 1 0.042484 0.007345 -0.017814 0.000000 -0.002100 0.000000
# 2 0.007345 0.021186 -0.011036 0.000000 0.014583 0.000000
# 3 -0.017814 -0.011036 0.020907 0.000000 -0.007495 0.000000
# 4 0.000000 0.000000 0.000000 0.034882 0.000000 -0.012467
# 5 -0.002100 0.014583 -0.007495 0.000000 0.084383 0.000000
# 6 0.000000 0.000000 0.000000 -0.012467 0.000000 0.123693
#
#
# Mechanical properties :
#
#
# Convention : Reuss Voigt Hill
#
# Bulk Modulus (GPa) = 24.05829 39.63184 31.84507
# Shear Modulus (GPa) = 13.00732 19.28403 16.14567
#
# Velocity S-wave (km/s) = 2.63946 3.21381 2.94070
# Velocity P-wave (km/s) = 4.70901 5.91595 5.34664
#
# Compressibility (1/GPa) = 0.04156571
#
# Stress axis : x y z
#
# Youngs Moduli (GPa) = 23.53846 47.20194 47.83144
#
# Poissons Ratio (x) = -0.34670 0.85209
# Poissons Ratio (y) = -0.17289 0.52786
# Poissons Ratio (z) = 0.41932 0.52091
#
# Static dielectric constant tensor:
#      x y z
#    x 1.736700 0.000000 0.156180 
#    y 0.000000 1.692720 0.000000 
#    z 0.156180 0.000000 1.968370 
# 
# From -- ./inp_files/26815.got.cif
#   From: 2010.05.17/outbox.cif.g08.bks.cpg/sg14_14_cif.got.tgz:26815.got - 2010.06.03 17:49:19.
