data_PCOD9239626
_publ_section_title
;
Structure prediction by ZEFSAII (Michael W. Deem and Ramdas Pophale) SiO2 
 PCOD9239626
Probable space group: P 21/C
;
_chemical_formula_sum "Si O2"
_cell_formula_units_Z 24
_cell_length_a 13.339829
_cell_length_b 22.959663
_cell_length_c 5.404759
_cell_angle_alpha 90.000000
_cell_angle_beta 52.916784
_cell_angle_gamma 90.000000
_cell_volume 1320.579911
_symmetry_space_group_name_H-M "P 21/C"
_symmetry_group_IT_number 14
_symmetry_cell_setting 'monoclinic'
loop_
_space_group_symop_operation_xyz
x,y,z
-x,1/2+y,1/2-z
-x,-y,-z
x,1/2-y,1/2+z
loop_
_atom_site_type_symbol
_atom_site_label
_atom_site_fract_x
_atom_site_fract_y
_atom_site_fract_z
Si Si1 0.604342 0.764209 0.837980
Si Si2 0.679473 0.602847 0.259388
Si Si3 0.894402 0.014446 0.951569
Si Si4 0.889020 0.718629 0.377191
Si Si5 0.056582 0.402454 0.961857
Si Si6 0.371601 0.033868 0.650992
O O1 0.535284 0.742511 0.182819
O O2 0.736100 0.727104 0.619555
O O3 0.637133 0.830994 0.828008
O O4 0.747422 0.491586 0.730302
O O5 0.830998 0.604268 0.008137
O O6 0.651130 0.570884 0.562269
O O7 0.621681 0.573112 0.104525
O O8 0.929354 0.077574 0.786175
O O9 0.911919 0.960712 0.736940
O O10 0.000000 0.000000 0.000000
O O11 0.931091 0.739599 0.586380
O O12 0.931673 0.654260 0.229530
O O13 0.500000 0.000000 0.500000
#
# Coordination Sequence:
#
# PCOD9239626 Si02
#       6
#     4   4   4   4   4   4
#     4  10  18  28  48  83 113 139 174 228 299 329
#     4  11  20  34  57  79 118 144 183 239 281 341
#     4  10  21  34  57  80 117 153 186 235 286 334
#     4  10  20  29  49  79 120 141 180 225 295 343
#     4  10  20  33  51  86 116 148 183 236 291 337
#     4  11  24  39  56  80 114 154 197 229 285 338
#
# _framework density 18.173832000000001
#
# number of rings (size 3 to 8) (size 9 to 14) (size 15 to 20)
#    0.000    1.667    5.000    1.500    9.333    0.000 
#    0.000    0.000    0.000    0.000    0.000    7.000 
#    0.000    0.000    0.000    0.000    0.000    0.000 
#
# Total GULP energy -133614.408411 kJ/mol
# GULP energy per Si atom -5567.267017 kJ/mol
# Density = 1.813247 g / cm^3
# Si number density = 18.173832 Si / 1000 Ang^3
#
#
#
# Elastic Constant Matrix: (Units=GPa)
#
#
# Indices 1 2 3 4 5 6 
#
# 1 74.2696 17.4341 33.6337 0.0000 7.5331 0.0000
# 2 17.4341 64.7784 21.7472 0.0000 0.6517 0.0000
# 3 33.6337 21.7472 69.3264 0.0000 29.4159 0.0000
# 4 0.0000 0.0000 0.0000 25.2229 0.0000 5.2095
# 5 7.5331 0.6517 29.4159 0.0000 31.1590 0.0000
# 6 0.0000 0.0000 0.0000 5.2095 0.0000 16.6005
#
#
#
# Elastic Compliance Matrix: (Units=1/GPa)
#
#
# Indices 1 2 3 4 5 6 
#
# 1 0.018098 -0.001270 -0.010905 0.000000 0.005946 0.000000
# 2 -0.001270 0.018601 -0.008649 0.000000 0.008083 0.000000
# 3 -0.010905 -0.008649 0.035421 0.000000 -0.030623 0.000000
# 4 0.000000 0.000000 0.000000 0.042394 0.000000 -0.013304
# 5 0.005946 0.008083 -0.030623 0.000000 0.059396 0.000000
# 6 0.000000 0.000000 0.000000 -0.013304 0.000000 0.064414
#
#
# Mechanical properties :
#
#
# Convention : Reuss Voigt Hill
#
# Bulk Modulus (GPa) = 32.81455 39.33381 36.07418
# Shear Modulus (GPa) = 17.23369 23.63378 20.43373
#
# Velocity S-wave (km/s) = 3.08274 3.61006 3.35677
# Velocity P-wave (km/s) = 5.54673 6.25034 5.90902
#
# Compressibility (1/GPa) = 0.03047428
#
# Stress axis : x y z
#
# Youngs Moduli (GPa) = 55.25553 53.76015 28.23145
#
# Poissons Ratio (x) = 0.06826 0.30786
# Poissons Ratio (y) = 0.07015 0.24416
# Poissons Ratio (z) = 0.60255 0.46495
#
# Static dielectric constant tensor:
#      x y z
#    x 1.661270 0.000000 0.051880 
#    y 0.000000 1.679450 0.000000 
#    z 0.051880 0.000000 1.758800 
# 
# From -- ./inp_files/2669.got.cif
#   From: 2010.05.17/outbox.cif.g08.bks.cpg/sg14_2_cif.got.tgz:2669.got - 2010.06.03 17:49:19.
