data_PCOD9239747
_publ_section_title
;
Structure prediction by ZEFSAII (Michael W. Deem and Ramdas Pophale) SiO2 
 PCOD9239747
Probable space group: P 21/C
;
_chemical_formula_sum "Si O2"
_cell_formula_units_Z 28
_cell_length_a 14.850453
_cell_length_b 15.273936
_cell_length_c 9.144484
_cell_angle_alpha 90.000000
_cell_angle_beta 139.015521
_cell_angle_gamma 90.000000
_cell_volume 1360.371155
_symmetry_space_group_name_H-M "P 21/C"
_symmetry_group_IT_number 14
_symmetry_cell_setting 'monoclinic'
loop_
_space_group_symop_operation_xyz
x,y,z
-x,1/2+y,1/2-z
-x,-y,-z
x,1/2-y,1/2+z
loop_
_atom_site_type_symbol
_atom_site_label
_atom_site_fract_x
_atom_site_fract_y
_atom_site_fract_z
Si Si1 0.740738 0.300867 0.262311
Si Si2 0.643427 0.544611 0.487246
Si Si3 0.117302 0.314776 0.220811
Si Si4 0.464761 0.133432 0.389890
Si Si5 0.632662 0.703187 0.917677
Si Si6 0.433280 0.620302 0.455474
Si Si7 0.933323 0.256458 0.238954
O O1 0.824614 0.299296 0.215433
O O2 0.846530 0.305666 0.524879
O O3 0.625337 0.373914 0.112935
O O4 0.653907 0.209144 0.174096
O O5 0.775979 0.606373 0.671374
O O6 0.606626 0.550419 0.270625
O O7 0.506029 0.580248 0.402344
O O8 0.662091 0.449316 0.578598
O O9 0.208892 0.230288 0.381077
O O10 0.011667 0.323101 0.226056
O O11 0.037921 0.292729 0.975077
O O12 0.403606 0.172294 0.464104
O O13 0.437797 0.208284 0.232166
O O14 0.565767 0.635550 0.723478
#
# Coordination Sequence:
#
# PCOD9239747 Si02
#       7
#     4   4   4   4   4   4   4
#     4  10  18  33  51  76 102 132 176 218 251 307
#     4  10  20  34  54  79 107 137 169 217 277 320
#     4  10  18  33  51  76 102 132 176 218 251 307
#     4  10  18  31  54  78 101 130 170 224 271 305
#     4  10  18  31  54  78 101 130 170 224 271 305
#     4  10  20  34  54  79 107 137 169 217 277 320
#     4  10  20  30  50  72  98 136 174 208 250 296
#
# _framework density 20.582619000000001
#
# number of rings (size 3 to 8) (size 9 to 14) (size 15 to 20)
#    0.000    2.000    0.000    8.571    0.000    0.571 
#    0.000    2.857    0.000    3.429    0.000   12.000 
#    0.000    0.000    0.000    0.000    0.000    0.000 
#
# Total GULP energy -156064.008333 kJ/mol
# GULP energy per Si atom -5573.714583 kJ/mol
# Density = 2.053577 g / cm^3
# Si number density = 20.582619 Si / 1000 Ang^3
#
#
#
# Elastic Constant Matrix: (Units=GPa)
#
#
# Indices 1 2 3 4 5 6 
#
# 1 81.0815 7.4729 23.7815 0.0000 -6.8807 0.0000
# 2 7.4729 41.4912 17.5056 0.0000 -7.2512 0.0000
# 3 23.7815 17.5056 112.7585 0.0000 -7.3589 0.0000
# 4 0.0000 0.0000 0.0000 -102.9611 0.0000 -59.3171
# 5 -6.8807 -7.2512 -7.3589 0.0000 31.3249 0.0000
# 6 0.0000 0.0000 0.0000 -59.3171 0.0000 -3.0023
#
#
#
# Elastic Compliance Matrix: (Units=1/GPa)
#
#
# Indices 1 2 3 4 5 6 
#
# 1 0.013343 -0.000968 -0.002526 0.000000 0.002113 0.000000
# 2 -0.000968 0.026692 -0.003606 0.000000 0.005119 0.000000
# 3 -0.002526 -0.003606 0.010024 0.000000 0.000965 0.000000
# 4 0.000000 0.000000 0.000000 0.000935 0.000000 -0.018482
# 5 0.002113 0.005119 0.000965 0.000000 0.033799 0.000000
# 6 0.000000 0.000000 0.000000 -0.018482 0.000000 0.032081
#
#
# Mechanical properties :
#
#
# Convention : Reuss Voigt Hill
#
# Bulk Modulus (GPa) = 27.88676 36.98347 32.43511
# Shear Modulus (GPa) = 34.95852 -2.48962 16.23445
#
# Velocity S-wave (km/s) = 4.12569 -1.10100 2.81151
# Velocity P-wave (km/s) = 6.02273 4.04859 5.13149
#
# Compressibility (1/GPa) = 0.03585932
#
# Stress axis : x y z
#
# Youngs Moduli (GPa) = 74.94754 37.46480 99.76064
#
# Poissons Ratio (x) = 0.03627 0.25198
# Poissons Ratio (y) = 0.07256 0.35970
# Poissons Ratio (z) = 0.18931 0.13508
#
# Static dielectric constant tensor:
#      x y z
#    x 1.760450 0.000000 -0.014610 
#    y 0.000000 1.839290 0.000000 
#    z -0.014610 0.000000 1.762860 
# 
# From -- ./inp_files/16633.got.cif
#   From: 2010.05.17/outbox.cif.g08.bks.cpg/sg14_9_cif.got.tgz:16633.got - 2010.06.03 17:49:19.
