data_PCOD9239436
_publ_section_title
;
Structure prediction by ZEFSAII (Michael W. Deem and Ramdas Pophale) SiO2 
 PCOD9239436
Probable space group: P 21/C
;
_chemical_formula_sum "Si O2"
_cell_formula_units_Z 32
_cell_length_a 17.479718
_cell_length_b 17.298181
_cell_length_c 12.257680
_cell_angle_alpha 90.000000
_cell_angle_beta 151.417726
_cell_angle_gamma 90.000000
_cell_volume 1773.179302
_symmetry_space_group_name_H-M "P 21/C"
_symmetry_group_IT_number 14
_symmetry_cell_setting 'monoclinic'
loop_
_space_group_symop_operation_xyz
x,y,z
-x,1/2+y,1/2-z
-x,-y,-z
x,1/2-y,1/2+z
loop_
_atom_site_type_symbol
_atom_site_label
_atom_site_fract_x
_atom_site_fract_y
_atom_site_fract_z
Si Si1 0.297510 0.761806 0.112598
Si Si2 0.318350 0.636584 0.956869
Si Si3 0.081834 0.647276 0.190695
Si Si4 0.807484 0.849090 0.519661
Si Si5 0.486712 0.240474 0.935893
Si Si6 0.947417 0.209276 0.002470
Si Si7 0.610934 0.496836 0.802312
Si Si8 0.318471 0.578379 0.338594
O O1 0.470607 0.764574 0.386406
O O2 0.286592 0.687130 0.024573
O O3 0.236096 0.831269 0.959456
O O4 0.170392 0.758195 0.051270
O O5 0.156443 0.640567 0.682724
O O6 0.448623 0.688276 0.055234
O O7 0.372624 0.554098 0.068662
O O8 0.148360 0.588390 0.184092
O O9 0.939767 0.626805 0.094927
O O10 0.031620 0.724692 0.061889
O O11 0.690047 0.785871 0.317680
O O12 0.705852 0.923202 0.426656
O O13 0.896790 0.816267 0.737700
O O14 0.592623 0.162327 0.048684
O O15 0.429303 0.518450 0.543759
O O16 0.680605 0.451237 0.784185
#
# Coordination Sequence:
#
# PCOD9239436 Si02
#       8
#     4   4   4   4   4   4   4   4
#     4   9  15  30  57  80  97 132 191 229 254 321
#     4  10  17  32  61  77 102 155 182 218 279 325
#     4  10  18  35  58  78 108 150 180 225 278 327
#     4  10  23  34  49  87 118 135 178 241 276 321
#     4  10  18  33  55  83 100 135 197 232 257 315
#     4   9  18  33  53  81 107 144 186 221 272 337
#     4  10  21  34  54  84 117 139 182 232 270 334
#     4  10  18  35  56  79 107 145 187 218 269 331
#
# _framework density 18.046679999999999
#
# number of rings (size 3 to 8) (size 9 to 14) (size 15 to 20)
#    0.000    2.250    5.000    0.000    0.000    2.000 
#    0.000    0.000    5.500    6.750    0.000    0.000 
#    0.000    0.000    0.000    0.000    0.000    0.000 
#
# Total GULP energy -178189.948154 kJ/mol
# GULP energy per Si atom -5568.435880 kJ/mol
# Density = 1.800560 g / cm^3
# Si number density = 18.046680 Si / 1000 Ang^3
#
#
#
# Elastic Constant Matrix: (Units=GPa)
#
#
# Indices 1 2 3 4 5 6 
#
# 1 36.1073 17.6444 27.5276 0.0000 -13.1803 0.0000
# 2 17.6444 39.7377 27.8507 0.0000 4.2890 0.0000
# 3 27.5276 27.8507 124.9437 0.0000 -6.9931 0.0000
# 4 0.0000 0.0000 0.0000 13.3258 0.0000 2.5127
# 5 -13.1803 4.2890 -6.9931 0.0000 15.1822 0.0000
# 6 0.0000 0.0000 0.0000 2.5127 0.0000 22.9996
#
#
#
# Elastic Compliance Matrix: (Units=1/GPa)
#
#
# Indices 1 2 3 4 5 6 
#
# 1 0.079562 -0.041059 -0.003964 0.000000 0.078844 0.000000
# 2 -0.041059 0.053222 -0.005804 0.000000 -0.053353 0.000000
# 3 -0.003964 -0.005804 0.010336 0.000000 0.002959 0.000000
# 4 0.000000 0.000000 0.000000 0.076621 0.000000 -0.008371
# 5 0.078844 -0.053353 0.002959 0.000000 0.150750 0.000000
# 6 0.000000 0.000000 0.000000 -0.008371 0.000000 0.044394
#
#
# Mechanical properties :
#
#
# Convention : Reuss Voigt Hill
#
# Bulk Modulus (GPa) = 24.11534 38.53712 31.32623
# Shear Modulus (GPa) = 9.42757 18.81927 14.12342
#
# Velocity S-wave (km/s) = 2.28808 3.23276 2.80054
# Velocity P-wave (km/s) = 4.51356 5.94431 5.27764
#
# Compressibility (1/GPa) = 0.04146738
#
# Stress axis : x y z
#
# Youngs Moduli (GPa) = 12.56885 18.78913 96.74716
#
# Poissons Ratio (x) = 0.77146 0.38349
# Poissons Ratio (y) = 0.51606 0.56149
# Poissons Ratio (z) = 0.04982 0.10905
#
# Static dielectric constant tensor:
#      x y z
#    x 1.627940 0.000000 -0.010730 
#    y 0.000000 1.624740 0.000000 
#    z -0.010730 0.000000 1.662360 
# 
# From -- ./inp_files/34343.got.cif
#   From: 2010.05.17/outbox.cif.g08.bks.cpg/sg14_18_cif.got.tgz:34343.got - 2010.06.03 17:49:19.
