data_PCOD9239227
_publ_section_title
;
Structure prediction by ZEFSAII (Michael W. Deem and Ramdas Pophale) SiO2 
 PCOD9239227
Probable space group: P 21/C
;
_chemical_formula_sum "Si O2"
_cell_formula_units_Z 20
_cell_length_a 13.027521
_cell_length_b 12.152659
_cell_length_c 5.411171
_cell_angle_alpha 90.000000
_cell_angle_beta 78.013441
_cell_angle_gamma 90.000000
_cell_volume 838.012293
_symmetry_space_group_name_H-M "P 21/C"
_symmetry_group_IT_number 14
_symmetry_cell_setting 'monoclinic'
loop_
_space_group_symop_operation_xyz
x,y,z
-x,1/2+y,1/2-z
-x,-y,-z
x,1/2-y,1/2+z
loop_
_atom_site_type_symbol
_atom_site_label
_atom_site_fract_x
_atom_site_fract_y
_atom_site_fract_z
Si Si1 0.510717 0.430119 0.744642
Si Si2 0.803959 0.611254 0.598020
Si Si3 0.736493 0.320901 0.631753
Si Si4 0.965178 0.323423 0.517411
Si Si5 0.715076 0.638282 0.142462
O O1 0.500000 0.500000 0.500000
O O2 0.625102 0.379025 0.687449
O O3 0.410274 0.348483 0.794863
O O4 0.500000 0.500000 0.000000
O O5 0.751732 0.574039 0.368469
O O6 0.771849 0.743176 0.614075
O O7 0.928958 0.606607 0.535521
O O8 0.751732 0.574039 0.879798
O O9 0.738227 0.250000 0.380885
O O10 0.850660 0.380149 0.574670
O O11 0.970796 0.250000 0.264601
#
# Coordination Sequence:
#
# PCOD9239227 Si02
#       5
#     4   4   4   4   4
#     4  12  26  43  59  84 130 169 198 245 306 361
#     4  10  17  32  57  93 110 137 192 261 291 333
#     4  10  23  38  65  92 116 158 208 251 293 355
#     4  10  16  32  54  91 120 140 181 257 306 340
#     4  10  20  31  57  82 117 147 196 236 299 346
#
# _framework density 23.865998000000001
#
# number of rings (size 3 to 8) (size 9 to 14) (size 15 to 20)
#    0.000    1.600    4.000    2.400    5.600    0.000 
#    0.000    0.000    0.000    7.200    0.000    0.000 
#    0.000    0.000    0.000    0.000    0.000    0.000 
#
# Total GULP energy -111833.321046 kJ/mol
# GULP energy per Si atom -5591.666052 kJ/mol
# Density = 2.381168 g / cm^3
# Si number density = 23.865998 Si / 1000 Ang^3
#
#
#
# Elastic Constant Matrix: (Units=GPa)
#
#
# Indices 1 2 3 4 5 6 
#
# 1 291.1839 60.7238 70.1465 0.0000 -29.6423 0.0000
# 2 60.7238 42.0111 28.3615 0.0000 -7.2194 0.0000
# 3 70.1465 28.3615 229.6555 0.0000 15.9161 0.0000
# 4 0.0000 0.0000 0.0000 21.1511 0.0000 6.2388
# 5 -29.6423 -7.2194 15.9161 0.0000 54.2437 0.0000
# 6 0.0000 0.0000 0.0000 6.2388 0.0000 -6.8154
#
#
#
# Elastic Compliance Matrix: (Units=1/GPa)
#
#
# Indices 1 2 3 4 5 6 
#
# 1 0.005269 -0.006578 -0.000955 0.000000 0.002284 0.000000
# 2 -0.006578 0.035298 -0.002477 0.000000 0.001830 0.000000
# 3 -0.000955 -0.002477 0.005115 0.000000 -0.002352 0.000000
# 4 0.000000 0.000000 0.000000 0.037227 0.000000 0.034078
# 5 0.002284 0.001830 -0.002352 0.000000 0.020617 0.000000
# 6 0.000000 0.000000 0.000000 0.034078 0.000000 -0.115531
#
#
# Mechanical properties :
#
#
# Convention : Reuss Voigt Hill
#
# Bulk Modulus (GPa) = 38.96892 97.92379 68.44635
# Shear Modulus (GPa) = 301.77598 40.62379 171.19988
#
# Velocity S-wave (km/s) = 11.25702 4.13020 8.47877
# Velocity P-wave (km/s) = 13.61339 7.99153 11.16219
#
# Compressibility (1/GPa) = 0.02566148
#
# Stress axis : x y z
#
# Youngs Moduli (GPa) = 189.80099 28.33031 195.50334
#
# Poissons Ratio (x) = 0.18636 0.18674
# Poissons Ratio (y) = 1.24854 0.48421
# Poissons Ratio (z) = 0.18130 0.07017
#
# Static dielectric constant tensor:
#      x y z
#    x 1.872340 0.000000 0.011930 
#    y 0.000000 1.967420 0.000000 
#    z 0.011930 0.000000 1.925840 
# 
# From -- ./inp_files/2502.got.cif
#   From: 2010.05.17/outbox.cif.g08.bks.cpg/sg14_2_cif.got.tgz:2502.got - 2010.06.03 17:49:19.
