data_PCOD9239992
_publ_section_title
;
Structure prediction by ZEFSAII (Michael W. Deem and Ramdas Pophale) SiO2 
 PCOD9239992
Probable space group: P 21/C
;
_chemical_formula_sum "Si O2"
_cell_formula_units_Z 28
_cell_length_a 11.056818
_cell_length_b 14.181560
_cell_length_c 8.796597
_cell_angle_alpha 90.000000
_cell_angle_beta 120.379376
_cell_angle_gamma 90.000000
_cell_volume 1189.944015
_symmetry_space_group_name_H-M "P 21/C"
_symmetry_group_IT_number 14
_symmetry_cell_setting 'monoclinic'
loop_
_space_group_symop_operation_xyz
x,y,z
-x,1/2+y,1/2-z
-x,-y,-z
x,1/2-y,1/2+z
loop_
_atom_site_type_symbol
_atom_site_label
_atom_site_fract_x
_atom_site_fract_y
_atom_site_fract_z
Si Si1 0.725567 0.035907 0.093359
Si Si2 0.050151 0.251793 0.132570
Si Si3 0.585502 0.335962 0.946903
Si Si4 0.763192 0.275258 0.775345
Si Si5 0.551303 0.970384 0.279066
Si Si6 0.342752 0.225522 0.681221
Si Si7 0.857439 0.866063 0.038905
O O1 0.777148 0.140653 0.162031
O O2 0.655573 0.996280 0.204369
O O3 0.844948 0.967066 0.105222
O O4 0.602108 0.038202 0.891268
O O5 0.089781 0.145449 0.101583
O O6 0.903278 0.271321 0.962242
O O7 0.189832 0.301855 0.151707
O O8 0.051041 0.293300 0.301705
O O9 0.645297 0.304108 0.821148
O O10 0.556074 0.445876 0.903511
O O11 0.452444 0.265605 0.873825
O O12 0.702077 0.314366 0.147466
O O13 0.597364 0.866547 0.361537
O O14 0.297773 0.318434 0.558085
#
# Coordination Sequence:
#
# PCOD9239992 Si02
#       7
#     4   4   4   4   4   4   4
#     4  10  18  33  63  88 115 147 204 245 286 341
#     4  10  22  38  58  84 127 153 194 236 298 352
#     4  11  23  38  66  87 118 155 198 247 296 339
#     4  11  24  40  59  91 123 152 192 253 296 343
#     4  10  18  36  58  92 115 151 196 249 287 345
#     4  10  21  36  62  86 117 154 196 241 289 351
#     4  10  20  37  61  87 114 159 197 234 293 352
#
# _framework density 23.530519999999999
#
# number of rings (size 3 to 8) (size 9 to 14) (size 15 to 20)
#    0.857    0.857    4.286    0.857    2.000    0.571 
#    2.571    2.143    0.000    2.571    0.000    0.000 
#    0.000    0.000    0.000    0.000    0.000    0.000 
#
# Total GULP energy -156200.400098 kJ/mol
# GULP energy per Si atom -5578.585718 kJ/mol
# Density = 2.347696 g / cm^3
# Si number density = 23.530520 Si / 1000 Ang^3
#
#
#
# Elastic Constant Matrix: (Units=GPa)
#
#
# Indices 1 2 3 4 5 6 
#
# 1 42.4387 26.1973 18.3637 0.0000 1.2110 0.0000
# 2 26.1973 81.7217 19.6432 0.0000 -0.8658 0.0000
# 3 18.3637 19.6432 88.3515 0.0000 19.2033 0.0000
# 4 0.0000 0.0000 0.0000 28.4311 0.0000 -9.0270
# 5 1.2110 -0.8658 19.2033 0.0000 30.2676 0.0000
# 6 0.0000 0.0000 0.0000 -9.0270 0.0000 24.4874
#
#
#
# Elastic Compliance Matrix: (Units=1/GPa)
#
#
# Indices 1 2 3 4 5 6 
#
# 1 0.031024 -0.008764 -0.004843 0.000000 0.001581 0.000000
# 2 -0.008764 0.015575 -0.002104 0.000000 0.002131 0.000000
# 3 -0.004843 -0.002104 0.014806 0.000000 -0.009260 0.000000
# 4 0.000000 0.000000 0.000000 0.039835 0.000000 0.014685
# 5 0.001581 0.002131 -0.009260 0.000000 0.038911 0.000000
# 6 0.000000 0.000000 0.000000 0.014685 0.000000 0.046251
#
#
# Mechanical properties :
#
#
# Convention : Reuss Voigt Hill
#
# Bulk Modulus (GPa) = 33.35511 37.88003 35.61757
# Shear Modulus (GPa) = 21.94722 26.52438 24.23580
#
# Velocity S-wave (km/s) = 3.05735 3.36107 3.21280
# Velocity P-wave (km/s) = 5.16422 5.58530 5.37888
#
# Compressibility (1/GPa) = 0.02998042
#
# Stress axis : x y z
#
# Youngs Moduli (GPa) = 32.23277 64.20700 67.54210
#
# Poissons Ratio (x) = 0.56274 0.32713
# Poissons Ratio (y) = 0.28250 0.14213
# Poissons Ratio (z) = 0.15611 0.13511
#
# Static dielectric constant tensor:
#      x y z
#    x 1.968600 0.000000 -0.026890 
#    y 0.000000 1.897320 0.000000 
#    z -0.026890 0.000000 1.872130 
# 
# From -- ./inp_files/32611.got.cif
#   From: 2010.05.17/outbox.cif.g08.bks.cpg/sg14_17_cif.got.tgz:32611.got - 2010.06.03 17:49:19.
