data_PCOD9239108
_publ_section_title
;
Structure prediction by ZEFSAII (Michael W. Deem and Ramdas Pophale) SiO2 
 PCOD9239108
Probable space group: P 21/C
;
_chemical_formula_sum "Si O2"
_cell_formula_units_Z 28
_cell_length_a 5.507704
_cell_length_b 6.788339
_cell_length_c 28.013714
_cell_angle_alpha 90.000000
_cell_angle_beta 84.878177
_cell_angle_gamma 90.000000
_cell_volume 1043.199221
_symmetry_space_group_name_H-M "P 21/C"
_symmetry_group_IT_number 14
_symmetry_cell_setting 'monoclinic'
loop_
_space_group_symop_operation_xyz
x,y,z
-x,1/2+y,1/2-z
-x,-y,-z
x,1/2-y,1/2+z
loop_
_atom_site_type_symbol
_atom_site_label
_atom_site_fract_x
_atom_site_fract_y
_atom_site_fract_z
Si Si1 0.132270 0.460210 0.275496
Si Si2 0.512092 0.651435 0.453843
Si Si3 0.406142 0.667941 0.620708
Si Si4 0.473174 0.127996 0.294544
Si Si5 0.003545 0.261420 0.512641
Si Si6 0.068928 0.126224 0.407154
Si Si7 0.890964 0.160811 0.678529
O O1 0.228478 0.254406 0.292996
O O2 0.994594 0.415718 0.228338
O O3 0.375930 0.576839 0.254470
O O4 0.042835 0.608494 0.318213
O O5 0.500000 0.500000 0.500000
O O6 0.526024 0.539643 0.403360
O O7 0.759486 0.767427 0.458868
O O8 0.261342 0.769275 0.459764
O O9 0.366297 0.724815 0.676393
O O10 0.653086 0.795827 0.605811
O O11 0.153452 0.726560 0.601322
O O12 0.389972 0.917043 0.316495
O O13 0.040673 0.136582 0.464434
O O14 0.000000 0.500000 0.500000
O O15 0.018774 0.947141 0.370941
#
# Coordination Sequence:
#
# PCOD9239108 Si02
#       7
#     4   4   4   4   4   4   4
#     4  12  22  42  60  88 116 162 206 258 312 372
#     4  10  15  25  44  74 111 144 186 243 288 349
#     4  11  19  31  50  81 117 149 195 248 300 353
#     4  11  24  37  61  86 119 157 203 256 310 367
#     4  10  15  25  44  74 111 144 186 243 288 349
#     4  11  19  31  50  81 117 149 195 248 300 353
#     4  11  24  37  61  86 119 157 203 256 310 367
#
# _framework density 26.840509999999998
#
# number of rings (size 3 to 8) (size 9 to 14) (size 15 to 20)
#    0.000    1.143   10.000    0.000    0.000    0.000 
#    0.000    0.000    0.000    0.000    0.000    2.000 
#    0.000    0.000    0.000    0.000    0.000    0.000 
#
# Total GULP energy -156411.451257 kJ/mol
# GULP energy per Si atom -5586.123259 kJ/mol
# Density = 2.677942 g / cm^3
# Si number density = 26.840510 Si / 1000 Ang^3
#
#
#
# Elastic Constant Matrix: (Units=GPa)
#
#
# Indices 1 2 3 4 5 6 
#
# 1 124.0597 18.4037 0.7695 0.0000 3.5342 0.0000
# 2 18.4037 85.8354 18.1182 0.0000 3.7482 0.0000
# 3 0.7695 18.1182 90.6673 0.0000 1.2138 0.0000
# 4 0.0000 0.0000 0.0000 49.2782 0.0000 0.3050
# 5 3.5342 3.7482 1.2138 0.0000 42.3259 0.0000
# 6 0.0000 0.0000 0.0000 0.3050 0.0000 25.6735
#
#
#
# Elastic Compliance Matrix: (Units=1/GPa)
#
#
# Indices 1 2 3 4 5 6 
#
# 1 0.008346 -0.001829 0.000302 0.000000 -0.000544 0.000000
# 2 -0.001829 0.012607 -0.002492 0.000000 -0.000892 0.000000
# 3 0.000302 -0.002492 0.011527 0.000000 -0.000135 0.000000
# 4 0.000000 0.000000 0.000000 0.020294 0.000000 -0.000241
# 5 -0.000544 -0.000892 -0.000135 0.000000 0.023754 0.000000
# 6 0.000000 0.000000 0.000000 -0.000241 0.000000 0.038954
#
#
# Mechanical properties :
#
#
# Convention : Reuss Voigt Hill
#
# Bulk Modulus (GPa) = 40.91477 41.68281 41.29879
# Shear Modulus (GPa) = 37.97443 41.00691 39.49067
#
# Velocity S-wave (km/s) = 3.76549 3.91295 3.83993
# Velocity P-wave (km/s) = 5.84653 5.99820 5.92285
#
# Compressibility (1/GPa) = 0.02444105
#
# Stress axis : x y z
#
# Youngs Moduli (GPa) = 119.82330 79.31855 86.75630
#
# Poissons Ratio (x) = 0.14510 -0.02620
# Poissons Ratio (y) = 0.21920 0.21619
# Poissons Ratio (z) = -0.03619 0.19765
#
# Static dielectric constant tensor:
#      x y z
#    x 2.110870 0.000000 0.029410 
#    y 0.000000 2.182120 0.000000 
#    z 0.029410 0.000000 2.151720 
# 
# From -- ./inp_files/78622.got.cif
#   From: 2010.05.17/outbox.cif.g08.bks.cpg/sg14_40_cif.got.tgz:78622.got - 2010.06.03 17:49:19.
