data_PCOD9239059
_publ_section_title
;
Structure prediction by ZEFSAII (Michael W. Deem and Ramdas Pophale) SiO2 
 PCOD9239059
Probable space group: P 2/C
;
_chemical_formula_sum "Si O2"
_cell_formula_units_Z 26
_cell_length_a 15.000000
_cell_length_b 12.000000
_cell_length_c 21.000000
_cell_angle_alpha 90.000000
_cell_angle_beta 160.000000
_cell_angle_gamma 90.000000
_cell_volume 1292.836142
_symmetry_space_group_name_H-M "P 2/C"
_symmetry_group_IT_number 13
_symmetry_cell_setting 'monoclinic'
loop_
_space_group_symop_operation_xyz
x,y,z
-x,y,1/2-z
-x,-y,-z
x,-y,1/2+z
loop_
_atom_site_type_symbol
_atom_site_label
_atom_site_fract_x
_atom_site_fract_y
_atom_site_fract_z
Si Si1 0.419055 0.807177 0.895140
Si Si2 0.968119 0.862789 0.304003
Si Si3 0.300052 0.436338 0.531201
Si Si4 0.267842 0.416714 0.359279
Si Si5 0.500000 0.766702 0.250000
Si Si6 0.949529 0.045838 0.037714
Si Si7 0.385830 0.308221 0.104504
O O1 0.304695 0.706383 0.858342
O O2 0.494562 0.753244 0.877084
O O3 0.213849 0.901047 0.741491
O O4 0.657975 0.852984 0.097375
O O5 0.000000 0.892963 0.250000
O O6 0.091653 0.740540 0.401120
O O7 0.100092 0.947377 0.443220
O O8 0.269921 0.415304 0.436539
O O9 0.423408 0.324811 0.644333
O O10 0.426941 0.558317 0.626168
O O11 0.002604 0.454955 0.353926
O O12 0.500000 0.500000 0.500000
O O13 0.736654 0.853498 0.394529
O O14 0.000000 0.000000 0.000000
O O15 0.500000 0.274961 0.250000
#
# Coordination Sequence:
#
# PCOD9239059 Si02
#       7
#     4   4   4   4   2   4   4
#     4  11  23  44  67 102 130 177 236 273 343 412
#     4  10  25  43  72  98 132 182 234 281 339 408
#     4  11  24  43  67 100 140 179 218 279 344 415
#     4  11  22  41  68 100 137 175 223 277 333 411
#     4  12  28  48  64 102 142 182 226 280 362 406
#     4  12  28  47  70  99 138 181 237 290 344 405
#     4  11  22  42  69 100 139 175 221 281 347 406
#
# _framework density 20.110824000000001
#
# number of rings (size 3 to 8) (size 9 to 14) (size 15 to 20)
#    0.000    0.923    3.846    2.308   11.846    1.231 
#    2.769    2.308    0.000    0.000    0.000    0.000 
#    0.000    0.000    0.000    0.000    0.000    0.000 
#
# Total GULP energy -144890.896829 kJ/mol
# GULP energy per Si atom -5572.726801 kJ/mol
# Density = 2.006505 g / cm^3
# Si number density = 20.110824 Si / 1000 Ang^3
#
#
#
# Elastic Constant Matrix: (Units=GPa)
#
#
# Indices 1 2 3 4 5 6 
#
# 1 67.1680 36.9380 26.2093 0.0000 -25.9494 0.0000
# 2 36.9380 116.9613 17.3840 0.0000 -11.4201 0.0000
# 3 26.2093 17.3840 68.6829 0.0000 -13.9189 0.0000
# 4 0.0000 0.0000 0.0000 46.0982 0.0000 -6.1049
# 5 -25.9494 -11.4201 -13.9189 0.0000 30.3784 0.0000
# 6 0.0000 0.0000 0.0000 -6.1049 0.0000 33.9120
#
#
#
# Elastic Compliance Matrix: (Units=1/GPa)
#
#
# Indices 1 2 3 4 5 6 
#
# 1 0.027535 -0.006089 -0.005141 0.000000 0.018876 0.000000
# 2 -0.006089 0.010413 -0.000631 0.000000 -0.001576 0.000000
# 3 -0.005141 -0.000631 0.017355 0.000000 0.003323 0.000000
# 4 0.000000 0.000000 0.000000 0.022223 0.000000 0.004001
# 5 0.018876 -0.001576 0.003323 0.000000 0.049972 0.000000
# 6 0.000000 0.000000 0.000000 0.004001 0.000000 0.030208
#
#
# Mechanical properties :
#
#
# Convention : Reuss Voigt Hill
#
# Bulk Modulus (GPa) = 31.66541 45.98610 38.82575
# Shear Modulus (GPa) = 26.04784 33.56309 29.80546
#
# Velocity S-wave (km/s) = 3.60281 4.08966 3.85393
# Velocity P-wave (km/s) = 5.75210 6.72431 6.25712
#
# Compressibility (1/GPa) = 0.03158020
#
# Stress axis : x y z
#
# Youngs Moduli (GPa) = 36.31745 96.03623 57.62148
#
# Poissons Ratio (x) = 0.58474 0.29622
# Poissons Ratio (y) = 0.22113 0.03638
# Poissons Ratio (z) = 0.18670 0.06064
#
# Static dielectric constant tensor:
#      x y z
#    x 1.757760 0.000000 0.075010 
#    y 0.000000 1.677010 0.000000 
#    z 0.075010 0.000000 1.759720 
# 
# From -- ./inp_files/80226.got.cif
#   From: 2010.05.17/outbox.ucp.g08.bks.cvg/sg13_41_cif.got.tgz:80226.got - 2010.06.11 12:23:55.
