data_PCOD9239682
_publ_section_title
;
Structure prediction by ZEFSAII (Michael W. Deem and Ramdas Pophale) SiO2 
 PCOD9239682
Probable space group: P 21/C
;
_chemical_formula_sum "Si O2"
_cell_formula_units_Z 32
_cell_length_a 18.584327
_cell_length_b 13.726136
_cell_length_c 21.562821
_cell_angle_alpha 90.000000
_cell_angle_beta 159.411455
_cell_angle_gamma 90.000000
_cell_volume 1934.269081
_symmetry_space_group_name_H-M "P 21/C"
_symmetry_group_IT_number 14
_symmetry_cell_setting 'monoclinic'
loop_
_space_group_symop_operation_xyz
x,y,z
-x,1/2+y,1/2-z
-x,-y,-z
x,1/2-y,1/2+z
loop_
_atom_site_type_symbol
_atom_site_label
_atom_site_fract_x
_atom_site_fract_y
_atom_site_fract_z
Si Si1 0.678076 0.115850 0.836964
Si Si2 0.677009 0.883046 0.834671
Si Si3 0.152995 0.889117 0.888852
Si Si4 0.312434 0.695321 0.972252
Si Si5 0.956956 0.114022 0.954257
Si Si6 0.450424 0.885736 0.454542
Si Si7 0.860262 0.613479 0.620004
Si Si8 0.296740 0.193262 0.454008
O O1 0.868944 0.151656 0.948475
O O2 0.472946 0.165862 0.646024
O O3 0.650392 0.999510 0.803186
O O4 0.738692 0.127127 0.957084
O O5 0.464316 0.829981 0.650979
O O6 0.766633 0.871112 0.975684
O O7 0.842581 0.845939 0.917709
O O8 0.249511 0.808461 0.921658
O O9 0.912097 0.865607 0.701695
O O10 0.177621 0.002002 0.891678
O O11 0.427978 0.661313 0.003634
O O12 0.102084 0.635274 0.809913
O O13 0.769186 0.123556 0.755527
O O14 0.000000 0.000000 0.000000
O O15 0.613901 0.836206 0.540761
O O16 0.500000 0.000000 0.500000
O O17 0.761133 0.693733 0.584774
#
# Coordination Sequence:
#
# PCOD9239682 Si02
#       8
#     4   4   4   4   4   4   4   4
#     4   9  18  31  48  78 101 131 167 205 258 302
#     4  10  18  30  52  74 107 132 164 213 257 304
#     4  10  21  34  53  73 103 138 172 209 252 307
#     4  11  21  33  52  81 101 134 174 208 261 306
#     4   9  17  28  46  77 104 132 157 205 263 303
#     4  11  20  32  53  80 106 128 167 217 262 304
#     4  10  20  37  51  72 106 139 172 210 255 305
#     4  10  21  33  52  77 103 135 169 211 260 302
#
# _framework density 16.543716
#
# number of rings (size 3 to 8) (size 9 to 14) (size 15 to 20)
#    0.000    2.000    1.250    4.500    5.250    0.000 
#    0.000    0.625    0.000    0.000    0.000    1.750 
#    0.000    0.000    0.000    0.000    0.000    0.000 
#
# Total GULP energy -178452.863217 kJ/mol
# GULP energy per Si atom -5576.651976 kJ/mol
# Density = 1.650606 g / cm^3
# Si number density = 16.543716 Si / 1000 Ang^3
#
#
#
# Elastic Constant Matrix: (Units=GPa)
#
#
# Indices 1 2 3 4 5 6 
#
# 1 63.4517 52.8391 24.0972 0.0000 14.6789 0.0000
# 2 52.8391 108.0788 32.4672 0.0000 12.0226 0.0000
# 3 24.0972 32.4672 90.3512 0.0000 10.1370 0.0000
# 4 0.0000 0.0000 0.0000 -56.6707 0.0000 -29.4601
# 5 14.6789 12.0226 10.1370 0.0000 15.7451 0.0000
# 6 0.0000 0.0000 0.0000 -29.4601 0.0000 12.3193
#
#
#
# Elastic Compliance Matrix: (Units=1/GPa)
#
#
# Indices 1 2 3 4 5 6 
#
# 1 0.031239 -0.012723 -0.001705 0.000000 -0.018310 0.000000
# 2 -0.012723 0.016099 -0.002526 0.000000 0.001195 0.000000
# 3 -0.001705 -0.002526 0.012973 0.000000 -0.004834 0.000000
# 4 0.000000 0.000000 0.000000 -0.007867 0.000000 -0.018812
# 5 -0.018310 0.001195 -0.004834 0.000000 0.082782 0.000000
# 6 0.000000 0.000000 0.000000 -0.018812 0.000000 0.036187
#
#
# Mechanical properties :
#
#
# Convention : Reuss Voigt Hill
#
# Bulk Modulus (GPa) = 37.87639 53.40984 45.64311
# Shear Modulus (GPa) = 23.35119 4.44394 13.89757
#
# Velocity S-wave (km/s) = 3.76105 1.64074 2.90151
# Velocity P-wave (km/s) = 6.46568 5.99529 6.23492
#
# Compressibility (1/GPa) = 0.02640167
#
# Stress axis : x y z
#
# Youngs Moduli (GPa) = 32.01141 62.11692 77.08544
#
# Poissons Ratio (x) = 0.79034 0.13144
# Poissons Ratio (y) = 0.40730 0.19469
# Poissons Ratio (z) = 0.05458 0.15689
#
# Static dielectric constant tensor:
#      x y z
#    x 1.568480 0.000000 -0.004120 
#    y 0.000000 1.545890 0.000000 
#    z -0.004120 0.000000 1.568210 
# 
# From -- ./inp_files/61444.got.cif
#   From: 2010.05.17/outbox.cif.g08.bks.cpg/sg14_31_cif.got.tgz:61444.got - 2010.06.03 17:49:19.
