data_PCOD9239345
_publ_section_title
;
Structure prediction by ZEFSAII (Michael W. Deem and Ramdas Pophale) SiO2 
 PCOD9239345
Probable space group: P 21/C
;
_chemical_formula_sum "Si O2"
_cell_formula_units_Z 32
_cell_length_a 16.575815
_cell_length_b 21.649670
_cell_length_c 17.376263
_cell_angle_alpha 90.000000
_cell_angle_beta 162.541562
_cell_angle_gamma 90.000000
_cell_volume 1870.785219
_symmetry_space_group_name_H-M "P 21/C"
_symmetry_group_IT_number 14
_symmetry_cell_setting 'monoclinic'
loop_
_space_group_symop_operation_xyz
x,y,z
-x,1/2+y,1/2-z
-x,-y,-z
x,1/2-y,1/2+z
loop_
_atom_site_type_symbol
_atom_site_label
_atom_site_fract_x
_atom_site_fract_y
_atom_site_fract_z
Si Si1 0.493345 0.302038 0.000002
Si Si2 0.102302 0.220390 0.000003
Si Si3 0.450022 0.330045 0.499996
Si Si4 0.457663 0.933792 0.499990
Si Si5 0.151657 0.090344 0.000010
Si Si6 0.334492 0.443609 0.500003
Si Si7 0.938012 0.851206 0.500004
Si Si8 0.903798 0.510296 0.000003
O O1 0.431959 0.243902 0.999999
O O2 0.478763 0.375858 0.000003
O O3 0.798081 0.290581 0.250679
O O4 0.296731 0.290581 0.749328
O O5 0.165340 0.164792 0.000004
O O6 0.122307 0.292610 0.000000
O O7 0.373829 0.375205 0.500000
O O8 0.254221 0.345592 0.249827
O O9 0.754556 0.345593 0.750160
O O10 0.651424 0.926498 0.750283
O O11 0.500000 0.000000 0.500000
O O12 0.150830 0.926499 0.249684
O O13 0.238241 0.059014 0.000002
O O14 0.116932 0.478816 0.250175
O O15 0.616593 0.478815 0.749836
O O16 0.893226 0.916136 0.500001
O O17 0.000000 0.500000 0.000000
#
# Coordination Sequence:
#
# PCOD9239345 Si02
#       8
#     4   4   4   4   4   4   4   4
#     4   8  16  28  50  78  97 118 171 217 255 295
#     4   8  16  31  50  72  95 128 167 219 249 303
#     4  10  17  30  48  75 100 135 171 218 255 292
#     4  10  19  36  60  83 100 136 180 227 265 321
#     4  10  21  36  54  80 107 136 180 217 277 323
#     4  12  22  33  52  74 112 147 171 221 269 316
#     4  10  18  30  51  74 101 129 184 220 240 295
#     4  12  21  33  50  81 107 146 187 213 251 316
#
# _framework density 17.105118000000001
#
# number of rings (size 3 to 8) (size 9 to 14) (size 15 to 20)
#    0.000    2.000    2.500    2.250    0.000    0.000 
#    0.000    0.000    5.500    0.000    0.000    0.000 
#    0.000    0.000    0.000    0.000    0.000    0.000 
#
# Total GULP energy -178237.844941 kJ/mol
# GULP energy per Si atom -5569.932654 kJ/mol
# Density = 1.706619 g / cm^3
# Si number density = 17.105118 Si / 1000 Ang^3
#
#
#
# Elastic Constant Matrix: (Units=GPa)
#
#
# Indices 1 2 3 4 5 6 
#
# 1 59.5567 53.5828 32.1789 0.0000 0.3979 0.0000
# 2 53.5828 192.3024 36.4563 0.0000 -1.5876 0.0000
# 3 32.1789 36.4563 148.7847 0.0000 7.8654 0.0000
# 4 0.0000 0.0000 0.0000 26.2094 0.0000 0.0986
# 5 0.3979 -1.5876 7.8654 0.0000 16.5337 0.0000
# 6 0.0000 0.0000 0.0000 0.0986 0.0000 25.1447
#
#
#
# Elastic Compliance Matrix: (Units=1/GPa)
#
#
# Indices 1 2 3 4 5 6 
#
# 1 0.024274 -0.006037 -0.003805 0.000000 0.000646 0.000000
# 2 -0.006037 0.006978 -0.000459 0.000000 0.001034 0.000000
# 3 -0.003805 -0.000459 0.007851 0.000000 -0.003688 0.000000
# 4 0.000000 0.000000 0.000000 0.038155 0.000000 -0.000150
# 5 0.000646 0.001034 -0.003688 0.000000 0.062320 0.000000
# 6 0.000000 0.000000 0.000000 -0.000150 0.000000 0.039770
#
#
# Mechanical properties :
#
#
# Convention : Reuss Voigt Hill
#
# Bulk Modulus (GPa) = 54.04880 71.67553 62.86217
# Shear Modulus (GPa) = 24.25814 32.13928 28.19871
#
# Velocity S-wave (km/s) = 3.76996 4.33936 4.06464
# Velocity P-wave (km/s) = 7.11454 8.19150 7.67194
#
# Compressibility (1/GPa) = 0.01850180
#
# Stress axis : x y z
#
# Youngs Moduli (GPa) = 41.19718 143.31267 127.36667
#
# Poissons Ratio (x) = 0.86516 0.48460
# Poissons Ratio (y) = 0.24870 0.05843
# Poissons Ratio (z) = 0.15675 0.06574
#
# Static dielectric constant tensor:
#      x y z
#    x 1.526010 0.000000 0.003900 
#    y 0.000000 1.655690 0.000000 
#    z 0.003900 0.000000 1.568130 
# 
# From -- ./inp_files/38022.got.cif
#   From: 2010.05.17/outbox.cif.g08.bks.cpg/sg14_20_cif.got.tgz:38022.got - 2010.06.03 17:49:19.
