data_PCOD9239713
_publ_section_title
;
Structure prediction by ZEFSAII (Michael W. Deem and Ramdas Pophale) SiO2 
 PCOD9239713
Probable space group: P 21/C
;
_chemical_formula_sum "Si O2"
_cell_formula_units_Z 32
_cell_length_a 14.223304
_cell_length_b 21.046262
_cell_length_c 8.592265
_cell_angle_alpha 90.000000
_cell_angle_beta 134.734587
_cell_angle_gamma 90.000000
_cell_volume 1827.134993
_symmetry_space_group_name_H-M "P 21/C"
_symmetry_group_IT_number 14
_symmetry_cell_setting 'monoclinic'
loop_
_space_group_symop_operation_xyz
x,y,z
-x,1/2+y,1/2-z
-x,-y,-z
x,1/2-y,1/2+z
loop_
_atom_site_type_symbol
_atom_site_label
_atom_site_fract_x
_atom_site_fract_y
_atom_site_fract_z
Si Si1 0.920856 0.906936 0.809920
Si Si2 0.670889 0.545118 0.401052
Si Si3 0.198065 0.960523 0.189779
Si Si4 0.422933 0.255361 0.177099
Si Si5 0.716752 0.831300 0.754146
Si Si6 0.748671 0.922445 0.316142
Si Si7 0.375641 0.950914 0.684090
Si Si8 0.510577 0.160534 0.025334
O O1 0.857229 0.851887 0.843762
O O2 0.865673 0.902198 0.568922
O O3 0.862938 0.973644 0.810928
O O4 0.077724 0.914653 0.005264
O O5 0.719713 0.484162 0.363504
O O6 0.664053 0.604408 0.274036
O O7 0.770456 0.564135 0.658016
O O8 0.526512 0.535571 0.307225
O O9 0.292274 0.933560 0.433986
O O10 0.304745 0.224179 0.142976
O O11 0.488347 0.198170 0.158847
O O12 0.529290 0.288659 0.412307
O O13 0.368714 0.305988 0.990204
O O14 0.688474 0.987103 0.316008
O O15 0.631054 0.871078 0.181627
O O16 0.385971 0.894787 0.821940
#
# Coordination Sequence:
#
# PCOD9239713 Si02
#       8
#     4   4   4   4   4   4   4   4
#     4   9  18  33  50  72 102 135 168 213 247 310
#     4  10  18  31  48  79 104 134 170 212 257 315
#     4   9  19  32  50  72 101 141 169 199 262 302
#     4  10  19  30  51  77 100 130 168 217 266 300
#     4  10  18  31  51  75 101 126 171 217 259 300
#     4  10  18  32  51  76 109 138 170 214 263 306
#     4  10  19  33  51  74 111 140 170 212 260 318
#     4  10  18  32  48  79  99 130 168 214 267 301
#
# _framework density 17.513757999999999
#
# number of rings (size 3 to 8) (size 9 to 14) (size 15 to 20)
#    0.000    2.250    3.750    1.875    0.000    0.500 
#    2.250    0.000    0.000    1.500    0.000    0.000 
#    0.000    0.000    0.000    0.000    0.000    0.000 
#
# Total GULP energy -178185.569986 kJ/mol
# GULP energy per Si atom -5568.299062 kJ/mol
# Density = 1.747390 g / cm^3
# Si number density = 17.513758 Si / 1000 Ang^3
#
#
#
# Elastic Constant Matrix: (Units=GPa)
#
#
# Indices 1 2 3 4 5 6 
#
# 1 36.0060 23.2209 26.5153 0.0000 -11.9182 0.0000
# 2 23.2209 48.2249 9.7021 0.0000 -9.9626 0.0000
# 3 26.5153 9.7021 80.3625 0.0000 -14.3771 0.0000
# 4 0.0000 0.0000 0.0000 15.4487 0.0000 -6.9386
# 5 -11.9182 -9.9626 -14.3771 0.0000 21.9384 0.0000
# 6 0.0000 0.0000 0.0000 -6.9386 0.0000 23.5855
#
#
#
# Elastic Compliance Matrix: (Units=1/GPa)
#
#
# Indices 1 2 3 4 5 6 
#
# 1 0.055597 -0.021662 -0.013690 0.000000 0.011395 0.000000
# 2 -0.021662 0.031398 0.004307 0.000000 0.005313 0.000000
# 3 -0.013690 0.004307 0.017513 0.000000 0.005996 0.000000
# 4 0.000000 0.000000 0.000000 0.074585 0.000000 0.021942
# 5 0.011395 0.005313 0.005996 0.000000 0.058114 0.000000
# 6 0.000000 0.000000 0.000000 0.021942 0.000000 0.048854
#
#
# Mechanical properties :
#
#
# Convention : Reuss Voigt Hill
#
# Bulk Modulus (GPa) = 23.57524 31.49667 27.53595
# Shear Modulus (GPa) = 13.80107 19.20488 16.50298
#
# Velocity S-wave (km/s) = 2.81020 3.31503 3.07300
# Velocity P-wave (km/s) = 4.90101 5.71625 5.32426
#
# Compressibility (1/GPa) = 0.04241738
#
# Stress axis : x y z
#
# Youngs Moduli (GPa) = 17.98669 31.84938 57.09962
#
# Poissons Ratio (x) = 0.68993 0.78170
# Poissons Ratio (y) = 0.38963 -0.24594
# Poissons Ratio (z) = 0.24624 -0.13718
#
# Static dielectric constant tensor:
#      x y z
#    x 1.613440 0.000000 -0.034350 
#    y 0.000000 1.630490 0.000000 
#    z -0.034350 0.000000 1.611270 
# 
# From -- ./inp_files/14034.got.cif
#   From: 2010.05.17/outbox.cif.g08.bks.cpg/sg14_8_cif.got.tgz:14034.got - 2010.06.03 17:49:19.
