data_PCOD9239259
_publ_section_title
;
Structure prediction by ZEFSAII (Michael W. Deem and Ramdas Pophale) SiO2 
 PCOD9239259
Probable space group: P 21/C
;
_chemical_formula_sum "Si O2"
_cell_formula_units_Z 30
_cell_length_a 13.234312
_cell_length_b 11.492541
_cell_length_c 13.600488
_cell_angle_alpha 90.000000
_cell_angle_beta 147.608846
_cell_angle_gamma 90.000000
_cell_volume 1108.129906
_symmetry_space_group_name_H-M "P 21/C"
_symmetry_group_IT_number 14
_symmetry_cell_setting 'monoclinic'
loop_
_space_group_symop_operation_xyz
x,y,z
-x,1/2+y,1/2-z
-x,-y,-z
x,1/2-y,1/2+z
loop_
_atom_site_type_symbol
_atom_site_label
_atom_site_fract_x
_atom_site_fract_y
_atom_site_fract_z
Si Si1 0.594371 0.073958 0.192274
Si Si2 0.176734 0.199550 0.515412
Si Si3 0.406965 0.874520 0.132229
Si Si4 0.440167 0.663077 0.889686
Si Si5 0.856134 0.668989 0.249937
Si Si6 0.139700 0.673360 0.929856
Si Si7 0.050027 0.578304 0.658490
Si Si8 0.000000 0.500000 0.000000
O O1 0.548802 0.196491 0.106482
O O2 0.694521 0.110793 0.376875
O O3 0.422932 0.992403 0.083584
O O4 0.769251 0.012700 0.283423
O O5 0.393701 0.187953 0.724318
O O6 0.164499 0.188968 0.386103
O O7 0.102033 0.324086 0.491561
O O8 0.055429 0.096760 0.461748
O O9 0.415360 0.886531 0.258115
O O10 0.234162 0.790339 0.965382
O O11 0.255292 0.622389 0.793920
O O12 0.643096 0.635309 0.102859
O O13 0.977447 0.557492 0.383999
O O14 0.978195 0.785278 0.374124
O O15 0.058595 0.588573 0.783547
#
# Coordination Sequence:
#
# PCOD9239259 Si02
#       8
#     4   4   4   4   4   4   4   2
#     4  10  20  38  61  82 115 152 191 242 281 348
#     4   9  19  35  60  85 111 157 191 236 291 343
#     4   9  20  38  58  83 114 153 194 231 293 345
#     4  10  20  38  59  86 114 156 193 238 289 341
#     4  10  22  37  57  83 120 156 188 229 300 345
#     4  10  22  38  57  87 116 154 194 232 294 345
#     4  11  20  38  60  86 118 153 190 248 281 345
#     4  10  16  34  60  84 106 144 198 234 282 328
#
# _framework density 27.072638000000001
#
# number of rings (size 3 to 8) (size 9 to 14) (size 15 to 20)
#    0.000    2.133    1.333    2.800    0.000    4.267 
#    4.800    3.333    2.933    0.000    0.000    0.000 
#    0.000    0.000    0.000    0.000    0.000    0.000 
#
# Total GULP energy -167494.171671 kJ/mol
# GULP energy per Si atom -5583.139056 kJ/mol
# Density = 2.701102 g / cm^3
# Si number density = 27.072638 Si / 1000 Ang^3
#
#
#
# Elastic Constant Matrix: (Units=GPa)
#
#
# Indices 1 2 3 4 5 6 
#
# 1 79.6564 40.4242 12.7158 0.0000 18.6273 0.0000
# 2 40.4242 79.4057 -1.8455 0.0000 15.4380 0.0000
# 3 12.7158 -1.8455 70.3275 0.0000 19.0751 0.0000
# 4 0.0000 0.0000 0.0000 31.2095 0.0000 2.5814
# 5 18.6273 15.4380 19.0751 0.0000 40.3763 0.0000
# 6 0.0000 0.0000 0.0000 2.5814 0.0000 46.7011
#
#
#
# Elastic Compliance Matrix: (Units=1/GPa)
#
#
# Indices 1 2 3 4 5 6 
#
# 1 0.018216 -0.008556 -0.002439 0.000000 -0.003980 0.000000
# 2 -0.008556 0.017881 0.003211 0.000000 -0.004407 0.000000
# 3 -0.002439 0.003211 0.016943 0.000000 -0.008107 0.000000
# 4 0.000000 0.000000 0.000000 0.032189 0.000000 -0.001779
# 5 -0.003980 -0.004407 -0.008107 0.000000 0.032118 0.000000
# 6 0.000000 0.000000 0.000000 -0.001779 0.000000 0.021511
#
#
# Mechanical properties :
#
#
# Convention : Reuss Voigt Hill
#
# Bulk Modulus (GPa) = 26.68561 36.88653 31.78607
# Shear Modulus (GPa) = 29.95505 35.53039 32.74272
#
# Velocity S-wave (km/s) = 3.32997 3.62665 3.48147
# Velocity P-wave (km/s) = 4.96623 5.58492 5.28464
#
# Compressibility (1/GPa) = 0.03747339
#
# Stress axis : x y z
#
# Youngs Moduli (GPa) = 54.89619 55.92577 59.02005
#
# Poissons Ratio (x) = 0.47852 0.14393
# Poissons Ratio (y) = 0.46971 -0.18954
# Poissons Ratio (z) = 0.13387 -0.17960
#
# Static dielectric constant tensor:
#      x y z
#    x 2.211620 0.000000 -0.007140 
#    y 0.000000 2.232590 0.000000 
#    z -0.007140 0.000000 2.043600 
# 
# From -- ./inp_files/55570.got.cif
#   From: 2010.05.17/outbox.cif.g08.bks.cpg/sg14_28_cif.got.tgz:55570.got - 2010.06.03 17:49:19.
