data_PCOD9239203
_publ_section_title
;
Structure prediction by ZEFSAII (Michael W. Deem and Ramdas Pophale) SiO2 
 PCOD9239203
Probable space group: P 21/C
;
_chemical_formula_sum "Si O2"
_cell_formula_units_Z 32
_cell_length_a 11.064619
_cell_length_b 25.823784
_cell_length_c 10.720195
_cell_angle_alpha 90.000000
_cell_angle_beta 144.974278
_cell_angle_gamma 90.000000
_cell_volume 1758.039559
_symmetry_space_group_name_H-M "P 21/C"
_symmetry_group_IT_number 14
_symmetry_cell_setting 'monoclinic'
loop_
_space_group_symop_operation_xyz
x,y,z
-x,1/2+y,1/2-z
-x,-y,-z
x,1/2-y,1/2+z
loop_
_atom_site_type_symbol
_atom_site_label
_atom_site_fract_x
_atom_site_fract_y
_atom_site_fract_z
Si Si1 0.527843 0.912824 0.639668
Si Si2 0.969591 0.931093 0.883936
Si Si3 0.112473 0.536267 0.779546
Si Si4 0.872401 0.317109 0.549975
Si Si5 0.774421 0.323182 0.197952
Si Si6 0.528598 0.258944 0.362578
Si Si7 0.837512 0.629721 0.596289
Si Si8 0.258462 0.237219 0.886018
O O1 0.726962 0.927656 0.724214
O O2 0.357585 0.957650 0.520541
O O3 0.392092 0.869214 0.455330
O O4 0.626855 0.889173 0.849620
O O5 0.977897 0.978507 0.794161
O O6 0.089958 0.947531 0.113295
O O7 0.050953 0.876338 0.900983
O O8 0.974516 0.578155 0.740276
O O9 0.773753 0.299927 0.333806
O O10 0.675075 0.309875 0.476031
O O11 0.068728 0.278674 0.735951
O O12 0.011324 0.342493 0.377545
O O13 0.706180 0.284711 0.032409
O O14 0.383861 0.254934 0.362857
O O15 0.394746 0.247160 0.126302
O O16 0.804219 0.676107 0.664676
#
# Coordination Sequence:
#
# PCOD9239203 Si02
#       8
#     4   4   4   4   4   4   4   4
#     4  10  16  30  56  81 112 151 189 239 290 348
#     4  10  19  32  51  84 119 148 197 241 301 342
#     4   9  19  32  54  82 114 156 191 245 294 351
#     4  12  23  37  58  85 127 157 191 253 297 346
#     4  11  19  37  54  83 120 156 189 234 297 348
#     4  12  25  37  60  86 119 165 198 239 296 357
#     4  10  19  34  55  80 113 151 193 240 288 352
#     4  12  25  39  59  88 121 159 202 239 299 359
#
# _framework density 18.202093999999999
#
# number of rings (size 3 to 8) (size 9 to 14) (size 15 to 20)
#    0.000    1.250    7.500    1.875    0.000    0.000 
#    0.000    0.000    0.000    0.750    0.000    1.750 
#    0.000    0.000    0.000    0.000    0.000    0.000 
#
# Total GULP energy -178190.684744 kJ/mol
# GULP energy per Si atom -5568.458898 kJ/mol
# Density = 1.816067 g / cm^3
# Si number density = 18.202094 Si / 1000 Ang^3
#
#
#
# Elastic Constant Matrix: (Units=GPa)
#
#
# Indices 1 2 3 4 5 6 
#
# 1 59.5711 19.5491 17.2918 0.0000 6.7128 0.0000
# 2 19.5491 84.8346 18.3348 0.0000 6.4368 0.0000
# 3 17.2918 18.3348 60.0119 0.0000 3.8976 0.0000
# 4 0.0000 0.0000 0.0000 19.4326 0.0000 0.3735
# 5 6.7128 6.4368 3.8976 0.0000 21.0859 0.0000
# 6 0.0000 0.0000 0.0000 0.3735 0.0000 25.7527
#
#
#
# Elastic Compliance Matrix: (Units=1/GPa)
#
#
# Indices 1 2 3 4 5 6 
#
# 1 0.019621 -0.003238 -0.004375 0.000000 -0.004449 0.000000
# 2 -0.003238 0.013369 -0.002989 0.000000 -0.002498 0.000000
# 3 -0.004375 -0.002989 0.018915 0.000000 -0.001191 0.000000
# 4 0.000000 0.000000 0.000000 0.051474 0.000000 -0.000747
# 5 -0.004449 -0.002498 -0.001191 0.000000 0.049824 0.000000
# 6 0.000000 0.000000 0.000000 -0.000747 0.000000 0.038842
#
#
# Mechanical properties :
#
#
# Convention : Reuss Voigt Hill
#
# Bulk Modulus (GPa) = 32.57403 34.97433 33.77418
# Shear Modulus (GPa) = 22.37303 23.20370 22.78836
#
# Velocity S-wave (km/s) = 3.50972 3.57428 3.54215
# Velocity P-wave (km/s) = 5.86164 6.02413 5.94344
#
# Compressibility (1/GPa) = 0.03069930
#
# Stress axis : x y z
#
# Youngs Moduli (GPa) = 50.96669 74.79751 52.86895
#
# Poissons Ratio (x) = 0.24221 0.23131
# Poissons Ratio (y) = 0.16504 0.15804
# Poissons Ratio (z) = 0.22299 0.22360
#
# Static dielectric constant tensor:
#      x y z
#    x 1.651560 0.000000 0.022790 
#    y 0.000000 1.709680 0.000000 
#    z 0.022790 0.000000 1.642910 
# 
# From -- ./inp_files/30856.got.cif
#   From: 2010.05.17/outbox.cif.g08.bks.cpg/sg14_16_cif.got.tgz:30856.got - 2010.06.03 17:49:19.
