data_PCOD9239415
_publ_section_title
;
Structure prediction by ZEFSAII (Michael W. Deem and Ramdas Pophale) SiO2 
 PCOD9239415
Probable space group: P 21/C
;
_chemical_formula_sum "Si O2"
_cell_formula_units_Z 20
_cell_length_a 9.036849
_cell_length_b 20.933744
_cell_length_c 5.573762
_cell_angle_alpha 90.000000
_cell_angle_beta 51.918513
_cell_angle_gamma 90.000000
_cell_volume 829.967758
_symmetry_space_group_name_H-M "P 21/C"
_symmetry_group_IT_number 14
_symmetry_cell_setting 'monoclinic'
loop_
_space_group_symop_operation_xyz
x,y,z
-x,1/2+y,1/2-z
-x,-y,-z
x,1/2-y,1/2+z
loop_
_atom_site_type_symbol
_atom_site_label
_atom_site_fract_x
_atom_site_fract_y
_atom_site_fract_z
Si Si1 0.742669 0.664542 0.007331
Si Si2 0.751084 0.857654 0.998916
Si Si3 0.480423 0.960738 0.769577
Si Si4 0.889386 0.500023 0.360614
Si Si5 0.588641 0.268228 0.161359
O O1 0.842682 0.667005 0.161874
O O2 0.626022 0.597516 0.123978
O O3 0.589497 0.719954 0.160503
O O4 0.842682 0.667005 0.652762
O O5 0.779950 0.932883 0.970050
O O6 0.528857 0.835599 0.221143
O O7 0.500000 0.000000 0.500000
O O8 0.500000 0.000000 0.000000
O O9 0.260315 0.942414 0.989685
O O10 0.000000 0.500000 0.500000
O O11 0.000000 0.500000 0.000000
O O12 0.687734 0.250000 0.312266
#
# Coordination Sequence:
#
# PCOD9239415 Si02
#       5
#     4   4   4   4   4
#     4  10  17  32  54  82 103 134 189 248 279 310
#     4  10  18  33  52  78 111 140 188 234 276 335
#     4  12  21  36  57  81 116 147 193 239 279 336
#     4  12  24  36  52  82 123 158 184 223 293 354
#     4   8  16  27  49  79 101 127 178 246 275 307
#
# _framework density 24.09732
#
# number of rings (size 3 to 8) (size 9 to 14) (size 15 to 20)
#    0.000    1.600    4.000    2.400    0.000    0.000 
#    0.000    0.000    0.000    0.000    0.000   75.600 
#    0.000    0.000    0.000    0.000    0.000    0.000 
#
# Total GULP energy -111453.638662 kJ/mol
# GULP energy per Si atom -5572.681933 kJ/mol
# Density = 2.404247 g / cm^3
# Si number density = 24.097320 Si / 1000 Ang^3
#
#
#
# Elastic Constant Matrix: (Units=GPa)
#
#
# Indices 1 2 3 4 5 6 
#
# 1 108.9119 15.3831 74.2895 0.0000 56.7517 0.0000
# 2 15.3831 90.5147 17.3408 0.0000 6.7037 0.0000
# 3 74.2895 17.3408 145.3966 0.0000 68.1772 0.0000
# 4 0.0000 0.0000 0.0000 22.8431 0.0000 15.2451
# 5 56.7517 6.7037 68.1772 0.0000 64.7208 0.0000
# 6 0.0000 0.0000 0.0000 15.2451 0.0000 18.3909
#
#
#
# Elastic Compliance Matrix: (Units=1/GPa)
#
#
# Indices 1 2 3 4 5 6 
#
# 1 0.017968 -0.001520 -0.003330 0.000000 -0.012090 0.000000
# 2 -0.001520 0.011443 -0.001299 0.000000 0.001516 0.000000
# 3 -0.003330 -0.001299 0.014429 0.000000 -0.012145 0.000000
# 4 0.000000 0.000000 0.000000 0.097985 0.000000 -0.081225
# 5 -0.012090 0.001516 -0.012145 0.000000 0.038689 0.000000
# 6 0.000000 0.000000 0.000000 -0.081225 0.000000 0.121706
#
#
# Mechanical properties :
#
#
# Convention : Reuss Voigt Hill
#
# Bulk Modulus (GPa) = 31.70475 62.09446 46.89960
# Shear Modulus (GPa) = 15.38313 37.04494 26.21404
#
# Velocity S-wave (km/s) = 2.52935 3.92510 3.30182
# Velocity P-wave (km/s) = 4.66001 6.80926 5.83445
#
# Compressibility (1/GPa) = 0.03154102
#
# Stress axis : x y z
#
# Youngs Moduli (GPa) = 55.65506 87.39085 69.30489
#
# Poissons Ratio (x) = 0.13285 0.23080
# Poissons Ratio (y) = 0.08461 0.09002
# Poissons Ratio (z) = 0.18534 0.11351
#
# Static dielectric constant tensor:
#      x y z
#    x 2.025320 0.000000 0.075440 
#    y 0.000000 2.054720 0.000000 
#    z 0.075440 0.000000 2.047350 
# 
# From -- ./inp_files/1433.got.cif
#   From: 2010.05.17/outbox.cif.g08.bks.cpg/sg14_1_cif.got.tgz:1433.got - 2010.06.03 17:49:19.
