data_PCOD9239149
_publ_section_title
;
Structure prediction by ZEFSAII (Michael W. Deem and Ramdas Pophale) SiO2 
 PCOD9239149
Probable space group: P 21/C
;
_chemical_formula_sum "Si O2"
_cell_formula_units_Z 32
_cell_length_a 6.916824
_cell_length_b 29.594875
_cell_length_c 5.609079
_cell_angle_alpha 90.000000
_cell_angle_beta 100.767766
_cell_angle_gamma 90.000000
_cell_volume 1127.975940
_symmetry_space_group_name_H-M "P 21/C"
_symmetry_group_IT_number 14
_symmetry_cell_setting 'monoclinic'
loop_
_space_group_symop_operation_xyz
x,y,z
-x,1/2+y,1/2-z
-x,-y,-z
x,1/2-y,1/2+z
loop_
_atom_site_type_symbol
_atom_site_label
_atom_site_fract_x
_atom_site_fract_y
_atom_site_fract_z
Si Si1 0.521966 0.263631 0.907117
Si Si2 0.033693 0.132306 0.133546
Si Si3 0.260591 0.502062 0.941274
Si Si4 0.383714 0.603546 0.470322
Si Si5 0.973200 0.096936 0.617774
Si Si6 0.264479 0.502827 0.442389
Si Si7 0.558530 0.133321 0.514446
Si Si8 0.916829 0.735391 0.269958
O O1 0.610387 0.260468 0.660923
O O2 0.497648 0.315449 0.979248
O O3 0.302063 0.243624 0.817141
O O4 0.082992 0.106133 0.393087
O O5 0.110086 0.182933 0.168821
O O6 0.795052 0.138508 0.075518
O O7 0.079803 0.107042 0.893539
O O8 0.169796 0.552396 0.923253
O O9 0.196180 0.481616 0.179112
O O10 0.500000 0.500000 0.000000
O O11 0.187310 0.483713 0.671833
O O12 0.257363 0.556983 0.441466
O O13 0.497494 0.607927 0.246717
O O14 0.495767 0.609716 0.745809
O O15 0.796333 0.133718 0.574275
O O16 0.500000 0.500000 0.500000
O O17 0.006313 0.759022 0.525256
#
# Coordination Sequence:
#
# PCOD9239149 Si02
#       8
#     4   4   4   4   4   4   4   4
#     4  10  21  37  52  66  85 114 156 198 230 267
#     4  10  18  30  48  65  91 122 144 183 233 268
#     4  10  16  25  41  63  96 131 150 174 207 260
#     4  10  17  30  43  70 100 121 143 181 223 273
#     4  10  17  30  43  70 100 121 143 181 223 273
#     4  10  16  25  41  63  96 131 150 174 207 260
#     4  10  18  30  48  65  91 122 144 183 233 268
#     4  10  21  37  52  66  85 114 156 198 230 267
#
# _framework density 28.369401
#
# number of rings (size 3 to 8) (size 9 to 14) (size 15 to 20)
#    0.000    2.000    5.000    1.500    0.000    0.000 
#    0.000   15.000    0.000    0.000    0.000    0.000 
#    0.000    8.000    0.000    0.000    0.000    0.000 
#
# Total GULP energy -178838.127769 kJ/mol
# GULP energy per Si atom -5588.691493 kJ/mol
# Density = 2.830483 g / cm^3
# Si number density = 28.369401 Si / 1000 Ang^3
#
#
#
# Elastic Constant Matrix: (Units=GPa)
#
#
# Indices 1 2 3 4 5 6 
#
# 1 87.7776 27.1428 52.5820 0.0000 -1.1998 0.0000
# 2 27.1428 108.5030 67.3741 0.0000 -4.0633 0.0000
# 3 52.5820 67.3741 398.8139 0.0000 -38.8316 0.0000
# 4 0.0000 0.0000 0.0000 41.0923 0.0000 -20.2147
# 5 -1.1998 -4.0633 -38.8316 0.0000 55.0738 0.0000
# 6 0.0000 0.0000 0.0000 -20.2147 0.0000 180.7325
#
#
#
# Elastic Compliance Matrix: (Units=1/GPa)
#
#
# Indices 1 2 3 4 5 6 
#
# 1 0.012957 -0.002414 -0.001386 0.000000 -0.000873 0.000000
# 2 -0.002414 0.010759 -0.001532 0.000000 -0.000339 0.000000
# 3 -0.001386 -0.001532 0.003151 0.000000 0.002079 0.000000
# 4 0.000000 0.000000 0.000000 0.025752 0.000000 0.002880
# 5 -0.000873 -0.000339 0.002079 0.000000 0.019579 0.000000
# 6 0.000000 0.000000 0.000000 0.002880 0.000000 0.005855
#
#
# Mechanical properties :
#
#
# Convention : Reuss Voigt Hill
#
# Bulk Modulus (GPa) = 61.71267 98.81027 80.26147
# Shear Modulus (GPa) = 53.12466 85.24608 69.18537
#
# Velocity S-wave (km/s) = 4.33205 5.48761 4.94371
# Velocity P-wave (km/s) = 6.84271 8.66356 7.80641
#
# Compressibility (1/GPa) = 0.01620413
#
# Stress axis : x y z
#
# Youngs Moduli (GPa) = 77.17948 92.94609 317.32005
#
# Poissons Ratio (x) = 0.22433 0.43966
# Poissons Ratio (y) = 0.18628 0.48626
# Poissons Ratio (z) = 0.10694 0.14243
#
# Static dielectric constant tensor:
#      x y z
#    x 2.221780 0.000000 -0.059480 
#    y 0.000000 2.657960 0.000000 
#    z -0.059480 0.000000 2.327220 
# 
# From -- ./inp_files/3382.got.cif
#   From: 2010.05.17/outbox.cif.g08.bks.cpg/sg14_2_cif.got.tgz:3382.got - 2010.06.03 17:49:19.
