data_PCOD9239666
_publ_section_title
;
Structure prediction by ZEFSAII (Michael W. Deem and Ramdas Pophale) SiO2 
 PCOD9239666
Probable space group: P 21/C
;
_chemical_formula_sum "Si O2"
_cell_formula_units_Z 28
_cell_length_a 16.781577
_cell_length_b 12.476406
_cell_length_c 5.591414
_cell_angle_alpha 90.000000
_cell_angle_beta 118.837767
_cell_angle_gamma 90.000000
_cell_volume 1025.516235
_symmetry_space_group_name_H-M "P 21/C"
_symmetry_group_IT_number 14
_symmetry_cell_setting 'monoclinic'
loop_
_space_group_symop_operation_xyz
x,y,z
-x,1/2+y,1/2-z
-x,-y,-z
x,1/2-y,1/2+z
loop_
_atom_site_type_symbol
_atom_site_label
_atom_site_fract_x
_atom_site_fract_y
_atom_site_fract_z
Si Si1 0.960783 0.756114 0.015619
Si Si2 0.580535 0.493918 0.424581
Si Si3 0.835324 0.530339 0.316848
Si Si4 0.326139 0.798145 0.801121
Si Si5 0.309989 0.195501 0.444544
Si Si6 0.489856 0.329909 0.973260
Si Si7 0.105138 0.478868 0.100023
O O1 0.012919 0.748011 0.340733
O O2 0.904087 0.866278 0.932758
O O3 0.893302 0.652241 0.913941
O O4 0.500000 0.500000 0.500000
O O5 0.664088 0.426912 0.656507
O O6 0.578078 0.613990 0.319722
O O7 0.557829 0.424020 0.157189
O O8 0.736611 0.580514 0.144666
O O9 0.843451 0.479531 0.590358
O O10 0.866154 0.475230 0.115712
O O11 0.289101 0.742160 0.990633
O O12 0.433892 0.761113 0.955002
O O13 0.282807 0.241840 0.662991
O O14 0.418562 0.185575 0.586180
O O15 0.000000 0.500000 0.000000
#
# Coordination Sequence:
#
# PCOD9239666 Si02
#       7
#     4   4   4   4   4   4   4
#     4   8  14  25  41  60  91 125 155 189 230 281
#     4  10  19  34  51  70 106 142 174 237 287 315
#     4  10  19  33  48  72 107 143 169 208 250 321
#     4  10  18  31  48  69  97 129 167 216 267 322
#     4  12  23  35  54  78 110 154 184 208 264 337
#     4  10  22  33  50  78 105 141 186 228 274 344
#     4  10  18  30  49  72 100 134 173 210 252 290
#
# _framework density 27.303321
#
# number of rings (size 3 to 8) (size 9 to 14) (size 15 to 20)
#    0.000    2.000    1.429    5.571    2.000    0.000 
#    0.000    0.000    0.000    0.000    0.000    0.000 
#    0.000   61.714    0.000    0.000    0.000    0.000 
#
# Total GULP energy -156320.634923 kJ/mol
# GULP energy per Si atom -5582.879819 kJ/mol
# Density = 2.724118 g / cm^3
# Si number density = 27.303321 Si / 1000 Ang^3
#
#
#
# Elastic Constant Matrix: (Units=GPa)
#
#
# Indices 1 2 3 4 5 6 
#
# 1 75.8254 10.8987 31.9452 0.0000 -21.5573 0.0000
# 2 10.8987 60.9295 16.9592 0.0000 1.6918 0.0000
# 3 31.9452 16.9592 179.2055 0.0000 -62.3723 0.0000
# 4 0.0000 0.0000 0.0000 25.4627 0.0000 -6.2891
# 5 -21.5573 1.6918 -62.3723 0.0000 46.1049 0.0000
# 6 0.0000 0.0000 0.0000 -6.2891 0.0000 28.3811
#
#
#
# Elastic Compliance Matrix: (Units=1/GPa)
#
#
# Indices 1 2 3 4 5 6 
#
# 1 0.015750 -0.003076 0.000162 0.000000 0.007697 0.000000
# 2 -0.003076 0.018157 -0.003595 0.000000 -0.006968 0.000000
# 3 0.000162 -0.003595 0.011271 0.000000 0.015455 0.000000
# 4 0.000000 0.000000 0.000000 0.041547 0.000000 0.009207
# 5 0.007697 -0.006968 0.015455 0.000000 0.046452 0.000000
# 6 0.000000 0.000000 0.000000 0.009207 0.000000 0.037275
#
#
# Mechanical properties :
#
#
# Convention : Reuss Voigt Hill
#
# Bulk Modulus (GPa) = 31.09504 48.39631 39.74568
# Shear Modulus (GPa) = 25.74797 37.06689 31.40743
#
# Velocity S-wave (km/s) = 3.07422 3.68855 3.39531
# Velocity P-wave (km/s) = 4.90046 5.99204 5.47353
#
# Compressibility (1/GPa) = 0.03215946
#
# Stress axis : x y z
#
# Youngs Moduli (GPa) = 63.49143 55.07561 88.72622
#
# Poissons Ratio (x) = 0.16942 -0.01441
# Poissons Ratio (y) = 0.19531 0.31899
# Poissons Ratio (z) = -0.01031 0.19801
#
# Static dielectric constant tensor:
#      x y z
#    x 2.106060 0.000000 -0.110460 
#    y 0.000000 2.366710 0.000000 
#    z -0.110460 0.000000 2.373960 
# 
# From -- ./inp_files/4159.got.cif
#   From: 2010.05.17/outbox.cif.g08.bks.cpg/sg14_3_cif.got.tgz:4159.got - 2010.06.03 17:49:19.
