data_PCOD9239139
_publ_section_title
;
Structure prediction by ZEFSAII (Michael W. Deem and Ramdas Pophale) SiO2 
 PCOD9239139
Probable space group: P 21/C
;
_chemical_formula_sum "Si O2"
_cell_formula_units_Z 28
_cell_length_a 9.791766
_cell_length_b 10.955879
_cell_length_c 28.388929
_cell_angle_alpha 90.000000
_cell_angle_beta 152.102752
_cell_angle_gamma 90.000000
_cell_volume 1424.946568
_symmetry_space_group_name_H-M "P 21/C"
_symmetry_group_IT_number 14
_symmetry_cell_setting 'monoclinic'
loop_
_space_group_symop_operation_xyz
x,y,z
-x,1/2+y,1/2-z
-x,-y,-z
x,1/2-y,1/2+z
loop_
_atom_site_type_symbol
_atom_site_label
_atom_site_fract_x
_atom_site_fract_y
_atom_site_fract_z
Si Si1 0.408872 0.752200 0.033686
Si Si2 0.755880 0.962261 0.612926
Si Si3 0.787589 0.263242 0.781560
Si Si4 0.057012 0.417681 0.285854
Si Si5 0.609762 0.111616 0.066098
Si Si6 0.881001 0.657502 0.422339
Si Si7 0.979025 0.883319 0.059584
O O1 0.375455 0.780893 0.967519
O O2 0.090125 0.752147 0.957906
O O3 0.586012 0.629803 0.095742
O O4 0.619891 0.857653 0.119389
O O5 0.002859 0.880382 0.662608
O O6 0.500000 0.000000 0.500000
O O7 0.901944 0.067321 0.688666
O O8 0.454060 0.304272 0.677632
O O9 0.848605 0.196732 0.849828
O O10 0.882420 0.166958 0.769534
O O11 0.110335 0.553999 0.323193
O O12 0.357847 0.133032 0.027283
O O13 0.500000 0.000000 0.000000
O O14 0.927092 0.525600 0.411369
O O15 0.003214 0.652330 0.512658
#
# Coordination Sequence:
#
# PCOD9239139 Si02
#       7
#     4   4   4   4   4   4   4
#     4  10  21  42  62  96 120 165 219 262 316 368
#     4  11  25  40  64  95 128 166 215 266 322 378
#     4  11  24  42  64  97 130 174 205 265 334 369
#     4  10  20  39  66  91 120 168 219 256 311 382
#     4  10  15  37  68  85 115 158 218 262 291 372
#     4  11  24  39  66  94 131 168 211 264 315 388
#     4  11  21  41  65  93 128 167 213 258 315 383
#
# _framework density 19.649861000000001
#
# number of rings (size 3 to 8) (size 9 to 14) (size 15 to 20)
#    0.000    1.429    7.143    0.857    4.000    3.429 
#    5.143    0.714    0.000    0.000    0.000    0.000 
#    0.000    0.000    0.000    0.000    0.000    0.000 
#
# Total GULP energy -156202.586585 kJ/mol
# GULP energy per Si atom -5578.663807 kJ/mol
# Density = 1.960514 g / cm^3
# Si number density = 19.649861 Si / 1000 Ang^3
#
#
#
# Elastic Constant Matrix: (Units=GPa)
#
#
# Indices 1 2 3 4 5 6 
#
# 1 72.5857 12.0110 33.2698 0.0000 8.3611 0.0000
# 2 12.0110 37.4596 35.8044 0.0000 -4.1196 0.0000
# 3 33.2698 35.8044 132.9937 0.0000 -0.1211 0.0000
# 4 0.0000 0.0000 0.0000 29.4206 0.0000 -1.5383
# 5 8.3611 -4.1196 -0.1211 0.0000 45.7521 0.0000
# 6 0.0000 0.0000 0.0000 -1.5383 0.0000 5.5167
#
#
#
# Elastic Compliance Matrix: (Units=1/GPa)
#
#
# Indices 1 2 3 4 5 6 
#
# 1 0.016078 -0.002228 -0.003425 0.000000 -0.003148 0.000000
# 2 -0.002228 0.036731 -0.009328 0.000000 0.003690 0.000000
# 3 -0.003425 -0.009328 0.010887 0.000000 -0.000185 0.000000
# 4 0.000000 0.000000 0.000000 0.034493 0.000000 0.009618
# 5 -0.003148 0.003690 -0.000185 0.000000 0.022764 0.000000
# 6 0.000000 0.000000 0.000000 0.009618 0.000000 0.183949
#
#
# Mechanical properties :
#
#
# Convention : Reuss Voigt Hill
#
# Bulk Modulus (GPa) = 29.64310 45.02328 37.33319
# Shear Modulus (GPa) = 14.44631 26.93479 20.69055
#
# Velocity S-wave (km/s) = 2.71437 3.70636 3.24846
# Velocity P-wave (km/s) = 4.99421 6.42485 5.75417
#
# Compressibility (1/GPa) = 0.03373467
#
# Stress axis : x y z
#
# Youngs Moduli (GPa) = 62.19679 27.22464 91.85117
#
# Poissons Ratio (x) = 0.06064 0.31461
# Poissons Ratio (y) = 0.13854 0.85681
# Poissons Ratio (z) = 0.21304 0.25396
#
# Static dielectric constant tensor:
#      x y z
#    x 1.671630 0.000000 -0.035040 
#    y 0.000000 1.784740 0.000000 
#    z -0.035040 0.000000 1.701010 
# 
# From -- ./inp_files/76658.got.cif
#   From: 2010.05.17/outbox.cif.g08.bks.cpg/sg14_39_cif.got.tgz:76658.got - 2010.06.03 17:49:19.
