data_PCOD9239123
_publ_section_title
;
Structure prediction by ZEFSAII (Michael W. Deem and Ramdas Pophale) SiO2 
 PCOD9239123
Probable space group: P 21/C
;
_chemical_formula_sum "Si O2"
_cell_formula_units_Z 32
_cell_length_a 7.647371
_cell_length_b 15.532538
_cell_length_c 13.568684
_cell_angle_alpha 90.000000
_cell_angle_beta 45.465256
_cell_angle_gamma 90.000000
_cell_volume 1148.881964
_symmetry_space_group_name_H-M "P 21/C"
_symmetry_group_IT_number 14
_symmetry_cell_setting 'monoclinic'
loop_
_space_group_symop_operation_xyz
x,y,z
-x,1/2+y,1/2-z
-x,-y,-z
x,1/2-y,1/2+z
loop_
_atom_site_type_symbol
_atom_site_label
_atom_site_fract_x
_atom_site_fract_y
_atom_site_fract_z
Si Si1 0.502194 0.811550 0.192335
Si Si2 0.117409 0.086976 0.075262
Si Si3 0.260853 0.900755 0.961850
Si Si4 0.934753 0.099767 0.540003
Si Si5 0.282074 0.502232 0.163448
Si Si6 0.544003 0.873756 0.685815
Si Si7 0.264514 0.308162 0.179186
Si Si8 0.194676 0.718618 0.093124
O O1 0.279188 0.876520 0.300455
O O2 0.399704 0.714599 0.219393
O O3 0.648460 0.803288 0.239187
O O4 0.670737 0.846248 0.037708
O O5 0.934324 0.095948 0.052312
O O6 0.934314 0.072806 0.241815
O O7 0.241481 0.992491 0.019906
O O8 0.529700 0.885025 0.808543
O O9 0.209356 0.814557 0.040327
O O10 0.871708 0.147518 0.463239
O O11 0.194259 0.140794 0.465671
O O12 0.000000 0.000000 0.500000
O O13 0.441295 0.533902 0.193339
O O14 0.177430 0.407275 0.205635
O O15 0.500000 0.500000 0.000000
O O16 0.047169 0.240503 0.244770
O O17 0.511915 0.301625 0.015307
#
# Coordination Sequence:
#
# PCOD9239123 Si02
#       8
#     4   4   4   4   4   4   4   4
#     4  11  20  32  58  96 120 146 188 245 325 360
#     4  10  18  31  58  79 111 146 201 234 284 343
#     4  10  15  29  53  85 110 144 181 242 293 343
#     4  11  20  31  50  89 133 149 172 237 325 375
#     4  11  25  42  60  79 113 172 215 238 279 357
#     4  11  20  34  57  85 123 152 191 250 297 366
#     4  11  20  36  59  92 124 151 199 247 305 370
#     4  11  18  32  55  91 128 148 184 241 314 369
#
# _framework density 27.853165000000001
#
# number of rings (size 3 to 8) (size 9 to 14) (size 15 to 20)
#    0.000    1.250    6.250    3.750    1.750    0.000 
#    0.000    1.250    0.000    0.750    0.000    0.000 
#    0.000    0.000    0.000    0.000    0.000    0.000 
#
# Total GULP energy -178717.463693 kJ/mol
# GULP energy per Si atom -5584.920740 kJ/mol
# Density = 2.778977 g / cm^3
# Si number density = 27.853165 Si / 1000 Ang^3
#
#
#
# Elastic Constant Matrix: (Units=GPa)
#
#
# Indices 1 2 3 4 5 6 
#
# 1 58.4366 25.9744 27.1175 0.0000 -20.9809 0.0000
# 2 25.9744 169.9080 28.3469 0.0000 -28.5827 0.0000
# 3 27.1175 28.3469 194.5589 0.0000 -32.2681 0.0000
# 4 0.0000 0.0000 0.0000 50.9557 0.0000 -19.2966
# 5 -20.9809 -28.5827 -32.2681 0.0000 35.9015 0.0000
# 6 0.0000 0.0000 0.0000 -19.2966 0.0000 31.8513
#
#
#
# Elastic Compliance Matrix: (Units=1/GPa)
#
#
# Indices 1 2 3 4 5 6 
#
# 1 0.022126 -0.001374 -0.001082 0.000000 0.010864 0.000000
# 2 -0.001374 0.006883 -0.000042 0.000000 0.004639 0.000000
# 3 -0.001082 -0.000042 0.006095 0.000000 0.004812 0.000000
# 4 0.000000 0.000000 0.000000 0.025468 0.000000 0.015429
# 5 0.010864 0.004639 0.004812 0.000000 0.042222 0.000000
# 6 0.000000 0.000000 0.000000 0.015429 0.000000 0.040743
#
#
# Mechanical properties :
#
#
# Convention : Reuss Voigt Hill
#
# Bulk Modulus (GPa) = 33.21418 65.08679 49.15048
# Shear Modulus (GPa) = 31.53200 46.50602 39.01901
#
# Velocity S-wave (km/s) = 3.36829 4.09061 3.74690
# Velocity P-wave (km/s) = 5.20363 6.76235 6.03354
#
# Compressibility (1/GPa) = 0.03010762
#
# Stress axis : x y z
#
# Youngs Moduli (GPa) = 45.19557 145.28482 164.07213
#
# Poissons Ratio (x) = 0.19968 0.17750
# Poissons Ratio (y) = 0.06212 0.00687
# Poissons Ratio (z) = 0.04890 0.00609
#
# Static dielectric constant tensor:
#      x y z
#    x 2.285600 0.000000 0.004360 
#    y 0.000000 2.213360 0.000000 
#    z 0.004360 0.000000 2.413020 
# 
# From -- ./inp_files/67482.got.cif
#   From: 2010.05.17/outbox.cif.g08.bks.cpg/sg14_34_cif.got.tgz:67482.got - 2010.06.03 17:49:19.
