data_PCOD9239498
_publ_section_title
;
Structure prediction by ZEFSAII (Michael W. Deem and Ramdas Pophale) SiO2 
 PCOD9239498
Probable space group: P 21/C
;
_chemical_formula_sum "Si O2"
_cell_formula_units_Z 32
_cell_length_a 12.218736
_cell_length_b 9.809895
_cell_length_c 11.977387
_cell_angle_alpha 90.000000
_cell_angle_beta 69.006030
_cell_angle_gamma 90.000000
_cell_volume 1340.361679
_symmetry_space_group_name_H-M "P 21/C"
_symmetry_group_IT_number 14
_symmetry_cell_setting 'monoclinic'
loop_
_space_group_symop_operation_xyz
x,y,z
-x,1/2+y,1/2-z
-x,-y,-z
x,1/2-y,1/2+z
loop_
_atom_site_type_symbol
_atom_site_label
_atom_site_fract_x
_atom_site_fract_y
_atom_site_fract_z
Si Si1 0.933196 0.173323 0.616223
Si Si2 0.831459 0.050137 0.851901
Si Si3 0.902661 0.620797 0.525410
Si Si4 0.514297 0.813890 0.455873
Si Si5 0.237537 0.831480 0.515498
Si Si6 0.199682 0.941974 0.762266
Si Si7 0.452518 0.924593 0.693362
Si Si8 0.413908 0.463902 0.633736
O O1 0.933250 0.071998 0.722378
O O2 0.832823 0.123755 0.567805
O O3 0.890577 0.319063 0.681641
O O4 0.046726 0.226808 0.506645
O O5 0.821619 0.187147 0.928934
O O6 0.840396 0.923911 0.932978
O O7 0.707748 0.039545 0.834180
O O8 0.829306 0.581990 0.663103
O O9 0.000000 0.500000 0.500000
O O10 0.378169 0.805713 0.464067
O O11 0.511230 0.811930 0.592128
O O12 0.595296 0.697589 0.377538
O O13 0.562272 0.952354 0.387837
O O14 0.214950 0.938176 0.623875
O O15 0.321002 0.886047 0.772479
O O16 0.525215 0.979135 0.769624
O O17 0.500000 0.500000 0.500000
#
# Coordination Sequence:
#
# PCOD9239498 Si02
#       8
#     4   4   4   4   4   4   4   4
#     4  10  20  35  64  87 117 157 203 261 313 374
#     4  11  21  36  59  95 118 155 209 259 313 372
#     4  10  19  39  61  84 111 152 208 254 313 372
#     4  10  22  38  60  91 130 171 205 246 305 375
#     4  10  17  34  59  90 119 156 207 247 305 373
#     4   9  18  32  60  87 114 156 206 244 298 374
#     4  10  22  39  59  90 134 172 203 245 311 380
#     4  12  23  35  62  93 130 164 210 256 305 382
#
# _framework density 23.874151000000001
#
# number of rings (size 3 to 8) (size 9 to 14) (size 15 to 20)
#    0.000    1.750    3.750    2.250    1.750    0.000 
#    0.000    2.500    0.000    8.250    0.000    0.000 
#    0.000    0.000    0.000    0.000    0.000    0.000 
#
# Total GULP energy -178591.849483 kJ/mol
# GULP energy per Si atom -5580.995296 kJ/mol
# Density = 2.381981 g / cm^3
# Si number density = 23.874151 Si / 1000 Ang^3
#
#
#
# Elastic Constant Matrix: (Units=GPa)
#
#
# Indices 1 2 3 4 5 6 
#
# 1 42.9060 -3.5645 12.0273 0.0000 9.4731 0.0000
# 2 -3.5645 35.8651 20.4408 0.0000 -4.0388 0.0000
# 3 12.0273 20.4408 80.8542 0.0000 6.0836 0.0000
# 4 0.0000 0.0000 0.0000 17.4341 0.0000 1.7153
# 5 9.4731 -4.0388 6.0836 0.0000 27.9010 0.0000
# 6 0.0000 0.0000 0.0000 1.7153 0.0000 22.2284
#
#
#
# Elastic Compliance Matrix: (Units=1/GPa)
#
#
# Indices 1 2 3 4 5 6 
#
# 1 0.026566 0.004371 -0.004500 0.000000 -0.007406 0.000000
# 2 0.004371 0.034544 -0.009809 0.000000 0.005655 0.000000
# 3 -0.004500 -0.009809 0.015768 0.000000 -0.003330 0.000000
# 4 0.000000 0.000000 0.000000 0.057798 0.000000 -0.004460
# 5 -0.007406 0.005655 -0.003330 0.000000 0.039900 0.000000
# 6 0.000000 0.000000 0.000000 -0.004460 0.000000 0.045332
#
#
# Mechanical properties :
#
#
# Convention : Reuss Voigt Hill
#
# Bulk Modulus (GPa) = 17.54299 24.15917 20.85108
# Shear Modulus (GPa) = 19.32118 22.22748 20.77433
#
# Velocity S-wave (km/s) = 2.84789 3.05458 2.95305
# Velocity P-wave (km/s) = 4.26357 4.75205 4.51442
#
# Compressibility (1/GPa) = 0.05700282
#
# Stress axis : x y z
#
# Youngs Moduli (GPa) = 37.64155 28.94874 63.42122
#
# Poissons Ratio (x) = -0.12653 0.28537
# Poissons Ratio (y) = -0.16452 0.62208
# Poissons Ratio (z) = 0.16937 0.28395
#
# Static dielectric constant tensor:
#      x y z
#    x 1.974960 0.000000 -0.025780 
#    y 0.000000 2.010050 0.000000 
#    z -0.025780 0.000000 2.153770 
# 
# From -- ./inp_files/29352.got.cif
#   From: 2010.05.17/outbox.cif.g08.bks.cpg/sg14_15_cif.got.tgz:29352.got - 2010.06.03 17:49:19.
