data_PCOD9239812
_publ_section_title
;
Structure prediction by ZEFSAII (Michael W. Deem and Ramdas Pophale) SiO2 
 PCOD9239812
Probable space group: P 21/C
;
_chemical_formula_sum "Si O2"
_cell_formula_units_Z 30
_cell_length_a 6.961322
_cell_length_b 7.523736
_cell_length_c 20.509239
_cell_angle_alpha 90.000000
_cell_angle_beta 66.648654
_cell_angle_gamma 90.000000
_cell_volume 986.190474
_symmetry_space_group_name_H-M "P 21/C"
_symmetry_group_IT_number 14
_symmetry_cell_setting 'monoclinic'
loop_
_space_group_symop_operation_xyz
x,y,z
-x,1/2+y,1/2-z
-x,-y,-z
x,1/2-y,1/2+z
loop_
_atom_site_type_symbol
_atom_site_label
_atom_site_fract_x
_atom_site_fract_y
_atom_site_fract_z
Si Si1 0.724686 0.843233 0.909636
Si Si2 0.717878 0.240826 0.889274
Si Si3 0.000000 0.500000 0.500000
Si Si4 0.764876 0.001135 0.649890
Si Si5 0.538985 0.338950 0.725407
Si Si6 0.047857 0.738026 0.770186
Si Si7 0.290627 0.678100 0.970349
Si Si8 0.364074 0.087880 0.904516
O O1 0.544551 0.697431 0.940783
O O2 0.837438 0.821136 0.825423
O O3 0.608587 0.040154 0.920945
O O4 0.875590 0.873064 0.949766
O O5 0.893391 0.207112 0.812642
O O6 0.486654 0.282844 0.894709
O O7 0.771856 0.343906 0.946215
O O8 0.120140 0.360029 0.431423
O O9 0.577101 0.150859 0.685531
O O10 0.664046 0.840565 0.703264
O O11 0.933262 0.074174 0.680992
O O12 0.811278 0.053684 0.569489
O O13 0.754825 0.360585 0.736370
O O14 0.540881 0.491564 0.671347
O O15 0.244382 0.889724 0.957368
#
# Coordination Sequence:
#
# PCOD9239812 Si02
#       8
#     4   4   2   4   4   4   4   4
#     4   9  19  35  52  86 121 155 194 257 304 356
#     4  10  21  36  53  90 123 155 196 270 300 366
#     4  10  18  32  52  88 112 158 192 262 300 358
#     4  10  20  38  59  87 117 162 206 251 297 372
#     4  10  19  37  59  83 116 160 207 250 294 364
#     4  10  21  36  62  83 125 161 203 246 317 354
#     4  11  22  32  58  87 128 150 208 252 319 351
#     4   9  18  33  54  84 121 143 205 251 308 341
#
# _framework density 30.420089999999998
#
# number of rings (size 3 to 8) (size 9 to 14) (size 15 to 20)
#    1.600    0.533    4.000    0.400    3.733    1.067 
#    0.000    0.667    0.000    0.000    0.000    6.533 
#    0.000    0.000    0.000    0.800    0.000    0.000 
#
# Total GULP energy -167074.831006 kJ/mol
# GULP energy per Si atom -5569.161034 kJ/mol
# Density = 3.035085 g / cm^3
# Si number density = 30.420090 Si / 1000 Ang^3
#
#
#
# Elastic Constant Matrix: (Units=GPa)
#
#
# Indices 1 2 3 4 5 6 
#
# 1 149.0551 25.4720 70.3581 0.0000 -18.7261 0.0000
# 2 25.4720 83.8049 3.8936 0.0000 -8.5604 0.0000
# 3 70.3581 3.8936 259.0547 0.0000 -2.1111 0.0000
# 4 0.0000 0.0000 0.0000 34.5353 0.0000 -9.1527
# 5 -18.7261 -8.5604 -2.1111 0.0000 51.6200 0.0000
# 6 0.0000 0.0000 0.0000 -9.1527 0.0000 46.0418
#
#
#
# Elastic Compliance Matrix: (Units=1/GPa)
#
#
# Indices 1 2 3 4 5 6 
#
# 1 0.008475 -0.002204 -0.002247 0.000000 0.002617 0.000000
# 2 -0.002204 0.012719 0.000418 0.000000 0.001327 0.000000
# 3 -0.002247 0.000418 0.004460 0.000000 -0.000564 0.000000
# 4 0.000000 0.000000 0.000000 0.030566 0.000000 0.006076
# 5 0.002617 0.001327 -0.000564 0.000000 0.020519 0.000000
# 6 0.000000 0.000000 0.000000 0.006076 0.000000 0.022927
#
#
# Mechanical properties :
#
#
# Convention : Reuss Voigt Hill
#
# Bulk Modulus (GPa) = 56.86078 76.81801 66.83939
# Shear Modulus (GPa) = 44.01620 52.58550 48.30085
#
# Velocity S-wave (km/s) = 3.80800 4.16221 3.98904
# Velocity P-wave (km/s) = 6.16984 6.95743 6.57544
#
# Compressibility (1/GPa) = 0.01758682
#
# Stress axis : x y z
#
# Youngs Moduli (GPa) = 117.99096 78.62544 224.23103
#
# Poissons Ratio (x) = 0.17331 0.50393
# Poissons Ratio (y) = 0.26008 -0.09380
# Poissons Ratio (z) = 0.26517 -0.03289
#
# Static dielectric constant tensor:
#      x y z
#    x 2.423630 0.000000 0.122310 
#    y 0.000000 2.649210 0.000000 
#    z 0.122310 0.000000 2.572300 
# 
# From -- ./inp_files/65222.got.cif
#   From: 2010.05.17/outbox.cif.g08.bks.cpg/sg14_33_cif.got.tgz:65222.got - 2010.06.03 17:49:19.
