data_PCOD9239087
_publ_section_title
;
Structure prediction by ZEFSAII (Michael W. Deem and Ramdas Pophale) SiO2 
 PCOD9239087
Probable space group: P 2/C
;
_chemical_formula_sum "Si O2"
_cell_formula_units_Z 20
_cell_length_a 21.000000
_cell_length_b 6.000000
_cell_length_c 15.000000
_cell_angle_alpha 90.000000
_cell_angle_beta 30.000000
_cell_angle_gamma 90.000000
_cell_volume 945.000000
_symmetry_space_group_name_H-M "P 2/C"
_symmetry_group_IT_number 13
_symmetry_cell_setting 'monoclinic'
loop_
_space_group_symop_operation_xyz
x,y,z
-x,y,1/2-z
-x,-y,-z
x,-y,1/2+z
loop_
_atom_site_type_symbol
_atom_site_label
_atom_site_fract_x
_atom_site_fract_y
_atom_site_fract_z
Si Si1 0.204105 0.855194 0.422512
Si Si2 0.000000 0.194165 0.750000
Si Si3 0.296968 0.728300 0.500962
Si Si4 0.500000 0.344809 0.250000
Si Si5 0.023289 0.549802 0.867398
Si Si6 0.591606 0.042931 0.975713
O O1 0.292755 0.818594 0.403216
O O2 0.282307 0.888601 0.235236
O O3 0.103358 0.657651 0.522936
O O4 0.111652 0.053247 0.567602
O O5 0.053606 0.340688 0.766824
O O6 0.374998 0.499508 0.397081
O O7 0.148454 0.703152 0.706699
O O8 0.363877 0.859173 0.503151
O O9 0.478278 0.211950 0.369849
O O10 0.000000 0.500000 0.000000
O O11 0.500000 0.000000 0.000000
#
# Coordination Sequence:
#
# PCOD9239087 Si02
#       6
#     4   2   4   2   4   4
#     4  12  26  47  75 112 151 189 249 303 368 446
#     4  12  24  46  74 110 158 190 236 308 366 440
#     4  12  26  48  71 108 148 187 249 302 368 441
#     4  12  28  48  74  98 146 196 244 312 364 438
#     4  12  26  44  74 112 144 197 243 302 373 440
#     4  12  29  48  75 108 144 199 250 304 371 437
#
# _framework density 21.164021000000002
#
# number of rings (size 3 to 8) (size 9 to 14) (size 15 to 20)
#    0.000    0.000    4.000    5.400    8.400    6.400 
#    0.000    0.000    0.000    0.000    0.000    0.000 
#    0.000    0.000    0.000    0.000    0.000    0.000 
#
# Total GULP energy -111602.886806 kJ/mol
# GULP energy per Si atom -5580.144340 kJ/mol
# Density = 2.111585 g / cm^3
# Si number density = 21.164021 Si / 1000 Ang^3
#
#
#
# Elastic Constant Matrix: (Units=GPa)
#
#
# Indices 1 2 3 4 5 6 
#
# 1 190.4012 61.5950 46.7858 0.0000 32.1063 0.0000
# 2 61.5950 75.8408 46.4961 0.0000 13.8096 0.0000
# 3 46.7858 46.4961 152.8082 0.0000 34.9036 0.0000
# 4 0.0000 0.0000 0.0000 41.3104 0.0000 6.3626
# 5 32.1063 13.8096 34.9036 0.0000 64.0670 0.0000
# 6 0.0000 0.0000 0.0000 6.3626 0.0000 34.5296
#
#
#
# Elastic Compliance Matrix: (Units=1/GPa)
#
#
# Indices 1 2 3 4 5 6 
#
# 1 0.007503 -0.005628 -0.000003 0.000000 -0.002545 0.000000
# 2 -0.005628 0.020479 -0.004733 0.000000 0.000985 0.000000
# 3 -0.000003 -0.004733 0.008854 0.000000 -0.003802 0.000000
# 4 0.000000 0.000000 0.000000 0.024914 0.000000 -0.004591
# 5 -0.002545 0.000985 -0.003802 0.000000 0.018743 0.000000
# 6 0.000000 0.000000 0.000000 -0.004591 0.000000 0.029807
#
#
# Mechanical properties :
#
#
# Convention : Reuss Voigt Hill
#
# Bulk Modulus (GPa) = 62.08701 80.97822 71.53261
# Shear Modulus (GPa) = 36.65800 45.59296 41.12548
#
# Velocity S-wave (km/s) = 4.16635 4.64644 4.41293
# Velocity P-wave (km/s) = 7.24876 8.19336 7.73549
#
# Compressibility (1/GPa) = 0.01610643
#
# Stress axis : x y z
#
# Youngs Moduli (GPa) = 133.28585 48.83128 112.94763
#
# Poissons Ratio (x) = 0.27482 0.00038
# Poissons Ratio (y) = 0.75012 0.53458
# Poissons Ratio (z) = 0.00045 0.23112
#
# Static dielectric constant tensor:
#      x y z
#    x 1.743030 0.000000 -0.045980 
#    y 0.000000 1.856650 0.000000 
#    z -0.045980 0.000000 1.767630 
# 
# From -- ./inp_files/56430.got.cif
#   From: 2010.05.17/outbox.ucp.g08.bks.cvg/sg13_29_cif.got.tgz:56430.got - 2010.06.11 12:23:55.
