data_PCOD9239938
_publ_section_title
;
Structure prediction by ZEFSAII (Michael W. Deem and Ramdas Pophale) SiO2 
 PCOD9239938
Probable space group: P 21/C
;
_chemical_formula_sum "Si O2"
_cell_formula_units_Z 28
_cell_length_a 12.017639
_cell_length_b 7.043551
_cell_length_c 17.946604
_cell_angle_alpha 90.000000
_cell_angle_beta 40.873595
_cell_angle_gamma 90.000000
_cell_volume 994.102918
_symmetry_space_group_name_H-M "P 21/C"
_symmetry_group_IT_number 14
_symmetry_cell_setting 'monoclinic'
loop_
_space_group_symop_operation_xyz
x,y,z
-x,1/2+y,1/2-z
-x,-y,-z
x,1/2-y,1/2+z
loop_
_atom_site_type_symbol
_atom_site_label
_atom_site_fract_x
_atom_site_fract_y
_atom_site_fract_z
Si Si1 0.400620 0.242274 0.550031
Si Si2 0.827001 0.042805 0.411660
Si Si3 0.604801 0.617685 0.779922
Si Si4 0.233502 0.865529 0.401323
Si Si5 0.569628 0.331905 0.327170
Si Si6 0.892076 0.018514 0.851652
Si Si7 0.806307 0.555929 0.546637
O O1 0.398220 0.213759 0.638720
O O2 0.557445 0.323807 0.422628
O O3 0.247722 0.383835 0.611439
O O4 0.343861 0.049503 0.535179
O O5 0.841356 0.004881 0.493785
O O6 0.831892 0.270027 0.402359
O O7 0.964791 0.968938 0.283384
O O8 0.427207 0.669305 0.831357
O O9 0.594820 0.389510 0.793085
O O10 0.763006 0.663043 0.645546
O O11 0.274720 0.929244 0.296085
O O12 0.150403 0.658388 0.447895
O O13 0.384766 0.414911 0.394847
O O14 0.930681 0.919605 0.912731
#
# Coordination Sequence:
#
# PCOD9239938 Si02
#       7
#     4   4   4   4   4   4   4
#     4  11  21  35  59  85 113 146 180 243 287 321
#     4  11  20  36  60  81 109 150 196 231 268 333
#     4  10  18  33  55  83 117 137 178 234 295 328
#     4   9  18  32  54  81 108 145 180 223 274 339
#     4   9  17  32  53  80 110 142 181 216 280 343
#     4  10  21  38  58  81 107 150 203 225 268 335
#     4   8  18  34  53  80 108 148 187 222 270 339
#
# _framework density 28.166098999999999
#
# number of rings (size 3 to 8) (size 9 to 14) (size 15 to 20)
#    0.000    2.286    2.857    0.429    0.000    0.000 
#    2.571    2.857    0.000    0.857    0.000    0.000 
#    0.000    0.000    0.000    0.000    0.000    0.000 
#
# Total GULP energy -156533.230831 kJ/mol
# GULP energy per Si atom -5590.472530 kJ/mol
# Density = 2.810199 g / cm^3
# Si number density = 28.166099 Si / 1000 Ang^3
#
#
#
# Elastic Constant Matrix: (Units=GPa)
#
#
# Indices 1 2 3 4 5 6 
#
# 1 37.3630 28.7727 43.3821 0.0000 17.9988 0.0000
# 2 28.7727 110.4724 43.1501 0.0000 18.1185 0.0000
# 3 43.3821 43.1501 305.3007 0.0000 53.3240 0.0000
# 4 0.0000 0.0000 0.0000 43.0883 0.0000 9.3368
# 5 17.9988 18.1185 53.3240 0.0000 40.2331 0.0000
# 6 0.0000 0.0000 0.0000 9.3368 0.0000 27.8318
#
#
#
# Elastic Compliance Matrix: (Units=1/GPa)
#
#
# Indices 1 2 3 4 5 6 
#
# 1 0.041537 -0.007864 -0.002816 0.000000 -0.011309 0.000000
# 2 -0.007864 0.011414 -0.000276 0.000000 -0.001256 0.000000
# 3 -0.002816 -0.000276 0.004519 0.000000 -0.004605 0.000000
# 4 0.000000 0.000000 0.000000 0.025027 0.000000 -0.008396
# 5 -0.011309 -0.001256 -0.004605 0.000000 0.036584 0.000000
# 6 0.000000 0.000000 0.000000 -0.008396 0.000000 0.038747
#
#
# Mechanical properties :
#
#
# Convention : Reuss Voigt Hill
#
# Bulk Modulus (GPa) = 28.12264 75.97180 52.04722
# Shear Modulus (GPa) = 26.09694 44.75272 35.42483
#
# Velocity S-wave (km/s) = 3.04721 3.99041 3.55027
# Velocity P-wave (km/s) = 4.73148 6.94712 5.94346
#
# Compressibility (1/GPa) = 0.03555854
#
# Stress axis : x y z
#
# Youngs Moduli (GPa) = 24.07469 87.61045 221.28910
#
# Poissons Ratio (x) = 0.68896 0.62306
# Poissons Ratio (y) = 0.18932 0.06118
# Poissons Ratio (z) = 0.06778 0.02422
#
# Static dielectric constant tensor:
#      x y z
#    x 2.225340 0.000000 0.030620 
#    y 0.000000 2.277920 0.000000 
#    z 0.030620 0.000000 2.277440 
# 
# From -- ./inp_files/43544.got.cif
#   From: 2010.05.17/outbox.cif.g08.bks.cpg/sg14_22_cif.got.tgz:43544.got - 2010.06.03 17:49:19.
