data_PCOD9239982
_publ_section_title
;
Structure prediction by ZEFSAII (Michael W. Deem and Ramdas Pophale) SiO2 
 PCOD9239982
Probable space group: P 21/C
;
_chemical_formula_sum "Si O2"
_cell_formula_units_Z 16
_cell_length_a 24.819988
_cell_length_b 4.829408
_cell_length_c 15.903697
_cell_angle_alpha 90.000000
_cell_angle_beta 25.501358
_cell_angle_gamma 90.000000
_cell_volume 820.728449
_symmetry_space_group_name_H-M "P 21/C"
_symmetry_group_IT_number 14
_symmetry_cell_setting 'monoclinic'
loop_
_space_group_symop_operation_xyz
x,y,z
-x,1/2+y,1/2-z
-x,-y,-z
x,1/2-y,1/2+z
loop_
_atom_site_type_symbol
_atom_site_label
_atom_site_fract_x
_atom_site_fract_y
_atom_site_fract_z
Si Si1 0.187855 0.962424 0.282666
Si Si2 0.989128 0.316324 0.821518
Si Si3 0.414800 0.720835 0.878646
Si Si4 0.831995 0.989659 0.300928
O O1 0.124977 0.920646 0.460439
O O2 0.187558 0.270097 0.246915
O O3 0.886397 0.233776 0.680500
O O4 0.328810 0.842825 0.075039
O O5 0.951947 0.084969 0.805612
O O6 0.086303 0.155362 0.744292
O O7 0.510474 0.477160 0.765393
O O8 0.305689 0.585596 0.974851
#
# Coordination Sequence:
#
# PCOD9239982 Si02
#       4
#     4   4   4   4
#     4  10  20  36  60  82 114 144 191 230 275 325
#     4  12  24  36  56  86 122 148 178 226 288 340
#     4  10  18  33  60  89 102 138 196 242 262 312
#     4  10  20  36  60  82 114 144 191 230 275 325
#
# _framework density 19.494876000000001
#
# number of rings (size 3 to 8) (size 9 to 14) (size 15 to 20)
#    1.500    0.000    2.500    4.500    0.000    0.000 
#    0.000    0.000    0.000    9.000    0.000    0.000 
#    0.000    0.000    0.000    0.000    0.000    0.000 
#
# Total GULP energy -89150.003074 kJ/mol
# GULP energy per Si atom -5571.875192 kJ/mol
# Density = 1.945050 g / cm^3
# Si number density = 19.494876 Si / 1000 Ang^3
#
#
#
# Elastic Constant Matrix: (Units=GPa)
#
#
# Indices 1 2 3 4 5 6 
#
# 1 28.9156 2.8262 20.9644 0.0000 13.0497 0.0000
# 2 2.8262 96.0259 9.1266 0.0000 0.8672 0.0000
# 3 20.9644 9.1266 101.9830 0.0000 -1.3939 0.0000
# 4 0.0000 0.0000 0.0000 48.7094 0.0000 12.4093
# 5 13.0497 0.8672 -1.3939 0.0000 13.5203 0.0000
# 6 0.0000 0.0000 0.0000 12.4093 0.0000 32.3612
#
#
#
# Elastic Compliance Matrix: (Units=1/GPa)
#
#
# Indices 1 2 3 4 5 6 
#
# 1 0.087468 0.000027 -0.019164 0.000000 -0.086401 0.000000
# 2 0.000027 0.010511 -0.000957 0.000000 -0.000799 0.000000
# 3 -0.019164 -0.000957 0.014104 0.000000 0.020012 0.000000
# 4 0.000000 0.000000 0.000000 0.022753 0.000000 -0.008725
# 5 -0.086401 -0.000799 0.020012 0.000000 0.159471 0.000000
# 6 0.000000 0.000000 0.000000 -0.008725 0.000000 0.034247
#
#
# Mechanical properties :
#
#
# Convention : Reuss Voigt Hill
#
# Bulk Modulus (GPa) = 13.90903 32.52877 23.21890
# Shear Modulus (GPa) = 12.73215 31.85198 22.29207
#
# Velocity S-wave (km/s) = 2.55836 4.04649 3.38521
# Velocity P-wave (km/s) = 3.98461 6.20920 5.21686
#
# Compressibility (1/GPa) = 0.07189574
#
# Stress axis : x y z
#
# Youngs Moduli (GPa) = 11.43278 95.13618 70.90083
#
# Poissons Ratio (x) = -0.00260 1.35873
# Poissons Ratio (y) = -0.00031 0.06787
# Poissons Ratio (z) = 0.21910 0.09106
#
# Static dielectric constant tensor:
#      x y z
#    x 1.702290 0.000000 -0.022960 
#    y 0.000000 1.712640 0.000000 
#    z -0.022960 0.000000 1.732280 
# 
# From -- ./inp_files/53896.got.cif
#   From: 2010.05.17/outbox.cif.g08.bks.cpg/sg14_27_cif.got.tgz:53896.got - 2010.06.03 17:49:19.
