data_PCOD9239307
_publ_section_title
;
Structure prediction by ZEFSAII (Michael W. Deem and Ramdas Pophale) SiO2 
 PCOD9239307
Probable space group: P 21/C
;
_chemical_formula_sum "Si O2"
_cell_formula_units_Z 28
_cell_length_a 14.316837
_cell_length_b 15.855999
_cell_length_c 5.430311
_cell_angle_alpha 90.000000
_cell_angle_beta 66.488548
_cell_angle_gamma 90.000000
_cell_volume 1130.382499
_symmetry_space_group_name_H-M "P 21/C"
_symmetry_group_IT_number 14
_symmetry_cell_setting 'monoclinic'
loop_
_space_group_symop_operation_xyz
x,y,z
-x,1/2+y,1/2-z
-x,-y,-z
x,1/2-y,1/2+z
loop_
_atom_site_type_symbol
_atom_site_label
_atom_site_fract_x
_atom_site_fract_y
_atom_site_fract_z
Si Si1 0.085066 0.086712 0.532610
Si Si2 0.521544 0.893781 0.732220
Si Si3 0.763167 0.745870 0.171886
Si Si4 0.887871 0.305004 0.331513
Si Si5 0.840027 0.567469 0.546825
Si Si6 0.677150 0.204475 0.922347
Si Si7 0.609688 0.565079 0.639864
O O1 0.166999 0.163520 0.409944
O O2 0.087828 0.046412 0.258733
O O3 0.980176 0.131638 0.706136
O O4 0.124595 0.034119 0.725433
O O5 0.432852 0.831410 0.905263
O O6 0.565645 0.880287 0.413367
O O7 0.461715 0.983025 0.787614
O O8 0.602691 0.899989 0.868992
O O9 0.702222 0.751202 0.986101
O O10 0.834812 0.829607 0.089496
O O11 0.894042 0.261137 0.594243
O O12 0.777103 0.347369 0.402891
O O13 0.724906 0.544605 0.595977
O O14 0.685878 0.279075 0.120228
#
# Coordination Sequence:
#
# PCOD9239307 Si02
#       7
#     4   4   4   4   4   4   4
#     4  10  17  28  46  71 108 139 167 211 257 319
#     4  10  21  40  59  79 106 140 189 230 270 325
#     4   8  14  23  36  57  91 125 152 188 235 286
#     4  10  18  30  51  76 104 144 183 213 265 327
#     4  10  18  29  46  72 101 132 173 212 255 306
#     4  10  21  37  58  84 110 138 178 233 281 314
#     4  10  21  37  60  79 102 148 188 221 267 333
#
# _framework density 24.770377
#
# number of rings (size 3 to 8) (size 9 to 14) (size 15 to 20)
#    0.000    2.286    0.000    5.143    0.000    0.000 
#    0.000   12.857    0.000    1.714    0.000    0.000 
#    0.000    0.000    0.000    0.000    0.000    0.000 
#
# Total GULP energy -156367.812457 kJ/mol
# GULP energy per Si atom -5584.564731 kJ/mol
# Density = 2.471400 g / cm^3
# Si number density = 24.770377 Si / 1000 Ang^3
#
#
#
# Elastic Constant Matrix: (Units=GPa)
#
#
# Indices 1 2 3 4 5 6 
#
# 1 99.1830 22.2004 26.0915 0.0000 16.1479 0.0000
# 2 22.2004 36.5395 9.5053 0.0000 4.3734 0.0000
# 3 26.0915 9.5053 172.9095 0.0000 37.9037 0.0000
# 4 0.0000 0.0000 0.0000 -10.2626 0.0000 15.4593
# 5 16.1479 4.3734 37.9037 0.0000 51.0852 0.0000
# 6 0.0000 0.0000 0.0000 15.4593 0.0000 20.2993
#
#
#
# Elastic Compliance Matrix: (Units=1/GPa)
#
#
# Indices 1 2 3 4 5 6 
#
# 1 0.012296 -0.006922 -0.000899 0.000000 -0.002627 0.000000
# 2 -0.006922 0.031757 -0.000699 0.000000 -0.000012 0.000000
# 3 -0.000899 -0.000699 0.007025 0.000000 -0.004868 0.000000
# 4 0.000000 0.000000 0.000000 -0.045381 0.000000 0.034560
# 5 -0.002627 -0.000012 -0.004868 0.000000 0.024019 0.000000
# 6 0.000000 0.000000 0.000000 0.034560 0.000000 0.022943
#
#
# Mechanical properties :
#
#
# Convention : Reuss Voigt Hill
#
# Bulk Modulus (GPa) = 29.37946 47.13628 38.25787
# Shear Modulus (GPa) = 61.69520 28.94672 45.32096
#
# Velocity S-wave (km/s) = 4.99609 3.42219 4.28207
# Velocity P-wave (km/s) = 6.72069 5.88946 6.31876
#
# Compressibility (1/GPa) = 0.03403738
#
# Stress axis : x y z
#
# Youngs Moduli (GPa) = 81.32689 31.48942 142.35776
#
# Poissons Ratio (x) = 0.21798 0.12798
# Poissons Ratio (y) = 0.56298 0.09944
# Poissons Ratio (z) = 0.07311 0.02200
#
# Static dielectric constant tensor:
#      x y z
#    x 1.949000 0.000000 0.036940 
#    y 0.000000 2.030420 0.000000 
#    z 0.036940 0.000000 2.012430 
# 
# From -- ./inp_files/2928.got.cif
#   From: 2010.05.17/outbox.cif.g08.bks.cpg/sg14_2_cif.got.tgz:2928.got - 2010.06.03 17:49:19.
