data_PCOD9239020
_publ_section_title
;
Structure prediction by ZEFSAII (Michael W. Deem and Ramdas Pophale) SiO2 
 PCOD9239020
Probable space group: P 2/C
;
_chemical_formula_sum "Si O2"
_cell_formula_units_Z 28
_cell_length_a 9.000000
_cell_length_b 12.000000
_cell_length_c 15.000000
_cell_angle_alpha 90.000000
_cell_angle_beta 110.000000
_cell_angle_gamma 90.000000
_cell_volume 1522.302046
_symmetry_space_group_name_H-M "P 2/C"
_symmetry_group_IT_number 13
_symmetry_cell_setting 'monoclinic'
loop_
_space_group_symop_operation_xyz
x,y,z
-x,y,1/2-z
-x,-y,-z
x,-y,1/2+z
loop_
_atom_site_type_symbol
_atom_site_label
_atom_site_fract_x
_atom_site_fract_y
_atom_site_fract_z
Si Si1 0.876352 0.595658 0.942182
Si Si2 0.370770 0.406368 0.946939
Si Si3 0.360349 0.784503 0.795271
Si Si4 0.189059 0.446286 0.269302
Si Si5 0.769473 0.009301 0.018078
Si Si6 0.916086 0.145962 0.392319
Si Si7 0.507933 0.841223 0.016250
O O1 0.799917 0.547696 0.835590
O O2 0.936357 0.722894 0.928840
O O3 0.747903 0.608759 0.993738
O O4 0.000000 0.500000 0.000000
O O5 0.269609 0.455634 0.843109
O O6 0.500000 0.500000 0.000000
O O7 0.449309 0.285012 0.947498
O O8 0.500000 0.768468 0.750000
O O9 0.282716 0.667667 0.811057
O O10 0.212459 0.846126 0.714980
O O11 0.442895 0.837218 0.899748
O O12 0.000000 0.438300 0.250000
O O13 0.637283 0.100302 0.961620
O O14 0.915707 0.081988 0.089809
O O15 0.838336 0.930574 0.953887
O O16 0.662595 0.921345 0.053143
#
# Coordination Sequence:
#
# PCOD9239020 Si02
#       7
#     4   4   4   4   4   4   4
#     4  11  23  41  66  95 131 172 213 277 324 386
#     4  12  24  40  67  98 132 170 212 275 342 385
#     4  11  21  38  63  97 121 159 220 278 311 378
#     4  11  24  39  64  98 127 168 222 265 327 401
#     4  10  22  40  63  90 122 173 211 263 319 388
#     4  10  22  40  67  90 126 163 222 264 322 380
#     4  11  22  40  66  91 130 166 212 266 333 385
#
# _framework density 18.393196
#
# number of rings (size 3 to 8) (size 9 to 14) (size 15 to 20)
#    0.000    1.143    5.714    0.857    6.000    0.000 
#    0.000    0.000   25.143    0.000    0.000    0.000 
#    0.000    0.000    0.000    0.000    0.000    0.000 
#
# Total GULP energy -156208.486404 kJ/mol
# GULP energy per Si atom -5578.874514 kJ/mol
# Density = 1.835133 g / cm^3
# Si number density = 18.393196 Si / 1000 Ang^3
#
#
#
# Elastic Constant Matrix: (Units=GPa)
#
#
# Indices 1 2 3 4 5 6 
#
# 1 98.5213 48.7829 15.7588 0.0000 24.8647 0.0000
# 2 48.7829 150.5204 43.8606 0.0000 18.2058 0.0000
# 3 15.7588 43.8606 97.6335 0.0000 12.5173 0.0000
# 4 0.0000 0.0000 0.0000 36.8451 0.0000 12.8834
# 5 24.8647 18.2058 12.5173 0.0000 29.5532 0.0000
# 6 0.0000 0.0000 0.0000 12.8834 0.0000 48.3533
#
#
#
# Elastic Compliance Matrix: (Units=1/GPa)
#
#
# Indices 1 2 3 4 5 6 
#
# 1 0.014406 -0.003616 0.000600 0.000000 -0.010147 0.000000
# 2 -0.003616 0.008898 -0.003279 0.000000 -0.001050 0.000000
# 3 0.000600 -0.003279 0.012080 0.000000 -0.003602 0.000000
# 4 0.000000 0.000000 0.000000 0.029929 0.000000 -0.007974
# 5 -0.010147 -0.001050 -0.003602 0.000000 0.044547 0.000000
# 6 0.000000 0.000000 0.000000 -0.007974 0.000000 0.022806
#
#
# Mechanical properties :
#
#
# Convention : Reuss Voigt Hill
#
# Bulk Modulus (GPa) = 43.87171 62.60886 53.24029
# Shear Modulus (GPa) = 32.71103 38.83518 35.77310
#
# Velocity S-wave (km/s) = 4.22172 4.59997 4.41490
# Velocity P-wave (km/s) = 6.90419 7.89468 7.41599
#
# Compressibility (1/GPa) = 0.02279373
#
# Stress axis : x y z
#
# Youngs Moduli (GPa) = 69.41781 112.38249 82.77922
#
# Poissons Ratio (x) = 0.40642 -0.04970
# Poissons Ratio (y) = 0.25105 0.27144
# Poissons Ratio (z) = -0.04167 0.36851
#
# Static dielectric constant tensor:
#      x y z
#    x 1.679680 0.000000 -0.007700 
#    y 0.000000 1.641860 0.000000 
#    z -0.007700 0.000000 1.637590 
# 
# From -- ./inp_files/47004.got.cif
#   From: 2010.05.17/outbox.ucp.g08.bks.cvg/sg13_24_cif.got.tgz:47004.got - 2010.06.11 12:23:55.
