data_PCOD9239384
_publ_section_title
;
Structure prediction by ZEFSAII (Michael W. Deem and Ramdas Pophale) SiO2 
 PCOD9239384
Probable space group: P 21/C
;
_chemical_formula_sum "Si O2"
_cell_formula_units_Z 30
_cell_length_a 8.853986
_cell_length_b 7.586858
_cell_length_c 24.198471
_cell_angle_alpha 90.000000
_cell_angle_beta 51.674420
_cell_angle_gamma 90.000000
_cell_volume 1275.209186
_symmetry_space_group_name_H-M "P 21/C"
_symmetry_group_IT_number 14
_symmetry_cell_setting 'monoclinic'
loop_
_space_group_symop_operation_xyz
x,y,z
-x,1/2+y,1/2-z
-x,-y,-z
x,1/2-y,1/2+z
loop_
_atom_site_type_symbol
_atom_site_label
_atom_site_fract_x
_atom_site_fract_y
_atom_site_fract_z
Si Si1 0.000000 0.500000 0.000000
Si Si2 0.090157 0.909625 0.693975
Si Si3 0.658630 0.651044 0.028042
Si Si4 0.300388 0.233414 0.184478
Si Si5 0.404823 0.768375 0.188447
Si Si6 0.437606 0.735780 0.471587
Si Si7 0.639329 0.556526 0.721266
Si Si8 0.026084 0.768296 0.092973
O O1 0.113168 0.361054 0.017036
O O2 0.039747 0.362565 0.940140
O O3 0.208058 0.760153 0.700062
O O4 0.085628 0.851802 0.631730
O O5 0.872266 0.898432 0.763773
O O6 0.198722 0.092545 0.680100
O O7 0.559934 0.716783 0.106591
O O8 0.606035 0.440945 0.035023
O O9 0.566865 0.751630 0.997064
O O10 0.447746 0.159213 0.106198
O O11 0.389890 0.307655 0.220741
O O12 0.381771 0.625770 0.242656
O O13 0.490220 0.927670 0.204693
O O14 0.229935 0.647913 0.528145
O O15 0.853716 0.603183 0.650333
#
# Coordination Sequence:
#
# PCOD9239384 Si02
#       8
#     2   4   4   4   4   4   4   4
#     4  10  18  26  52  82 116 134 192 234 288 310
#     4  10  20  36  56  84 118 150 188 232 292 337
#     4  10  17  31  53  85 112 141 186 250 274 323
#     4  10  20  36  57  86 114 149 188 241 282 349
#     4  11  20  39  55  85 115 156 183 243 282 348
#     4  10  17  33  58  84 113 142 197 242 286 319
#     4  10  22  36  56  84 122 146 194 228 299 335
#     4  10  19  32  56  84 115 147 183 251 279 331
#
# _framework density 23.525551
#
# number of rings (size 3 to 8) (size 9 to 14) (size 15 to 20)
#    0.000    1.867    5.333    1.600    0.000    2.133 
#    2.400    0.000    0.000    8.000    0.000    0.000 
#    0.000    0.000    0.000    0.000    0.000    0.000 
#
# Total GULP energy -167054.390290 kJ/mol
# GULP energy per Si atom -5568.479676 kJ/mol
# Density = 2.347201 g / cm^3
# Si number density = 23.525551 Si / 1000 Ang^3
#
#
#
# Elastic Constant Matrix: (Units=GPa)
#
#
# Indices 1 2 3 4 5 6 
#
# 1 60.9898 15.9930 49.7170 0.0000 50.0911 0.0000
# 2 15.9930 9.2228 -16.6083 0.0000 -19.6492 0.0000
# 3 49.7170 -16.6083 135.4659 0.0000 -15.1606 0.0000
# 4 0.0000 0.0000 0.0000 11.0725 0.0000 3.9947
# 5 50.0911 -19.6492 -15.1606 0.0000 20.9337 0.0000
# 6 0.0000 0.0000 0.0000 3.9947 0.0000 3.3971
#
#
#
# Elastic Compliance Matrix: (Units=1/GPa)
#
#
# Indices 1 2 3 4 5 6 
#
# 1 0.003296 0.016485 0.001807 0.000000 0.008894 0.000000
# 2 0.016485 0.023125 -0.005659 0.000000 -0.021838 0.000000
# 3 0.001807 -0.005659 0.005383 0.000000 -0.005736 0.000000
# 4 0.000000 0.000000 0.000000 0.156861 0.000000 -0.184455
# 5 0.008894 -0.021838 -0.005736 0.000000 0.001837 0.000000
# 6 0.000000 0.000000 0.000000 -0.184455 0.000000 0.511269
#
#
# Mechanical properties :
#
#
# Convention : Reuss Voigt Hill
#
# Bulk Modulus (GPa) = 17.52264 33.76468 25.64366
# Shear Modulus (GPa) = 7.18877 17.51913 12.35395
#
# Velocity S-wave (km/s) = 1.74996 2.73185 2.29406
# Velocity P-wave (km/s) = 3.39819 4.93297 4.23567
#
# Compressibility (1/GPa) = 0.05706902
#
# Stress axis : x y z
#
# Youngs Moduli (GPa) = 303.35521 43.24398 185.76301
#
# Poissons Ratio (x) = -0.71287 -0.33559
# Poissons Ratio (y) = -5.00073 1.05122
# Poissons Ratio (z) = -0.54803 0.24471
#
# Static dielectric constant tensor:
#      x y z
#    x 1.980010 0.000000 -0.086480 
#    y 0.000000 2.011230 0.000000 
#    z -0.086480 0.000000 1.884680 
# 
# From -- ./inp_files/65214.got.cif
#   From: 2010.05.17/outbox.cif.g08.bks.cpg/sg14_33_cif.got.tgz:65214.got - 2010.06.03 17:49:19.
