data_PCOD9239114
_publ_section_title
;
Structure prediction by ZEFSAII (Michael W. Deem and Ramdas Pophale) SiO2 
 PCOD9239114
Probable space group: P 21/C
;
_chemical_formula_sum "Si O2"
_cell_formula_units_Z 32
_cell_length_a 18.428094
_cell_length_b 18.287686
_cell_length_c 8.304468
_cell_angle_alpha 90.000000
_cell_angle_beta 25.333797
_cell_angle_gamma 90.000000
_cell_volume 1197.523993
_symmetry_space_group_name_H-M "P 21/C"
_symmetry_group_IT_number 14
_symmetry_cell_setting 'monoclinic'
loop_
_space_group_symop_operation_xyz
x,y,z
-x,1/2+y,1/2-z
-x,-y,-z
x,1/2-y,1/2+z
loop_
_atom_site_type_symbol
_atom_site_label
_atom_site_fract_x
_atom_site_fract_y
_atom_site_fract_z
Si Si1 0.642755 0.735605 0.760647
Si Si2 0.058523 0.087364 0.178221
Si Si3 0.671393 0.641454 0.414875
Si Si4 0.141134 0.610458 0.221225
Si Si5 0.112911 0.718810 0.848046
Si Si6 0.250940 0.004187 0.049395
Si Si7 0.412351 0.820163 0.987698
Si Si8 0.293049 0.614408 0.243008
O O1 0.732890 0.689853 0.441976
O O2 0.477311 0.768234 0.999422
O O3 0.729101 0.810418 0.648636
O O4 0.572603 0.684088 0.044882
O O5 0.009618 0.079471 0.088043
O O6 0.213226 0.052518 0.965304
O O7 0.906521 0.044232 0.573857
O O8 0.038303 0.173358 0.263195
O O9 0.713731 0.558723 0.374178
O O10 0.466454 0.644502 0.821271
O O11 0.100467 0.696360 0.332741
O O12 0.318486 0.610971 0.760972
O O13 0.184729 0.580622 0.311889
O O14 0.261838 0.709009 0.679179
O O15 0.170578 0.671833 0.576756
O O16 0.362324 0.939903 0.745467
#
# Coordination Sequence:
#
# PCOD9239114 Si02
#       8
#     4   4   4   4   4   4   4   4
#     4  10  18  30  55  85 116 142 170 230 300 326
#     4   9  22  40  58  76 112 162 189 232 274 325
#     4  11  20  37  59  85 114 148 182 232 285 346
#     4  11  18  31  58  91 110 136 198 246 278 319
#     4  10  17  31  59  88 114 138 186 244 286 321
#     4  10  23  43  55  73 117 163 193 216 277 344
#     4  10  15  27  49  84 118 134 162 226 289 331
#     4  11  20  33  60  87 111 149 185 235 284 336
#
# _framework density 26.721803999999999
#
# number of rings (size 3 to 8) (size 9 to 14) (size 15 to 20)
#    0.000    1.750    3.750    3.375    0.000    0.500 
#    2.250    3.125    0.000    0.000    0.000    0.000 
#    0.000    0.000    0.000    0.000    0.000    0.000 
#
# Total GULP energy -178572.912186 kJ/mol
# GULP energy per Si atom -5580.403506 kJ/mol
# Density = 2.666098 g / cm^3
# Si number density = 26.721804 Si / 1000 Ang^3
#
#
#
# Elastic Constant Matrix: (Units=GPa)
#
#
# Indices 1 2 3 4 5 6 
#
# 1 129.8497 13.1865 -3.3846 0.0000 17.2099 0.0000
# 2 13.1865 88.2402 2.2036 0.0000 0.9605 0.0000
# 3 -3.3846 2.2036 57.4725 0.0000 0.7911 0.0000
# 4 0.0000 0.0000 0.0000 19.5276 0.0000 5.4407
# 5 17.2099 0.9605 0.7911 0.0000 27.0113 0.0000
# 6 0.0000 0.0000 0.0000 5.4407 0.0000 56.5528
#
#
#
# Elastic Compliance Matrix: (Units=1/GPa)
#
#
# Indices 1 2 3 4 5 6 
#
# 1 0.008563 -0.001236 0.000626 0.000000 -0.005430 0.000000
# 2 -0.001236 0.011526 -0.000520 0.000000 0.000393 0.000000
# 3 0.000626 -0.000520 0.017469 0.000000 -0.000892 0.000000
# 4 0.000000 0.000000 0.000000 0.052620 0.000000 -0.005062
# 5 -0.005430 0.000393 -0.000892 0.000000 0.040493 0.000000
# 6 0.000000 0.000000 0.000000 -0.005062 0.000000 0.018170
#
#
# Mechanical properties :
#
#
# Convention : Reuss Voigt Hill
#
# Bulk Modulus (GPa) = 28.33028 33.28591 30.80809
# Shear Modulus (GPa) = 30.70002 38.18881 34.44441
#
# Velocity S-wave (km/s) = 3.39318 3.78448 3.59416
# Velocity P-wave (km/s) = 5.09672 5.61960 5.36453
#
# Compressibility (1/GPa) = 0.03529793
#
# Stress axis : x y z
#
# Youngs Moduli (GPa) = 116.78482 86.75935 57.24509
#
# Poissons Ratio (x) = 0.10725 -0.03586
# Poissons Ratio (y) = 0.14436 0.02978
# Poissons Ratio (z) = -0.07316 0.04513
#
# Static dielectric constant tensor:
#      x y z
#    x 2.151780 0.000000 -0.053010 
#    y 0.000000 2.147500 0.000000 
#    z -0.053010 0.000000 2.189800 
# 
# From -- ./inp_files/18122.got.cif
#   From: 2010.05.17/outbox.cif.g08.bks.cpg/sg14_10_cif.got.tgz:18122.got - 2010.06.03 17:49:19.
