data_PCOD9239245
_publ_section_title
;
Structure prediction by ZEFSAII (Michael W. Deem and Ramdas Pophale) SiO2 
 PCOD9239245
Probable space group: P 21/C
;
_chemical_formula_sum "Si O2"
_cell_formula_units_Z 26
_cell_length_a 11.937301
_cell_length_b 7.227958
_cell_length_c 25.103277
_cell_angle_alpha 90.000000
_cell_angle_beta 150.131253
_cell_angle_gamma 90.000000
_cell_volume 1078.684489
_symmetry_space_group_name_H-M "P 21/C"
_symmetry_group_IT_number 14
_symmetry_cell_setting 'monoclinic'
loop_
_space_group_symop_operation_xyz
x,y,z
-x,1/2+y,1/2-z
-x,-y,-z
x,1/2-y,1/2+z
loop_
_atom_site_type_symbol
_atom_site_label
_atom_site_fract_x
_atom_site_fract_y
_atom_site_fract_z
Si Si1 0.999154 0.198721 0.221188
Si Si2 0.500000 0.000000 0.000000
Si Si3 0.964926 0.399281 0.818911
Si Si4 0.507658 0.980558 0.124884
Si Si5 0.026468 0.951266 0.949940
Si Si6 0.358479 0.085371 0.288010
Si Si7 0.868889 0.479020 0.002007
O O1 0.997989 0.394983 0.190467
O O2 0.197281 0.082750 0.273589
O O3 0.059535 0.220982 0.309117
O O4 0.751046 0.110509 0.112849
O O5 0.485356 0.079364 0.933574
O O6 0.698264 0.368247 0.712498
O O7 0.051999 0.402586 0.914598
O O8 0.574724 0.805333 0.189222
O O9 0.256720 0.049422 0.028627
O O10 0.801572 0.986628 0.824638
O O11 0.081936 0.735269 0.963245
O O12 0.000000 0.000000 0.000000
O O13 0.601842 0.993831 0.387632
O O14 0.000000 0.500000 0.000000
#
# Coordination Sequence:
#
# PCOD9239245 Si02
#       7
#     4   2   4   4   4   4   4
#     4  10  19  38  64  90 119 162 203 251 316 358
#     4  10  16  32  64  90 114 154 198 246 298 372
#     4  10  21  40  62  91 124 163 201 255 309 368
#     4   9  18  35  61  85 121 152 201 248 303 358
#     4  11  22  39  62  88 117 169 211 249 298 370
#     4  10  20  39  63  85 124 164 201 253 314 362
#     4  11  24  42  60  90 130 163 201 255 313 369
#
# _framework density 24.103434
#
# number of rings (size 3 to 8) (size 9 to 14) (size 15 to 20)
#    0.000    1.846    4.615    0.923    2.154    0.615 
#    2.769    3.077    0.000    0.000    0.000    0.000 
#    0.000    0.000    0.000    0.000    0.000    0.000 
#
# Total GULP energy -144752.175787 kJ/mol
# GULP energy per Si atom -5567.391376 kJ/mol
# Density = 2.404857 g / cm^3
# Si number density = 24.103434 Si / 1000 Ang^3
#
#
#
# Elastic Constant Matrix: (Units=GPa)
#
#
# Indices 1 2 3 4 5 6 
#
# 1 126.1015 36.6084 89.5891 0.0000 -15.0589 0.0000
# 2 36.6084 75.4228 26.4778 0.0000 5.0349 0.0000
# 3 89.5891 26.4778 192.8581 0.0000 -5.0736 0.0000
# 4 0.0000 0.0000 0.0000 21.5630 0.0000 -4.0276
# 5 -15.0589 5.0349 -5.0736 0.0000 47.7722 0.0000
# 6 0.0000 0.0000 0.0000 -4.0276 0.0000 31.1989
#
#
#
# Elastic Compliance Matrix: (Units=1/GPa)
#
#
# Indices 1 2 3 4 5 6 
#
# 1 0.013945 -0.005068 -0.005668 0.000000 0.004328 0.000000
# 2 -0.005068 0.015907 0.000084 0.000000 -0.003265 0.000000
# 3 -0.005668 0.000084 0.007781 0.000000 -0.000969 0.000000
# 4 0.000000 0.000000 0.000000 0.047522 0.000000 0.006135
# 5 0.004328 -0.003265 -0.000969 0.000000 0.022538 0.000000
# 6 0.000000 0.000000 0.000000 0.006135 0.000000 0.032844
#
#
# Mechanical properties :
#
#
# Convention : Reuss Voigt Hill
#
# Bulk Modulus (GPa) = 61.23814 77.74810 69.49312
# Shear Modulus (GPa) = 29.88924 36.22062 33.05493
#
# Velocity S-wave (km/s) = 3.52524 3.88069 3.70723
# Velocity P-wave (km/s) = 6.48316 7.23918 6.87158
#
# Compressibility (1/GPa) = 0.01632969
#
# Stress axis : x y z
#
# Youngs Moduli (GPa) = 71.70859 62.86680 128.51376
#
# Poissons Ratio (x) = 0.31859 0.72848
# Poissons Ratio (y) = 0.36340 -0.01084
# Poissons Ratio (z) = 0.40648 -0.00530
#
# Static dielectric constant tensor:
#      x y z
#    x 1.944250 0.000000 -0.000690 
#    y 0.000000 1.353820 0.000000 
#    z -0.000690 0.000000 1.955670 
# 
# From -- ./inp_files/73170.got.cif
#   From: 2010.05.17/outbox.cif.g08.bks.cpg/sg14_37_cif.got.tgz:73170.got - 2010.06.03 17:49:19.
