data_PCOD9239186
_publ_section_title
;
Structure prediction by ZEFSAII (Michael W. Deem and Ramdas Pophale) SiO2 
 PCOD9239186
Probable space group: P 21/C
;
_chemical_formula_sum "Si O2"
_cell_formula_units_Z 28
_cell_length_a 11.297008
_cell_length_b 9.620492
_cell_length_c 16.296327
_cell_angle_alpha 90.000000
_cell_angle_beta 146.241984
_cell_angle_gamma 90.000000
_cell_volume 984.193151
_symmetry_space_group_name_H-M "P 21/C"
_symmetry_group_IT_number 14
_symmetry_cell_setting 'monoclinic'
loop_
_space_group_symop_operation_xyz
x,y,z
-x,1/2+y,1/2-z
-x,-y,-z
x,1/2-y,1/2+z
loop_
_atom_site_type_symbol
_atom_site_label
_atom_site_fract_x
_atom_site_fract_y
_atom_site_fract_z
Si Si1 0.500728 0.473809 0.378584
Si Si2 0.773462 0.820726 0.875341
Si Si3 0.695006 0.354290 0.177052
Si Si4 0.329927 0.214470 0.911591
Si Si5 0.946434 0.643514 0.121867
Si Si6 0.603431 0.018421 0.368415
Si Si7 0.059733 0.932803 0.913938
O O1 0.581868 0.619984 0.462274
O O2 0.335507 0.395878 0.342320
O O3 0.397414 0.490044 0.230061
O O4 0.730165 0.394156 0.514186
O O5 0.820633 0.712196 0.972603
O O6 0.530745 0.837244 0.707786
O O7 0.834020 0.965564 0.955881
O O8 0.930833 0.816106 0.888613
O O9 0.512792 0.330428 0.004727
O O10 0.556566 0.413156 0.173979
O O11 0.821840 0.207804 0.260332
O O12 0.883497 0.465451 0.272186
O O13 0.127069 0.290638 0.833404
O O14 0.834268 0.493228 0.045529
#
# Coordination Sequence:
#
# PCOD9239186 Si02
#       7
#     4   4   4   4   4   4   4
#     4  10  17  31  47  71  95 124 154 195 230 283
#     4   8  13  25  45  69  84 113 161 192 221 264
#     4   9  17  30  47  73  90 122 160 194 228 279
#     4  10  19  28  49  69  99 121 154 188 239 282
#     4  10  16  30  49  69  96 122 153 197 236 273
#     4   9  17  28  50  69  92 122 162 195 229 272
#     4   8  13  26  49  63  86 113 155 198 222 260
#
# _framework density 28.4497
#
# number of rings (size 3 to 8) (size 9 to 14) (size 15 to 20)
#    0.000    2.857    4.286    2.571    0.000    0.000 
#    0.000    3.571    0.000    0.000    0.000    6.000 
#    0.000    0.000    0.000    0.000    0.000    0.000 
#
# Total GULP energy -156413.813223 kJ/mol
# GULP energy per Si atom -5586.207615 kJ/mol
# Density = 2.838495 g / cm^3
# Si number density = 28.449700 Si / 1000 Ang^3
#
#
#
# Elastic Constant Matrix: (Units=GPa)
#
#
# Indices 1 2 3 4 5 6 
#
# 1 101.1763 6.9813 27.0993 0.0000 -4.0649 0.0000
# 2 6.9813 55.1706 20.9516 0.0000 1.5567 0.0000
# 3 27.0993 20.9516 89.7843 0.0000 18.8527 0.0000
# 4 0.0000 0.0000 0.0000 56.6871 0.0000 -7.9785
# 5 -4.0649 1.5567 18.8527 0.0000 48.5494 0.0000
# 6 0.0000 0.0000 0.0000 -7.9785 0.0000 30.3547
#
#
#
# Elastic Compliance Matrix: (Units=1/GPa)
#
#
# Indices 1 2 3 4 5 6 
#
# 1 0.011006 -0.000008 -0.003825 0.000000 0.002407 0.000000
# 2 -0.000008 0.019960 -0.004922 0.000000 0.001271 0.000000
# 3 -0.003825 -0.004922 0.014671 0.000000 -0.005860 0.000000
# 4 0.000000 0.000000 0.000000 0.018318 0.000000 0.004815
# 5 0.002407 0.001271 -0.005860 0.000000 0.023034 0.000000
# 6 0.000000 0.000000 0.000000 0.004815 0.000000 0.034209
#
#
# Mechanical properties :
#
#
# Convention : Reuss Voigt Hill
#
# Bulk Modulus (GPa) = 35.55414 39.57727 37.56571
# Shear Modulus (GPa) = 33.76440 39.85816 36.81128
#
# Velocity S-wave (km/s) = 3.44875 3.74706 3.60099
# Velocity P-wave (km/s) = 5.32755 5.71508 5.52471
#
# Compressibility (1/GPa) = 0.02812612
#
# Stress axis : x y z
#
# Youngs Moduli (GPa) = 90.86285 50.10017 68.15958
#
# Poissons Ratio (x) = 0.00039 0.26074
# Poissons Ratio (y) = 0.00071 0.33550
# Poissons Ratio (z) = 0.34759 0.24660
#
# Static dielectric constant tensor:
#      x y z
#    x 2.317600 0.000000 0.052310 
#    y 0.000000 2.423390 0.000000 
#    z 0.052310 0.000000 2.221770 
# 
# From -- ./inp_files/67188.got.cif
#   From: 2010.05.17/outbox.cif.g08.bks.cpg/sg14_34_cif.got.tgz:67188.got - 2010.06.03 17:49:19.
