data_PCOD9239853
_publ_section_title
;
Structure prediction by ZEFSAII (Michael W. Deem and Ramdas Pophale) SiO2 
 PCOD9239853
Probable space group: P 21/C
;
_chemical_formula_sum "Si O2"
_cell_formula_units_Z 20
_cell_length_a 9.037898
_cell_length_b 10.794183
_cell_length_c 10.417761
_cell_angle_alpha 90.000000
_cell_angle_beta 44.879687
_cell_angle_gamma 90.000000
_cell_volume 717.137990
_symmetry_space_group_name_H-M "P 21/C"
_symmetry_group_IT_number 14
_symmetry_cell_setting 'monoclinic'
loop_
_space_group_symop_operation_xyz
x,y,z
-x,1/2+y,1/2-z
-x,-y,-z
x,1/2-y,1/2+z
loop_
_atom_site_type_symbol
_atom_site_label
_atom_site_fract_x
_atom_site_fract_y
_atom_site_fract_z
Si Si1 0.489634 0.863818 0.765069
Si Si2 0.966200 0.792612 0.488056
Si Si3 0.533799 0.707387 0.511944
Si Si4 0.989637 0.136182 0.265068
Si Si5 0.750001 0.563667 0.750000
O O1 0.743421 0.861724 0.605063
O O2 0.438286 0.742281 0.708513
O O3 0.433120 0.855874 0.949597
O O4 0.377096 0.978313 0.769128
O O5 0.061711 0.757719 0.291487
O O6 0.066878 0.855875 0.550403
O O7 0.906313 0.656081 0.580476
O O8 0.756576 0.638275 0.394938
O O9 0.593688 0.843919 0.419524
O O10 0.877097 0.021687 0.269128
#
# Coordination Sequence:
#
# PCOD9239853 Si02
#       5
#     4   4   4   4   4
#     4   9  18  35  54  72 103 133 164 206 249 292
#     4   9  20  37  50  73 106 132 161 208 251 292
#     4   9  20  37  50  73 106 132 161 208 251 292
#     4   9  18  35  54  72 103 133 164 206 249 292
#     4  10  18  32  56  76  96 134 170 202 246 296
#
# _framework density 27.888636999999999
#
# number of rings (size 3 to 8) (size 9 to 14) (size 15 to 20)
#    0.000    3.200    0.000    1.200    0.000    1.600 
#    0.000   48.000    0.000    0.000    0.000    0.000 
#    0.000    0.000    0.000    0.000    0.000    0.000 
#
# Total GULP energy -112034.810769 kJ/mol
# GULP energy per Si atom -5601.740538 kJ/mol
# Density = 2.782516 g / cm^3
# Si number density = 27.888637 Si / 1000 Ang^3
#
#
#
# Elastic Constant Matrix: (Units=GPa)
#
#
# Indices 1 2 3 4 5 6 
#
# 1 186.0121 100.1216 43.7676 0.0000 56.4086 0.0000
# 2 100.1216 144.3675 30.8670 0.0000 7.1313 0.0000
# 3 43.7676 30.8670 91.3064 0.0000 15.1721 0.0000
# 4 0.0000 0.0000 0.0000 32.2239 0.0000 17.1246
# 5 56.4086 7.1313 15.1721 0.0000 49.5259 0.0000
# 6 0.0000 0.0000 0.0000 17.1246 0.0000 59.5851
#
#
#
# Elastic Compliance Matrix: (Units=1/GPa)
#
#
# Indices 1 2 3 4 5 6 
#
# 1 0.016152 -0.010044 -0.001612 0.000000 -0.016457 0.000000
# 2 -0.010044 0.013717 -0.001470 0.000000 0.009915 0.000000
# 3 -0.001612 -0.001470 0.012519 0.000000 -0.001787 0.000000
# 4 0.000000 0.000000 0.000000 0.036627 0.000000 -0.010526
# 5 -0.016457 0.009915 -0.001787 0.000000 0.038055 0.000000
# 6 0.000000 0.000000 0.000000 -0.010526 0.000000 0.019808
#
#
# Mechanical properties :
#
#
# Convention : Reuss Voigt Hill
#
# Bulk Modulus (GPa) = 61.97792 85.68872 73.83332
# Shear Modulus (GPa) = 29.67181 44.72896 37.20038
#
# Velocity S-wave (km/s) = 3.26535 4.00914 3.65621
# Velocity P-wave (km/s) = 6.04055 7.22655 6.66000
#
# Compressibility (1/GPa) = 0.01613478
#
# Stress axis : x y z
#
# Youngs Moduli (GPa) = 61.91076 72.90127 79.87871
#
# Poissons Ratio (x) = 0.73224 0.12880
# Poissons Ratio (y) = 0.62185 0.11743
# Poissons Ratio (z) = 0.09983 0.10717
#
# Static dielectric constant tensor:
#      x y z
#    x 2.278870 0.000000 -0.036970 
#    y 0.000000 2.127020 0.000000 
#    z -0.036970 0.000000 2.322240 
# 
# From -- ./inp_files/23799.got.cif
#   From: 2010.05.17/outbox.cif.g08.bks.cpg/sg14_12_cif.got.tgz:23799.got - 2010.06.03 17:49:19.
