data_PCOD9239090
_publ_section_title
;
Structure prediction by ZEFSAII (Michael W. Deem and Ramdas Pophale) SiO2 
 PCOD9239090
Probable space group: P 21/C
;
_chemical_formula_sum "Si O2"
_cell_formula_units_Z 24
_cell_length_a 30.722706
_cell_length_b 6.472862
_cell_length_c 5.150389
_cell_angle_alpha 90.000000
_cell_angle_beta 99.161490
_cell_angle_gamma 90.000000
_cell_volume 1011.160577
_symmetry_space_group_name_H-M "P 21/C"
_symmetry_group_IT_number 14
_symmetry_cell_setting 'monoclinic'
loop_
_space_group_symop_operation_xyz
x,y,z
-x,1/2+y,1/2-z
-x,-y,-z
x,1/2-y,1/2+z
loop_
_atom_site_type_symbol
_atom_site_label
_atom_site_fract_x
_atom_site_fract_y
_atom_site_fract_z
Si Si1 0.452713 0.973786 0.085593
Si Si2 0.677915 0.391859 0.132148
Si Si3 0.955078 0.116103 0.018645
Si Si4 0.770128 0.393851 0.335116
Si Si5 0.582662 0.493692 0.946544
Si Si6 0.137307 0.893048 0.192124
O O1 0.417913 0.067892 0.849423
O O2 0.434634 0.742527 0.116094
O O3 0.452209 0.067399 0.372234
O O4 0.500000 0.000000 0.000000
O O5 0.677904 0.209588 0.346958
O O6 0.723973 0.507024 0.232905
O O7 0.631341 0.504091 0.108821
O O8 0.954290 0.192373 0.314360
O O9 0.909333 0.998286 0.908822
O O10 0.000000 0.000000 0.000000
O O11 0.770033 0.295213 0.622849
O O12 0.816487 0.505664 0.322242
O O13 0.137517 0.795890 0.480478
#
# Coordination Sequence:
#
# PCOD9239090 Si02
#       6
#     4   4   4   4   4   4
#     4  10  18  27  39  52  71 101 123 150 186 233
#     4  10  14  23  36  51  74 102 122 152 198 250
#     4  10  19  31  48  68  97 135 169 207 249 293
#     4   8  14  20  34  53  74 105 132 154 199 258
#     4  10  17  28  38  53  75  97 124 154 197 230
#     4   8  14  25  37  57  84 114 145 173 215 262
#
# _framework density 23.735102000000001
#
# number of rings (size 3 to 8) (size 9 to 14) (size 15 to 20)
#    0.000    2.667    3.333    1.000    0.000    0.000 
#    0.000    0.000    0.000    0.000    0.000    0.000 
#    0.000    0.000   34.000    2.000    0.000    0.000 
#
# Total GULP energy -133693.299057 kJ/mol
# GULP energy per Si atom -5570.554127 kJ/mol
# Density = 2.368108 g / cm^3
# Si number density = 23.735102 Si / 1000 Ang^3
#
#
#
# Elastic Constant Matrix: (Units=GPa)
#
#
# Indices 1 2 3 4 5 6 
#
# 1 202.0478 -0.6070 6.1069 0.0000 28.6867 0.0000
# 2 -0.6070 38.5692 -16.4281 0.0000 4.3669 0.0000
# 3 6.1069 -16.4281 137.2557 0.0000 -14.4570 0.0000
# 4 0.0000 0.0000 0.0000 -17.6293 0.0000 2.0112
# 5 28.6867 4.3669 -14.4570 0.0000 50.8838 0.0000
# 6 0.0000 0.0000 0.0000 2.0112 0.0000 15.2022
#
#
#
# Elastic Compliance Matrix: (Units=1/GPa)
#
#
# Indices 1 2 3 4 5 6 
#
# 1 0.005426 0.000215 -0.000557 0.000000 -0.003236 0.000000
# 2 0.000215 0.027434 0.003106 0.000000 -0.001593 0.000000
# 3 -0.000557 0.003106 0.007924 0.000000 0.002299 0.000000
# 4 0.000000 0.000000 0.000000 -0.055880 0.000000 0.007393
# 5 -0.003236 -0.001593 0.002299 0.000000 0.022267 0.000000
# 6 0.000000 0.000000 0.000000 0.007393 0.000000 0.064802
#
#
# Mechanical properties :
#
#
# Convention : Reuss Voigt Hill
#
# Bulk Modulus (GPa) = 21.59191 39.55734 30.57462
# Shear Modulus (GPa) = 61.06375 35.61141 48.33758
#
# Velocity S-wave (km/s) = 5.07770 3.87766 4.51770
# Velocity P-wave (km/s) = 6.59501 6.06224 6.33423
#
# Compressibility (1/GPa) = 0.04631364
#
# Stress axis : x y z
#
# Youngs Moduli (GPa) = 184.29130 36.45079 126.19355
#
# Poissons Ratio (x) = -0.00783 0.07023
# Poissons Ratio (y) = -0.03957 -0.39199
# Poissons Ratio (z) = 0.10257 -0.11323
#
# Static dielectric constant tensor:
#      x y z
#    x 2.026090 0.000000 0.021070 
#    y 0.000000 2.531690 0.000000 
#    z 0.021070 0.000000 1.949240 
# 
# From -- ./inp_files/4543.got.cif
#   From: 2010.05.17/outbox.cif.g08.bks.cpg/sg14_3_cif.got.tgz:4543.got - 2010.06.03 17:49:19.
