data_PCOD9239773
_publ_section_title
;
Structure prediction by ZEFSAII (Michael W. Deem and Ramdas Pophale) SiO2 
 PCOD9239773
Probable space group: P 21/C
;
_chemical_formula_sum "Si O2"
_cell_formula_units_Z 32
_cell_length_a 10.551899
_cell_length_b 19.263913
_cell_length_c 8.267916
_cell_angle_alpha 90.000000
_cell_angle_beta 107.663157
_cell_angle_gamma 90.000000
_cell_volume 1601.396302
_symmetry_space_group_name_H-M "P 21/C"
_symmetry_group_IT_number 14
_symmetry_cell_setting 'monoclinic'
loop_
_space_group_symop_operation_xyz
x,y,z
-x,1/2+y,1/2-z
-x,-y,-z
x,1/2-y,1/2+z
loop_
_atom_site_type_symbol
_atom_site_label
_atom_site_fract_x
_atom_site_fract_y
_atom_site_fract_z
Si Si1 0.767805 0.580689 0.625241
Si Si2 0.970874 0.921103 0.940871
Si Si3 0.843442 0.806698 0.408604
Si Si4 0.659502 0.705906 0.130627
Si Si5 0.913174 0.044042 0.342120
Si Si6 0.107831 0.784284 0.003727
Si Si7 0.234018 0.675913 0.223970
Si Si8 0.533169 0.837235 0.904002
O O1 0.832236 0.593767 0.473797
O O2 0.842978 0.629937 0.783324
O O3 0.806249 0.504491 0.705150
O O4 0.617281 0.606351 0.540165
O O5 0.987955 0.924057 0.755198
O O6 0.068518 0.861249 0.048576
O O7 0.000000 0.000000 0.000000
O O8 0.757888 0.748935 0.283055
O O9 0.757933 0.826981 0.534248
O O10 0.984346 0.768171 0.485565
O O11 0.574568 0.662804 0.228806
O O12 0.571542 0.762631 0.998602
O O13 0.833266 0.108858 0.384401
O O14 0.000000 0.000000 0.500000
O O15 0.138201 0.798012 0.829556
O O16 0.237729 0.744233 0.116075
O O17 0.375725 0.654259 0.347882
#
# Coordination Sequence:
#
# PCOD9239773 Si02
#       8
#     4   4   4   4   4   4   4   4
#     4  10  20  35  57  80 112 150 186 235 287 343
#     4   9  19  36  56  83 114 144 182 234 296 348
#     4  10  18  31  56  87 110 142 190 239 287 330
#     4   9  18  32  53  81 112 143 187 241 282 333
#     4  10  22  38  58  84 113 145 187 242 296 344
#     4  11  20  33  55  83 112 143 184 234 286 334
#     4  11  23  36  55  81 114 151 187 230 281 347
#     4  10  20  35  53  78 114 155 192 228 282 344
#
# _framework density 19.982561
#
# number of rings (size 3 to 8) (size 9 to 14) (size 15 to 20)
#    0.000    2.000    0.000    5.250    0.000    4.500 
#    0.000    0.000    0.000    3.000    0.000    0.000 
#    0.000    0.000    0.000    0.000    0.000    0.000 
#
# Total GULP energy -178161.029298 kJ/mol
# GULP energy per Si atom -5567.532166 kJ/mol
# Density = 1.993708 g / cm^3
# Si number density = 19.982561 Si / 1000 Ang^3
#
#
#
# Elastic Constant Matrix: (Units=GPa)
#
#
# Indices 1 2 3 4 5 6 
#
# 1 63.4533 31.0149 35.0529 0.0000 11.6644 0.0000
# 2 31.0149 101.6916 31.0064 0.0000 17.3952 0.0000
# 3 35.0529 31.0064 72.0376 0.0000 4.5816 0.0000
# 4 0.0000 0.0000 0.0000 34.1951 0.0000 1.7376
# 5 11.6644 17.3952 4.5816 0.0000 36.7180 0.0000
# 6 0.0000 0.0000 0.0000 1.7376 0.0000 19.5235
#
#
#
# Elastic Compliance Matrix: (Units=1/GPa)
#
#
# Indices 1 2 3 4 5 6 
#
# 1 0.023690 -0.003455 -0.009743 0.000000 -0.004673 0.000000
# 2 -0.003455 0.012727 -0.003511 0.000000 -0.004494 0.000000
# 3 -0.009743 -0.003511 0.019990 0.000000 0.002264 0.000000
# 4 0.000000 0.000000 0.000000 0.029377 0.000000 -0.002615
# 5 -0.004673 -0.004494 0.002264 0.000000 0.030565 0.000000
# 6 0.000000 0.000000 0.000000 -0.002615 0.000000 0.051453
#
#
# Mechanical properties :
#
#
# Convention : Reuss Voigt Hill
#
# Bulk Modulus (GPa) = 43.50030 47.92566 45.71298
# Shear Modulus (GPa) = 23.93707 27.42786 25.68247
#
# Velocity S-wave (km/s) = 3.46482 3.70887 3.58892
# Velocity P-wave (km/s) = 6.15004 6.50974 6.33245
#
# Compressibility (1/GPa) = 0.02298835
#
# Stress axis : x y z
#
# Youngs Moduli (GPa) = 42.21270 78.57603 50.02621
#
# Poissons Ratio (x) = 0.27148 0.48740
# Poissons Ratio (y) = 0.14585 0.17563
# Poissons Ratio (z) = 0.41127 0.27586
#
# Static dielectric constant tensor:
#      x y z
#    x 1.784350 0.000000 -0.003020 
#    y 0.000000 1.789270 0.000000 
#    z -0.003020 0.000000 1.760020 
# 
# From -- ./inp_files/13791.got.cif
#   From: 2010.05.17/outbox.cif.g08.bks.cpg/sg14_7_cif.got.tgz:13791.got - 2010.06.03 17:49:19.
