data_PCOD9239457
_publ_section_title
;
Structure prediction by ZEFSAII (Michael W. Deem and Ramdas Pophale) SiO2 
 PCOD9239457
Probable space group: P 21/C
;
_chemical_formula_sum "Si O2"
_cell_formula_units_Z 32
_cell_length_a 7.774535
_cell_length_b 19.944253
_cell_length_c 14.346566
_cell_angle_alpha 90.000000
_cell_angle_beta 139.157551
_cell_angle_gamma 90.000000
_cell_volume 1454.807275
_symmetry_space_group_name_H-M "P 21/C"
_symmetry_group_IT_number 14
_symmetry_cell_setting 'monoclinic'
loop_
_space_group_symop_operation_xyz
x,y,z
-x,1/2+y,1/2-z
-x,-y,-z
x,1/2-y,1/2+z
loop_
_atom_site_type_symbol
_atom_site_label
_atom_site_fract_x
_atom_site_fract_y
_atom_site_fract_z
Si Si1 0.583372 0.541209 0.269938
Si Si2 0.628841 0.092966 0.699806
Si Si3 0.911325 0.407273 0.635067
Si Si4 0.349111 0.308641 0.529197
Si Si5 0.758034 0.329480 0.855003
Si Si6 0.191728 0.688381 0.572344
Si Si7 0.761890 0.951602 0.056701
Si Si8 0.232955 0.335776 0.927791
O O1 0.489707 0.471589 0.187809
O O2 0.380148 0.601728 0.174944
O O3 0.669227 0.532750 0.412685
O O4 0.847422 0.562760 0.325998
O O5 0.634788 0.153118 0.776887
O O6 0.489399 0.119423 0.550190
O O7 0.930422 0.070459 0.809402
O O8 0.786063 0.355968 0.510353
O O9 0.753659 0.474707 0.601919
O O10 0.049376 0.366324 0.773496
O O11 0.605807 0.304543 0.699006
O O12 0.366315 0.378105 0.479079
O O13 0.304036 0.242571 0.449636
O O14 0.102986 0.313661 0.501860
O O15 0.739004 0.265976 0.915009
O O16 0.058014 0.341182 0.949884
#
# Coordination Sequence:
#
# PCOD9239457 Si02
#       8
#     4   4   4   4   4   4   4   4
#     4  10  18  35  62  82 105 147 199 218 258 331
#     4  10  17  33  57  84 106 143 182 231 262 327
#     4  11  19  36  57  91 103 136 194 241 257 316
#     4   9  18  36  58  76 104 154 184 214 266 349
#     4  10  20  37  55  79 111 156 176 221 277 344
#     4  10  17  34  62  79  98 144 202 218 252 326
#     4   9  17  33  64  82 100 144 201 222 252 322
#     4  11  24  33  52  87 122 135 171 231 304 308
#
# _framework density 21.996041000000002
#
# number of rings (size 3 to 8) (size 9 to 14) (size 15 to 20)
#    0.000    2.000    6.250    0.750    0.000    2.500 
#    2.250    3.750    0.000    0.000    0.000    0.000 
#    0.000    0.000    0.000    0.000    0.000    0.000 
#
# Total GULP energy -178530.825759 kJ/mol
# GULP energy per Si atom -5579.088305 kJ/mol
# Density = 2.194598 g / cm^3
# Si number density = 21.996041 Si / 1000 Ang^3
#
#
#
# Elastic Constant Matrix: (Units=GPa)
#
#
# Indices 1 2 3 4 5 6 
#
# 1 39.8937 20.0070 5.2642 0.0000 -2.4646 0.0000
# 2 20.0070 169.3549 34.8512 0.0000 1.5914 0.0000
# 3 5.2642 34.8512 64.3171 0.0000 -1.2955 0.0000
# 4 0.0000 0.0000 0.0000 35.2389 0.0000 2.1904
# 5 -2.4646 1.5914 -1.2955 0.0000 15.7922 0.0000
# 6 0.0000 0.0000 0.0000 2.1904 0.0000 20.3897
#
#
#
# Elastic Compliance Matrix: (Units=1/GPa)
#
#
# Indices 1 2 3 4 5 6 
#
# 1 0.026975 -0.003144 -0.000414 0.000000 0.004493 0.000000
# 2 -0.003144 0.007027 -0.003580 0.000000 -0.001492 0.000000
# 3 -0.000414 -0.003580 0.017557 0.000000 0.001736 0.000000
# 4 0.000000 0.000000 0.000000 0.028569 0.000000 -0.003069
# 5 0.004493 -0.001492 0.001736 0.000000 0.064316 0.000000
# 6 0.000000 0.000000 0.000000 -0.003069 0.000000 0.049374
#
#
# Mechanical properties :
#
#
# Convention : Reuss Voigt Hill
#
# Bulk Modulus (GPa) = 26.82176 43.75672 35.28924
# Shear Modulus (GPa) = 22.67343 28.51369 25.59356
#
# Velocity S-wave (km/s) = 3.21408 3.60434 3.41479
# Velocity P-wave (km/s) = 5.09845 6.10392 5.62370
#
# Compressibility (1/GPa) = 0.03728317
#
# Stress axis : x y z
#
# Youngs Moduli (GPa) = 37.07072 142.30832 56.95754
#
# Poissons Ratio (x) = 0.44739 0.02357
# Poissons Ratio (y) = 0.11654 0.20393
# Poissons Ratio (z) = 0.01534 0.50953
#
# Static dielectric constant tensor:
#      x y z
#    x 1.918180 0.000000 0.059370 
#    y 0.000000 1.849780 0.000000 
#    z 0.059370 0.000000 1.779880 
# 
# From -- ./inp_files/26832.got.cif
#   From: 2010.05.17/outbox.cif.g08.bks.cpg/sg14_14_cif.got.tgz:26832.got - 2010.06.03 17:49:19.
