data_PCOD9239223
_publ_section_title
;
Structure prediction by ZEFSAII (Michael W. Deem and Ramdas Pophale) SiO2 
 PCOD9239223
Probable space group: P 21/C
;
_chemical_formula_sum "Si O2"
_cell_formula_units_Z 28
_cell_length_a 14.951223
_cell_length_b 18.718960
_cell_length_c 8.940402
_cell_angle_alpha 90.000000
_cell_angle_beta 142.669577
_cell_angle_gamma 90.000000
_cell_volume 1517.338005
_symmetry_space_group_name_H-M "P 21/C"
_symmetry_group_IT_number 14
_symmetry_cell_setting 'monoclinic'
loop_
_space_group_symop_operation_xyz
x,y,z
-x,1/2+y,1/2-z
-x,-y,-z
x,1/2-y,1/2+z
loop_
_atom_site_type_symbol
_atom_site_label
_atom_site_fract_x
_atom_site_fract_y
_atom_site_fract_z
Si Si1 0.590249 0.592382 0.491407
Si Si2 0.388653 0.174340 0.446746
Si Si3 0.638769 0.279348 0.810530
Si Si4 0.495004 0.059820 0.780855
Si Si5 0.093384 0.345913 0.077685
Si Si6 0.769978 0.162537 0.194953
Si Si7 0.206261 0.245962 0.463084
O O1 0.484709 0.660119 0.314770
O O2 0.578695 0.576214 0.654809
O O3 0.530005 0.523548 0.325256
O O4 0.762383 0.607794 0.689921
O O5 0.538669 0.216087 0.604990
O O6 0.409489 0.092930 0.525195
O O7 0.331751 0.211070 0.525696
O O8 0.275608 0.195367 0.167042
O O9 0.746034 0.317793 0.836249
O O10 0.732718 0.236506 0.058313
O O11 0.644227 0.105981 0.985687
O O12 0.095437 0.282009 0.201131
O O13 0.131218 0.312804 0.967087
O O14 0.926943 0.371807 0.864005
#
# Coordination Sequence:
#
# PCOD9239223 Si02
#       7
#     4   4   4   4   4   4   4
#     4  10  18  32  55  76 102 136 182 205 257 303
#     4  10  16  32  53  77  99 127 176 222 246 294
#     4  10  18  33  54  76 100 133 167 222 251 299
#     4   9  19  33  51  79 100 139 174 215 250 305
#     4  11  20  32  51  80 103 138 166 213 260 312
#     4  10  21  33  51  77 110 129 169 211 269 300
#     4  10  18  29  53  79  99 129 173 217 250 300
#
# _framework density 18.453371000000001
#
# number of rings (size 3 to 8) (size 9 to 14) (size 15 to 20)
#    0.000    2.000    4.286    2.571    0.000    0.571 
#    0.000    0.714    0.000    0.000    0.000    5.000 
#    0.000    0.000    0.000    0.000    0.000    0.000 
#
# Total GULP energy -155952.852177 kJ/mol
# GULP energy per Si atom -5569.744721 kJ/mol
# Density = 1.841137 g / cm^3
# Si number density = 18.453371 Si / 1000 Ang^3
#
#
#
# Elastic Constant Matrix: (Units=GPa)
#
#
# Indices 1 2 3 4 5 6 
#
# 1 80.5386 5.7025 24.3117 0.0000 14.7449 0.0000
# 2 5.7025 62.5349 3.5223 0.0000 1.7829 0.0000
# 3 24.3117 3.5223 29.2128 0.0000 8.2552 0.0000
# 4 0.0000 0.0000 0.0000 14.9299 0.0000 -6.9078
# 5 14.7449 1.7829 8.2552 0.0000 27.4947 0.0000
# 6 0.0000 0.0000 0.0000 -6.9078 0.0000 12.5611
#
#
#
# Elastic Compliance Matrix: (Units=1/GPa)
#
#
# Indices 1 2 3 4 5 6 
#
# 1 0.017319 -0.000704 -0.012803 0.000000 -0.005398 0.000000
# 2 -0.000704 0.016135 -0.001279 0.000000 -0.000285 0.000000
# 3 -0.012803 -0.001279 0.047071 0.000000 -0.007184 0.000000
# 4 0.000000 0.000000 0.000000 0.089839 0.000000 0.049406
# 5 -0.005398 -0.000285 -0.007184 0.000000 0.041441 0.000000
# 6 0.000000 0.000000 0.000000 0.049406 0.000000 0.106781
#
#
# Mechanical properties :
#
#
# Convention : Reuss Voigt Hill
#
# Bulk Modulus (GPa) = 19.62601 26.59548 23.11075
# Shear Modulus (GPa) = 13.69322 20.24714 16.97018
#
# Velocity S-wave (km/s) = 2.72700 3.31600 3.03582
# Velocity P-wave (km/s) = 4.53585 5.39488 4.98391
#
# Compressibility (1/GPa) = 0.05095280
#
# Stress axis : x y z
#
# Youngs Moduli (GPa) = 57.73862 61.97537 21.24451
#
# Poissons Ratio (x) = 0.04365 0.27200
# Poissons Ratio (y) = 0.04066 0.02717
# Poissons Ratio (z) = 0.73924 0.07927
#
# Static dielectric constant tensor:
#      x y z
#    x 1.679330 0.000000 0.014910 
#    y 0.000000 1.651130 0.000000 
#    z 0.014910 0.000000 1.661570 
# 
# From -- ./inp_files/9381.got.cif
#   From: 2010.05.17/outbox.cif.g08.bks.cpg/sg14_5_cif.got.tgz:9381.got - 2010.06.03 17:49:19.
