data_PCOD9239273
_publ_section_title
;
Structure prediction by ZEFSAII (Michael W. Deem and Ramdas Pophale) SiO2 
 PCOD9239273
Probable space group: P 21/C
;
_chemical_formula_sum "Si O2"
_cell_formula_units_Z 30
_cell_length_a 16.454922
_cell_length_b 17.569357
_cell_length_c 5.099007
_cell_angle_alpha 90.000000
_cell_angle_beta 81.781962
_cell_angle_gamma 90.000000
_cell_volume 1458.997674
_symmetry_space_group_name_H-M "P 21/C"
_symmetry_group_IT_number 14
_symmetry_cell_setting 'monoclinic'
loop_
_space_group_symop_operation_xyz
x,y,z
-x,1/2+y,1/2-z
-x,-y,-z
x,1/2-y,1/2+z
loop_
_atom_site_type_symbol
_atom_site_label
_atom_site_fract_x
_atom_site_fract_y
_atom_site_fract_z
Si Si1 0.604736 0.568043 0.967005
Si Si2 0.200820 0.553243 0.554709
Si Si3 0.098268 0.200538 0.693580
Si Si4 0.612834 0.417473 0.658531
Si Si5 0.902681 0.200725 0.749995
Si Si6 0.474885 0.695580 0.964313
Si Si7 0.500000 0.500000 0.500000
Si Si8 0.797786 0.549423 0.936169
O O1 0.558924 0.646643 0.939634
O O2 0.570895 0.532462 0.248428
O O3 0.581643 0.505647 0.747825
O O4 0.702730 0.570544 0.924607
O O5 0.294708 0.580888 0.473385
O O6 0.145582 0.624648 0.657212
O O7 0.176690 0.512431 0.294721
O O8 0.197460 0.490567 0.784624
O O9 0.117621 0.264745 0.468313
O O10 0.147083 0.123956 0.612218
O O11 0.000430 0.186163 0.721659
O O12 0.596573 0.363902 0.911017
O O13 0.544275 0.411610 0.470607
O O14 0.883126 0.234179 0.473395
O O15 0.469742 0.755835 0.205534
#
# Coordination Sequence:
#
# PCOD9239273 Si02
#       8
#     4   4   4   4   4   4   2   4
#     4  10  23  38  62  82 116 162 203 241 307 366
#     4  11  23  39  62  95 121 155 208 259 301 353
#     4  10  22  41  64  90 126 169 200 238 308 376
#     4  10  23  38  62  82 116 162 203 241 307 366
#     4  10  22  41  64  90 126 169 200 238 308 376
#     4  11  26  37  56  86 116 147 198 253 299 345
#     4  10  16  36  60  74 106 154 200 232 282 368
#     4  11  23  39  62  95 121 155 208 259 301 353
#
# _framework density 20.562061
#
# number of rings (size 3 to 8) (size 9 to 14) (size 15 to 20)
#    0.000    1.600    1.333    3.200    7.467    3.200 
#    0.000    0.000    0.000    0.000    0.000    0.000 
#    0.000    0.000    0.000    0.000    0.000    0.000 
#
# Total GULP energy -167334.039444 kJ/mol
# GULP energy per Si atom -5577.801315 kJ/mol
# Density = 2.051526 g / cm^3
# Si number density = 20.562061 Si / 1000 Ang^3
#
#
#
# Elastic Constant Matrix: (Units=GPa)
#
#
# Indices 1 2 3 4 5 6 
#
# 1 47.0967 41.1390 18.7665 0.0000 -24.4522 0.0000
# 2 41.1390 95.4705 34.6035 0.0000 -30.8970 0.0000
# 3 18.7665 34.6035 104.8647 0.0000 -12.5417 0.0000
# 4 0.0000 0.0000 0.0000 48.8885 0.0000 -11.0490
# 5 -24.4522 -30.8970 -12.5417 0.0000 29.5564 0.0000
# 6 0.0000 0.0000 0.0000 -11.0490 0.0000 22.8274
#
#
#
# Elastic Compliance Matrix: (Units=1/GPa)
#
#
# Indices 1 2 3 4 5 6 
#
# 1 0.043626 -0.010260 -0.001462 0.000000 0.024746 0.000000
# 2 -0.010260 0.019498 -0.003345 0.000000 0.010475 0.000000
# 3 -0.001462 -0.003345 0.010891 0.000000 -0.000085 0.000000
# 4 0.000000 0.000000 0.000000 0.022967 0.000000 0.011117
# 5 0.024746 0.010475 -0.000085 0.000000 0.065220 0.000000
# 6 0.000000 0.000000 0.000000 0.011117 0.000000 0.049188
#
#
# Mechanical properties :
#
#
# Convention : Reuss Voigt Hill
#
# Bulk Modulus (GPa) = 22.78922 48.49444 35.64183
# Shear Modulus (GPa) = 19.51975 30.44931 24.98453
#
# Velocity S-wave (km/s) = 3.08443 3.85236 3.48958
# Velocity P-wave (km/s) = 4.87772 6.58962 5.79721
#
# Compressibility (1/GPa) = 0.04388039
#
# Stress axis : x y z
#
# Youngs Moduli (GPa) = 22.92234 51.28734 91.81545
#
# Poissons Ratio (x) = 0.52622 0.13423
# Poissons Ratio (y) = 0.23519 0.30713
# Poissons Ratio (z) = 0.03351 0.17156
#
# Static dielectric constant tensor:
#      x y z
#    x 1.878030 0.000000 0.179410 
#    y 0.000000 1.756410 0.000000 
#    z 0.179410 0.000000 1.898130 
# 
# From -- ./inp_files/4162.got.cif
#   From: 2010.05.17/outbox.cif.g08.bks.cpg/sg14_3_cif.got.tgz:4162.got - 2010.06.03 17:49:19.
