data_PCOD9239822
_publ_section_title
;
Structure prediction by ZEFSAII (Michael W. Deem and Ramdas Pophale) SiO2 
 PCOD9239822
Probable space group: P 21/C
;
_chemical_formula_sum "Si O2"
_cell_formula_units_Z 28
_cell_length_a 12.084922
_cell_length_b 8.667841
_cell_length_c 14.795779
_cell_angle_alpha 90.000000
_cell_angle_beta 137.978915
_cell_angle_gamma 90.000000
_cell_volume 1037.482913
_symmetry_space_group_name_H-M "P 21/C"
_symmetry_group_IT_number 14
_symmetry_cell_setting 'monoclinic'
loop_
_space_group_symop_operation_xyz
x,y,z
-x,1/2+y,1/2-z
-x,-y,-z
x,1/2-y,1/2+z
loop_
_atom_site_type_symbol
_atom_site_label
_atom_site_fract_x
_atom_site_fract_y
_atom_site_fract_z
Si Si1 0.241718 0.649011 0.711049
Si Si2 0.841074 0.923887 0.140766
Si Si3 0.764300 0.061631 0.483689
Si Si4 0.900014 0.726560 0.994857
Si Si5 0.162109 0.107758 0.308931
Si Si6 0.571665 0.877299 0.726409
Si Si7 0.345895 0.794132 0.957290
O O1 0.190642 0.497247 0.739803
O O2 0.371241 0.556236 0.729631
O O3 0.078033 0.718677 0.564751
O O4 0.310830 0.760562 0.831086
O O5 0.988940 0.044121 0.244349
O O6 0.832829 0.787570 0.207856
O O7 0.888100 0.826504 0.080557
O O8 0.675805 0.025413 0.036693
O O9 0.888125 0.955970 0.504228
O O10 0.711892 0.940839 0.533936
O O11 0.605769 0.115731 0.329708
O O12 0.795653 0.210131 0.565530
O O13 0.725255 0.774658 0.847384
O O14 0.503621 0.798880 0.591260
#
# Coordination Sequence:
#
# PCOD9239822 Si02
#       7
#     4   4   4   4   4   4   4
#     4  10  19  36  53  79 105 149 179 222 268 328
#     4  10  18  32  53  86 102 141 181 235 267 308
#     4   8  18  32  51  76 102 138 171 226 259 311
#     4  10  20  33  56  78 108 139 186 222 264 321
#     4   9  17  30  54  76 109 130 186 224 267 310
#     4  10  21  32  56  76 113 142 180 218 276 328
#     4   9  19  31  57  77 109 135 185 219 272 315
#
# _framework density 26.988396000000002
#
# number of rings (size 3 to 8) (size 9 to 14) (size 15 to 20)
#    0.857    1.714    0.000    4.286    2.000    0.000 
#    0.000    0.714    0.000    0.000    0.000   13.000 
#    0.000    0.000    0.000    0.000    0.000    0.000 
#
# Total GULP energy -156039.772081 kJ/mol
# GULP energy per Si atom -5572.849003 kJ/mol
# Density = 2.692697 g / cm^3
# Si number density = 26.988396 Si / 1000 Ang^3
#
#
#
# Elastic Constant Matrix: (Units=GPa)
#
#
# Indices 1 2 3 4 5 6 
#
# 1 35.3942 0.3458 1.6907 0.0000 0.3176 0.0000
# 2 0.3458 154.3610 29.0831 0.0000 1.7720 0.0000
# 3 1.6907 29.0831 127.8543 0.0000 14.1678 0.0000
# 4 0.0000 0.0000 0.0000 33.3489 0.0000 0.8526
# 5 0.3176 1.7720 14.1678 0.0000 22.8687 0.0000
# 6 0.0000 0.0000 0.0000 0.8526 0.0000 22.5132
#
#
#
# Elastic Compliance Matrix: (Units=1/GPa)
#
#
# Indices 1 2 3 4 5 6 
#
# 1 0.028272 0.000006 -0.000356 0.000000 -0.000172 0.000000
# 2 0.000006 0.006773 -0.001592 0.000000 0.000461 0.000000
# 3 -0.000356 -0.001592 0.008777 0.000000 -0.005309 0.000000
# 4 0.000000 0.000000 0.000000 0.030015 0.000000 -0.001137
# 5 -0.000172 0.000461 -0.005309 0.000000 0.046984 0.000000
# 6 0.000000 0.000000 0.000000 -0.001137 0.000000 0.044461
#
#
# Mechanical properties :
#
#
# Convention : Reuss Voigt Hill
#
# Bulk Modulus (GPa) = 25.03955 42.20540 33.62248
# Shear Modulus (GPa) = 27.40059 34.84550 31.12305
#
# Velocity S-wave (km/s) = 3.18979 3.59713 3.39957
# Velocity P-wave (km/s) = 4.78167 5.73801 5.28153
#
# Compressibility (1/GPa) = 0.03993682
#
# Stress axis : x y z
#
# Youngs Moduli (GPa) = 35.37108 147.64657 113.94056
#
# Poissons Ratio (x) = -0.00085 0.04057
# Poissons Ratio (y) = -0.00020 0.18137
# Poissons Ratio (z) = 0.01259 0.23503
#
# Static dielectric constant tensor:
#      x y z
#    x 2.275950 0.000000 0.038740 
#    y 0.000000 2.142730 0.000000 
#    z 0.038740 0.000000 2.209330 
# 
# From -- ./inp_files/69096.got.cif
#   From: 2010.05.17/outbox.cif.g08.bks.cpg/sg14_35_cif.got.tgz:69096.got - 2010.06.03 17:49:19.
