data_PCOD9239793
_publ_section_title
;
Structure prediction by ZEFSAII (Michael W. Deem and Ramdas Pophale) SiO2 
 PCOD9239793
Probable space group: P 21/C
;
_chemical_formula_sum "Si O2"
_cell_formula_units_Z 32
_cell_length_a 14.902280
_cell_length_b 16.145536
_cell_length_c 14.652367
_cell_angle_alpha 90.000000
_cell_angle_beta 160.287759
_cell_angle_gamma 90.000000
_cell_volume 1189.117224
_symmetry_space_group_name_H-M "P 21/C"
_symmetry_group_IT_number 14
_symmetry_cell_setting 'monoclinic'
loop_
_space_group_symop_operation_xyz
x,y,z
-x,1/2+y,1/2-z
-x,-y,-z
x,1/2-y,1/2+z
loop_
_atom_site_type_symbol
_atom_site_label
_atom_site_fract_x
_atom_site_fract_y
_atom_site_fract_z
Si Si1 0.273115 0.468535 0.216822
Si Si2 0.777326 0.141172 0.054701
Si Si3 0.919764 0.326952 0.888224
Si Si4 0.714822 0.947582 0.478100
Si Si5 0.999196 0.367546 0.430258
Si Si6 0.539709 0.890570 0.492147
Si Si7 0.548051 0.800932 0.922030
Si Si8 0.090119 0.824234 0.358047
O O1 0.500000 0.500000 0.500000
O O2 0.301099 0.493912 0.136061
O O3 0.000000 0.500000 0.000000
O O4 0.206322 0.370946 0.162664
O O5 0.784066 0.135784 0.168677
O O6 0.928591 0.225101 0.175319
O O7 0.974194 0.069983 0.209490
O O8 0.480807 0.129171 0.737252
O O9 0.973758 0.230938 0.924018
O O10 0.694694 0.335400 0.748941
O O11 0.609228 0.956693 0.479671
O O12 0.960227 0.374557 0.283488
O O13 0.268672 0.394343 0.737035
O O14 0.757927 0.402680 0.258680
O O15 0.568786 0.795149 0.478360
O O16 0.401154 0.822431 0.684829
O O17 0.844396 0.838204 0.193056
#
# Coordination Sequence:
#
# PCOD9239793 Si02
#       8
#     4   4   4   4   4   4   4   4
#     4  11  24  40  56  79 110 149 198 240 272 320
#     4  10  18  32  49  71 103 142 178 214 262 331
#     4   9  22  35  53  76 106 149 185 229 277 320
#     4  11  20  33  56  74 103 143 186 227 275 318
#     4  10  22  32  51  77 113 144 179 218 272 337
#     4  11  19  33  50  77 106 141 187 222 262 337
#     4  11  20  31  51  74 107 138 188 217 266 340
#     4  11  19  32  46  74 108 142 173 213 262 333
#
# _framework density 26.910720999999999
#
# number of rings (size 3 to 8) (size 9 to 14) (size 15 to 20)
#    0.000    1.500    2.500    4.500    0.000   13.000 
#    0.000    0.000    0.000    0.000    0.000    0.000 
#    0.000   20.000    0.000    0.000    0.000    0.000 
#
# Total GULP energy -178668.446659 kJ/mol
# GULP energy per Si atom -5583.388958 kJ/mol
# Density = 2.684947 g / cm^3
# Si number density = 26.910721 Si / 1000 Ang^3
#
#
#
# Elastic Constant Matrix: (Units=GPa)
#
#
# Indices 1 2 3 4 5 6 
#
# 1 73.2595 20.6970 3.0411 0.0000 15.8062 0.0000
# 2 20.6970 75.5977 -1.1058 0.0000 10.8700 0.0000
# 3 3.0411 -1.1058 136.8717 0.0000 15.4910 0.0000
# 4 0.0000 0.0000 0.0000 17.4531 0.0000 3.0851
# 5 15.8062 10.8700 15.4910 0.0000 46.5740 0.0000
# 6 0.0000 0.0000 0.0000 3.0851 0.0000 37.9557
#
#
#
# Elastic Compliance Matrix: (Units=1/GPa)
#
#
# Indices 1 2 3 4 5 6 
#
# 1 0.015643 -0.003633 0.000133 0.000000 -0.004505 0.000000
# 2 -0.003633 0.014563 0.000461 0.000000 -0.002319 0.000000
# 3 0.000133 0.000461 0.007611 0.000000 -0.002684 0.000000
# 4 0.000000 0.000000 0.000000 0.058132 0.000000 -0.004725
# 5 -0.004505 -0.002319 -0.002684 0.000000 0.024434 0.000000
# 6 0.000000 0.000000 0.000000 -0.004725 0.000000 0.026731
#
#
# Mechanical properties :
#
#
# Convention : Reuss Voigt Hill
#
# Bulk Modulus (GPa) = 31.50784 36.77705 34.14244
# Shear Modulus (GPa) = 30.53053 37.93633 34.23343
#
# Velocity S-wave (km/s) = 3.37191 3.75868 3.57054
# Velocity P-wave (km/s) = 5.18588 5.70377 5.45098
#
# Compressibility (1/GPa) = 0.03173814
#
# Stress axis : x y z
#
# Youngs Moduli (GPa) = 63.92640 68.66831 131.39458
#
# Poissons Ratio (x) = 0.24947 -0.01747
# Poissons Ratio (y) = 0.23224 -0.06055
# Poissons Ratio (z) = -0.00850 -0.03165
#
# Static dielectric constant tensor:
#      x y z
#    x 2.138520 0.000000 -0.095950 
#    y 0.000000 2.351920 0.000000 
#    z -0.095950 0.000000 2.072830 
# 
# From -- ./inp_files/47701.got.cif
#   From: 2010.05.17/outbox.cif.g08.bks.cpg/sg14_24_cif.got.tgz:47701.got - 2010.06.03 17:49:19.
