data_PCOD9239465
_publ_section_title
;
Structure prediction by ZEFSAII (Michael W. Deem and Ramdas Pophale) SiO2 
 PCOD9239465
Probable space group: P 21/C
;
_chemical_formula_sum "Si O2"
_cell_formula_units_Z 32
_cell_length_a 8.329576
_cell_length_b 12.193856
_cell_length_c 16.696456
_cell_angle_alpha 90.000000
_cell_angle_beta 47.672407
_cell_angle_gamma 90.000000
_cell_volume 1253.755960
_symmetry_space_group_name_H-M "P 21/C"
_symmetry_group_IT_number 14
_symmetry_cell_setting 'monoclinic'
loop_
_space_group_symop_operation_xyz
x,y,z
-x,1/2+y,1/2-z
-x,-y,-z
x,1/2-y,1/2+z
loop_
_atom_site_type_symbol
_atom_site_label
_atom_site_fract_x
_atom_site_fract_y
_atom_site_fract_z
Si Si1 0.792512 0.082940 0.256814
Si Si2 0.212457 0.389516 0.535992
Si Si3 0.424797 0.623741 0.477080
Si Si4 0.148729 0.082463 0.631038
Si Si5 0.288775 0.387173 0.337349
Si Si6 0.508216 0.176801 0.622555
Si Si7 0.716795 0.992869 0.755890
Si Si8 0.313890 0.066242 0.403457
O O1 0.550151 0.125328 0.321960
O O2 0.006738 0.147437 0.158439
O O3 0.797251 0.037860 0.346479
O O4 0.809367 0.976609 0.191110
O O5 0.264779 0.520828 0.530529
O O6 0.451654 0.347369 0.482356
O O7 0.159097 0.362642 0.461373
O O8 0.335446 0.730499 0.463886
O O9 0.631660 0.588232 0.352358
O O10 0.314157 0.157134 0.624467
O O11 0.187847 0.102898 0.524353
O O12 0.891357 0.079277 0.729473
O O13 0.386514 0.295263 0.246543
O O14 0.499053 0.447360 0.302327
O O15 0.627071 0.061368 0.595905
O O16 0.797456 0.936435 0.646013
#
# Coordination Sequence:
#
# PCOD9239465 Si02
#       8
#     4   4   4   4   4   4   4   4
#     4   9  16  30  55  79 103 136 187 224 257 332
#     4  10  18  33  59  80 107 151 188 213 287 342
#     4  10  20  34  55  84 113 140 186 237 274 329
#     4  10  17  33  60  76 108 153 185 220 278 338
#     4   8  18  33  56  78 107 141 174 227 277 319
#     4   9  19  36  53  77 118 138 179 241 274 313
#     4   9  17  33  57  78 104 143 191 220 274 335
#     4   9  19  34  57  79 108 150 186 225 279 332
#
# _framework density 25.523306999999999
#
# number of rings (size 3 to 8) (size 9 to 14) (size 15 to 20)
#    0.000    3.250    1.250    2.250    0.000    0.000 
#    2.250    3.750   22.000    0.000    0.000    0.000 
#    0.000    0.000    0.000    0.000    0.000    0.000 
#
# Total GULP energy -178391.061093 kJ/mol
# GULP energy per Si atom -5574.720659 kJ/mol
# Density = 2.546521 g / cm^3
# Si number density = 25.523307 Si / 1000 Ang^3
#
#
#
# Elastic Constant Matrix: (Units=GPa)
#
#
# Indices 1 2 3 4 5 6 
#
# 1 59.6183 -3.4434 8.2796 0.0000 9.4160 0.0000
# 2 -3.4434 51.7927 -7.6633 0.0000 5.6599 0.0000
# 3 8.2796 -7.6633 83.9672 0.0000 22.8957 0.0000
# 4 0.0000 0.0000 0.0000 29.4677 0.0000 6.1298
# 5 9.4160 5.6599 22.8957 0.0000 49.2153 0.0000
# 6 0.0000 0.0000 0.0000 6.1298 0.0000 19.2229
#
#
#
# Elastic Compliance Matrix: (Units=1/GPa)
#
#
# Indices 1 2 3 4 5 6 
#
# 1 0.017455 0.001397 -0.000732 0.000000 -0.003160 0.000000
# 2 0.001397 0.020234 0.002767 0.000000 -0.003882 0.000000
# 3 -0.000732 0.002767 0.014067 0.000000 -0.006722 0.000000
# 4 0.000000 0.000000 0.000000 0.036346 0.000000 -0.011590
# 5 -0.003160 -0.003882 -0.006722 0.000000 0.024497 0.000000
# 6 0.000000 0.000000 0.000000 -0.011590 0.000000 0.055717
#
#
# Mechanical properties :
#
#
# Convention : Reuss Voigt Hill
#
# Bulk Modulus (GPa) = 17.05852 21.08046 19.06949
# Shear Modulus (GPa) = 27.62551 32.79487 30.21019
#
# Velocity S-wave (km/s) = 3.29350 3.58844 3.44413
# Velocity P-wave (km/s) = 4.60009 5.04444 4.82738
#
# Compressibility (1/GPa) = 0.05862175
#
# Stress axis : x y z
#
# Youngs Moduli (GPa) = 57.29087 49.42105 71.08739
#
# Poissons Ratio (x) = -0.06906 0.05204
# Poissons Ratio (y) = -0.08006 -0.19672
# Poissons Ratio (z) = 0.04194 -0.13676
#
# Static dielectric constant tensor:
#      x y z
#    x 2.013370 0.000000 0.061080 
#    y 0.000000 2.156380 0.000000 
#    z 0.061080 0.000000 2.146570 
# 
# From -- ./inp_files/55855.got.cif
#   From: 2010.05.17/outbox.cif.g08.bks.cpg/sg14_28_cif.got.tgz:55855.got - 2010.06.03 17:49:19.
