data_PCOD9239970
_publ_section_title
;
Structure prediction by ZEFSAII (Michael W. Deem and Ramdas Pophale) SiO2 
 PCOD9239970
Probable space group: P 21/C
;
_chemical_formula_sum "Si O2"
_cell_formula_units_Z 28
_cell_length_a 21.812767
_cell_length_b 9.337942
_cell_length_c 17.104258
_cell_angle_alpha 90.000000
_cell_angle_beta 28.121325
_cell_angle_gamma 90.000000
_cell_volume 1642.103868
_symmetry_space_group_name_H-M "P 21/C"
_symmetry_group_IT_number 14
_symmetry_cell_setting 'monoclinic'
loop_
_space_group_symop_operation_xyz
x,y,z
-x,1/2+y,1/2-z
-x,-y,-z
x,1/2-y,1/2+z
loop_
_atom_site_type_symbol
_atom_site_label
_atom_site_fract_x
_atom_site_fract_y
_atom_site_fract_z
Si Si1 0.920215 0.855000 0.108031
Si Si2 0.238654 0.349688 0.825456
Si Si3 0.653216 0.559391 0.984085
Si Si4 0.897860 0.108803 0.577395
Si Si5 0.416034 0.423905 0.757656
Si Si6 0.507034 0.696114 0.559532
Si Si7 0.353086 0.738403 0.571722
O O1 0.858576 0.771371 0.100670
O O2 0.796298 0.883613 0.301525
O O3 0.019359 0.746558 0.038780
O O4 0.000000 0.000000 0.000000
O O5 0.170913 0.504745 0.906869
O O6 0.311948 0.329568 0.825077
O O7 0.356790 0.362819 0.629776
O O8 0.649758 0.401580 0.951807
O O9 0.626678 0.558147 0.105821
O O10 0.548125 0.663259 0.060967
O O11 0.788193 0.167244 0.760019
O O12 0.000000 0.000000 0.500000
O O13 0.439370 0.576151 0.688587
O O14 0.554233 0.345664 0.592038
O O15 0.418469 0.729584 0.584149
#
# Coordination Sequence:
#
# PCOD9239970 Si02
#       7
#     4   4   4   4   4   4   4
#     4  10  20  35  56  78 108 145 188 222 263 328
#     4   9  18  35  58  78 101 144 188 221 261 337
#     4  11  23  34  52  86 117 138 175 246 292 310
#     4  10  18  33  59  81  99 143 200 219 249 326
#     4  11  20  36  56  82 113 143 179 234 291 331
#     4  10  19  35  58  81 106 142 188 228 271 340
#     4  11  19  36  59  82 107 148 189 221 277 338
#
# _framework density 17.051297000000002
#
# number of rings (size 3 to 8) (size 9 to 14) (size 15 to 20)
#    0.000    1.714    4.286    2.143    0.000    0.000 
#    0.000    1.429    0.000    0.000    0.000    0.000 
#    0.000    0.000    0.000    0.000    0.000    0.000 
#
# Total GULP energy -155980.027211 kJ/mol
# GULP energy per Si atom -5570.715258 kJ/mol
# Density = 1.701249 g / cm^3
# Si number density = 17.051297 Si / 1000 Ang^3
#
#
#
# Elastic Constant Matrix: (Units=GPa)
#
#
# Indices 1 2 3 4 5 6 
#
# 1 58.6685 40.4102 51.5840 0.0000 -1.9299 0.0000
# 2 40.4102 116.8819 57.4343 0.0000 -2.0262 0.0000
# 3 51.5840 57.4343 98.7515 0.0000 -3.7854 0.0000
# 4 0.0000 0.0000 0.0000 13.1207 0.0000 -11.1689
# 5 -1.9299 -2.0262 -3.7854 0.0000 27.3833 0.0000
# 6 0.0000 0.0000 0.0000 -11.1689 0.0000 29.4981
#
#
#
# Elastic Compliance Matrix: (Units=1/GPa)
#
#
# Indices 1 2 3 4 5 6 
#
# 1 0.032868 -0.004098 -0.014786 0.000000 -0.000031 0.000000
# 2 -0.004098 0.012490 -0.005127 0.000000 -0.000073 0.000000
# 3 -0.014786 -0.005127 0.020888 0.000000 0.001466 0.000000
# 4 0.000000 0.000000 0.000000 0.112463 0.000000 0.042582
# 5 -0.000031 -0.000073 0.001466 0.000000 0.036714 0.000000
# 6 0.000000 0.000000 0.000000 0.042582 0.000000 0.050023
#
#
# Mechanical properties :
#
#
# Convention : Reuss Voigt Hill
#
# Bulk Modulus (GPa) = 54.87333 63.68431 59.27882
# Shear Modulus (GPa) = 15.64736 22.32530 18.98633
#
# Velocity S-wave (km/s) = 3.03258 3.62235 3.34051
# Velocity P-wave (km/s) = 6.67183 7.41114 7.05118
#
# Compressibility (1/GPa) = 0.01822379
#
# Stress axis : x y z
#
# Youngs Moduli (GPa) = 30.42511 80.06166 47.87410
#
# Poissons Ratio (x) = 0.32810 0.70789
# Poissons Ratio (y) = 0.12469 0.24543
# Poissons Ratio (z) = 0.44988 0.41044
#
# Static dielectric constant tensor:
#      x y z
#    x 1.592520 0.000000 -0.037460 
#    y 0.000000 1.609820 0.000000 
#    z -0.037460 0.000000 1.565220 
# 
# From -- ./inp_files/48584.got.cif
#   From: 2010.05.17/outbox.cif.g08.bks.cpg/sg14_25_cif.got.tgz:48584.got - 2010.06.03 17:49:19.
