data_PCOD9239515
_publ_section_title
;
Structure prediction by ZEFSAII (Michael W. Deem and Ramdas Pophale) SiO2 
 PCOD9239515
Probable space group: P 21/C
;
_chemical_formula_sum "Si O2"
_cell_formula_units_Z 32
_cell_length_a 6.940555
_cell_length_b 8.141059
_cell_length_c 25.673308
_cell_angle_alpha 90.000000
_cell_angle_beta 85.117204
_cell_angle_gamma 90.000000
_cell_volume 1445.366445
_symmetry_space_group_name_H-M "P 21/C"
_symmetry_group_IT_number 14
_symmetry_cell_setting 'monoclinic'
loop_
_space_group_symop_operation_xyz
x,y,z
-x,1/2+y,1/2-z
-x,-y,-z
x,1/2-y,1/2+z
loop_
_atom_site_type_symbol
_atom_site_label
_atom_site_fract_x
_atom_site_fract_y
_atom_site_fract_z
Si Si1 0.290892 0.557783 0.051430
Si Si2 0.720503 0.651671 0.233950
Si Si3 0.507086 0.471979 0.846196
Si Si4 0.060518 0.033186 0.774798
Si Si5 0.519498 0.523818 0.586782
Si Si6 0.819504 0.250855 0.859181
Si Si7 0.371890 0.832134 0.816345
Si Si8 0.611269 0.764196 0.993821
O O1 0.454269 0.518598 0.092764
O O2 0.126368 0.647133 0.089645
O O3 0.401066 0.679995 0.009981
O O4 0.249425 0.385868 0.024701
O O5 0.649417 0.649227 0.176014
O O6 0.540266 0.602100 0.274200
O O7 0.892653 0.525612 0.240540
O O8 0.790051 0.831460 0.249050
O O9 0.713916 0.389203 0.825784
O O10 0.433928 0.646664 0.827586
O O11 0.169616 0.873006 0.794006
O O12 0.962875 0.137455 0.824393
O O13 0.355724 0.636488 0.616704
O O14 0.627762 0.431200 0.629941
O O15 0.412719 0.391411 0.552475
O O16 0.650313 0.633914 0.545421
#
# Coordination Sequence:
#
# PCOD9239515 Si02
#       8
#     4   4   4   4   4   4   4   4
#     4   8  17  33  60  95 129 166 215 271 321 406
#     4  12  27  42  66  94 134 171 224 266 333 400
#     4  10  22  40  64  91 131 174 210 271 328 388
#     4  12  27  42  67  98 132 178 221 276 331 402
#     4  10  17  34  64  94 128 169 215 277 325 399
#     4   9  20  39  60  92 130 164 218 266 332 376
#     4  12  24  42  65  96 134 171 221 270 331 397
#     4   9  16  30  61 100 118 167 227 256 335 396
#
# _framework density 22.139714999999999
#
# number of rings (size 3 to 8) (size 9 to 14) (size 15 to 20)
#    0.750    1.000    2.500    2.250    5.250    0.000 
#    0.000    0.000    0.000    7.500    0.000    0.000 
#    0.000    0.000    0.000    0.000    0.000    0.000 
#
# Total GULP energy -178407.307039 kJ/mol
# GULP energy per Si atom -5575.228345 kJ/mol
# Density = 2.208932 g / cm^3
# Si number density = 22.139715 Si / 1000 Ang^3
#
#
#
# Elastic Constant Matrix: (Units=GPa)
#
#
# Indices 1 2 3 4 5 6 
#
# 1 50.9110 18.6469 23.2716 0.0000 -2.8980 0.0000
# 2 18.6469 112.5652 20.5501 0.0000 -2.4023 0.0000
# 3 23.2716 20.5501 80.8891 0.0000 4.8996 0.0000
# 4 0.0000 0.0000 0.0000 44.1777 0.0000 5.8608
# 5 -2.8980 -2.4023 4.8996 0.0000 12.0708 0.0000
# 6 0.0000 0.0000 0.0000 5.8608 0.0000 32.0421
#
#
#
# Elastic Compliance Matrix: (Units=1/GPa)
#
#
# Indices 1 2 3 4 5 6 
#
# 1 0.024145 -0.002592 -0.006775 0.000000 0.008031 0.000000
# 2 -0.002592 0.009693 -0.001841 0.000000 0.002054 0.000000
# 3 -0.006775 -0.001841 0.015276 0.000000 -0.008193 0.000000
# 4 0.000000 0.000000 0.000000 0.023199 0.000000 -0.004243
# 5 0.008031 0.002054 -0.008193 0.000000 0.088507 0.000000
# 6 0.000000 0.000000 0.000000 -0.004243 0.000000 0.031985
#
#
# Mechanical properties :
#
#
# Convention : Reuss Voigt Hill
#
# Bulk Modulus (GPa) = 37.45478 41.03363 39.24421
# Shear Modulus (GPa) = 22.30952 29.78456 26.04704
#
# Velocity S-wave (km/s) = 3.17783 3.67181 3.43371
# Velocity P-wave (km/s) = 5.51534 6.04570 5.78660
#
# Compressibility (1/GPa) = 0.02669886
#
# Stress axis : x y z
#
# Youngs Moduli (GPa) = 41.41624 103.16656 65.46328
#
# Poissons Ratio (x) = 0.26736 0.44348
# Poissons Ratio (y) = 0.10733 0.12054
# Poissons Ratio (z) = 0.28058 0.18997
#
# Static dielectric constant tensor:
#      x y z
#    x 1.805150 0.000000 -0.037550 
#    y 0.000000 1.868560 0.000000 
#    z -0.037550 0.000000 1.831450 
# 
# From -- ./inp_files/71915.got.cif
#   From: 2010.05.17/outbox.cif.g08.bks.cpg/sg14_36_cif.got.tgz:71915.got - 2010.06.03 17:49:19.
