data_PCOD9239038
_publ_section_title
;
Structure prediction by ZEFSAII (Michael W. Deem and Ramdas Pophale) SiO2 
 PCOD9239038
Probable space group: P 2/C
;
_chemical_formula_sum "Si O2"
_cell_formula_units_Z 20
_cell_length_a 9.000000
_cell_length_b 18.000000
_cell_length_c 6.000000
_cell_angle_alpha 90.000000
_cell_angle_beta 80.000000
_cell_angle_gamma 90.000000
_cell_volume 957.233136
_symmetry_space_group_name_H-M "P 2/C"
_symmetry_group_IT_number 13
_symmetry_cell_setting 'monoclinic'
loop_
_space_group_symop_operation_xyz
x,y,z
-x,y,1/2-z
-x,-y,-z
x,-y,1/2+z
loop_
_atom_site_type_symbol
_atom_site_label
_atom_site_fract_x
_atom_site_fract_y
_atom_site_fract_z
Si Si1 0.786023 0.687242 0.422307
Si Si2 0.000000 0.256662 0.250000
Si Si3 0.500000 0.278364 0.250000
Si Si4 0.824312 0.524205 0.277263
Si Si5 0.709582 0.197316 0.551771
Si Si6 0.327502 0.975587 0.497286
O O1 0.924537 0.700324 0.558988
O O2 0.637480 0.676045 0.611429
O O3 0.813827 0.613459 0.274524
O O4 0.744291 0.756680 0.270462
O O5 0.863212 0.208149 0.375256
O O6 0.576429 0.231796 0.432525
O O7 0.764599 0.502434 0.546256
O O8 0.000000 0.499653 0.250000
O O9 0.678412 0.110346 0.575471
O O10 0.500000 0.000000 0.500000
O O11 0.266481 0.015064 0.277198
#
# Coordination Sequence:
#
# PCOD9239038 Si02
#       6
#     4   2   2   4   4   4
#     4  11  24  42  68 100 134 179 230 285 335 409
#     4  10  24  40  68  98 134 172 238 278 338 394
#     4  10  24  38  68  96 132 172 236 274 340 402
#     4  10  23  40  67  99 136 181 229 282 342 404
#     4  11  23  42  69  97 135 178 228 280 340 406
#     4  10  23  39  65  96 132 170 220 278 335 401
#
# _framework density 20.893552
#
# number of rings (size 3 to 8) (size 9 to 14) (size 15 to 20)
#    0.000    1.600    0.000    3.600   21.000    0.000 
#    0.000    2.000    0.000    0.000    0.000    0.000 
#    0.000    0.000    0.000    0.000    0.000    0.000 
#
# Total GULP energy -111388.771316 kJ/mol
# GULP energy per Si atom -5569.438566 kJ/mol
# Density = 2.084600 g / cm^3
# Si number density = 20.893552 Si / 1000 Ang^3
#
#
#
# Elastic Constant Matrix: (Units=GPa)
#
#
# Indices 1 2 3 4 5 6 
#
# 1 89.0821 30.7909 21.1816 0.0000 10.6570 0.0000
# 2 30.7909 119.6597 49.4140 0.0000 10.6579 0.0000
# 3 21.1816 49.4140 152.3380 0.0000 34.8545 0.0000
# 4 0.0000 0.0000 0.0000 40.4117 0.0000 13.1899
# 5 10.6570 10.6579 34.8545 0.0000 48.2116 0.0000
# 6 0.0000 0.0000 0.0000 13.1899 0.0000 0.4196
#
#
#
# Elastic Compliance Matrix: (Units=1/GPa)
#
#
# Indices 1 2 3 4 5 6 
#
# 1 0.012542 -0.002907 -0.000376 0.000000 -0.001858 0.000000
# 2 -0.002907 0.010324 -0.003079 0.000000 0.000586 0.000000
# 3 -0.000376 -0.003079 0.008915 0.000000 -0.005682 0.000000
# 4 0.000000 0.000000 0.000000 -0.002672 0.000000 0.084003
# 5 -0.001858 0.000586 -0.005682 0.000000 0.025131 0.000000
# 6 0.000000 0.000000 0.000000 0.084003 0.000000 -0.257371
#
#
# Mechanical properties :
#
#
# Convention : Reuss Voigt Hill
#
# Bulk Modulus (GPa) = 52.46954 62.65032 57.55993
# Shear Modulus (GPa) = -27.16565 35.12147 3.97791
#
# Velocity S-wave (km/s) = -3.60973 4.10441 1.38131
# Velocity P-wave (km/s) = 2.79173 7.24653 5.49117
#
# Compressibility (1/GPa) = 0.01905868
#
# Stress axis : x y z
#
# Youngs Moduli (GPa) = 79.73271 96.86017 112.16778
#
# Poissons Ratio (x) = 0.28153 0.04217
# Poissons Ratio (y) = 0.23175 0.34534
# Poissons Ratio (z) = 0.02998 0.29821
#
# Static dielectric constant tensor:
#      x y z
#    x 1.743750 0.000000 -0.036840 
#    y 0.000000 1.740090 0.000000 
#    z -0.036840 0.000000 1.868680 
# 
# From -- ./inp_files/1570.got.cif
#   From: 2010.05.17/outbox.ucp.g08.bks.cvg/sg13_1_cif.got.tgz:1570.got - 2010.06.11 12:23:55.
