data_PCOD9239483
_publ_section_title
;
Structure prediction by ZEFSAII (Michael W. Deem and Ramdas Pophale) SiO2 
 PCOD9239483
Probable space group: P 21/C
;
_chemical_formula_sum "Si O2"
_cell_formula_units_Z 32
_cell_length_a 7.610206
_cell_length_b 14.460880
_cell_length_c 15.755049
_cell_angle_alpha 90.000000
_cell_angle_beta 43.418827
_cell_angle_gamma 90.000000
_cell_volume 1191.718841
_symmetry_space_group_name_H-M "P 21/C"
_symmetry_group_IT_number 14
_symmetry_cell_setting 'monoclinic'
loop_
_space_group_symop_operation_xyz
x,y,z
-x,1/2+y,1/2-z
-x,-y,-z
x,1/2-y,1/2+z
loop_
_atom_site_type_symbol
_atom_site_label
_atom_site_fract_x
_atom_site_fract_y
_atom_site_fract_z
Si Si1 0.783385 0.439875 0.995528
Si Si2 0.838481 0.370433 0.597708
Si Si3 0.986214 0.368218 0.353558
Si Si4 0.509369 0.546022 0.742558
Si Si5 0.192141 0.318016 0.766528
Si Si6 0.914592 0.941083 0.836367
Si Si7 0.522040 0.381305 0.938769
Si Si8 0.541649 0.264002 0.293836
O O1 0.736722 0.446087 0.111063
O O2 0.694395 0.540743 0.994747
O O3 0.044408 0.395163 0.873866
O O4 0.582898 0.371502 0.016460
O O5 0.881241 0.349442 0.485184
O O6 0.602552 0.444057 0.685257
O O7 0.062453 0.422356 0.570845
O O8 0.804515 0.278573 0.665953
O O9 0.015336 0.269203 0.299711
O O10 0.257397 0.417136 0.280339
O O11 0.848886 0.450936 0.351701
O O12 0.470445 0.627678 0.689903
O O13 0.262527 0.373075 0.656281
O O14 0.374235 0.267938 0.770363
O O15 0.204483 0.919547 0.696726
O O16 0.459704 0.292804 0.904926
#
# Coordination Sequence:
#
# PCOD9239483 Si02
#       8
#     4   4   4   4   4   4   4   4
#     4  10  17  34  57  79 101 143 185 220 258 327
#     4  10  19  37  61  78 103 150 190 219 261 326
#     4  10  19  36  58  81 106 147 184 229 261 321
#     4  10  18  33  58  80 107 141 183 224 270 317
#     4  10  22  33  55  84 115 139 175 226 287 315
#     4   9  17  36  58  79 106 145 189 222 255 330
#     4   9  18  33  58  78 103 141 189 218 263 319
#     4  10  20  36  50  84 117 138 174 233 275 320
#
# _framework density 26.851969
#
# number of rings (size 3 to 8) (size 9 to 14) (size 15 to 20)
#    0.000    2.250    3.750    2.250    0.000    0.500 
#    0.000   11.875    0.000    0.000    0.000    0.000 
#    0.000    0.000    0.000    0.000    0.000    0.000 
#
# Total GULP energy -178721.918698 kJ/mol
# GULP energy per Si atom -5585.059959 kJ/mol
# Density = 2.679085 g / cm^3
# Si number density = 26.851969 Si / 1000 Ang^3
#
#
#
# Elastic Constant Matrix: (Units=GPa)
#
#
# Indices 1 2 3 4 5 6 
#
# 1 73.0455 23.2428 1.7963 0.0000 20.7665 0.0000
# 2 23.2428 120.1732 34.0252 0.0000 32.1338 0.0000
# 3 1.7963 34.0252 77.9288 0.0000 7.6250 0.0000
# 4 0.0000 0.0000 0.0000 39.2132 0.0000 10.1797
# 5 20.7665 32.1338 7.6250 0.0000 33.6443 0.0000
# 6 0.0000 0.0000 0.0000 10.1797 0.0000 31.8996
#
#
#
# Elastic Compliance Matrix: (Units=1/GPa)
#
#
# Indices 1 2 3 4 5 6 
#
# 1 0.016702 -0.000924 0.000962 0.000000 -0.009645 0.000000
# 2 -0.000924 0.012536 -0.004435 0.000000 -0.010398 0.000000
# 3 0.000962 -0.004435 0.014716 0.000000 0.000307 0.000000
# 4 0.000000 0.000000 0.000000 0.027805 0.000000 -0.008873
# 5 -0.009645 -0.010398 0.000307 0.000000 0.045538 0.000000
# 6 0.000000 0.000000 0.000000 -0.008873 0.000000 0.034180
#
#
# Mechanical properties :
#
#
# Convention : Reuss Voigt Hill
#
# Bulk Modulus (GPa) = 28.43992 43.25288 35.84640
# Shear Modulus (GPa) = 29.07128 35.09028 32.08078
#
# Velocity S-wave (km/s) = 3.29393 3.61890 3.46023
# Velocity P-wave (km/s) = 5.00810 5.79696 5.41691
#
# Compressibility (1/GPa) = 0.03516185
#
# Stress axis : x y z
#
# Youngs Moduli (GPa) = 59.87152 79.77036 67.95158
#
# Poissons Ratio (x) = 0.07369 -0.06537
# Poissons Ratio (y) = 0.05531 0.30135
# Poissons Ratio (z) = -0.05760 0.35376
#
# Static dielectric constant tensor:
#      x y z
#    x 2.275020 0.000000 -0.074140 
#    y 0.000000 2.126320 0.000000 
#    z -0.074140 0.000000 2.144870 
# 
# From -- ./inp_files/41202.got.cif
#   From: 2010.05.17/outbox.cif.g08.bks.cpg/sg14_21_cif.got.tgz:41202.got - 2010.06.03 17:49:19.
