data_PCOD9239181
_publ_section_title
;
Structure prediction by ZEFSAII (Michael W. Deem and Ramdas Pophale) SiO2 
 PCOD9239181
Probable space group: P 21/C
;
_chemical_formula_sum "Si O2"
_cell_formula_units_Z 32
_cell_length_a 26.089058
_cell_length_b 5.038814
_cell_length_c 24.068484
_cell_angle_alpha 90.000000
_cell_angle_beta 142.611943
_cell_angle_gamma 90.000000
_cell_volume 1921.208703
_symmetry_space_group_name_H-M "P 21/C"
_symmetry_group_IT_number 14
_symmetry_cell_setting 'monoclinic'
loop_
_space_group_symop_operation_xyz
x,y,z
-x,1/2+y,1/2-z
-x,-y,-z
x,1/2-y,1/2+z
loop_
_atom_site_type_symbol
_atom_site_label
_atom_site_fract_x
_atom_site_fract_y
_atom_site_fract_z
Si Si1 0.424912 0.055491 0.633107
Si Si2 0.496542 0.750247 0.037847
Si Si3 0.814048 0.619867 0.616671
Si Si4 0.602361 0.978852 0.729582
Si Si5 0.363090 0.926842 0.014332
Si Si6 0.994724 0.510537 0.783086
Si Si7 0.824348 0.122200 0.546714
Si Si8 0.331121 0.993222 0.664894
O O1 0.406251 0.338493 0.588020
O O2 0.520420 0.985616 0.699411
O O3 0.364631 0.834929 0.553305
O O4 0.401994 0.026583 0.677614
O O5 0.567277 0.660209 0.143766
O O6 0.416338 0.830132 0.007213
O O7 0.500000 0.500000 0.000000
O O8 0.500000 0.000000 0.000000
O O9 0.730075 0.539455 0.577323
O O10 0.901826 0.581242 0.725121
O O11 0.818365 0.410363 0.569393
O O12 0.810226 0.905541 0.583898
O O13 0.673807 0.784544 0.813953
O O14 0.637419 0.277346 0.763180
O O15 0.996090 0.209403 0.762189
O O16 0.079385 0.569042 0.890123
O O17 0.754377 0.087914 0.439494
#
# Coordination Sequence:
#
# PCOD9239181 Si02
#       8
#     4   4   4   4   4   4   4   4
#     4  11  20  32  45  69 103 127 158 191 234 280
#     4  11  23  40  54  66  92 124 168 224 265 287
#     4  10  16  30  44  68  96 126 165 191 220 282
#     4  11  23  33  48  69  89 128 165 200 241 289
#     4  11  19  32  52  72  91 128 165 198 243 289
#     4   8  16  26  42  62  92 131 161 184 217 269
#     4  10  18  28  44  66 100 135 154 183 230 269
#     4  12  19  31  47  70 103 127 160 188 226 295
#
# _framework density 16.656179999999999
#
# number of rings (size 3 to 8) (size 9 to 14) (size 15 to 20)
#    0.000    1.500    2.500    6.000    0.000    0.000 
#    0.000    0.000    0.000    0.000    0.000    0.000 
#    0.000    6.000    0.000    0.000    0.000    0.500 
#
# Total GULP energy -178208.123145 kJ/mol
# GULP energy per Si atom -5569.003848 kJ/mol
# Density = 1.661827 g / cm^3
# Si number density = 16.656180 Si / 1000 Ang^3
#
#
#
# Elastic Constant Matrix: (Units=GPa)
#
#
# Indices 1 2 3 4 5 6 
#
# 1 39.9173 20.6477 23.2863 0.0000 -1.1290 0.0000
# 2 20.6477 109.6706 16.1792 0.0000 -6.8351 0.0000
# 3 23.2863 16.1792 78.2919 0.0000 16.5603 0.0000
# 4 0.0000 0.0000 0.0000 31.0167 0.0000 -2.4530
# 5 -1.1290 -6.8351 16.5603 0.0000 24.6623 0.0000
# 6 0.0000 0.0000 0.0000 -2.4530 0.0000 19.9384
#
#
#
# Elastic Compliance Matrix: (Units=1/GPa)
#
#
# Indices 1 2 3 4 5 6 
#
# 1 0.033765 -0.004298 -0.010757 0.000000 0.007578 0.000000
# 2 -0.004298 0.010413 -0.001681 0.000000 0.003818 0.000000
# 3 -0.010757 -0.001681 0.019258 0.000000 -0.013890 0.000000
# 4 0.000000 0.000000 0.000000 0.032557 0.000000 0.004005
# 5 0.007578 0.003818 -0.013890 0.000000 0.051280 0.000000
# 6 0.000000 0.000000 0.000000 0.004005 0.000000 0.050647
#
#
# Mechanical properties :
#
#
# Convention : Reuss Voigt Hill
#
# Bulk Modulus (GPa) = 33.37457 38.67848 36.02653
# Shear Modulus (GPa) = 20.71420 26.30791 23.51106
#
# Velocity S-wave (km/s) = 3.53035 3.97856 3.76114
# Velocity P-wave (km/s) = 6.05794 6.66164 6.36695
#
# Compressibility (1/GPa) = 0.02996293
#
# Stress axis : x y z
#
# Youngs Moduli (GPa) = 29.61677 96.03063 51.92728
#
# Poissons Ratio (x) = 0.41270 0.55860
# Poissons Ratio (y) = 0.12728 0.08731
# Poissons Ratio (z) = 0.31860 0.16146
#
# Static dielectric constant tensor:
#      x y z
#    x 1.590950 0.000000 0.020280 
#    y 0.000000 1.580120 0.000000 
#    z 0.020280 0.000000 1.629790 
# 
# From -- ./inp_files/70033.got.cif
#   From: 2010.05.17/outbox.cif.g08.bks.cpg/sg14_36_cif.got.tgz:70033.got - 2010.06.03 17:49:19.
