data_PCOD9239297
_publ_section_title
;
Structure prediction by ZEFSAII (Michael W. Deem and Ramdas Pophale) SiO2 
 PCOD9239297
Probable space group: P 21/C
;
_chemical_formula_sum "Si O2"
_cell_formula_units_Z 28
_cell_length_a 7.612450
_cell_length_b 7.869795
_cell_length_c 17.459506
_cell_angle_alpha 90.000000
_cell_angle_beta 86.479639
_cell_angle_gamma 90.000000
_cell_volume 1043.997730
_symmetry_space_group_name_H-M "P 21/C"
_symmetry_group_IT_number 14
_symmetry_cell_setting 'monoclinic'
loop_
_space_group_symop_operation_xyz
x,y,z
-x,1/2+y,1/2-z
-x,-y,-z
x,1/2-y,1/2+z
loop_
_atom_site_type_symbol
_atom_site_label
_atom_site_fract_x
_atom_site_fract_y
_atom_site_fract_z
Si Si1 0.885801 0.346837 0.291664
Si Si2 0.564326 0.739743 0.847362
Si Si3 0.944999 0.034175 0.587545
Si Si4 0.317787 0.887616 0.610382
Si Si5 0.339450 0.617989 0.475364
Si Si6 0.229004 0.356030 0.797315
Si Si7 0.908094 0.605412 0.424009
O O1 0.708869 0.262027 0.328471
O O2 0.819365 0.448951 0.220763
O O3 0.951554 0.465305 0.359157
O O4 0.059612 0.242983 0.268641
O O5 0.555740 0.538652 0.866272
O O6 0.396841 0.833922 0.887689
O O7 0.613848 0.786941 0.758669
O O8 0.729884 0.807631 0.893141
O O9 0.951565 0.240477 0.583470
O O10 0.122912 0.968566 0.623926
O O11 0.000000 0.000000 0.500000
O O12 0.797042 0.887221 0.611516
O O13 0.342640 0.790407 0.528650
O O14 0.500000 0.500000 0.500000
O O15 0.169729 0.500553 0.500465
#
# Coordination Sequence:
#
# PCOD9239297 Si02
#       7
#     4   4   4   4   4   4   4
#     4   9  15  26  44  68  95 121 149 197 251 288
#     4   9  16  26  45  72  97 119 148 194 246 293
#     4  10  20  33  48  66  94 132 167 199 233 281
#     4   9  17  29  47  72  99 127 156 191 239 294
#     4   9  16  28  47  73 100 122 149 190 245 298
#     4  10  17  27  45  69  96 121 155 199 247 292
#     4   8  16  29  46  68  93 122 156 192 234 282
#
# _framework density 26.819980999999999
#
# number of rings (size 3 to 8) (size 9 to 14) (size 15 to 20)
#    0.000    2.857    0.000    4.714    0.000    0.000 
#    0.000    6.429    0.000    1.714    0.000    0.000 
#    0.000    0.000    0.000    0.000    0.000    0.000 
#
# Total GULP energy -156093.913772 kJ/mol
# GULP energy per Si atom -5574.782635 kJ/mol
# Density = 2.675894 g / cm^3
# Si number density = 26.819981 Si / 1000 Ang^3
#
#
#
# Elastic Constant Matrix: (Units=GPa)
#
#
# Indices 1 2 3 4 5 6 
#
# 1 83.6104 16.6092 38.5759 0.0000 -35.0045 0.0000
# 2 16.6092 123.6179 49.7931 0.0000 -14.8492 0.0000
# 3 38.5759 49.7931 88.1403 0.0000 -46.6035 0.0000
# 4 0.0000 0.0000 0.0000 52.2225 0.0000 -3.4493
# 5 -35.0045 -14.8492 -46.6035 0.0000 33.2017 0.0000
# 6 0.0000 0.0000 0.0000 -3.4493 0.0000 19.2876
#
#
#
# Elastic Compliance Matrix: (Units=1/GPa)
#
#
# Indices 1 2 3 4 5 6 
#
# 1 0.025504 -0.004586 0.017691 0.000000 0.049670 0.000000
# 2 -0.004586 0.013310 -0.019086 0.000000 -0.025673 0.000000
# 3 0.017691 -0.019086 0.076537 0.000000 0.117547 0.000000
# 4 0.000000 0.000000 0.000000 0.019378 0.000000 0.003465
# 5 0.049670 -0.025673 0.117547 0.000000 0.235998 0.000000
# 6 0.000000 0.000000 0.000000 0.003465 0.000000 0.052467
#
#
# Mechanical properties :
#
#
# Convention : Reuss Voigt Hill
#
# Bulk Modulus (GPa) = 9.67226 56.14721 32.90973
# Shear Modulus (GPa) = 10.64698 33.63504 22.14101
#
# Velocity S-wave (km/s) = 1.99460 3.54517 2.87634
# Velocity P-wave (km/s) = 2.98643 6.14312 4.82994
#
# Compressibility (1/GPa) = 0.10338845
#
# Stress axis : x y z
#
# Youngs Moduli (GPa) = 39.20976 75.13376 13.06564
#
# Poissons Ratio (x) = 0.34459 -0.23115
# Poissons Ratio (y) = 0.17983 0.24937
# Poissons Ratio (z) = -0.69368 1.43400
#
# Static dielectric constant tensor:
#      x y z
#    x 2.436580 0.000000 -0.360450 
#    y 0.000000 2.301020 0.000000 
#    z -0.360450 0.000000 4.606710 
# 
# From -- ./inp_files/66667.got.cif
#   From: 2010.05.17/outbox.cif.g08.bks.cpg/sg14_34_cif.got.tgz:66667.got - 2010.06.03 17:49:19.
