data_PCOD9239859
_publ_section_title
;
Structure prediction by ZEFSAII (Michael W. Deem and Ramdas Pophale) SiO2 
 PCOD9239859
Probable space group: P 21/C
;
_chemical_formula_sum "Si O2"
_cell_formula_units_Z 20
_cell_length_a 24.156862
_cell_length_b 6.941257
_cell_length_c 5.371075
_cell_angle_alpha 90.000000
_cell_angle_beta 62.788360
_cell_angle_gamma 90.000000
_cell_volume 800.939338
_symmetry_space_group_name_H-M "P 21/C"
_symmetry_group_IT_number 14
_symmetry_cell_setting 'monoclinic'
loop_
_space_group_symop_operation_xyz
x,y,z
-x,1/2+y,1/2-z
-x,-y,-z
x,1/2-y,1/2+z
loop_
_atom_site_type_symbol
_atom_site_label
_atom_site_fract_x
_atom_site_fract_y
_atom_site_fract_z
Si Si1 0.256691 0.624461 0.958810
Si Si2 0.930950 0.472727 0.244261
Si Si3 0.617987 0.540441 0.160489
Si Si4 0.569532 0.976395 0.259289
Si Si5 0.116918 0.532001 0.157537
O O1 0.262270 0.728368 0.679708
O O2 0.311761 0.471460 0.886097
O O3 0.187448 0.538698 0.106229
O O4 0.909897 0.249872 0.321881
O O5 0.924207 0.555660 0.535790
O O6 0.886838 0.549085 0.113640
O O7 0.000000 0.500000 0.000000
O O8 0.590648 0.754215 0.181572
O O9 0.577254 0.444559 0.464150
O O10 0.612846 0.450876 0.895973
O O11 0.500000 0.000000 0.500000
#
# Coordination Sequence:
#
# PCOD9239859 Si02
#       5
#     4   4   4   4   4
#     4  12  21  40  62  92 129 162 214 261 311 387
#     4  10  18  32  56  81 115 151 199 245 295 364
#     4  10  23  40  65  94 117 166 212 252 317 378
#     4  10  21  45  66  86 127 161 205 262 316 377
#     4  10  19  35  55  84 112 157 202 243 312 354
#
# _framework density 24.970677999999999
#
# number of rings (size 3 to 8) (size 9 to 14) (size 15 to 20)
#    0.000    1.600    4.000    2.400    0.000    0.000 
#   21.600    0.000    0.000   28.800    0.000    0.000 
#    0.000    0.000    0.000    0.000    0.000    0.000 
#
# Total GULP energy -111768.742672 kJ/mol
# GULP energy per Si atom -5588.437134 kJ/mol
# Density = 2.491384 g / cm^3
# Si number density = 24.970678 Si / 1000 Ang^3
#
#
#
# Elastic Constant Matrix: (Units=GPa)
#
#
# Indices 1 2 3 4 5 6 
#
# 1 115.1831 -17.2335 2.4677 0.0000 1.0066 0.0000
# 2 -17.2335 92.8033 -21.2730 0.0000 -10.4253 0.0000
# 3 2.4677 -21.2730 136.0847 0.0000 36.2610 0.0000
# 4 0.0000 0.0000 0.0000 -0.2778 0.0000 -26.4277
# 5 1.0066 -10.4253 36.2610 0.0000 82.1289 0.0000
# 6 0.0000 0.0000 0.0000 -26.4277 0.0000 27.7117
#
#
#
# Elastic Compliance Matrix: (Units=1/GPa)
#
#
# Indices 1 2 3 4 5 6 
#
# 1 0.008932 0.001685 0.000083 0.000000 0.000068 0.000000
# 2 0.001685 0.011533 0.001573 0.000000 0.000749 0.000000
# 3 0.000083 0.001573 0.008545 0.000000 -0.003574 0.000000
# 4 0.000000 0.000000 0.000000 -0.039245 0.000000 -0.037427
# 5 0.000068 0.000749 -0.003574 0.000000 0.013848 0.000000
# 6 0.000000 0.000000 0.000000 -0.037427 0.000000 0.000393
#
#
# Mechanical properties :
#
#
# Convention : Reuss Voigt Hill
#
# Bulk Modulus (GPa) = 28.01683 30.22152 29.11918
# Shear Modulus (GPa) = 542.23816 47.25323 294.74569
#
# Velocity S-wave (km/s) = 14.75200 4.35483 10.87626
# Velocity P-wave (km/s) = 17.36105 6.11679 13.01578
#
# Compressibility (1/GPa) = 0.03569283
#
# Stress axis : x y z
#
# Youngs Moduli (GPa) = 111.96199 86.70704 117.02666
#
# Poissons Ratio (x) = -0.14613 -0.00977
# Poissons Ratio (y) = -0.18869 -0.18405
# Poissons Ratio (z) = -0.00935 -0.13637
#
# Static dielectric constant tensor:
#      x y z
#    x 0.000000 0.000000 0.000000 
#    y 0.000000 0.000000 0.000000 
#    z 0.000000 0.000000 0.000000 
# 
# From -- ./inp_files/4320.got.cif
#   From: 2010.05.17/outbox.cif.g08.bks.cpg/sg14_3_cif.got.tgz:4320.got - 2010.06.03 17:49:19.
