data_PCOD9239668
_publ_section_title
;
Structure prediction by ZEFSAII (Michael W. Deem and Ramdas Pophale) SiO2 
 PCOD9239668
Probable space group: P 21/C
;
_chemical_formula_sum "Si O2"
_cell_formula_units_Z 28
_cell_length_a 7.549747
_cell_length_b 14.760106
_cell_length_c 11.555322
_cell_angle_alpha 90.000000
_cell_angle_beta 62.685957
_cell_angle_gamma 90.000000
_cell_volume 1144.099251
_symmetry_space_group_name_H-M "P 21/C"
_symmetry_group_IT_number 14
_symmetry_cell_setting 'monoclinic'
loop_
_space_group_symop_operation_xyz
x,y,z
-x,1/2+y,1/2-z
-x,-y,-z
x,1/2-y,1/2+z
loop_
_atom_site_type_symbol
_atom_site_label
_atom_site_fract_x
_atom_site_fract_y
_atom_site_fract_z
Si Si1 0.392323 0.260009 0.821567
Si Si2 0.073010 0.121330 0.979543
Si Si3 0.574951 0.405247 0.182752
Si Si4 0.127363 0.950041 0.601009
Si Si5 0.795986 0.661185 0.316942
Si Si6 0.723208 0.454643 0.692596
Si Si7 0.247822 0.147388 0.586748
O O1 0.557146 0.180765 0.772955
O O2 0.399201 0.313959 0.698757
O O3 0.176708 0.208628 0.892885
O O4 0.375934 0.323527 0.936563
O O5 0.196751 0.108531 0.063523
O O6 0.840199 0.121496 0.083282
O O7 0.124721 0.038772 0.879414
O O8 0.489056 0.497312 0.265832
O O9 0.406563 0.380890 0.136768
O O10 0.767816 0.419824 0.048128
O O11 0.256848 0.930046 0.678587
O O12 0.929769 0.894976 0.688184
O O13 0.116633 0.059096 0.602084
O O14 0.866190 0.761584 0.339134
#
# Coordination Sequence:
#
# PCOD9239668 Si02
#       7
#     4   4   4   4   4   4   4
#     4   9  17  30  46  67  96 129 157 186 236 291
#     4   8  14  25  43  65  87 117 155 193 227 266
#     4   9  17  30  48  71  95 118 156 205 240 272
#     4  10  18  30  49  74  97 120 156 202 242 276
#     4   9  18  30  45  69  98 123 155 197 233 278
#     4   8  13  24  44  67  86 109 149 195 233 265
#     4   9  17  31  51  69  91 128 162 191 234 282
#
# _framework density 24.473402
#
# number of rings (size 3 to 8) (size 9 to 14) (size 15 to 20)
#    0.000    3.143    0.000    2.571    0.000    0.571 
#    0.000    5.714    0.000    0.000    0.000   19.000 
#    0.000    0.000    0.000    0.000    0.000    0.000 
#
# Total GULP energy -155999.851086 kJ/mol
# GULP energy per Si atom -5571.423253 kJ/mol
# Density = 2.441770 g / cm^3
# Si number density = 24.473402 Si / 1000 Ang^3
#
#
#
# Elastic Constant Matrix: (Units=GPa)
#
#
# Indices 1 2 3 4 5 6 
#
# 1 24.8452 17.7655 29.8591 0.0000 -3.3546 0.0000
# 2 17.7655 119.3455 34.2999 0.0000 -10.5426 0.0000
# 3 29.8591 34.2999 139.8904 0.0000 8.6308 0.0000
# 4 0.0000 0.0000 0.0000 52.8804 0.0000 -5.6839
# 5 -3.3546 -10.5426 8.6308 0.0000 19.1006 0.0000
# 6 0.0000 0.0000 0.0000 -5.6839 0.0000 6.9453
#
#
#
# Elastic Compliance Matrix: (Units=1/GPa)
#
#
# Indices 1 2 3 4 5 6 
#
# 1 0.060416 -0.004076 -0.012768 0.000000 0.014131 0.000000
# 2 -0.004076 0.010050 -0.001946 0.000000 0.005711 0.000000
# 3 -0.012768 -0.001946 0.010858 0.000000 -0.008223 0.000000
# 4 0.000000 0.000000 0.000000 0.020734 0.000000 0.016969
# 5 0.014131 0.005711 -0.008223 0.000000 0.061704 0.000000
# 6 0.000000 0.000000 0.000000 0.016969 0.000000 0.157869
#
#
# Mechanical properties :
#
#
# Convention : Reuss Voigt Hill
#
# Bulk Modulus (GPa) = 22.86043 49.77002 36.31522
# Shear Modulus (GPa) = 13.37640 29.26238 21.31939
#
# Velocity S-wave (km/s) = 2.34042 3.46161 2.95468
# Velocity P-wave (km/s) = 4.08223 6.02972 5.14889
#
# Compressibility (1/GPa) = 0.04374371
#
# Stress axis : x y z
#
# Youngs Moduli (GPa) = 16.55186 99.50638 92.09493
#
# Poissons Ratio (x) = 0.40555 1.17588
# Poissons Ratio (y) = 0.06746 0.17926
# Poissons Ratio (z) = 0.21134 0.19369
#
# Static dielectric constant tensor:
#      x y z
#    x 1.947030 0.000000 0.017470 
#    y 0.000000 2.065380 0.000000 
#    z 0.017470 0.000000 1.985000 
# 
# From -- ./inp_files/44767.got.cif
#   From: 2010.05.17/outbox.cif.g08.bks.cpg/sg14_23_cif.got.tgz:44767.got - 2010.06.03 17:49:19.
