data_PCOD9239854
_publ_section_title
;
Structure prediction by ZEFSAII (Michael W. Deem and Ramdas Pophale) SiO2 
 PCOD9239854
Probable space group: P 21/C
;
_chemical_formula_sum "Si O2"
_cell_formula_units_Z 28
_cell_length_a 7.841133
_cell_length_b 8.290916
_cell_length_c 23.033470
_cell_angle_alpha 90.000000
_cell_angle_beta 44.533744
_cell_angle_gamma 90.000000
_cell_volume 1050.177310
_symmetry_space_group_name_H-M "P 21/C"
_symmetry_group_IT_number 14
_symmetry_cell_setting 'monoclinic'
loop_
_space_group_symop_operation_xyz
x,y,z
-x,1/2+y,1/2-z
-x,-y,-z
x,1/2-y,1/2+z
loop_
_atom_site_type_symbol
_atom_site_label
_atom_site_fract_x
_atom_site_fract_y
_atom_site_fract_z
Si Si1 0.050103 0.360527 0.156178
Si Si2 0.396108 0.660910 0.973360
Si Si3 0.469915 0.475306 0.848046
Si Si4 0.979383 0.582949 0.259630
Si Si5 0.583009 0.206483 0.213647
Si Si6 0.288406 0.983516 0.924622
Si Si7 0.634200 0.120141 0.922349
O O1 0.915850 0.519377 0.211637
O O2 0.859234 0.260017 0.165538
O O3 0.328456 0.373490 0.069353
O O4 0.089803 0.261826 0.206498
O O5 0.325620 0.523407 0.942758
O O6 0.367587 0.821075 0.940107
O O7 0.277969 0.726882 0.061800
O O8 0.499691 0.640783 0.803957
O O9 0.422771 0.343421 0.808731
O O10 0.732535 0.423929 0.807153
O O11 0.851420 0.476100 0.339892
O O12 0.627181 0.053882 0.160817
O O13 0.431902 0.131010 0.920360
O O14 0.000000 0.000000 0.000000
O O15 0.500000 0.000000 0.000000
#
# Coordination Sequence:
#
# PCOD9239854 Si02
#       7
#     4   4   4   4   4   4   4
#     4  10  19  34  54  80 112 146 186 227 275 333
#     4   9  18  34  51  76 111 143 179 235 273 318
#     4   9  21  35  53  81 112 147 184 228 283 330
#     4  10  20  34  56  82 105 150 187 227 274 329
#     4  10  21  34  54  81 115 144 181 232 282 330
#     4  10  19  28  51  84 110 135 180 232 283 316
#     4  10  18  32  56  78 108 139 189 233 268 317
#
# _framework density 26.662164000000001
#
# number of rings (size 3 to 8) (size 9 to 14) (size 15 to 20)
#    0.000    2.286    2.857    0.857    8.000    0.000 
#    0.000    0.000    0.000    8.571    0.000    0.000 
#    0.000    0.000    0.000    0.000    0.000    0.000 
#
# Total GULP energy -156227.333479 kJ/mol
# GULP energy per Si atom -5579.547624 kJ/mol
# Density = 2.660148 g / cm^3
# Si number density = 26.662164 Si / 1000 Ang^3
#
#
#
# Elastic Constant Matrix: (Units=GPa)
#
#
# Indices 1 2 3 4 5 6 
#
# 1 112.9730 13.5074 23.3971 0.0000 15.5066 0.0000
# 2 13.5074 74.5353 44.3098 0.0000 12.6757 0.0000
# 3 23.3971 44.3098 113.2568 0.0000 20.0036 0.0000
# 4 0.0000 0.0000 0.0000 56.1524 0.0000 9.5011
# 5 15.5066 12.6757 20.0036 0.0000 44.8254 0.0000
# 6 0.0000 0.0000 0.0000 9.5011 0.0000 34.3058
#
#
#
# Elastic Compliance Matrix: (Units=1/GPa)
#
#
# Indices 1 2 3 4 5 6 
#
# 1 0.009538 -0.000508 -0.001318 0.000000 -0.002568 0.000000
# 2 -0.000508 0.017685 -0.006472 0.000000 -0.001937 0.000000
# 3 -0.001318 -0.006472 0.012191 0.000000 -0.003154 0.000000
# 4 0.000000 0.000000 0.000000 0.018684 0.000000 -0.005175
# 5 -0.002568 -0.001937 -0.003154 0.000000 0.025152 0.000000
# 6 0.000000 0.000000 0.000000 -0.005175 0.000000 0.030583
#
#
# Mechanical properties :
#
#
# Convention : Reuss Voigt Hill
#
# Bulk Modulus (GPa) = 43.82581 51.46599 47.64590
# Shear Modulus (GPa) = 36.22243 41.69345 38.95794
#
# Velocity S-wave (km/s) = 3.68988 3.95874 3.82667
# Velocity P-wave (km/s) = 5.88445 6.34353 6.11830
#
# Compressibility (1/GPa) = 0.02281760
#
# Stress axis : x y z
#
# Youngs Moduli (GPa) = 104.84565 56.54354 82.02808
#
# Poissons Ratio (x) = 0.02874 0.10812
# Poissons Ratio (y) = 0.05329 0.53089
# Poissons Ratio (z) = 0.13819 0.36595
#
# Static dielectric constant tensor:
#      x y z
#    x 2.096010 0.000000 0.077630 
#    y 0.000000 2.231060 0.000000 
#    z 0.077630 0.000000 2.098730 
# 
# From -- ./inp_files/65378.got.cif
#   From: 2010.05.17/outbox.cif.g08.bks.cpg/sg14_33_cif.got.tgz:65378.got - 2010.06.03 17:49:19.
