data_PCOD9239277
_publ_section_title
;
Structure prediction by ZEFSAII (Michael W. Deem and Ramdas Pophale) SiO2 
 PCOD9239277
Probable space group: P 21/C
;
_chemical_formula_sum "Si O2"
_cell_formula_units_Z 30
_cell_length_a 15.150262
_cell_length_b 8.102829
_cell_length_c 12.819383
_cell_angle_alpha 90.000000
_cell_angle_beta 122.883604
_cell_angle_gamma 90.000000
_cell_volume 1321.560410
_symmetry_space_group_name_H-M "P 21/C"
_symmetry_group_IT_number 14
_symmetry_cell_setting 'monoclinic'
loop_
_space_group_symop_operation_xyz
x,y,z
-x,1/2+y,1/2-z
-x,-y,-z
x,1/2-y,1/2+z
loop_
_atom_site_type_symbol
_atom_site_label
_atom_site_fract_x
_atom_site_fract_y
_atom_site_fract_z
Si Si1 0.381241 0.740850 0.686949
Si Si2 0.000000 0.000000 0.000000
Si Si3 0.811376 0.630019 0.049918
Si Si4 0.244798 0.980467 0.710372
Si Si5 0.514611 0.534481 0.130516
Si Si6 0.811290 0.996469 0.971430
Si Si7 0.257870 0.353215 0.773024
Si Si8 0.974122 0.132537 0.391947
O O1 0.341245 0.856331 0.756606
O O2 0.474931 0.628303 0.792447
O O3 0.428902 0.846348 0.624237
O O4 0.282014 0.628797 0.586916
O O5 0.991513 0.184802 0.944136
O O6 0.073061 0.935680 0.940899
O O7 0.754458 0.579929 0.119120
O O8 0.936663 0.607419 0.137558
O O9 0.778214 0.530499 0.925487
O O10 0.787293 0.824509 0.012801
O O11 0.148752 0.891609 0.706278
O O12 0.253540 0.156447 0.770937
O O13 0.632109 0.607808 0.210634
O O14 0.500000 0.500000 0.000000
O O15 0.828969 0.937714 0.858603
O O16 0.000000 0.000000 0.500000
#
# Coordination Sequence:
#
# PCOD9239277 Si02
#       8
#     4   2   4   4   4   4   4   4
#     4  11  22  41  63  92 118 169 207 264 326 380
#     4  10  16  36  62  88 124 160 200 260 300 384
#     4   9  19  37  59  87 123 160 199 253 312 369
#     4  10  19  37  62  86 121 159 206 253 315 386
#     4  11  25  42  64  91 124 163 218 273 327 385
#     4   9  20  36  63  86 120 159 205 243 317 379
#     4  10  21  39  58  88 122 157 201 266 306 376
#     4   9  18  33  59  90 117 165 205 244 312 380
#
# _framework density 22.700438999999999
#
# number of rings (size 3 to 8) (size 9 to 14) (size 15 to 20)
#    0.000    2.133    1.333    2.400    0.000    3.200 
#    4.800    2.000    0.000    0.000    0.000    0.000 
#    0.000    0.000    0.000    0.000    0.000    0.000 
#
# Total GULP energy -167026.744619 kJ/mol
# GULP energy per Si atom -5567.558154 kJ/mol
# Density = 2.264877 g / cm^3
# Si number density = 22.700439 Si / 1000 Ang^3
#
#
#
# Elastic Constant Matrix: (Units=GPa)
#
#
# Indices 1 2 3 4 5 6 
#
# 1 111.1518 44.6660 11.6219 0.0000 -16.6104 0.0000
# 2 44.6660 79.4034 13.6264 0.0000 -1.1520 0.0000
# 3 11.6219 13.6264 49.6062 0.0000 -7.1599 0.0000
# 4 0.0000 0.0000 0.0000 9.4279 0.0000 5.3576
# 5 -16.6104 -1.1520 -7.1599 0.0000 12.8755 0.0000
# 6 0.0000 0.0000 0.0000 5.3576 0.0000 46.7908
#
#
#
# Elastic Compliance Matrix: (Units=1/GPa)
#
#
# Indices 1 2 3 4 5 6 
#
# 1 0.015219 -0.008555 0.001639 0.000000 0.019780 0.000000
# 2 -0.008555 0.018036 -0.004686 0.000000 -0.012030 0.000000
# 3 0.001639 -0.004686 0.023166 0.000000 0.014578 0.000000
# 4 0.000000 0.000000 0.000000 0.113450 0.000000 -0.012990
# 5 0.019780 -0.012030 0.014578 0.000000 0.110216 0.000000
# 6 0.000000 0.000000 0.000000 -0.012990 0.000000 0.022859
#
#
# Mechanical properties :
#
#
# Convention : Reuss Voigt Hill
#
# Bulk Modulus (GPa) = 30.10511 42.22114 36.16312
# Shear Modulus (GPa) = 14.82699 25.16864 19.99781
#
# Velocity S-wave (km/s) = 2.55847 3.33337 2.97129
# Velocity P-wave (km/s) = 4.69237 5.78401 5.26655
#
# Compressibility (1/GPa) = 0.03321696
#
# Stress axis : x y z
#
# Youngs Moduli (GPa) = 65.70644 55.44390 43.16655
#
# Poissons Ratio (x) = 0.47435 -0.07077
# Poissons Ratio (y) = 0.56215 0.20229
# Poissons Ratio (z) = -0.10773 0.25983
#
# Static dielectric constant tensor:
#      x y z
#    x -0.008200 0.000000 -1.341470 
#    y 0.000000 1.894180 0.000000 
#    z -1.341470 0.000000 0.902340 
# 
# From -- ./inp_files/31853.got.cif
#   From: 2010.05.17/outbox.cif.g08.bks.cpg/sg14_16_cif.got.tgz:31853.got - 2010.06.03 17:49:19.
