data_PCOD9239416
_publ_section_title
;
Structure prediction by ZEFSAII (Michael W. Deem and Ramdas Pophale) SiO2 
 PCOD9239416
Probable space group: P 21/C
;
_chemical_formula_sum "Si O2"
_cell_formula_units_Z 32
_cell_length_a 5.783515
_cell_length_b 17.767337
_cell_length_c 15.540721
_cell_angle_alpha 90.000000
_cell_angle_beta 111.967867
_cell_angle_gamma 90.000000
_cell_volume 1480.981240
_symmetry_space_group_name_H-M "P 21/C"
_symmetry_group_IT_number 14
_symmetry_cell_setting 'monoclinic'
loop_
_space_group_symop_operation_xyz
x,y,z
-x,1/2+y,1/2-z
-x,-y,-z
x,1/2-y,1/2+z
loop_
_atom_site_type_symbol
_atom_site_label
_atom_site_fract_x
_atom_site_fract_y
_atom_site_fract_z
Si Si1 0.720003 0.395166 0.662954
Si Si2 0.512630 0.827432 0.698835
Si Si3 0.071359 0.232391 0.139338
Si Si4 0.801362 0.890062 0.971481
Si Si5 0.748216 0.564111 0.996188
Si Si6 0.758867 0.148775 0.505134
Si Si7 0.047440 0.519346 0.647678
Si Si8 0.347152 0.487053 0.840900
O O1 0.633376 0.367808 0.743877
O O2 0.494634 0.395797 0.563241
O O3 0.906370 0.331363 0.659682
O O4 0.835399 0.477747 0.674177
O O5 0.684120 0.763655 0.766283
O O6 0.347102 0.806467 0.593627
O O7 0.671592 0.899832 0.689175
O O8 0.147256 0.192367 0.059828
O O9 0.897625 0.302622 0.096862
O O10 0.867198 0.954433 0.908656
O O11 0.946779 0.912426 0.077202
O O12 0.501283 0.614576 0.989925
O O13 0.624854 0.511940 0.905625
O O14 0.000020 0.603927 0.001139
O O15 0.797252 0.513700 0.088311
O O16 0.254296 0.535424 0.747928
#
# Coordination Sequence:
#
# PCOD9239416 Si02
#       8
#     4   4   4   4   4   4   4   4
#     4  10  17  33  60  88 114 162 211 247 299 378
#     4  10  21  39  66  88 113 169 209 248 315 370
#     4  10  22  40  59  88 123 166 212 249 299 386
#     4   9  19  32  53  88 118 162 198 253 304 368
#     4  10  25  41  66  95 122 161 208 266 323 355
#     4  11  25  44  63  91 130 163 205 265 307 366
#     4  10  17  32  54  86 125 150 202 253 314 363
#     4  10  19  41  64  91 120 157 209 263 315 379
#
# _framework density 21.607296000000002
#
# number of rings (size 3 to 8) (size 9 to 14) (size 15 to 20)
#    0.000    2.000    3.750    1.125    5.250    5.500 
#    2.250    1.250    0.000    0.000    0.000    0.000 
#    0.000    0.000    0.000    0.000    0.000    0.000 
#
# Total GULP energy -178142.096874 kJ/mol
# GULP energy per Si atom -5566.940527 kJ/mol
# Density = 2.155812 g / cm^3
# Si number density = 21.607296 Si / 1000 Ang^3
#
#
#
# Elastic Constant Matrix: (Units=GPa)
#
#
# Indices 1 2 3 4 5 6 
#
# 1 91.4847 22.7302 33.8160 0.0000 14.5589 0.0000
# 2 22.7302 18.7809 20.5795 0.0000 7.6491 0.0000
# 3 33.8160 20.5795 139.6281 0.0000 23.1148 0.0000
# 4 0.0000 0.0000 0.0000 30.5975 0.0000 15.8236
# 5 14.5589 7.6491 23.1148 0.0000 22.2929 0.0000
# 6 0.0000 0.0000 0.0000 15.8236 0.0000 22.9321
#
#
#
# Elastic Compliance Matrix: (Units=1/GPa)
#
#
# Indices 1 2 3 4 5 6 
#
# 1 0.016054 -0.017048 -0.000734 0.000000 -0.003874 0.000000
# 2 -0.017048 0.085794 -0.006623 0.000000 -0.011437 0.000000
# 3 -0.000734 -0.006623 0.009489 0.000000 -0.007087 0.000000
# 4 0.000000 0.000000 0.000000 0.050816 0.000000 -0.035064
# 5 -0.003874 -0.011437 -0.007087 0.000000 0.058660 0.000000
# 6 0.000000 0.000000 0.000000 -0.035064 0.000000 0.067802
#
#
# Mechanical properties :
#
#
# Convention : Reuss Voigt Hill
#
# Bulk Modulus (GPa) = 15.99311 44.90501 30.44906
# Shear Modulus (GPa) = 13.95606 26.68237 20.31922
#
# Velocity S-wave (km/s) = 2.54421 3.51790 3.06990
# Velocity P-wave (km/s) = 4.00605 6.10968 5.16607
#
# Compressibility (1/GPa) = 0.06252693
#
# Stress axis : x y z
#
# Youngs Moduli (GPa) = 62.28812 11.65586 105.38488
#
# Poissons Ratio (x) = 0.19871 0.07737
# Poissons Ratio (y) = 1.06190 0.69794
# Poissons Ratio (z) = 0.04573 0.07719
#
# Static dielectric constant tensor:
#      x y z
#    x 1.885900 0.000000 0.003350 
#    y 0.000000 1.852380 0.000000 
#    z 0.003350 0.000000 1.835230 
# 
# From -- ./inp_files/38089.got.cif
#   From: 2010.05.17/outbox.cif.g08.bks.cpg/sg14_20_cif.got.tgz:38089.got - 2010.06.03 17:49:19.
