data_PCOD9239886
_publ_section_title
;
Structure prediction by ZEFSAII (Michael W. Deem and Ramdas Pophale) SiO2 
 PCOD9239886
Probable space group: P 21/C
;
_chemical_formula_sum "Si O2"
_cell_formula_units_Z 24
_cell_length_a 8.969840
_cell_length_b 11.746801
_cell_length_c 11.670375
_cell_angle_alpha 90.000000
_cell_angle_beta 56.859601
_cell_angle_gamma 90.000000
_cell_volume 1029.645112
_symmetry_space_group_name_H-M "P 21/C"
_symmetry_group_IT_number 14
_symmetry_cell_setting 'monoclinic'
loop_
_space_group_symop_operation_xyz
x,y,z
-x,1/2+y,1/2-z
-x,-y,-z
x,1/2-y,1/2+z
loop_
_atom_site_type_symbol
_atom_site_label
_atom_site_fract_x
_atom_site_fract_y
_atom_site_fract_z
Si Si1 0.916481 0.669314 0.950323
Si Si2 0.805433 0.132174 0.219571
Si Si3 0.381478 0.908841 0.909106
Si Si4 0.963864 0.644651 0.178473
Si Si5 0.342730 0.146311 0.024367
Si Si6 0.987708 0.903643 0.176444
O O1 0.926157 0.606881 0.066674
O O2 0.908290 0.778306 0.190230
O O3 0.735732 0.741615 0.003148
O O4 0.071992 0.765612 0.879688
O O5 0.626890 0.131801 0.219271
O O6 0.841602 0.144120 0.341331
O O7 0.881716 0.005773 0.162544
O O8 0.512764 0.839837 0.936468
O O9 0.184767 0.893308 0.044107
O O10 0.414933 0.044879 0.912697
O O11 0.829195 0.599354 0.332092
O O12 0.961365 0.912779 0.325096
#
# Coordination Sequence:
#
# PCOD9239886 Si02
#       6
#     4   4   4   4   4   4
#     4  10  20  36  53  81 112 141 178 226 271 325
#     4  10  19  33  58  78 104 140 188 222 254 322
#     4  11  17  35  58  81 101 140 186 228 262 319
#     4  10  20  35  52  83 109 142 177 225 279 313
#     4   9  21  33  54  82 108 139 180 226 275 318
#     4  10  18  32  60  78 104 144 185 221 266 313
#
# _framework density 23.309004000000002
#
# number of rings (size 3 to 8) (size 9 to 14) (size 15 to 20)
#    0.000    2.333    5.000    1.500    0.000    0.667 
#    6.000    0.000    0.000    1.000    0.000    0.000 
#    0.000    0.000    0.000    0.000    0.000    0.000 
#
# Total GULP energy -133656.201656 kJ/mol
# GULP energy per Si atom -5569.008402 kJ/mol
# Density = 2.325595 g / cm^3
# Si number density = 23.309004 Si / 1000 Ang^3
#
#
#
# Elastic Constant Matrix: (Units=GPa)
#
#
# Indices 1 2 3 4 5 6 
#
# 1 127.5484 14.8079 30.4850 0.0000 49.1507 0.0000
# 2 14.8079 64.7533 -2.5426 0.0000 6.0200 0.0000
# 3 30.4850 -2.5426 86.9761 0.0000 38.0806 0.0000
# 4 0.0000 0.0000 0.0000 26.6621 0.0000 4.7619
# 5 49.1507 6.0200 38.0806 0.0000 40.8788 0.0000
# 6 0.0000 0.0000 0.0000 4.7619 0.0000 25.4501
#
#
#
# Elastic Compliance Matrix: (Units=1/GPa)
#
#
# Indices 1 2 3 4 5 6 
#
# 1 0.015752 -0.001296 0.004475 0.000000 -0.022918 0.000000
# 2 -0.001296 0.016087 0.002161 0.000000 -0.002824 0.000000
# 3 0.004475 0.002161 0.021088 0.000000 -0.025343 0.000000
# 4 0.000000 0.000000 0.000000 0.038803 0.000000 -0.007260
# 5 -0.022918 -0.002824 -0.025343 0.000000 0.076042 0.000000
# 6 0.000000 0.000000 0.000000 -0.007260 0.000000 0.040651
#
#
# Mechanical properties :
#
#
# Convention : Reuss Voigt Hill
#
# Bulk Modulus (GPa) = 15.72155 40.53094 28.12624
# Shear Modulus (GPa) = 22.83668 34.36672 28.60170
#
# Velocity S-wave (km/s) = 3.13347 3.84395 3.50675
# Velocity P-wave (km/s) = 4.45545 6.09324 5.33754
#
# Compressibility (1/GPa) = 0.06360698
#
# Stress axis : x y z
#
# Youngs Moduli (GPa) = 63.48260 62.16212 47.42009
#
# Poissons Ratio (x) = 0.08056 -0.21220
# Poissons Ratio (y) = 0.08227 -0.10247
# Poissons Ratio (z) = -0.28408 -0.13432
#
# Static dielectric constant tensor:
#      x y z
#    x 1.947730 0.000000 0.057020 
#    y 0.000000 1.954250 0.000000 
#    z 0.057020 0.000000 1.946110 
# 
# From -- ./inp_files/40493.got.cif
#   From: 2010.05.17/outbox.cif.g08.bks.cpg/sg14_21_cif.got.tgz:40493.got - 2010.06.03 17:49:19.
