data_PCOD9239178
_publ_section_title
;
Structure prediction by ZEFSAII (Michael W. Deem and Ramdas Pophale) SiO2 
 PCOD9239178
Probable space group: P 21/C
;
_chemical_formula_sum "Si O2"
_cell_formula_units_Z 28
_cell_length_a 8.099069
_cell_length_b 15.033576
_cell_length_c 8.901267
_cell_angle_alpha 90.000000
_cell_angle_beta 81.899268
_cell_angle_gamma 90.000000
_cell_volume 1072.985882
_symmetry_space_group_name_H-M "P 21/C"
_symmetry_group_IT_number 14
_symmetry_cell_setting 'monoclinic'
loop_
_space_group_symop_operation_xyz
x,y,z
-x,1/2+y,1/2-z
-x,-y,-z
x,1/2-y,1/2+z
loop_
_atom_site_type_symbol
_atom_site_label
_atom_site_fract_x
_atom_site_fract_y
_atom_site_fract_z
Si Si1 0.411746 0.724481 0.795392
Si Si2 0.872899 0.737462 0.678816
Si Si3 0.784924 0.440928 0.121832
Si Si4 0.917734 0.337842 0.608527
Si Si5 0.167266 0.119536 0.548313
Si Si6 0.453125 0.357628 0.522161
Si Si7 0.758195 0.486101 0.481541
O O1 0.355259 0.634084 0.886081
O O2 0.249169 0.786747 0.820475
O O3 0.463980 0.692861 0.626301
O O4 0.555019 0.785013 0.848027
O O5 0.949628 0.808233 0.786149
O O6 0.026305 0.697415 0.561439
O O7 0.783390 0.799044 0.566715
O O8 0.803586 0.655584 0.787515
O O9 0.757312 0.527741 0.022750
O O10 0.786267 0.466294 0.299984
O O11 0.966457 0.398400 0.063830
O O12 0.885936 0.441981 0.583239
O O13 0.589090 0.432386 0.548339
O O14 0.286977 0.410494 0.501904
#
# Coordination Sequence:
#
# PCOD9239178 Si02
#       7
#     4   4   4   4   4   4   4
#     4  10  17  31  56  80 102 141 184 226 280 330
#     4  10  17  31  52  81 105 149 189 218 271 332
#     4  10  18  32  54  80 112 147 183 227 280 325
#     4  10  16  29  55  78 107 145 179 232 270 330
#     4  10  20  31  54  81 112 148 185 229 270 334
#     4   9  19  31  56  80 103 139 185 233 275 334
#     4   9  17  33  52  77 109 142 181 227 283 322
#
# _framework density 26.095405
#
# number of rings (size 3 to 8) (size 9 to 14) (size 15 to 20)
#    0.000    2.286    4.286    1.714    0.000    0.000 
#    0.000    2.143    3.143    4.286    0.000    0.000 
#    0.000    0.000    0.000    0.000    0.000    0.000 
#
# Total GULP energy -156744.752570 kJ/mol
# GULP energy per Si atom -5598.026878 kJ/mol
# Density = 2.603601 g / cm^3
# Si number density = 26.095405 Si / 1000 Ang^3
#
#
#
# Elastic Constant Matrix: (Units=GPa)
#
#
# Indices 1 2 3 4 5 6 
#
# 1 46.4627 17.4907 9.4524 0.0000 3.6071 0.0000
# 2 17.4907 111.6116 29.1054 0.0000 -2.9456 0.0000
# 3 9.4524 29.1054 103.1787 0.0000 -2.9311 0.0000
# 4 0.0000 0.0000 0.0000 47.6219 0.0000 -8.7301
# 5 3.6071 -2.9456 -2.9311 0.0000 38.4359 0.0000
# 6 0.0000 0.0000 0.0000 -8.7301 0.0000 44.0674
#
#
#
# Elastic Compliance Matrix: (Units=1/GPa)
#
#
# Indices 1 2 3 4 5 6 
#
# 1 0.023247 -0.003385 -0.001247 0.000000 -0.002536 0.000000
# 2 -0.003385 0.010175 -0.002534 0.000000 0.000904 0.000000
# 3 -0.001247 -0.002534 0.010542 0.000000 0.000727 0.000000
# 4 0.000000 0.000000 0.000000 0.021790 0.000000 0.004317
# 5 -0.002536 0.000904 0.000727 0.000000 0.026380 0.000000
# 6 0.000000 0.000000 0.000000 0.004317 0.000000 0.023548
#
#
# Mechanical properties :
#
#
# Convention : Reuss Voigt Hill
#
# Bulk Modulus (GPa) = 33.74781 41.48331 37.61556
# Shear Modulus (GPa) = 35.74196 39.70536 37.72366
#
# Velocity S-wave (km/s) = 3.70491 3.90493 3.80624
# Velocity P-wave (km/s) = 5.59128 6.02185 5.81055
#
# Compressibility (1/GPa) = 0.02963155
#
# Stress axis : x y z
#
# Youngs Moduli (GPa) = 43.01544 98.28148 94.86114
#
# Poissons Ratio (x) = 0.33267 0.11829
# Poissons Ratio (y) = 0.14560 0.24042
# Poissons Ratio (z) = 0.05364 0.24909
#
# Static dielectric constant tensor:
#      x y z
#    x 2.153830 0.000000 -0.008930 
#    y 0.000000 2.036940 0.000000 
#    z -0.008930 0.000000 1.999260 
# 
# From -- ./inp_files/13046.got.cif
#   From: 2010.05.17/outbox.cif.g08.bks.cpg/sg14_7_cif.got.tgz:13046.got - 2010.06.03 17:49:19.
