data_PCOD9239509
_publ_section_title
;
Structure prediction by ZEFSAII (Michael W. Deem and Ramdas Pophale) SiO2 
 PCOD9239509
Probable space group: P 21/C
;
_chemical_formula_sum "Si O2"
_cell_formula_units_Z 24
_cell_length_a 13.679268
_cell_length_b 7.782334
_cell_length_c 18.220736
_cell_angle_alpha 90.000000
_cell_angle_beta 149.654669
_cell_angle_gamma 90.000000
_cell_volume 979.966122
_symmetry_space_group_name_H-M "P 21/C"
_symmetry_group_IT_number 14
_symmetry_cell_setting 'monoclinic'
loop_
_space_group_symop_operation_xyz
x,y,z
-x,1/2+y,1/2-z
-x,-y,-z
x,1/2-y,1/2+z
loop_
_atom_site_type_symbol
_atom_site_label
_atom_site_fract_x
_atom_site_fract_y
_atom_site_fract_z
Si Si1 0.242570 0.986402 0.997795
Si Si2 0.982643 0.159186 0.576346
Si Si3 0.013217 0.079835 0.291604
Si Si4 0.271922 0.896240 0.362812
Si Si5 0.560366 0.864130 0.103361
Si Si6 0.024091 0.657945 0.569760
O O1 0.456542 0.933188 0.111181
O O2 0.132391 0.817041 0.958521
O O3 0.142237 0.033447 0.855461
O O4 0.170842 0.136486 0.006315
O O5 0.931849 0.995407 0.593820
O O6 0.944319 0.182556 0.464588
O O7 0.877409 0.256202 0.709987
O O8 0.199865 0.061928 0.360760
O O9 0.785765 0.837829 0.263467
O O10 0.471923 0.819567 0.520356
O O11 0.214722 0.888417 0.240817
O O12 0.500000 0.000000 0.000000
O O13 0.000000 0.500000 0.500000
#
# Coordination Sequence:
#
# PCOD9239509 Si02
#       6
#     4   4   4   4   4   4
#     4   9  19  38  58  83 126 156 193 246 306 346
#     4  11  19  36  63  87 116 155 203 242 302 358
#     4  10  17  34  62  85 113 157 200 243 293 356
#     4  10  20  37  62  88 120 161 199 247 307 348
#     4  11  20  35  62  92 114 159 207 248 293 365
#     4   9  21  39  60  83 125 164 192 249 315 356
#
# _framework density 24.490642000000001
#
# number of rings (size 3 to 8) (size 9 to 14) (size 15 to 20)
#    0.000    2.000    6.667    0.000    0.000    0.667 
#    0.000   12.500    0.000    0.000    0.000    0.000 
#    0.000    0.000    0.000    0.000    0.000    0.000 
#
# Total GULP energy -133627.820589 kJ/mol
# GULP energy per Si atom -5567.825858 kJ/mol
# Density = 2.443490 g / cm^3
# Si number density = 24.490642 Si / 1000 Ang^3
#
#
#
# Elastic Constant Matrix: (Units=GPa)
#
#
# Indices 1 2 3 4 5 6 
#
# 1 157.4142 31.7257 39.7696 0.0000 -4.9692 0.0000
# 2 31.7257 44.9027 14.4046 0.0000 0.9887 0.0000
# 3 39.7696 14.4046 72.7643 0.0000 -5.3818 0.0000
# 4 0.0000 0.0000 0.0000 27.4154 0.0000 -6.3396
# 5 -4.9692 0.9887 -5.3818 0.0000 56.8355 0.0000
# 6 0.0000 0.0000 0.0000 -6.3396 0.0000 44.2836
#
#
#
# Elastic Compliance Matrix: (Units=1/GPa)
#
#
# Indices 1 2 3 4 5 6 
#
# 1 0.008199 -0.004673 -0.003522 0.000000 0.000465 0.000000
# 2 -0.004673 0.026487 -0.002773 0.000000 -0.001132 0.000000
# 3 -0.003522 -0.002773 0.016312 0.000000 0.001285 0.000000
# 4 0.000000 0.000000 0.000000 0.037725 0.000000 0.005401
# 5 0.000465 -0.001132 0.001285 0.000000 0.017777 0.000000
# 6 0.000000 0.000000 0.000000 0.005401 0.000000 0.023355
#
#
# Mechanical properties :
#
#
# Convention : Reuss Voigt Hill
#
# Bulk Modulus (GPa) = 34.40958 49.65345 42.03151
# Shear Modulus (GPa) = 30.96422 38.31897 34.64160
#
# Velocity S-wave (km/s) = 3.55960 3.95984 3.76504
# Velocity P-wave (km/s) = 5.56551 6.42072 6.00835
#
# Compressibility (1/GPa) = 0.02906167
#
# Stress axis : x y z
#
# Youngs Moduli (GPa) = 121.96691 37.75463 61.30564
#
# Poissons Ratio (x) = 0.17644 0.21590
# Poissons Ratio (y) = 0.57000 0.16999
# Poissons Ratio (z) = 0.42952 0.10469
#
# Static dielectric constant tensor:
#      x y z
#    x 2.082690 0.000000 -0.121660 
#    y 0.000000 1.917250 0.000000 
#    z -0.121660 0.000000 2.378200 
# 
# From -- ./inp_files/44829.got.cif
#   From: 2010.05.17/outbox.cif.g08.bks.cpg/sg14_23_cif.got.tgz:44829.got - 2010.06.03 17:49:19.
