data_PCOD9239997
_publ_section_title
;
Structure prediction by ZEFSAII (Michael W. Deem and Ramdas Pophale) SiO2 
 PCOD9239997
Probable space group: P 21/C
;
_chemical_formula_sum "Si O2"
_cell_formula_units_Z 28
_cell_length_a 15.431862
_cell_length_b 17.545077
_cell_length_c 5.849537
_cell_angle_alpha 90.000000
_cell_angle_beta 51.470829
_cell_angle_gamma 90.000000
_cell_volume 1238.977727
_symmetry_space_group_name_H-M "P 21/C"
_symmetry_group_IT_number 14
_symmetry_cell_setting 'monoclinic'
loop_
_space_group_symop_operation_xyz
x,y,z
-x,1/2+y,1/2-z
-x,-y,-z
x,1/2-y,1/2+z
loop_
_atom_site_type_symbol
_atom_site_label
_atom_site_fract_x
_atom_site_fract_y
_atom_site_fract_z
Si Si1 0.354325 0.185429 0.947542
Si Si2 0.041014 0.430357 0.082520
Si Si3 0.250000 0.078813 0.500000
Si Si4 0.541014 0.930357 0.582520
Si Si5 0.424724 0.720441 0.363247
Si Si6 0.924724 0.220441 0.863247
Si Si7 0.145675 0.314571 0.552458
O O1 0.308603 0.132208 0.219527
O O2 0.250000 0.225424 0.000000
O O3 0.401038 0.126309 0.688796
O O4 0.453830 0.239918 0.850546
O O5 0.098962 0.373691 0.811204
O O6 0.141308 0.461724 0.075789
O O7 0.000000 0.500000 0.000000
O O8 0.948699 0.371484 0.340727
O O9 0.358692 0.038276 0.424211
O O10 0.191397 0.132208 0.780473
O O11 0.448699 0.871484 0.840727
O O12 0.500000 0.000000 0.500000
O O13 0.377013 0.754348 0.686507
O O14 0.877013 0.245652 0.686507
O O15 0.046170 0.260082 0.649454
#
# Coordination Sequence:
#
# PCOD9239997 Si02
#       7
#     4   4   4   4   4   4   4
#     4   9  19  31  52  77 106 138 174 213 269 329
#     4  10  21  33  49  77 110 143 176 216 268 321
#     4  10  18  34  50  74 110 140 174 212 268 320
#     4  10  21  33  49  77 110 143 176 216 268 321
#     4  10  19  33  50  78 106 140 174 216 264 324
#     4  10  19  33  50  78 106 140 174 216 264 324
#     4   9  19  31  52  77 106 138 174 213 269 329
#
# _framework density 22.599274999999999
#
# number of rings (size 3 to 8) (size 9 to 14) (size 15 to 20)
#    0.000    2.286    2.857    0.000    2.000    4.571 
#    0.000    0.000    0.000    0.000    0.000    8.000 
#    0.000    0.000    0.000    0.000    0.000    0.000 
#
# Total GULP energy -155888.552428 kJ/mol
# GULP energy per Si atom -5567.448301 kJ/mol
# Density = 2.254784 g / cm^3
# Si number density = 22.599275 Si / 1000 Ang^3
#
#
#
# Elastic Constant Matrix: (Units=GPa)
#
#
# Indices 1 2 3 4 5 6 
#
# 1 91.3330 49.7902 15.1974 0.0000 39.9774 0.0000
# 2 49.7902 78.5206 -16.8971 0.0000 10.6573 0.0000
# 3 15.1974 -16.8971 77.1104 0.0000 20.8281 0.0000
# 4 0.0000 0.0000 0.0000 4.0907 0.0000 20.5042
# 5 39.9774 10.6573 20.8281 0.0000 31.2558 0.0000
# 6 0.0000 0.0000 0.0000 20.5042 0.0000 39.4549
#
#
#
# Elastic Compliance Matrix: (Units=1/GPa)
#
#
# Indices 1 2 3 4 5 6 
#
# 1 0.043974 -0.021270 -0.000115 0.000000 -0.048916 0.000000
# 2 -0.021270 0.025491 0.005826 0.000000 0.014631 0.000000
# 3 -0.000115 0.005826 0.018005 0.000000 -0.013838 0.000000
# 4 0.000000 0.000000 0.000000 -0.152321 0.000000 0.079159
# 5 -0.048916 0.014631 -0.013838 0.000000 0.098792 0.000000
# 6 0.000000 0.000000 0.000000 0.079159 0.000000 -0.015793
#
#
# Mechanical properties :
#
#
# Convention : Reuss Voigt Hill
#
# Bulk Modulus (GPa) = 17.74566 38.12720 27.93643
# Shear Modulus (GPa) = 73.47497 28.21851 50.84674
#
# Velocity S-wave (km/s) = 5.70812 3.53745 4.74849
# Velocity P-wave (km/s) = 7.16330 5.79589 6.51557
#
# Compressibility (1/GPa) = 0.05635179
#
# Stress axis : x y z
#
# Youngs Moduli (GPa) = 22.74051 39.23020 55.53930
#
# Poissons Ratio (x) = 0.83442 0.00639
# Poissons Ratio (y) = 0.48369 -0.32355
# Poissons Ratio (z) = 0.00262 -0.22854
#
# Static dielectric constant tensor:
#      x y z
#    x 1.985840 0.000000 0.093120 
#    y 0.000000 1.815530 0.000000 
#    z 0.093120 0.000000 1.983350 
# 
# From -- ./inp_files/3724.got.cif
#   From: 2010.05.17/outbox.cif.g08.bks.cpg/sg14_2_cif.got.tgz:3724.got - 2010.06.03 17:49:19.
