data_PCOD9239129
_publ_section_title
;
Structure prediction by ZEFSAII (Michael W. Deem and Ramdas Pophale) SiO2 
 PCOD9239129
Probable space group: P 21/C
;
_chemical_formula_sum "Si O2"
_cell_formula_units_Z 28
_cell_length_a 13.832857
_cell_length_b 8.949110
_cell_length_c 18.261531
_cell_angle_alpha 90.000000
_cell_angle_beta 146.409280
_cell_angle_gamma 90.000000
_cell_volume 1250.706914
_symmetry_space_group_name_H-M "P 21/C"
_symmetry_group_IT_number 14
_symmetry_cell_setting 'monoclinic'
loop_
_space_group_symop_operation_xyz
x,y,z
-x,1/2+y,1/2-z
-x,-y,-z
x,1/2-y,1/2+z
loop_
_atom_site_type_symbol
_atom_site_label
_atom_site_fract_x
_atom_site_fract_y
_atom_site_fract_z
Si Si1 0.471530 0.170900 0.016033
Si Si2 0.814544 0.166179 0.168116
Si Si3 0.189532 0.425007 0.101439
Si Si4 0.149157 0.149960 0.731340
Si Si5 0.006020 0.313902 0.400199
Si Si6 0.168938 0.627589 0.488173
Si Si7 0.661655 0.274107 0.781342
O O1 0.634570 0.245162 0.078164
O O2 0.511119 0.198702 0.126380
O O3 0.282881 0.224524 0.872232
O O4 0.500000 0.000000 0.000000
O O5 0.786965 0.110365 0.069044
O O6 0.959868 0.283914 0.285897
O O7 0.865923 0.020573 0.249621
O O8 0.245247 0.354687 0.213742
O O9 0.310823 0.564891 0.163515
O O10 0.156579 0.299017 0.021503
O O11 0.000000 0.500000 0.000000
O O12 0.969423 0.234887 0.603487
O O13 0.065979 0.481902 0.449394
O O14 0.834397 0.273233 0.341486
O O15 0.327258 0.661652 0.643396
#
# Coordination Sequence:
#
# PCOD9239129 Si02
#       7
#     4   4   4   4   4   4   4
#     4   9  18  36  63  77 103 149 202 219 259 339
#     4  10  20  37  55  80 114 149 183 232 284 329
#     4  10  15  31  58  81 101 141 204 225 249 326
#     4  11  19  35  62  84 100 151 195 228 263 340
#     4  10  19  33  53  85 111 143 188 231 270 340
#     4  12  22  31  58  86 120 137 180 243 295 311
#     4  10  18  34  56  83 108 147 189 231 267 338
#
# _framework density 22.387338
#
# number of rings (size 3 to 8) (size 9 to 14) (size 15 to 20)
#    0.000    1.714    8.571    1.286    0.000    0.000 
#    0.000    2.857    9.429    0.000    0.000    0.000 
#    0.000    0.000    0.000    0.000    0.000    0.000 
#
# Total GULP energy -155965.367288 kJ/mol
# GULP energy per Si atom -5570.191689 kJ/mol
# Density = 2.233638 g / cm^3
# Si number density = 22.387338 Si / 1000 Ang^3
#
#
#
# Elastic Constant Matrix: (Units=GPa)
#
#
# Indices 1 2 3 4 5 6 
#
# 1 41.3240 4.0257 14.7677 0.0000 -20.7931 0.0000
# 2 4.0257 29.9597 29.5318 0.0000 -4.4587 0.0000
# 3 14.7677 29.5318 152.5308 0.0000 -37.9290 0.0000
# 4 0.0000 0.0000 0.0000 24.7941 0.0000 -6.0076
# 5 -20.7931 -4.4587 -37.9290 0.0000 31.4067 0.0000
# 6 0.0000 0.0000 0.0000 -6.0076 0.0000 16.2520
#
#
#
# Elastic Compliance Matrix: (Units=1/GPa)
#
#
# Indices 1 2 3 4 5 6 
#
# 1 0.038363 -0.005489 0.004960 0.000000 0.030609 0.000000
# 2 -0.005489 0.042691 -0.010191 0.000000 -0.009880 0.000000
# 3 0.004960 -0.010191 0.012156 0.000000 0.016518 0.000000
# 4 0.000000 0.000000 0.000000 0.044300 0.000000 0.016375
# 5 0.030609 -0.009880 0.016518 0.000000 0.070651 0.000000
# 6 0.000000 0.000000 0.000000 0.016375 0.000000 0.067584
#
#
# Mechanical properties :
#
#
# Convention : Reuss Voigt Hill
#
# Bulk Modulus (GPa) = 13.93326 35.60722 24.77024
# Shear Modulus (GPa) = 15.57110 26.18984 20.88047
#
# Velocity S-wave (km/s) = 2.64015 3.42402 3.05731
# Velocity P-wave (km/s) = 3.94095 5.61885 4.85297
#
# Compressibility (1/GPa) = 0.07177071
#
# Stress axis : x y z
#
# Youngs Moduli (GPa) = 26.06683 23.42433 82.26158
#
# Poissons Ratio (x) = 0.12856 -0.40801
# Poissons Ratio (y) = 0.14307 0.83832
# Poissons Ratio (z) = -0.12929 0.23872
#
# Static dielectric constant tensor:
#      x y z
#    x 1.953760 0.000000 -0.002100 
#    y 0.000000 1.860020 0.000000 
#    z -0.002100 0.000000 1.905490 
# 
# From -- ./inp_files/69098.got.cif
#   From: 2010.05.17/outbox.cif.g08.bks.cpg/sg14_35_cif.got.tgz:69098.got - 2010.06.03 17:49:19.
