data_PCOD9239594
_publ_section_title
;
Structure prediction by ZEFSAII (Michael W. Deem and Ramdas Pophale) SiO2 
 PCOD9239594
Probable space group: P 21/C
;
_chemical_formula_sum "Si O2"
_cell_formula_units_Z 32
_cell_length_a 10.092598
_cell_length_b 15.861478
_cell_length_c 16.554515
_cell_angle_alpha 90.000000
_cell_angle_beta 144.008809
_cell_angle_gamma 90.000000
_cell_volume 1557.363020
_symmetry_space_group_name_H-M "P 21/C"
_symmetry_group_IT_number 14
_symmetry_cell_setting 'monoclinic'
loop_
_space_group_symop_operation_xyz
x,y,z
-x,1/2+y,1/2-z
-x,-y,-z
x,1/2-y,1/2+z
loop_
_atom_site_type_symbol
_atom_site_label
_atom_site_fract_x
_atom_site_fract_y
_atom_site_fract_z
Si Si1 0.227413 0.885475 0.911141
Si Si2 0.708301 0.591692 0.718175
Si Si3 0.235009 0.603762 0.231591
Si Si4 0.289338 0.957637 0.220414
Si Si5 0.666013 0.798293 0.916253
Si Si6 0.067941 0.418994 0.330302
Si Si7 0.257134 0.383589 0.079898
Si Si8 0.024401 0.130296 0.061734
O O1 0.197040 0.861096 0.803455
O O2 0.066474 0.841080 0.896708
O O3 0.169696 0.986014 0.889163
O O4 0.484328 0.874135 0.064735
O O5 0.673391 0.491101 0.713580
O O6 0.910321 0.601773 0.753405
O O7 0.738693 0.628311 0.821672
O O8 0.420660 0.661995 0.281072
O O9 0.996333 0.597444 0.070550
O O10 0.557356 0.954145 0.349896
O O11 0.174275 0.923379 0.245789
O O12 0.188427 0.901510 0.096882
O O13 0.186063 0.049561 0.154388
O O14 0.657740 0.699096 0.925711
O O15 0.831986 0.807907 0.921964
O O16 0.781042 0.854056 0.043411
#
# Coordination Sequence:
#
# PCOD9239594 Si02
#       8
#     4   4   4   4   4   4   4   4
#     4  10  17  37  67  92 105 154 214 245 278 350
#     4  11  19  40  63  92 113 158 211 246 286 354
#     4  11  23  40  61  90 123 157 200 253 297 353
#     4   9  18  35  60  87 110 155 198 245 293 339
#     4  11  22  38  57  88 124 161 196 240 310 358
#     4   9  18  36  66  86 109 152 211 246 276 356
#     4  12  26  36  57  91 131 154 189 252 319 353
#     4   9  18  35  63  84 111 152 211 243 269 361
#
# _framework density 20.547554000000002
#
# number of rings (size 3 to 8) (size 9 to 14) (size 15 to 20)
#    0.000    1.750    3.750    2.625    3.500    0.000 
#    2.250    6.875    0.000    0.000    0.000    0.000 
#    0.000    0.000    0.000    0.000    0.000    0.000 
#
# Total GULP energy -178662.085962 kJ/mol
# GULP energy per Si atom -5583.190186 kJ/mol
# Density = 2.050079 g / cm^3
# Si number density = 20.547554 Si / 1000 Ang^3
#
#
#
# Elastic Constant Matrix: (Units=GPa)
#
#
# Indices 1 2 3 4 5 6 
#
# 1 73.3983 -5.8201 16.2546 0.0000 -11.5097 0.0000
# 2 -5.8201 10.1491 -19.2794 0.0000 0.8011 0.0000
# 3 16.2546 -19.2794 74.0462 0.0000 5.7955 0.0000
# 4 0.0000 0.0000 0.0000 4.4963 0.0000 -4.1887
# 5 -11.5097 0.8011 5.7955 0.0000 26.5873 0.0000
# 6 0.0000 0.0000 0.0000 -4.1887 0.0000 13.2804
#
#
#
# Elastic Compliance Matrix: (Units=1/GPa)
#
#
# Indices 1 2 3 4 5 6 
#
# 1 0.015739 0.001464 -0.003666 0.000000 0.007569 0.000000
# 2 0.001464 0.203175 0.053929 0.000000 -0.017244 0.000000
# 3 -0.003666 0.053929 0.029099 0.000000 -0.009555 0.000000
# 4 0.000000 0.000000 0.000000 0.314940 0.000000 0.099332
# 5 0.007569 -0.017244 -0.009555 0.000000 0.043491 0.000000
# 6 0.000000 0.000000 0.000000 0.099332 0.000000 0.106628
#
#
# Mechanical properties :
#
#
# Convention : Reuss Voigt Hill
#
# Bulk Modulus (GPa) = 2.84523 15.54486 9.19504
# Shear Modulus (GPa) = 6.87971 19.96871 13.42421
#
# Velocity S-wave (km/s) = 1.83179 3.12080 2.55879
# Velocity P-wave (km/s) = 2.42109 4.53515 3.63519
#
# Compressibility (1/GPa) = 0.35146589
#
# Stress axis : x y z
#
# Youngs Moduli (GPa) = 63.53585 4.92187 34.36527
#
# Poissons Ratio (x) = -0.00721 0.12599
# Poissons Ratio (y) = -0.09301 -1.85328
# Poissons Ratio (z) = 0.23294 -0.26543
#
# Static dielectric constant tensor:
#      x y z
#    x 1.767040 0.000000 -0.009100 
#    y 0.000000 1.753780 0.000000 
#    z -0.009100 0.000000 1.704160 
# 
# From -- ./inp_files/58113.got.cif
#   From: 2010.05.17/outbox.cif.g08.bks.cpg/sg14_30_cif.got.tgz:58113.got - 2010.06.03 17:49:19.
