data_PCOD9239780
_publ_section_title
;
Structure prediction by ZEFSAII (Michael W. Deem and Ramdas Pophale) SiO2 
 PCOD9239780
Probable space group: P 21/C
;
_chemical_formula_sum "Si O2"
_cell_formula_units_Z 20
_cell_length_a 9.023400
_cell_length_b 19.610940
_cell_length_c 5.410378
_cell_angle_alpha 90.000000
_cell_angle_beta 101.512536
_cell_angle_gamma 90.000000
_cell_volume 938.144189
_symmetry_space_group_name_H-M "P 21/C"
_symmetry_group_IT_number 14
_symmetry_cell_setting 'monoclinic'
loop_
_space_group_symop_operation_xyz
x,y,z
-x,1/2+y,1/2-z
-x,-y,-z
x,1/2-y,1/2+z
loop_
_atom_site_type_symbol
_atom_site_label
_atom_site_fract_x
_atom_site_fract_y
_atom_site_fract_z
Si Si1 0.128657 0.267035 0.014988
Si Si2 0.466511 0.212550 0.138636
Si Si3 0.447306 0.924720 0.072011
Si Si4 0.176427 0.493611 0.513328
Si Si5 0.732663 0.916804 0.459799
O O1 0.043583 0.252026 0.238553
O O2 0.282262 0.220230 0.073319
O O3 0.187087 0.343944 0.025705
O O4 0.516984 0.244244 0.414866
O O5 0.515968 0.135465 0.105635
O O6 0.554217 0.909145 0.341750
O O7 0.270214 0.935790 0.055555
O O8 0.500000 0.000000 0.000000
O O9 0.203962 0.460098 0.252632
O O10 0.000000 0.500000 0.500000
O O11 0.239657 0.450094 0.765865
#
# Coordination Sequence:
#
# PCOD9239780 Si02
#       5
#     4   4   4   4   4
#     4  10  18  31  57  88 120 146 194 254 314 346
#     4  10  20  33  56  89 126 150 190 255 323 349
#     4  10  22  37  64  97 118 158 212 260 298 364
#     4  11  25  41  59  87 131 166 202 253 315 363
#     4  11  21  38  64  90 116 160 213 253 300 362
#
# _framework density 21.318687000000001
#
# number of rings (size 3 to 8) (size 9 to 14) (size 15 to 20)
#    0.000    1.600    4.000    2.400    8.400    3.200 
#    0.000    0.000    0.000    7.200    0.000    0.000 
#    0.000    0.000    0.000    0.000    0.000    0.000 
#
# Total GULP energy -111675.737086 kJ/mol
# GULP energy per Si atom -5583.786854 kJ/mol
# Density = 2.127017 g / cm^3
# Si number density = 21.318687 Si / 1000 Ang^3
#
#
#
# Elastic Constant Matrix: (Units=GPa)
#
#
# Indices 1 2 3 4 5 6 
#
# 1 78.8090 8.5498 14.9109 0.0000 -4.9991 0.0000
# 2 8.5498 88.7741 40.1002 0.0000 -13.8946 0.0000
# 3 14.9109 40.1002 159.5713 0.0000 -23.4581 0.0000
# 4 0.0000 0.0000 0.0000 26.1263 0.0000 -11.8923
# 5 -4.9991 -13.8946 -23.4581 0.0000 14.7650 0.0000
# 6 0.0000 0.0000 0.0000 -11.8923 0.0000 7.6463
#
#
#
# Elastic Compliance Matrix: (Units=1/GPa)
#
#
# Indices 1 2 3 4 5 6 
#
# 1 0.013053 -0.000504 -0.000670 0.000000 0.002882 0.000000
# 2 -0.000504 0.013710 -0.001992 0.000000 0.009567 0.000000
# 3 -0.000670 -0.001992 0.008508 0.000000 0.011416 0.000000
# 4 0.000000 0.000000 0.000000 0.131056 0.000000 0.203831
# 5 0.002882 0.009567 0.011416 0.000000 0.095844 0.000000
# 6 0.000000 0.000000 0.000000 0.203831 0.000000 0.447800
#
#
# Mechanical properties :
#
#
# Convention : Reuss Voigt Hill
#
# Bulk Modulus (GPa) = 34.55279 50.47511 42.51395
# Shear Modulus (GPa) = 6.88754 27.28041 17.08398
#
# Velocity S-wave (km/s) = 1.79938 3.58110 2.83390
# Velocity P-wave (km/s) = 4.53431 6.38959 5.54016
#
# Compressibility (1/GPa) = 0.02894122
#
# Stress axis : x y z
#
# Youngs Moduli (GPa) = 76.61062 72.93853 117.53363
#
# Poissons Ratio (x) = 0.03674 0.07869
# Poissons Ratio (y) = 0.03859 0.23412
# Poissons Ratio (z) = 0.05129 0.14529
#
# Static dielectric constant tensor:
#      x y z
#    x 1.803700 0.000000 -0.033960 
#    y 0.000000 1.794460 0.000000 
#    z -0.033960 0.000000 1.841830 
# 
# From -- ./inp_files/1140.got.cif
#   From: 2010.05.17/outbox.cif.g08.bks.cpg/sg14_1_cif.got.tgz:1140.got - 2010.06.03 17:49:19.
