data_PCOD9239329
_publ_section_title
;
Structure prediction by ZEFSAII (Michael W. Deem and Ramdas Pophale) SiO2 
 PCOD9239329
Probable space group: P 21/C
;
_chemical_formula_sum "Si O2"
_cell_formula_units_Z 32
_cell_length_a 10.472960
_cell_length_b 18.465447
_cell_length_c 21.301172
_cell_angle_alpha 90.000000
_cell_angle_beta 155.881924
_cell_angle_gamma 90.000000
_cell_volume 1683.258112
_symmetry_space_group_name_H-M "P 21/C"
_symmetry_group_IT_number 14
_symmetry_cell_setting 'monoclinic'
loop_
_space_group_symop_operation_xyz
x,y,z
-x,1/2+y,1/2-z
-x,-y,-z
x,1/2-y,1/2+z
loop_
_atom_site_type_symbol
_atom_site_label
_atom_site_fract_x
_atom_site_fract_y
_atom_site_fract_z
Si Si1 0.856331 0.751551 0.054027
Si Si2 0.711699 0.151360 0.166535
Si Si3 0.376250 0.503113 0.158742
Si Si4 0.212344 0.545087 0.956831
Si Si5 0.195393 0.538566 0.393282
Si Si6 0.477074 0.992826 0.842773
Si Si7 0.600027 0.347850 0.211185
Si Si8 0.347503 0.926147 0.386849
O O1 0.030348 0.697631 0.180289
O O2 0.102407 0.805073 0.131162
O O3 0.593830 0.797817 0.972568
O O4 0.694011 0.704251 0.927069
O O5 0.817780 0.115813 0.147913
O O6 0.608279 0.082985 0.162829
O O7 0.535751 0.522854 0.295900
O O8 0.509964 0.424152 0.200532
O O9 0.390787 0.553080 0.102928
O O10 0.000000 0.500000 0.000000
O O11 0.311032 0.594481 0.942800
O O12 0.840168 0.541358 0.797105
O O13 0.325903 0.465710 0.982452
O O14 0.500000 0.500000 0.500000
O O15 0.259915 0.531965 0.496828
O O16 0.908972 0.487225 0.245524
O O17 0.691921 0.362807 0.179671
#
# Coordination Sequence:
#
# PCOD9239329 Si02
#       8
#     4   4   4   4   4   4   4   4
#     4  10  21  33  51  75 105 148 175 216 249 314
#     4  10  19  34  50  78 106 137 180 213 267 321
#     4   9  18  32  53  80 109 134 175 221 270 315
#     4   9  17  27  47  78 103 133 158 206 275 311
#     4  10  18  29  50  78 107 130 162 223 281 305
#     4  10  18  33  54  80 105 135 168 225 281 307
#     4  10  20  34  53  81 106 137 182 215 262 321
#     4  10  17  29  50  79 105 129 166 221 273 311
#
# _framework density 19.010749000000001
#
# number of rings (size 3 to 8) (size 9 to 14) (size 15 to 20)
#    0.000    2.250    2.500    3.750    1.750    0.000 
#    0.000    5.625    0.000    1.500   13.000    0.000 
#    0.000    0.000    0.000    0.000    0.000    0.000 
#
# Total GULP energy -178241.806805 kJ/mol
# GULP energy per Si atom -5570.056463 kJ/mol
# Density = 1.896748 g / cm^3
# Si number density = 19.010749 Si / 1000 Ang^3
#
#
#
# Elastic Constant Matrix: (Units=GPa)
#
#
# Indices 1 2 3 4 5 6 
#
# 1 88.1453 14.3989 22.5968 0.0000 -34.1603 0.0000
# 2 14.3989 61.0582 23.4189 0.0000 -2.1476 0.0000
# 3 22.5968 23.4189 87.2133 0.0000 -9.6133 0.0000
# 4 0.0000 0.0000 0.0000 27.1507 0.0000 6.6552
# 5 -34.1603 -2.1476 -9.6133 0.0000 34.2354 0.0000
# 6 0.0000 0.0000 0.0000 6.6552 0.0000 21.4991
#
#
#
# Elastic Compliance Matrix: (Units=1/GPa)
#
#
# Indices 1 2 3 4 5 6 
#
# 1 0.019739 -0.003152 -0.002186 0.000000 0.018884 0.000000
# 2 -0.003152 0.018764 -0.004580 0.000000 -0.003254 0.000000
# 3 -0.002186 -0.004580 0.013405 0.000000 0.001295 0.000000
# 4 0.000000 0.000000 0.000000 0.039856 0.000000 -0.012338
# 5 0.018884 -0.003254 0.001295 0.000000 0.048211 0.000000
# 6 0.000000 0.000000 0.000000 -0.012338 0.000000 0.050333
#
#
# Mechanical properties :
#
#
# Convention : Reuss Voigt Hill
#
# Bulk Modulus (GPa) = 31.18205 39.69399 35.43802
# Shear Modulus (GPa) = 22.64137 28.31053 25.47595
#
# Velocity S-wave (km/s) = 3.45480 3.86318 3.66468
# Velocity P-wave (km/s) = 5.68789 6.38937 6.04881
#
# Compressibility (1/GPa) = 0.03206973
#
# Stress axis : x y z
#
# Youngs Moduli (GPa) = 50.66235 53.29490 74.59705
#
# Poissons Ratio (x) = 0.16799 0.16309
# Poissons Ratio (y) = 0.15969 0.34169
# Poissons Ratio (z) = 0.11076 0.24412
#
# Static dielectric constant tensor:
#      x y z
#    x 1.728230 0.000000 -0.007550 
#    y 0.000000 1.659830 0.000000 
#    z -0.007550 0.000000 1.763640 
# 
# From -- ./inp_files/73373.got.cif
#   From: 2010.05.17/outbox.cif.g08.bks.cpg/sg14_37_cif.got.tgz:73373.got - 2010.06.03 17:49:19.
