data_PCOD9239403
_publ_section_title
;
Structure prediction by ZEFSAII (Michael W. Deem and Ramdas Pophale) SiO2 
 PCOD9239403
Probable space group: P 21/C
;
_chemical_formula_sum "Si O2"
_cell_formula_units_Z 32
_cell_length_a 16.624597
_cell_length_b 11.022115
_cell_length_c 13.538261
_cell_angle_alpha 90.000000
_cell_angle_beta 35.643576
_cell_angle_gamma 90.000000
_cell_volume 1445.621743
_symmetry_space_group_name_H-M "P 21/C"
_symmetry_group_IT_number 14
_symmetry_cell_setting 'monoclinic'
loop_
_space_group_symop_operation_xyz
x,y,z
-x,1/2+y,1/2-z
-x,-y,-z
x,1/2-y,1/2+z
loop_
_atom_site_type_symbol
_atom_site_label
_atom_site_fract_x
_atom_site_fract_y
_atom_site_fract_z
Si Si1 0.972718 0.520090 0.357974
Si Si2 0.643666 0.382813 0.872946
Si Si3 0.748749 0.354337 0.974887
Si Si4 0.809935 0.342393 0.131353
Si Si5 0.084182 0.226662 0.798369
Si Si6 0.852641 0.735685 0.994788
Si Si7 0.875468 0.099983 0.769414
Si Si8 0.337914 0.335607 0.180386
O O1 0.124235 0.556192 0.170833
O O2 0.997624 0.398314 0.392328
O O3 0.917119 0.637081 0.468687
O O4 0.878626 0.493521 0.356121
O O5 0.641704 0.388593 0.995310
O O6 0.756818 0.286293 0.726772
O O7 0.674480 0.516643 0.799424
O O8 0.496069 0.329004 0.988815
O O9 0.805480 0.219786 0.889808
O O10 0.723784 0.366064 0.117023
O O11 0.805212 0.426241 0.234135
O O12 0.969850 0.327060 0.938934
O O13 0.129745 0.236276 0.639558
O O14 0.224071 0.216662 0.719402
O O15 0.697935 0.752145 0.188154
O O16 0.963455 0.633830 0.914873
#
# Coordination Sequence:
#
# PCOD9239403 Si02
#       8
#     4   4   4   4   4   4   4   4
#     4  10  17  32  52  83 116 133 173 234 270 323
#     4  10  24  37  55  83 107 150 192 223 273 326
#     4  10  19  34  53  80 112 140 183 224 275 326
#     4  11  19  35  56  82 113 138 182 229 275 332
#     4  11  20  33  58  87 110 140 182 229 282 318
#     4  10  20  33  55  85 113 141 180 227 280 319
#     4   9  19  30  51  86 108 139 181 216 285 330
#     4  11  22  38  57  79 111 147 190 228 270 327
#
# _framework density 22.135804
#
# number of rings (size 3 to 8) (size 9 to 14) (size 15 to 20)
#    0.000    1.750    6.250    0.750    0.000    2.500 
#    0.000    0.000    0.000    0.000    0.000    6.125 
#    0.000    0.000    0.000    0.000    0.000    0.000 
#
# Total GULP energy -178342.987623 kJ/mol
# GULP energy per Si atom -5573.218363 kJ/mol
# Density = 2.208542 g / cm^3
# Si number density = 22.135804 Si / 1000 Ang^3
#
#
#
# Elastic Constant Matrix: (Units=GPa)
#
#
# Indices 1 2 3 4 5 6 
#
# 1 110.5715 -7.5475 25.0583 0.0000 16.8053 0.0000
# 2 -7.5475 33.2630 -7.1407 0.0000 -6.6777 0.0000
# 3 25.0583 -7.1407 53.9827 0.0000 -3.8926 0.0000
# 4 0.0000 0.0000 0.0000 22.2767 0.0000 -0.3212
# 5 16.8053 -6.6777 -3.8926 0.0000 27.5117 0.0000
# 6 0.0000 0.0000 0.0000 -0.3212 0.0000 21.4752
#
#
#
# Elastic Compliance Matrix: (Units=1/GPa)
#
#
# Indices 1 2 3 4 5 6 
#
# 1 0.011601 -0.000261 -0.005996 0.000000 -0.007998 0.000000
# 2 -0.000261 0.032880 0.005109 0.000000 0.008863 0.000000
# 3 -0.005996 0.005109 0.022567 0.000000 0.008096 0.000000
# 4 0.000000 0.000000 0.000000 0.044900 0.000000 0.000672
# 5 -0.007998 0.008863 0.008096 0.000000 0.044530 0.000000
# 6 0.000000 0.000000 0.000000 0.000672 0.000000 0.046575
#
#
# Mechanical properties :
#
#
# Convention : Reuss Voigt Hill
#
# Bulk Modulus (GPa) = 15.44307 24.28416 19.86361
# Shear Modulus (GPa) = 22.03297 26.74920 24.39109
#
# Velocity S-wave (km/s) = 3.15835 3.48000 3.32306
# Velocity P-wave (km/s) = 4.50465 5.20975 4.86998
#
# Compressibility (1/GPa) = 0.06475396
#
# Stress axis : x y z
#
# Youngs Moduli (GPa) = 86.20295 30.41322 44.31168
#
# Poissons Ratio (x) = 0.00792 0.26569
# Poissons Ratio (y) = 0.02246 -0.22641
# Poissons Ratio (z) = 0.51688 -0.15539
#
# Static dielectric constant tensor:
#      x y z
#    x 1.889330 0.000000 0.050540 
#    y 0.000000 1.866930 0.000000 
#    z 0.050540 0.000000 1.843720 
# 
# From -- ./inp_files/48985.got.cif
#   From: 2010.05.17/outbox.cif.g08.bks.cpg/sg14_25_cif.got.tgz:48985.got - 2010.06.03 17:49:19.
