data_PCOD9239786
_publ_section_title
;
Structure prediction by ZEFSAII (Michael W. Deem and Ramdas Pophale) SiO2 
 PCOD9239786
Probable space group: P 21/C
;
_chemical_formula_sum "Si O2"
_cell_formula_units_Z 28
_cell_length_a 12.516006
_cell_length_b 20.746191
_cell_length_c 5.351331
_cell_angle_alpha 90.000000
_cell_angle_beta 93.656393
_cell_angle_gamma 90.000000
_cell_volume 1386.695216
_symmetry_space_group_name_H-M "P 21/C"
_symmetry_group_IT_number 14
_symmetry_cell_setting 'monoclinic'
loop_
_space_group_symop_operation_xyz
x,y,z
-x,1/2+y,1/2-z
-x,-y,-z
x,1/2-y,1/2+z
loop_
_atom_site_type_symbol
_atom_site_label
_atom_site_fract_x
_atom_site_fract_y
_atom_site_fract_z
Si Si1 0.724942 0.713171 0.104894
Si Si2 0.289910 0.426070 0.020626
Si Si3 0.200746 0.912964 0.003707
Si Si4 0.613303 0.173309 0.879304
Si Si5 0.525220 0.183352 0.367934
Si Si6 0.382152 0.026205 0.032772
Si Si7 0.888348 0.463263 0.008690
O O1 0.753761 0.739575 0.381695
O O2 0.595365 0.703769 0.088173
O O3 0.764875 0.642041 0.046194
O O4 0.346461 0.427578 0.298563
O O5 0.202691 0.481949 0.006994
O O6 0.369710 0.441084 0.802409
O O7 0.266403 0.847050 0.045897
O O8 0.295523 0.967340 0.016726
O O9 0.126294 0.926636 0.231242
O O10 0.137036 0.919334 0.735884
O O11 0.575246 0.145248 0.607689
O O12 0.591194 0.249559 0.851043
O O13 0.541129 0.151008 0.102350
O O14 0.500000 0.000000 0.000000
O O15 0.000000 0.500000 0.000000
#
# Coordination Sequence:
#
# PCOD9239786 Si02
#       7
#     4   4   4   4   4   4   4
#     4  12  21  35  52  80 110 150 203 213 266 328
#     4  10  23  36  54  82 111 145 195 237 273 337
#     4  10  21  33  57  86 105 144 185 224 280 351
#     4  10  18  32  47  75 111 139 193 212 255 318
#     4  10  19  30  47  74 109 158 180 211 253 314
#     4  10  21  34  49  79 120 151 173 218 287 335
#     4  10  21  42  60  83 108 138 193 244 301 340
#
# _framework density 20.191890999999998
#
# number of rings (size 3 to 8) (size 9 to 14) (size 15 to 20)
#    0.000    1.714    2.857    2.571    4.000    0.000 
#    0.000    0.000    0.000    0.000   22.286    0.000 
#    0.000    0.000    0.000    0.000    0.000    0.000 
#
# Total GULP energy -156379.739114 kJ/mol
# GULP energy per Si atom -5584.990683 kJ/mol
# Density = 2.014593 g / cm^3
# Si number density = 20.191891 Si / 1000 Ang^3
#
#
#
# Elastic Constant Matrix: (Units=GPa)
#
#
# Indices 1 2 3 4 5 6 
#
# 1 41.0215 -10.8601 23.0350 0.0000 -7.4047 0.0000
# 2 -10.8601 40.7550 5.9883 0.0000 -3.2911 0.0000
# 3 23.0350 5.9883 155.6328 0.0000 -14.0718 0.0000
# 4 0.0000 0.0000 0.0000 25.7265 0.0000 4.1070
# 5 -7.4047 -3.2911 -14.0718 0.0000 16.3273 0.0000
# 6 0.0000 0.0000 0.0000 4.1070 0.0000 20.5557
#
#
#
# Elastic Compliance Matrix: (Units=1/GPa)
#
#
# Indices 1 2 3 4 5 6 
#
# 1 0.031557 0.010028 -0.003882 0.000000 0.012987 0.000000
# 2 0.010028 0.028173 -0.001782 0.000000 0.008690 0.000000
# 3 -0.003882 -0.001782 0.007458 0.000000 0.004308 0.000000
# 4 0.000000 0.000000 0.000000 0.040151 0.000000 -0.008022
# 5 0.012987 0.008690 0.004308 0.000000 0.072601 0.000000
# 6 0.000000 0.000000 0.000000 -0.008022 0.000000 0.050251
#
#
# Mechanical properties :
#
#
# Convention : Reuss Voigt Hill
#
# Bulk Modulus (GPa) = 13.17280 30.41509 21.79394
# Shear Modulus (GPa) = 20.26187 27.13831 23.70009
#
# Velocity S-wave (km/s) = 3.17119 3.67007 3.42971
# Velocity P-wave (km/s) = 4.46616 5.74934 5.14789
#
# Compressibility (1/GPa) = 0.07591403
#
# Stress axis : x y z
#
# Youngs Moduli (GPa) = 31.68916 35.49529 134.08298
#
# Poissons Ratio (x) = -0.35595 0.52054
# Poissons Ratio (y) = -0.31778 0.23900
# Poissons Ratio (z) = 0.12303 0.06327
#
# Static dielectric constant tensor:
#      x y z
#    x 1.677230 0.000000 -0.004720 
#    y 0.000000 1.777520 0.000000 
#    z -0.004720 0.000000 1.784000 
# 
# From -- ./inp_files/2866.got.cif
#   From: 2010.05.17/outbox.cif.g08.bks.cpg/sg14_2_cif.got.tgz:2866.got - 2010.06.03 17:49:19.
