data_PCOD9239065
_publ_section_title
;
Structure prediction by ZEFSAII (Michael W. Deem and Ramdas Pophale) SiO2 
 PCOD9239065
Probable space group: P 2/C
;
_chemical_formula_sum "Si O2"
_cell_formula_units_Z 28
_cell_length_a 27.000000
_cell_length_b 9.000000
_cell_length_c 9.000000
_cell_angle_alpha 90.000000
_cell_angle_beta 40.000000
_cell_angle_gamma 90.000000
_cell_volume 1405.776502
_symmetry_space_group_name_H-M "P 2/C"
_symmetry_group_IT_number 13
_symmetry_cell_setting 'monoclinic'
loop_
_space_group_symop_operation_xyz
x,y,z
-x,y,1/2-z
-x,-y,-z
x,-y,1/2+z
loop_
_atom_site_type_symbol
_atom_site_label
_atom_site_fract_x
_atom_site_fract_y
_atom_site_fract_z
Si Si1 0.088350 0.000844 0.592496
Si Si2 0.437898 0.534089 0.514852
Si Si3 0.083001 0.651629 0.122857
Si Si4 0.703992 0.254515 0.071588
Si Si5 0.823185 0.489925 0.352877
Si Si6 0.309351 0.709947 0.232717
Si Si7 0.790555 0.964267 0.948508
O O1 0.080118 0.172453 0.665864
O O2 0.144008 0.916236 0.580708
O O3 0.000000 0.952514 0.750000
O O4 0.149159 0.007091 0.320286
O O5 0.500000 0.500000 0.500000
O O6 0.372595 0.660446 0.692697
O O7 0.385992 0.385647 0.596792
O O8 0.500000 0.581340 0.250000
O O9 0.108297 0.556807 0.206244
O O10 0.000000 0.609297 0.250000
O O11 0.144247 0.614568 0.851917
O O12 0.740123 0.116290 0.080037
O O13 0.773192 0.373485 0.906678
O O14 0.684621 0.217759 0.944410
O O15 0.761269 0.405978 0.597574
O O16 0.275473 0.839184 0.416663
#
# Coordination Sequence:
#
# PCOD9239065 Si02
#       7
#     4   4   4   4   4   4   4
#     4  11  24  39  59  90 132 177 218 273 318 357
#     4  11  24  45  73  98 128 157 199 254 323 390
#     4  11  22  36  55  86 123 161 213 274 319 354
#     4  11  23  40  67  93 125 166 204 255 316 379
#     4  11  21  38  59  87 116 165 212 260 313 369
#     4  11  23  40  67  93 126 164 206 258 311 374
#     4  12  23  42  64  92 130 172 224 256 310 382
#
# _framework density 19.917818
#
# number of rings (size 3 to 8) (size 9 to 14) (size 15 to 20)
#    0.000    0.857    7.143    0.857    0.000    1.143 
#    0.000    2.857    0.000    0.000    0.000    0.000 
#    0.000    0.000    0.000    0.000    0.000    0.000 
#
# Total GULP energy -155891.296649 kJ/mol
# GULP energy per Si atom -5567.546309 kJ/mol
# Density = 1.987248 g / cm^3
# Si number density = 19.917818 Si / 1000 Ang^3
#
#
#
# Elastic Constant Matrix: (Units=GPa)
#
#
# Indices 1 2 3 4 5 6 
#
# 1 53.6343 1.3224 -12.3901 0.0000 -20.7578 0.0000
# 2 1.3224 47.0348 -6.5872 0.0000 -24.9424 0.0000
# 3 -12.3901 -6.5872 58.3003 0.0000 -15.4842 0.0000
# 4 0.0000 0.0000 0.0000 27.8507 0.0000 -9.5704
# 5 -20.7578 -24.9424 -15.4842 0.0000 40.8077 0.0000
# 6 0.0000 0.0000 0.0000 -9.5704 0.0000 19.9299
#
#
#
# Elastic Compliance Matrix: (Units=1/GPa)
#
#
# Indices 1 2 3 4 5 6 
#
# 1 0.042099 0.027524 0.024702 0.000000 0.047611 0.000000
# 2 0.027524 0.055204 0.027543 0.000000 0.058193 0.000000
# 3 0.024702 0.027543 0.037057 0.000000 0.043461 0.000000
# 4 0.000000 0.000000 0.000000 0.043001 0.000000 0.020649
# 5 0.047611 0.058193 0.043461 0.000000 0.100783 0.000000
# 6 0.000000 0.000000 0.000000 0.020649 0.000000 0.060092
#
#
# Mechanical properties :
#
#
# Convention : Reuss Voigt Hill
#
# Bulk Modulus (GPa) = 3.40255 13.73995 8.57125
# Shear Modulus (GPa) = 18.07233 29.49261 23.78247
#
# Velocity S-wave (km/s) = 3.01548 3.85218 3.45922
# Velocity P-wave (km/s) = 3.71970 5.16711 4.50196
#
# Compressibility (1/GPa) = 0.29389722
#
# Stress axis : x y z
#
# Youngs Moduli (GPa) = 23.75338 18.11465 26.98527
#
# Poissons Ratio (x) = -0.49858 -0.66659
# Poissons Ratio (y) = -0.65378 -0.74324
# Poissons Ratio (z) = -0.58676 -0.49892
#
# Static dielectric constant tensor:
#      x y z
#    x 2.072570 0.000000 0.311690 
#    y 0.000000 1.734210 0.000000 
#    z 0.311690 0.000000 1.864690 
# 
# From -- ./inp_files/24504.got.cif
#   From: 2010.05.17/outbox.ucp.g08.bks.cvg/sg13_13_cif.got.tgz:24504.got - 2010.06.11 12:23:55.
