data_PCOD9239545
_publ_section_title
;
Structure prediction by ZEFSAII (Michael W. Deem and Ramdas Pophale) SiO2 
 PCOD9239545
Probable space group: P 21/C
;
_chemical_formula_sum "Si O2"
_cell_formula_units_Z 24
_cell_length_a 12.855765
_cell_length_b 18.049159
_cell_length_c 7.874707
_cell_angle_alpha 90.000000
_cell_angle_beta 140.164540
_cell_angle_gamma 90.000000
_cell_volume 1170.485686
_symmetry_space_group_name_H-M "P 21/C"
_symmetry_group_IT_number 14
_symmetry_cell_setting 'monoclinic'
loop_
_space_group_symop_operation_xyz
x,y,z
-x,1/2+y,1/2-z
-x,-y,-z
x,1/2-y,1/2+z
loop_
_atom_site_type_symbol
_atom_site_label
_atom_site_fract_x
_atom_site_fract_y
_atom_site_fract_z
Si Si1 0.433205 0.916296 0.899772
Si Si2 0.842241 0.040985 0.226917
Si Si3 0.371979 0.407453 0.683406
Si Si4 0.364777 0.363786 0.034325
Si Si5 0.045328 0.149394 0.282622
Si Si6 0.822690 0.718818 0.709993
O O1 0.488411 0.892286 0.781637
O O2 0.247756 0.920241 0.726826
O O3 0.524447 0.871646 0.162442
O O4 0.500000 0.000000 0.000000
O O5 0.721524 0.981537 0.990595
O O6 0.000000 0.000000 0.500000
O O7 0.896664 0.100323 0.154068
O O8 0.237812 0.341937 0.498581
O O9 0.429891 0.404437 0.949607
O O10 0.185013 0.395426 0.856520
O O11 0.323600 0.277569 0.949940
O O12 0.132630 0.175502 0.565518
O O13 0.030449 0.227138 0.163816
#
# Coordination Sequence:
#
# PCOD9239545 Si02
#       6
#     4   4   4   4   4   4
#     4  10  22  39  60  88 122 156 203 258 304 363
#     4  11  22  38  62  89 132 167 200 253 316 369
#     4  11  20  38  66  91 119 167 209 260 308 365
#     4  10  20  36  65  89 114 156 215 252 298 370
#     4  10  19  36  61  90 118 162 211 247 311 375
#     4  10  17  35  64  85 117 160 209 249 302 375
#
# _framework density 20.504308000000002
#
# number of rings (size 3 to 8) (size 9 to 14) (size 15 to 20)
#    1.000    0.667    5.000    1.000    0.000    3.333 
#    0.000    3.333    0.000    0.000    0.000    0.000 
#    0.000    0.000    0.000    0.000    0.000    0.000 
#
# Total GULP energy -133675.554288 kJ/mol
# GULP energy per Si atom -5569.814762 kJ/mol
# Density = 2.045764 g / cm^3
# Si number density = 20.504308 Si / 1000 Ang^3
#
#
#
# Elastic Constant Matrix: (Units=GPa)
#
#
# Indices 1 2 3 4 5 6 
#
# 1 166.4782 34.7655 33.1953 0.0000 5.4293 0.0000
# 2 34.7655 71.0571 12.3495 0.0000 5.3774 0.0000
# 3 33.1953 12.3495 33.3330 0.0000 0.0611 0.0000
# 4 0.0000 0.0000 0.0000 10.5101 0.0000 4.5878
# 5 5.4293 5.3774 0.0611 0.0000 32.2630 0.0000
# 6 0.0000 0.0000 0.0000 4.5878 0.0000 33.8098
#
#
#
# Elastic Compliance Matrix: (Units=1/GPa)
#
#
# Indices 1 2 3 4 5 6 
#
# 1 0.007973 -0.002622 -0.006966 0.000000 -0.000891 0.000000
# 2 -0.002622 0.016108 -0.003352 0.000000 -0.002237 0.000000
# 3 -0.006966 -0.003352 0.038177 0.000000 0.001659 0.000000
# 4 0.000000 0.000000 0.000000 0.101138 0.000000 -0.013724
# 5 -0.000891 -0.002237 0.001659 0.000000 0.031515 0.000000
# 6 0.000000 0.000000 0.000000 -0.013724 0.000000 0.031440
#
#
# Mechanical properties :
#
#
# Convention : Reuss Voigt Hill
#
# Bulk Modulus (GPa) = 27.49102 47.94320 37.71711
# Shear Modulus (GPa) = 18.91382 28.02044 23.46713
#
# Velocity S-wave (km/s) = 3.04045 3.70072 3.38671
# Velocity P-wave (km/s) = 5.07566 6.45703 5.80756
#
# Compressibility (1/GPa) = 0.03637551
#
# Stress axis : x y z
#
# Youngs Moduli (GPa) = 125.42961 62.08033 26.19389
#
# Poissons Ratio (x) = 0.16280 0.18248
# Poissons Ratio (y) = 0.32894 0.08781
# Poissons Ratio (z) = 0.87380 0.20810
#
# Static dielectric constant tensor:
#      x y z
#    x 1.827750 0.000000 -0.001920 
#    y 0.000000 1.757100 0.000000 
#    z -0.001920 0.000000 1.724300 
# 
# From -- ./inp_files/14224.got.cif
#   From: 2010.05.17/outbox.cif.g08.bks.cpg/sg14_8_cif.got.tgz:14224.got - 2010.06.03 17:49:19.
