data_PCOD9239692
_publ_section_title
;
Structure prediction by ZEFSAII (Michael W. Deem and Ramdas Pophale) SiO2 
 PCOD9239692
Probable space group: P 21/C
;
_chemical_formula_sum "Si O2"
_cell_formula_units_Z 32
_cell_length_a 19.886263
_cell_length_b 7.711508
_cell_length_c 25.331889
_cell_angle_alpha 90.000000
_cell_angle_beta 157.803442
_cell_angle_gamma 90.000000
_cell_volume 1467.590760
_symmetry_space_group_name_H-M "P 21/C"
_symmetry_group_IT_number 14
_symmetry_cell_setting 'monoclinic'
loop_
_space_group_symop_operation_xyz
x,y,z
-x,1/2+y,1/2-z
-x,-y,-z
x,1/2-y,1/2+z
loop_
_atom_site_type_symbol
_atom_site_label
_atom_site_fract_x
_atom_site_fract_y
_atom_site_fract_z
Si Si1 0.219021 0.650379 0.950989
Si Si2 0.985806 0.776821 0.526186
Si Si3 0.703608 0.458201 0.790216
Si Si4 0.037531 0.120365 0.822027
Si Si5 0.661174 0.497674 0.525740
Si Si6 0.440383 0.671966 0.207609
Si Si7 0.794665 0.982082 0.954643
Si Si8 0.932988 0.468337 0.805342
O O1 0.126526 0.558292 0.833291
O O2 0.287848 0.825019 0.971561
O O3 0.058516 0.625624 0.877530
O O4 0.381798 0.600360 0.107446
O O5 0.918835 0.591505 0.498356
O O6 0.166296 0.794243 0.624198
O O7 0.032606 0.902956 0.610562
O O8 0.827768 0.872152 0.379997
O O9 0.544326 0.465176 0.632781
O O10 0.616178 0.445844 0.784267
O O11 0.995471 0.305118 0.815885
O O12 0.210921 0.133147 0.911304
O O13 0.082640 0.002848 0.904699
O O14 0.733150 0.493660 0.637966
O O15 0.653550 0.674746 0.362543
O O16 0.332230 0.850327 0.138786
#
# Coordination Sequence:
#
# PCOD9239692 Si02
#       8
#     4   4   4   4   4   4   4   4
#     4  10  18  30  53  80 107 137 174 221 280 315
#     4  10  22  39  53  78 112 152 185 224 273 331
#     4  11  22  37  55  77 115 149 186 225 273 324
#     4   9  18  32  50  79 109 134 172 231 269 320
#     4  10  18  34  52  82 107 139 180 230 272 321
#     4  12  21  34  57  83 109 143 182 232 275 325
#     4  11  22  36  56  83 111 140 187 229 279 324
#     4   9  19  32  55  79 107 141 181 223 278 322
#
# _framework density 21.804441000000001
#
# number of rings (size 3 to 8) (size 9 to 14) (size 15 to 20)
#    0.000    1.750    3.750    1.500    1.750    1.000 
#    0.000    0.000    0.000    0.000    0.000    1.750 
#    0.000    0.000    0.000    0.000    0.000    0.000 
#
# Total GULP energy -178181.430508 kJ/mol
# GULP energy per Si atom -5568.169703 kJ/mol
# Density = 2.175481 g / cm^3
# Si number density = 21.804441 Si / 1000 Ang^3
#
#
#
# Elastic Constant Matrix: (Units=GPa)
#
#
# Indices 1 2 3 4 5 6 
#
# 1 45.5313 -7.5341 0.0047 0.0000 -2.6281 0.0000
# 2 -7.5341 52.1409 1.2120 0.0000 -6.4136 0.0000
# 3 0.0047 1.2120 85.8421 0.0000 -17.0768 0.0000
# 4 0.0000 0.0000 0.0000 19.2438 0.0000 0.8968
# 5 -2.6281 -6.4136 -17.0768 0.0000 30.5378 0.0000
# 6 0.0000 0.0000 0.0000 0.8968 0.0000 24.6973
#
#
#
# Elastic Compliance Matrix: (Units=1/GPa)
#
#
# Indices 1 2 3 4 5 6 
#
# 1 0.022741 0.003646 0.000550 0.000000 0.003031 0.000000
# 2 0.003646 0.020301 0.000702 0.000000 0.004970 0.000000
# 3 0.000550 0.000702 0.013140 0.000000 0.007543 0.000000
# 4 0.000000 0.000000 0.000000 0.052053 0.000000 -0.001890
# 5 0.003031 0.004970 0.007543 0.000000 0.038269 0.000000
# 6 0.000000 0.000000 0.000000 -0.001890 0.000000 0.040559
#
#
# Mechanical properties :
#
#
# Convention : Reuss Voigt Hill
#
# Bulk Modulus (GPa) = 15.15669 18.98661 17.07165
# Shear Modulus (GPa) = 25.09304 27.55124 26.32214
#
# Velocity S-wave (km/s) = 3.39606 3.55852 3.47824
# Velocity P-wave (km/s) = 4.72693 5.06069 4.89666
#
# Compressibility (1/GPa) = 0.06597745
#
# Stress axis : x y z
#
# Youngs Moduli (GPa) = 43.97328 49.25951 76.10456
#
# Poissons Ratio (x) = -0.17960 -0.04187
# Poissons Ratio (y) = -0.16033 -0.05341
# Poissons Ratio (z) = -0.02419 -0.03457
#
# Static dielectric constant tensor:
#      x y z
#    x 1.798890 0.000000 -0.029150 
#    y 0.000000 1.881880 0.000000 
#    z -0.029150 0.000000 1.841230 
# 
# From -- ./inp_files/61112.got.cif
#   From: 2010.05.17/outbox.cif.g08.bks.cpg/sg14_31_cif.got.tgz:61112.got - 2010.06.03 17:49:19.
