data_PCOD9239177
_publ_section_title
;
Structure prediction by ZEFSAII (Michael W. Deem and Ramdas Pophale) SiO2 
 PCOD9239177
Probable space group: P 21/C
;
_chemical_formula_sum "Si O2"
_cell_formula_units_Z 28
_cell_length_a 6.611892
_cell_length_b 17.676063
_cell_length_c 12.772411
_cell_angle_alpha 90.000000
_cell_angle_beta 135.417543
_cell_angle_gamma 90.000000
_cell_volume 1047.806482
_symmetry_space_group_name_H-M "P 21/C"
_symmetry_group_IT_number 14
_symmetry_cell_setting 'monoclinic'
loop_
_space_group_symop_operation_xyz
x,y,z
-x,1/2+y,1/2-z
-x,-y,-z
x,1/2-y,1/2+z
loop_
_atom_site_type_symbol
_atom_site_label
_atom_site_fract_x
_atom_site_fract_y
_atom_site_fract_z
Si Si1 0.082662 0.156190 0.905552
Si Si2 0.236599 0.066289 0.284634
Si Si3 0.329013 0.305347 0.198707
Si Si4 0.320721 0.903969 0.046655
Si Si5 0.558230 0.066585 0.181646
Si Si6 0.148342 0.693408 0.113332
Si Si7 0.594675 0.395064 0.104148
O O1 0.893966 0.115298 0.931774
O O2 0.070342 0.245457 0.917738
O O3 0.893886 0.146200 0.733470
O O4 0.383455 0.115510 0.032307
O O5 0.394750 0.068892 0.232529
O O6 0.413581 0.116218 0.432432
O O7 0.292214 0.981483 0.345800
O O8 0.905507 0.083758 0.131550
O O9 0.455159 0.336072 0.353945
O O10 0.532235 0.231176 0.257375
O O11 0.409726 0.366617 0.136496
O O12 0.987552 0.301691 0.053220
O O13 0.512037 0.979761 0.131814
O O14 0.839885 0.112858 0.323628
#
# Coordination Sequence:
#
# PCOD9239177 Si02
#       7
#     4   4   4   4   4   4   4
#     4   9  16  32  49  74  98 136 176 205 241 310
#     4  10  16  29  52  82 100 136 164 213 252 311
#     4  10  20  36  52  77 101 137 176 215 252 312
#     4   9  17  29  51  78 102 125 176 211 250 292
#     4  11  16  30  54  78 100 132 170 216 257 297
#     4  10  20  31  56  74 103 135 175 212 258 304
#     4   9  17  29  53  73 105 131 176 201 250 305
#
# _framework density 26.722493
#
# number of rings (size 3 to 8) (size 9 to 14) (size 15 to 20)
#    0.000    2.571    5.714    0.857    0.000    0.571 
#    0.000    0.000   18.857    2.571    0.000    0.000 
#    0.000    0.000    0.000    0.000    0.000    0.000 
#
# Total GULP energy -156157.402669 kJ/mol
# GULP energy per Si atom -5577.050095 kJ/mol
# Density = 2.666167 g / cm^3
# Si number density = 26.722493 Si / 1000 Ang^3
#
#
#
# Elastic Constant Matrix: (Units=GPa)
#
#
# Indices 1 2 3 4 5 6 
#
# 1 50.9545 -1.3913 27.6366 0.0000 17.1320 0.0000
# 2 -1.3913 87.9285 44.4162 0.0000 9.0337 0.0000
# 3 27.6366 44.4162 241.4890 0.0000 7.7351 0.0000
# 4 0.0000 0.0000 0.0000 48.4691 0.0000 3.9394
# 5 17.1320 9.0337 7.7351 0.0000 52.2545 0.0000
# 6 0.0000 0.0000 0.0000 3.9394 0.0000 17.2796
#
#
#
# Elastic Compliance Matrix: (Units=1/GPa)
#
#
# Indices 1 2 3 4 5 6 
#
# 1 0.023969 0.002698 -0.002987 0.000000 -0.007883 0.000000
# 2 0.002698 0.013019 -0.002615 0.000000 -0.002748 0.000000
# 3 -0.002987 -0.002615 0.004941 0.000000 0.000700 0.000000
# 4 0.000000 0.000000 0.000000 0.021021 0.000000 -0.004792
# 5 -0.007883 -0.002748 0.000700 0.000000 0.022093 0.000000
# 6 0.000000 0.000000 0.000000 -0.004792 0.000000 0.058964
#
#
# Mechanical properties :
#
#
# Convention : Reuss Voigt Hill
#
# Bulk Modulus (GPa) = 27.68446 57.96612 42.82529
# Shear Modulus (GPa) = 30.89143 44.24801 37.56972
#
# Velocity S-wave (km/s) = 3.40370 4.07361 3.75363
# Velocity P-wave (km/s) = 5.08226 6.62304 5.90314
#
# Compressibility (1/GPa) = 0.03612135
#
# Stress axis : x y z
#
# Youngs Moduli (GPa) = 41.71993 76.81093 202.37208
#
# Poissons Ratio (x) = -0.20723 0.60445
# Poissons Ratio (y) = -0.11256 0.52926
# Poissons Ratio (z) = 0.12461 0.20088
#
# Static dielectric constant tensor:
#      x y z
#    x 2.403020 0.000000 -0.012730 
#    y 0.000000 2.120790 0.000000 
#    z -0.012730 0.000000 2.229440 
# 
# From -- ./inp_files/58069.got.cif
#   From: 2010.05.17/outbox.cif.g08.bks.cpg/sg14_30_cif.got.tgz:58069.got - 2010.06.03 17:49:19.
