data_PCOD9239816
_publ_section_title
;
Structure prediction by ZEFSAII (Michael W. Deem and Ramdas Pophale) SiO2 
 PCOD9239816
Probable space group: P 21/C
;
_chemical_formula_sum "Si O2"
_cell_formula_units_Z 32
_cell_length_a 11.727082
_cell_length_b 23.090943
_cell_length_c 8.597583
_cell_angle_alpha 90.000000
_cell_angle_beta 127.736231
_cell_angle_gamma 90.000000
_cell_volume 1841.173901
_symmetry_space_group_name_H-M "P 21/C"
_symmetry_group_IT_number 14
_symmetry_cell_setting 'monoclinic'
loop_
_space_group_symop_operation_xyz
x,y,z
-x,1/2+y,1/2-z
-x,-y,-z
x,1/2-y,1/2+z
loop_
_atom_site_type_symbol
_atom_site_label
_atom_site_fract_x
_atom_site_fract_y
_atom_site_fract_z
Si Si1 0.021281 0.834305 0.947159
Si Si2 0.053285 0.913750 0.708626
Si Si3 0.826986 0.828922 0.348546
Si Si4 0.151823 0.424650 0.550034
Si Si5 0.366469 0.421046 0.436173
Si Si6 0.871790 0.016010 0.704614
Si Si7 0.946047 0.767144 0.155799
Si Si8 0.681601 0.456088 0.771571
O O1 0.868691 0.866231 0.864739
O O2 0.015486 0.781601 0.821741
O O3 0.097440 0.884370 0.910408
O O4 0.055954 0.802202 0.137363
O O5 0.191570 0.927690 0.723184
O O6 0.945879 0.871201 0.525630
O O7 0.962930 0.971216 0.673503
O O8 0.682486 0.866109 0.207712
O O9 0.872777 0.811070 0.213269
O O10 0.835172 0.769742 0.455398
O O11 0.264663 0.423375 0.504524
O O12 0.177484 0.478603 0.687581
O O13 0.989931 0.436232 0.349823
O O14 0.532083 0.422587 0.626046
O O15 0.339681 0.479047 0.313335
O O16 0.740044 0.039947 0.495608
#
# Coordination Sequence:
#
# PCOD9239816 Si02
#       8
#     4   4   4   4   4   4   4   4
#     4   9  18  30  52  81 100 125 169 230 267 305
#     4  10  18  32  53  78 107 137 173 214 270 316
#     4  10  18  33  56  78 101 132 180 228 267 312
#     4  10  19  32  53  77 106 139 179 217 261 314
#     4  11  21  34  51  76 113 148 180 213 256 325
#     4  10  19  32  52  78 108 142 175 214 262 317
#     4   9  18  31  53  85  97 123 175 240 271 300
#     4  11  22  33  50  78 114 150 175 208 264 330
#
# _framework density 17.380216000000001
#
# number of rings (size 3 to 8) (size 9 to 14) (size 15 to 20)
#    0.000    2.000    3.750    1.125    0.000    0.500 
#    0.000    0.000    0.000    6.000    0.000    0.000 
#    0.000    0.000    0.000    0.000    0.000    0.000 
#
# Total GULP energy -178145.590425 kJ/mol
# GULP energy per Si atom -5567.049701 kJ/mol
# Density = 1.734066 g / cm^3
# Si number density = 17.380216 Si / 1000 Ang^3
#
#
#
# Elastic Constant Matrix: (Units=GPa)
#
#
# Indices 1 2 3 4 5 6 
#
# 1 27.0729 8.6806 28.3189 0.0000 -5.2826 0.0000
# 2 8.6806 63.5528 25.6772 0.0000 1.7891 0.0000
# 3 28.3189 25.6772 89.1258 0.0000 -0.7706 0.0000
# 4 0.0000 0.0000 0.0000 32.4616 0.0000 -13.5327
# 5 -5.2826 1.7891 -0.7706 0.0000 26.3119 0.0000
# 6 0.0000 0.0000 0.0000 -13.5327 0.0000 20.5807
#
#
#
# Elastic Compliance Matrix: (Units=1/GPa)
#
#
# Indices 1 2 3 4 5 6 
#
# 1 0.058495 -0.000947 -0.018216 0.000000 0.011275 0.000000
# 2 -0.000947 0.017872 -0.004861 0.000000 -0.001548 0.000000
# 3 -0.018216 -0.004861 0.018384 0.000000 -0.002788 0.000000
# 4 0.000000 0.000000 0.000000 0.042439 0.000000 0.027905
# 5 0.011275 -0.001548 -0.002788 0.000000 0.040293 0.000000
# 6 0.000000 0.000000 0.000000 0.027905 0.000000 0.066938
#
#
# Mechanical properties :
#
#
# Convention : Reuss Voigt Hill
#
# Bulk Modulus (GPa) = 21.41209 33.90055 27.65632
# Shear Modulus (GPa) = 16.23172 23.67581 19.95376
#
# Velocity S-wave (km/s) = 3.05932 3.69484 3.39200
# Velocity P-wave (km/s) = 4.98255 6.14411 5.59356
#
# Compressibility (1/GPa) = 0.04670258
#
# Stress axis : x y z
#
# Youngs Moduli (GPa) = 17.09536 55.95333 54.39375
#
# Poissons Ratio (x) = 0.05301 0.99083
# Poissons Ratio (y) = 0.01620 0.26442
# Poissons Ratio (z) = 0.31141 0.27201
#
# Static dielectric constant tensor:
#      x y z
#    x 1.570520 0.000000 -0.046990 
#    y 0.000000 1.652240 0.000000 
#    z -0.046990 0.000000 1.630250 
# 
# From -- ./inp_files/10657.got.cif
#   From: 2010.05.17/outbox.cif.g08.bks.cpg/sg14_6_cif.got.tgz:10657.got - 2010.06.03 17:49:19.
