data_PCOD9239422
_publ_section_title
;
Structure prediction by ZEFSAII (Michael W. Deem and Ramdas Pophale) SiO2 
 PCOD9239422
Probable space group: P 21/C
;
_chemical_formula_sum "Si O2"
_cell_formula_units_Z 32
_cell_length_a 12.173032
_cell_length_b 15.736852
_cell_length_c 25.470638
_cell_angle_alpha 90.000000
_cell_angle_beta 161.113388
_cell_angle_gamma 90.000000
_cell_volume 1579.407660
_symmetry_space_group_name_H-M "P 21/C"
_symmetry_group_IT_number 14
_symmetry_cell_setting 'monoclinic'
loop_
_space_group_symop_operation_xyz
x,y,z
-x,1/2+y,1/2-z
-x,-y,-z
x,1/2-y,1/2+z
loop_
_atom_site_type_symbol
_atom_site_label
_atom_site_fract_x
_atom_site_fract_y
_atom_site_fract_z
Si Si1 0.808058 0.997601 0.714579
Si Si2 0.110579 0.575857 0.853909
Si Si3 0.674206 0.704248 0.393783
Si Si4 0.878358 0.778786 0.187054
Si Si5 0.108130 0.668620 0.683550
Si Si6 0.680245 0.294336 0.865389
Si Si7 0.855576 0.164768 0.112390
Si Si8 0.906880 0.817789 0.353338
O O1 0.438524 0.963667 0.530236
O O2 0.022104 0.929241 0.844102
O O3 0.992215 0.015488 0.741257
O O4 0.782054 0.082707 0.737467
O O5 0.169200 0.663105 0.846913
O O6 0.873306 0.609465 0.794120
O O7 0.413161 0.774580 0.298433
O O8 0.503097 0.659005 0.266043
O O9 0.832833 0.651976 0.513434
O O10 0.990444 0.752884 0.511425
O O11 0.932560 0.776102 0.150158
O O12 0.913158 0.691255 0.233065
O O13 0.530580 0.825470 0.044495
O O14 0.435423 0.218794 0.775860
O O15 0.821517 0.344508 0.979491
O O16 0.937563 0.233975 0.104957
#
# Coordination Sequence:
#
# PCOD9239422 Si02
#       8
#     4   4   4   4   4   4   4   4
#     4  10  21  35  53  82 123 153 177 219 276 338
#     4   9  19  34  51  79 116 151 183 216 265 331
#     4   9  19  36  56  77 101 134 186 240 280 324
#     4  10  20  33  54  83 113 151 192 221 260 328
#     4  10  20  36  56  79 110 148 183 227 285 335
#     4   9  18  32  58  82  97 128 190 246 269 306
#     4  11  20  33  55  85 119 149 183 224 266 333
#     4  10  17  32  57  81 105 141 184 221 269 320
#
# _framework density 20.260760999999999
#
# number of rings (size 3 to 8) (size 9 to 14) (size 15 to 20)
#    0.000    2.250    0.000    4.500    0.000    4.000 
#    0.000    2.500    0.000   24.000    0.000    0.000 
#    0.000    0.000    0.000    0.000    0.000    0.000 
#
# Total GULP energy -178178.916787 kJ/mol
# GULP energy per Si atom -5568.091150 kJ/mol
# Density = 2.021465 g / cm^3
# Si number density = 20.260761 Si / 1000 Ang^3
#
#
#
# Elastic Constant Matrix: (Units=GPa)
#
#
# Indices 1 2 3 4 5 6 
#
# 1 112.2177 13.3589 40.0976 0.0000 -5.0609 0.0000
# 2 13.3589 46.5059 5.1316 0.0000 1.8756 0.0000
# 3 40.0976 5.1316 85.2178 0.0000 -11.3915 0.0000
# 4 0.0000 0.0000 0.0000 27.2985 0.0000 -4.8685
# 5 -5.0609 1.8756 -11.3915 0.0000 43.8043 0.0000
# 6 0.0000 0.0000 0.0000 -4.8685 0.0000 14.7097
#
#
#
# Elastic Compliance Matrix: (Units=1/GPa)
#
#
# Indices 1 2 3 4 5 6 
#
# 1 0.011019 -0.002615 -0.005016 0.000000 0.000080 0.000000
# 2 -0.002615 0.022340 -0.000293 0.000000 -0.001335 0.000000
# 3 -0.005016 -0.000293 0.014542 0.000000 0.003215 0.000000
# 4 0.000000 0.000000 0.000000 0.038930 0.000000 0.012885
# 5 0.000080 -0.001335 0.003215 0.000000 0.023731 0.000000
# 6 0.000000 0.000000 0.000000 0.012885 0.000000 0.072247
#
#
# Mechanical properties :
#
#
# Convention : Reuss Voigt Hill
#
# Bulk Modulus (GPa) = 31.19943 40.12416 35.66179
# Shear Modulus (GPa) = 23.88440 29.51941 26.70190
#
# Velocity S-wave (km/s) = 3.43716 3.82117 3.63424
# Velocity P-wave (km/s) = 5.58431 6.27020 5.93717
#
# Compressibility (1/GPa) = 0.03205187
#
# Stress axis : x y z
#
# Youngs Moduli (GPa) = 90.75559 44.76283 68.76445
#
# Poissons Ratio (x) = 0.11705 0.34495
# Poissons Ratio (y) = 0.23731 0.02017
# Poissons Ratio (z) = 0.45526 0.01313
#
# Static dielectric constant tensor:
#      x y z
#    x 1.750860 0.000000 -0.034870 
#    y 0.000000 2.190540 0.000000 
#    z -0.034870 0.000000 1.797200 
# 
# From -- ./inp_files/73372.got.cif
#   From: 2010.05.17/outbox.cif.g08.bks.cpg/sg14_37_cif.got.tgz:73372.got - 2010.06.03 17:49:19.
