data_PCOD9239577
_publ_section_title
;
Structure prediction by ZEFSAII (Michael W. Deem and Ramdas Pophale) SiO2 
 PCOD9239577
Probable space group: P 21/C
;
_chemical_formula_sum "Si O2"
_cell_formula_units_Z 24
_cell_length_a 7.064399
_cell_length_b 9.779478
_cell_length_c 24.060133
_cell_angle_alpha 90.000000
_cell_angle_beta 145.540121
_cell_angle_gamma 90.000000
_cell_volume 940.533193
_symmetry_space_group_name_H-M "P 21/C"
_symmetry_group_IT_number 14
_symmetry_cell_setting 'monoclinic'
loop_
_space_group_symop_operation_xyz
x,y,z
-x,1/2+y,1/2-z
-x,-y,-z
x,1/2-y,1/2+z
loop_
_atom_site_type_symbol
_atom_site_label
_atom_site_fract_x
_atom_site_fract_y
_atom_site_fract_z
Si Si1 0.665585 0.393965 0.581786
Si Si2 0.414333 0.348356 0.964794
Si Si3 0.378494 0.229079 0.658581
Si Si4 0.008635 0.133999 0.268273
Si Si5 0.973859 0.724918 0.531392
Si Si6 0.517876 0.535765 0.712454
O O1 0.500000 0.500000 0.500000
O O2 0.693296 0.254538 0.554280
O O3 0.983707 0.406857 0.698275
O O4 0.349198 0.376882 0.547225
O O5 0.336520 0.328521 0.881357
O O6 0.098860 0.307164 0.928661
O O7 0.500000 0.500000 0.000000
O O8 0.744567 0.243903 0.717119
O O9 0.299845 0.636616 0.621203
O O10 0.415768 0.114801 0.714446
O O11 0.101990 0.197211 0.544213
O O12 0.862911 0.003875 0.266446
O O13 0.661572 0.885918 0.827632
#
# Coordination Sequence:
#
# PCOD9239577 Si02
#       6
#     4   4   4   4   4   4
#     4   9  20  38  59  80 111 156 196 231 277 347
#     4  10  20  38  57  80 120 149 186 242 289 330
#     4   9  18  32  58  82 111 150 179 231 287 346
#     4   9  20  36  59  82 115 149 190 232 296 335
#     4   9  18  35  61  77 115 151 184 228 294 338
#     4  10  17  37  57  82 113 147 185 234 288 348
#
# _framework density 25.517441000000002
#
# number of rings (size 3 to 8) (size 9 to 14) (size 15 to 20)
#    2.000    0.667    1.667    0.500    0.000    1.333 
#    6.000    5.000    0.000    0.000    0.000    0.000 
#    0.000    0.000    0.000    0.000    0.000    0.000 
#
# Total GULP energy -133883.398040 kJ/mol
# GULP energy per Si atom -5578.474918 kJ/mol
# Density = 2.545936 g / cm^3
# Si number density = 25.517441 Si / 1000 Ang^3
#
#
#
# Elastic Constant Matrix: (Units=GPa)
#
#
# Indices 1 2 3 4 5 6 
#
# 1 56.6248 23.3992 32.3677 0.0000 -14.0154 0.0000
# 2 23.3992 112.9713 39.8362 0.0000 -19.0267 0.0000
# 3 32.3677 39.8362 188.2223 0.0000 -43.2439 0.0000
# 4 0.0000 0.0000 0.0000 46.2534 0.0000 -6.6632
# 5 -14.0154 -19.0267 -43.2439 0.0000 42.7561 0.0000
# 6 0.0000 0.0000 0.0000 -6.6632 0.0000 24.8961
#
#
#
# Elastic Compliance Matrix: (Units=1/GPa)
#
#
# Indices 1 2 3 4 5 6 
#
# 1 0.020986 -0.003010 -0.002213 0.000000 0.003301 0.000000
# 2 -0.003010 0.010277 -0.001086 0.000000 0.002489 0.000000
# 3 -0.002213 -0.001086 0.007355 0.000000 0.006230 0.000000
# 4 0.000000 0.000000 0.000000 0.022487 0.000000 0.006018
# 5 0.003301 0.002489 0.006230 0.000000 0.031879 0.000000
# 6 0.000000 0.000000 0.000000 0.006018 0.000000 0.041778
#
#
# Mechanical properties :
#
#
# Convention : Reuss Voigt Hill
#
# Bulk Modulus (GPa) = 38.46252 61.00273 49.73263
# Shear Modulus (GPa) = 32.04159 40.26214 36.15186
#
# Velocity S-wave (km/s) = 3.54739 3.97650 3.76806
# Velocity P-wave (km/s) = 5.64663 6.71130 6.20185
#
# Compressibility (1/GPa) = 0.02599934
#
# Stress axis : x y z
#
# Youngs Moduli (GPa) = 47.64998 97.30193 135.96991
#
# Poissons Ratio (x) = 0.29291 0.30095
# Poissons Ratio (y) = 0.14344 0.14762
# Poissons Ratio (z) = 0.10547 0.10564
#
# Static dielectric constant tensor:
#      x y z
#    x 2.219720 0.000000 0.068760 
#    y 0.000000 1.992920 0.000000 
#    z 0.068760 0.000000 2.233040 
# 
# From -- ./inp_files/72381.got.cif
#   From: 2010.05.17/outbox.cif.g08.bks.cpg/sg14_37_cif.got.tgz:72381.got - 2010.06.03 17:49:19.
