data_PCOD9239847
_publ_section_title
;
Structure prediction by ZEFSAII (Michael W. Deem and Ramdas Pophale) SiO2 
 PCOD9239847
Probable space group: P 21/C
;
_chemical_formula_sum "Si O2"
_cell_formula_units_Z 32
_cell_length_a 16.579210
_cell_length_b 20.129133
_cell_length_c 15.672459
_cell_angle_alpha 90.000000
_cell_angle_beta 17.826965
_cell_angle_gamma 90.000000
_cell_volume 1601.219619
_symmetry_space_group_name_H-M "P 21/C"
_symmetry_group_IT_number 14
_symmetry_cell_setting 'monoclinic'
loop_
_space_group_symop_operation_xyz
x,y,z
-x,1/2+y,1/2-z
-x,-y,-z
x,1/2-y,1/2+z
loop_
_atom_site_type_symbol
_atom_site_label
_atom_site_fract_x
_atom_site_fract_y
_atom_site_fract_z
Si Si1 0.086701 0.374047 0.957924
Si Si2 0.388451 0.931215 0.642457
Si Si3 0.500902 0.533356 0.732203
Si Si4 0.012151 0.062320 0.720017
Si Si5 0.480074 0.847006 0.385172
Si Si6 0.415322 0.929797 0.124140
Si Si7 0.999248 0.781170 0.937322
Si Si8 0.903805 0.874589 0.197463
O O1 0.380853 0.379409 0.624832
O O2 0.061159 0.410093 0.075394
O O3 0.015526 0.297134 0.035097
O O4 0.881045 0.410853 0.102259
O O5 0.381100 0.889670 0.564504
O O6 0.599813 0.893696 0.489522
O O7 0.500000 0.000000 0.500000
O O8 0.097752 0.934394 0.972847
O O9 0.523075 0.598416 0.769024
O O10 0.461420 0.562223 0.677503
O O11 0.746381 0.482077 0.489997
O O12 0.245078 0.488800 0.010240
O O13 0.028633 0.124285 0.770076
O O14 0.242658 0.794497 0.627023
O O15 0.747516 0.811128 0.142265
O O16 0.500000 0.000000 0.000000
O O17 0.983142 0.816151 0.049751
#
# Coordination Sequence:
#
# PCOD9239847 Si02
#       8
#     4   4   4   4   4   4   4   4
#     4  12  24  43  68  86 124 173 205 261 309 362
#     4  10  18  32  55  82 119 157 196 236 304 359
#     4  12  24  39  65  97 127 152 207 263 317 370
#     4  12  22  38  62  93 125 157 206 264 315 364
#     4  10  21  39  60  89 125 164 195 258 299 367
#     4  12  23  44  66  92 120 159 207 263 318 360
#     4  10  23  43  62  86 131 167 214 237 305 382
#     4  10  21  35  55  86 120 158 201 249 289 370
#
# _framework density 19.984767000000002
#
# number of rings (size 3 to 8) (size 9 to 14) (size 15 to 20)
#    0.000    1.000    2.500    5.250    0.000    2.000 
#    4.500    0.000    0.000    0.000    0.000    0.000 
#    0.000    0.000    0.000    0.000    0.000    0.000 
#
# Total GULP energy -178459.850129 kJ/mol
# GULP energy per Si atom -5576.870317 kJ/mol
# Density = 1.993928 g / cm^3
# Si number density = 19.984767 Si / 1000 Ang^3
#
#
#
# Elastic Constant Matrix: (Units=GPa)
#
#
# Indices 1 2 3 4 5 6 
#
# 1 112.0218 45.4214 81.3539 0.0000 -17.5846 0.0000
# 2 45.4214 2565.4650 5552.7214 0.0000-1855.8689 0.0000
# 3 81.3539 5552.721412463.5240 0.0000-4134.8257 0.0000
# 4 0.0000 0.0000 0.0000 -17.4436 0.0000 30.8276
# 5 -17.5846-1855.8689-4134.8257 0.0000 1393.0886 0.0000
# 6 0.0000 0.0000 0.0000 30.8276 0.0000 -2.1037
#
#
#
# Elastic Compliance Matrix: (Units=1/GPa)
#
#
# Indices 1 2 3 4 5 6 
#
# 1 0.009565 -0.001759 -0.001052 0.000000 -0.005347 0.000000
# 2 -0.001759 0.012401 -0.002610 0.000000 0.008753 0.000000
# 3 -0.001052 -0.002610 0.006003 0.000000 0.014329 0.000000
# 4 0.000000 0.000000 0.000000 0.002303 0.000000 0.033741
# 5 -0.005347 0.008753 0.014329 0.000000 0.054841 0.000000
# 6 0.000000 0.000000 0.000000 0.033741 0.000000 0.019092
#
#
# Mechanical properties :
#
#
# Convention : Reuss Voigt Hill
#
# Bulk Modulus (GPa) = 58.38557 2944.44492 1501.41524
# Shear Modulus (GPa) = 41.40529 905.47586 473.44057
#
# Velocity S-wave (km/s) = 4.55669 21.30884 15.40828
# Velocity P-wave (km/s) = 7.54738 45.62856 32.70266
#
# Compressibility (1/GPa) = 0.01712752
#
# Stress axis : x y z
#
# Youngs Moduli (GPa) = 104.54601 80.63570 166.57256
#
# Poissons Ratio (x) = 0.14185 0.17531
# Poissons Ratio (y) = 0.18391 0.43469
# Poissons Ratio (z) = 0.11003 0.21043
#
# Static dielectric constant tensor:
#      x y z
#    x 1.765250 0.000000 0.085250 
#    y 0.000000 1.378210 0.000000 
#    z 0.085250 0.000000 1.696060 
# 
# From -- ./inp_files/47605.got.cif
#   From: 2010.05.17/outbox.cif.g08.bks.cpg/sg14_24_cif.got.tgz:47605.got - 2010.06.03 17:49:19.
