data_PCOD9239388
_publ_section_title
;
Structure prediction by ZEFSAII (Michael W. Deem and Ramdas Pophale) SiO2 
 PCOD9239388
Probable space group: P 21/C
;
_chemical_formula_sum "Si O2"
_cell_formula_units_Z 30
_cell_length_a 9.360588
_cell_length_b 9.751728
_cell_length_c 27.611160
_cell_angle_alpha 90.000000
_cell_angle_beta 150.412470
_cell_angle_gamma 90.000000
_cell_volume 1244.453782
_symmetry_space_group_name_H-M "P 21/C"
_symmetry_group_IT_number 14
_symmetry_cell_setting 'monoclinic'
loop_
_space_group_symop_operation_xyz
x,y,z
-x,1/2+y,1/2-z
-x,-y,-z
x,1/2-y,1/2+z
loop_
_atom_site_type_symbol
_atom_site_label
_atom_site_fract_x
_atom_site_fract_y
_atom_site_fract_z
Si Si1 0.174758 0.066734 0.613481
Si Si2 0.500000 0.000000 0.000000
Si Si3 0.975288 0.039394 0.652180
Si Si4 0.954751 0.449112 0.257244
Si Si5 0.406551 0.641502 0.108242
Si Si6 0.432262 0.553694 0.574222
Si Si7 0.480171 0.241745 0.129190
Si Si8 0.622132 0.690958 0.008498
O O1 0.329295 0.188494 0.630003
O O2 0.203063 0.082743 0.679126
O O3 0.835751 0.084319 0.500344
O O4 0.293225 0.923555 0.625686
O O5 0.591575 0.844875 0.013299
O O6 0.757077 0.059643 0.029761
O O7 0.056254 0.052671 0.731555
O O8 0.674249 0.120559 0.561659
O O9 0.886470 0.886562 0.610767
O O10 0.718132 0.567894 0.193213
O O11 0.807592 0.303894 0.226026
O O12 0.269663 0.478333 0.373042
O O13 0.424129 0.803043 0.100770
O O14 0.414410 0.418678 0.602346
O O15 0.364230 0.310564 0.045549
#
# Coordination Sequence:
#
# PCOD9239388 Si02
#       8
#     4   2   4   4   4   4   4   4
#     4  10  19  35  56  81 109 146 187 216 257 325
#     4  10  20  32  52  80 104 132 174 226 274 314
#     4  10  17  31  55  77 102 140 183 219 255 313
#     4  10  20  35  56  82 109 140 180 229 271 319
#     4  10  20  35  58  80 108 146 181 222 271 320
#     4  11  21  36  55  81 111 142 179 226 280 322
#     4   9  20  34  54  83 112 140 178 228 273 315
#     4   9  17  31  52  80 105 132 179 225 262 307
#
# _framework density 24.106961999999999
#
# number of rings (size 3 to 8) (size 9 to 14) (size 15 to 20)
#    0.000    2.133    0.000    6.400    0.000    0.533 
#    0.000    2.667    0.000    8.000    0.000    0.000 
#    0.000    0.000    0.000    0.000    0.000    0.000 
#
# Total GULP energy -167053.369381 kJ/mol
# GULP energy per Si atom -5568.445646 kJ/mol
# Density = 2.405209 g / cm^3
# Si number density = 24.106962 Si / 1000 Ang^3
#
#
#
# Elastic Constant Matrix: (Units=GPa)
#
#
# Indices 1 2 3 4 5 6 
#
# 1 163.1000 76.8878 36.8882 0.0000 -17.9491 0.0000
# 2 76.8878 177.3799 13.8615 0.0000 1.9096 0.0000
# 3 36.8882 13.8615 39.7025 0.0000 5.3223 0.0000
# 4 0.0000 0.0000 0.0000 30.9758 0.0000 1.0205
# 5 -17.9491 1.9096 5.3223 0.0000 20.3924 0.0000
# 6 0.0000 0.0000 0.0000 1.0205 0.0000 57.7442
#
#
#
# Elastic Compliance Matrix: (Units=1/GPa)
#
#
# Indices 1 2 3 4 5 6 
#
# 1 0.012755 -0.004736 -0.012188 0.000000 0.014851 0.000000
# 2 -0.004736 0.007554 0.002504 0.000000 -0.005530 0.000000
# 3 -0.012188 0.002504 0.038452 0.000000 -0.020998 0.000000
# 4 0.000000 0.000000 0.000000 0.032302 0.000000 -0.000571
# 5 0.014851 -0.005530 -0.020998 0.000000 0.068108 0.000000
# 6 0.000000 0.000000 0.000000 -0.000571 0.000000 0.017328
#
#
# Mechanical properties :
#
#
# Convention : Reuss Voigt Hill
#
# Bulk Modulus (GPa) = 33.42101 70.60638 52.01369
# Shear Modulus (GPa) = 23.22207 38.65883 30.94045
#
# Velocity S-wave (km/s) = 3.10706 4.00889 3.58643
# Velocity P-wave (km/s) = 5.17354 7.12605 6.22680
#
# Compressibility (1/GPa) = 0.02992130
#
# Stress axis : x y z
#
# Youngs Moduli (GPa) = 78.40159 132.37263 26.00651
#
# Poissons Ratio (x) = 0.62694 0.31697
# Poissons Ratio (y) = 0.37133 -0.06513
# Poissons Ratio (z) = 0.95556 -0.33150
#
# Static dielectric constant tensor:
#      x y z
#    x 2.101280 0.000000 -0.088520 
#    y 0.000000 1.967030 0.000000 
#    z -0.088520 0.000000 2.448660 
# 
# From -- ./inp_files/79511.got.cif
#   From: 2010.05.17/outbox.cif.g08.bks.cpg/sg14_40_cif.got.tgz:79511.got - 2010.06.03 17:49:19.
