data_PCOD9239044
_publ_section_title
;
Structure prediction by ZEFSAII (Michael W. Deem and Ramdas Pophale) SiO2 
 PCOD9239044
Probable space group: P 2/C
;
_chemical_formula_sum "Si O2"
_cell_formula_units_Z 30
_cell_length_a 12.000000
_cell_length_b 9.000000
_cell_length_c 15.000000
_cell_angle_alpha 90.000000
_cell_angle_beta 70.000000
_cell_angle_gamma 90.000000
_cell_volume 1522.302046
_symmetry_space_group_name_H-M "P 2/C"
_symmetry_group_IT_number 13
_symmetry_cell_setting 'monoclinic'
loop_
_space_group_symop_operation_xyz
x,y,z
-x,y,1/2-z
-x,-y,-z
x,-y,1/2+z
loop_
_atom_site_type_symbol
_atom_site_label
_atom_site_fract_x
_atom_site_fract_y
_atom_site_fract_z
Si Si1 0.794703 0.335025 0.574709
Si Si2 0.761242 0.681400 0.567747
Si Si3 0.659622 0.668938 0.935956
Si Si4 0.000000 0.037600 0.250000
Si Si5 0.018118 0.136073 0.562552
Si Si6 0.367843 0.163891 0.748507
Si Si7 0.749790 0.147883 0.252887
Si Si8 0.609780 0.339325 0.936662
O O1 0.802493 0.512209 0.569393
O O2 0.757110 0.293475 0.484111
O O3 0.691410 0.282881 0.669429
O O4 0.910576 0.250379 0.576789
O O5 0.863865 0.778427 0.495739
O O6 0.736860 0.746523 0.671422
O O7 0.655377 0.689834 0.524681
O O8 0.670728 0.786786 0.854337
O O9 0.667767 0.499685 0.897514
O O10 0.532407 0.662118 0.018812
O O11 0.026572 0.932422 0.158448
O O12 0.115171 0.132805 0.247878
O O13 0.000000 0.000000 0.500000
O O14 0.500000 0.137029 0.750000
O O15 0.361261 0.225280 0.649576
O O16 0.293254 0.012753 0.767858
#
# Coordination Sequence:
#
# PCOD9239044 Si02
#       8
#     4   4   4   2   4   4   4   4
#     4  11  23  45  68  97 129 168 219 271 328 389
#     4  11  25  43  69  96 128 174 219 269 328 389
#     4  10  23  43  68  94 130 170 217 270 325 390
#     4  12  24  44  68  96 136 178 216 276 334 382
#     4  12  23  45  69  94 135 171 218 273 330 391
#     4  12  24  42  67  99 134 170 216 269 331 390
#     4  12  26  43  65  98 130 175 221 266 328 392
#     4  10  23  44  66  96 130 172 214 271 329 385
#
# _framework density 19.706996
#
# number of rings (size 3 to 8) (size 9 to 14) (size 15 to 20)
#    0.000    0.800    4.000    2.800    1.867    1.600 
#    0.000    0.000    0.000    0.000    0.000    0.000 
#    0.000    0.000    0.000    0.000    0.000    0.000 
#
# Total GULP energy -167610.714067 kJ/mol
# GULP energy per Si atom -5587.023802 kJ/mol
# Density = 1.966214 g / cm^3
# Si number density = 19.706996 Si / 1000 Ang^3
#
#
#
# Elastic Constant Matrix: (Units=GPa)
#
#
# Indices 1 2 3 4 5 6 
#
# 1 0.0277 -5.5312 -39.8487 0.0000 16.6047 0.0000
# 2 -5.5312 73.9459 28.6873 0.0000 18.2741 0.0000
# 3 -39.8487 28.6873 73.9844 0.0000 24.8637 0.0000
# 4 0.0000 0.0000 0.0000 39.7145 0.0000 1.9190
# 5 16.6047 18.2741 24.8637 0.0000 32.0983 0.0000
# 6 0.0000 0.0000 0.0000 1.9190 0.0000 25.7078
#
#
#
# Elastic Compliance Matrix: (Units=1/GPa)
#
#
# Indices 1 2 3 4 5 6 
#
# 1 -0.016849 -0.000279 -0.016155 0.000000 0.021389 0.000000
# 2 -0.000279 0.016751 -0.004717 0.000000 -0.005739 0.000000
# 3 -0.016155 -0.004717 0.003965 0.000000 0.007971 0.000000
# 4 0.000000 0.000000 0.000000 0.025271 0.000000 -0.001886
# 5 0.021389 -0.005739 0.007971 0.000000 0.017182 0.000000
# 6 0.000000 0.000000 0.000000 -0.001886 0.000000 0.039040
#
#
# Mechanical properties :
#
#
# Convention : Reuss Voigt Hill
#
# Bulk Modulus (GPa) = -26.01807 12.73031 -6.64388
# Shear Modulus (GPa) = 43.53572 30.48082 37.00827
#
# Velocity S-wave (km/s) = 4.70526 3.93708 4.33821
# Velocity P-wave (km/s) = 4.03586 5.20973 4.65991
#
# Compressibility (1/GPa) = -0.03843483
#
# Stress axis : x y z
#
# Youngs Moduli (GPa) = -59.34968 59.69967 252.20975
#
# Poissons Ratio (x) = 0.01664 4.07452
# Poissons Ratio (y) = -0.01654 1.18955
# Poissons Ratio (z) = -0.95881 0.28157
#
# Static dielectric constant tensor:
#      x y z
#    x 1.640650 0.000000 -0.031060 
#    y 0.000000 1.702310 0.000000 
#    z -0.031060 0.000000 1.667960 
# 
# From -- ./inp_files/50317.got.cif
#   From: 2010.05.17/outbox.ucp.g08.bks.cvg/sg13_26_cif.got.tgz:50317.got - 2010.06.11 12:23:55.
