data_PCOD9239904
_publ_section_title
;
Structure prediction by ZEFSAII (Michael W. Deem and Ramdas Pophale) SiO2 
 PCOD9239904
Probable space group: P 21/C
;
_chemical_formula_sum "Si O2"
_cell_formula_units_Z 32
_cell_length_a 12.965874
_cell_length_b 21.005232
_cell_length_c 5.705163
_cell_angle_alpha 90.000000
_cell_angle_beta 79.962955
_cell_angle_gamma 90.000000
_cell_volume 1530.027335
_symmetry_space_group_name_H-M "P 21/C"
_symmetry_group_IT_number 14
_symmetry_cell_setting 'monoclinic'
loop_
_space_group_symop_operation_xyz
x,y,z
-x,1/2+y,1/2-z
-x,-y,-z
x,1/2-y,1/2+z
loop_
_atom_site_type_symbol
_atom_site_label
_atom_site_fract_x
_atom_site_fract_y
_atom_site_fract_z
Si Si1 0.733889 0.673946 0.546626
Si Si2 0.641400 0.107679 0.291478
Si Si3 0.553226 0.910953 0.979584
Si Si4 0.623923 0.027623 0.687951
Si Si5 0.055122 0.713811 0.888891
Si Si6 0.746968 0.353518 0.350187
Si Si7 0.187856 0.180643 0.485231
Si Si8 0.425685 0.759676 0.536187
O O1 0.617495 0.648457 0.546816
O O2 0.769240 0.649449 0.790717
O O3 0.755782 0.749698 0.548340
O O4 0.793127 0.652574 0.282640
O O5 0.542720 0.106231 0.153763
O O6 0.645150 0.039107 0.408263
O O7 0.748559 0.127332 0.123327
O O8 0.614524 0.167783 0.465916
O O9 0.627033 0.959786 0.808360
O O10 0.493945 0.947499 0.211812
O O11 0.699117 0.081437 0.766100
O O12 0.068236 0.754328 0.640784
O O13 0.146845 0.662840 0.819444
O O14 0.935737 0.690145 0.931073
O O15 0.671187 0.290463 0.395009
O O16 0.480662 0.744472 0.268408
#
# Coordination Sequence:
#
# PCOD9239904 Si02
#       8
#     4   4   4   4   4   4   4   4
#     4  10  20  41  59  91 115 160 194 261 293 359
#     4  10  20  37  54  85 119 155 200 249 290 372
#     4  10  23  38  63  80 115 169 211 249 301 343
#     4  10  21  42  56  86 119 160 216 247 289 368
#     4  12  21  36  65  94 123 164 189 244 315 374
#     4  10  22  34  55  89 124 155 194 242 309 366
#     4  10  20  41  61  91 125 144 207 248 308 361
#     4  10  18  33  49  77 117 146 172 232 289 347
#
# _framework density 20.914657999999999
#
# number of rings (size 3 to 8) (size 9 to 14) (size 15 to 20)
#    0.000    1.750    3.750    1.875    3.500    0.000 
#   13.500    0.000    0.000    1.500    0.000    0.000 
#    0.000    0.000    0.000    0.000    0.000    0.000 
#
# Total GULP energy -178151.439009 kJ/mol
# GULP energy per Si atom -5567.232469 kJ/mol
# Density = 2.086706 g / cm^3
# Si number density = 20.914658 Si / 1000 Ang^3
#
#
#
# Elastic Constant Matrix: (Units=GPa)
#
#
# Indices 1 2 3 4 5 6 
#
# 1 46.5722 16.1730 -10.9401 0.0000 0.8017 0.0000
# 2 16.1730 38.1846 -14.5802 0.0000 -1.4166 0.0000
# 3 -10.9401 -14.5802 110.1712 0.0000 4.6674 0.0000
# 4 0.0000 0.0000 0.0000 27.7713 0.0000 4.8033
# 5 0.8017 -1.4166 4.6674 0.0000 19.8215 0.0000
# 6 0.0000 0.0000 0.0000 4.8033 0.0000 -11.6764
#
#
#
# Elastic Compliance Matrix: (Units=1/GPa)
#
#
# Indices 1 2 3 4 5 6 
#
# 1 0.025396 -0.010360 0.001238 0.000000 -0.002059 0.000000
# 2 -0.010360 0.031833 0.003101 0.000000 0.001964 0.000000
# 3 0.001238 0.003101 0.009700 0.000000 -0.002112 0.000000
# 4 0.000000 0.000000 0.000000 0.033617 0.000000 0.013829
# 5 -0.002059 0.001964 -0.002112 0.000000 0.051171 0.000000
# 6 0.000000 0.000000 0.000000 0.013829 0.000000 -0.079954
#
#
# Mechanical properties :
#
#
# Convention : Reuss Voigt Hill
#
# Bulk Modulus (GPa) = 18.21934 19.58148 18.90041
# Shear Modulus (GPa) = 48.97140 20.80164 34.88652
#
# Velocity S-wave (km/s) = 4.84414 3.15714 4.08860
# Velocity P-wave (km/s) = 6.32596 4.76161 5.59869
#
# Compressibility (1/GPa) = 0.05488672
#
# Stress axis : x y z
#
# Youngs Moduli (GPa) = 39.37630 31.41353 103.09715
#
# Poissons Ratio (x) = 0.32545 -0.12764
# Poissons Ratio (y) = 0.40794 -0.31970
# Poissons Ratio (z) = -0.04875 -0.09741
#
# Static dielectric constant tensor:
#      x y z
#    x 1.741010 0.000000 0.032670 
#    y 0.000000 1.773040 0.000000 
#    z 0.032670 0.000000 1.981030 
# 
# From -- ./inp_files/3160.got.cif
#   From: 2010.05.17/outbox.cif.g08.bks.cpg/sg14_2_cif.got.tgz:3160.got - 2010.06.03 17:49:19.
