data_PCOD9239916
_publ_section_title
;
Structure prediction by ZEFSAII (Michael W. Deem and Ramdas Pophale) SiO2 
 PCOD9239916
Probable space group: P 21/C
;
_chemical_formula_sum "Si O2"
_cell_formula_units_Z 28
_cell_length_a 5.008065
_cell_length_b 11.733408
_cell_length_c 18.934662
_cell_angle_alpha 90.000000
_cell_angle_beta 108.806403
_cell_angle_gamma 90.000000
_cell_volume 1053.232522
_symmetry_space_group_name_H-M "P 21/C"
_symmetry_group_IT_number 14
_symmetry_cell_setting 'monoclinic'
loop_
_space_group_symop_operation_xyz
x,y,z
-x,1/2+y,1/2-z
-x,-y,-z
x,1/2-y,1/2+z
loop_
_atom_site_type_symbol
_atom_site_label
_atom_site_fract_x
_atom_site_fract_y
_atom_site_fract_z
Si Si1 0.713300 0.385143 0.465155
Si Si2 0.503762 0.867856 0.904072
Si Si3 0.237780 0.375728 0.039469
Si Si4 0.134222 0.254173 0.402217
Si Si5 0.177012 0.549467 0.883548
Si Si6 0.200365 0.862028 0.237910
Si Si7 0.737110 0.009772 0.239583
O O1 0.722871 0.369155 0.550551
O O2 0.672283 0.516061 0.439264
O O3 0.437622 0.312401 0.417025
O O4 0.965400 0.331962 0.443289
O O5 0.410305 0.889374 0.815528
O O6 0.660108 0.748119 0.925348
O O7 0.486859 0.463413 0.080012
O O8 0.953227 0.405249 0.055364
O O9 0.192135 0.361119 0.951600
O O10 0.931861 0.259869 0.317382
O O11 0.176134 0.647798 0.820314
O O12 0.939647 0.473132 0.824105
O O13 0.499903 0.915489 0.240957
O O14 0.963518 0.959763 0.203057
#
# Coordination Sequence:
#
# PCOD9239916 Si02
#       7
#     4   4   4   4   4   4   4
#     4  10  20  29  44  72 114 129 151 195 240 290
#     4  10  20  31  48  76 101 135 170 198 238 291
#     4  11  22  31  49  74 107 127 161 218 250 278
#     4  11  19  33  48  76  99 137 168 196 239 295
#     4  10  20  38  45  64 101 146 161 202 254 280
#     4  10  18  33  53  62  94 138 179 188 229 299
#     4  10  19  33  52  64  92 142 178 188 226 303
#
# _framework density 26.584824999999999
#
# number of rings (size 3 to 8) (size 9 to 14) (size 15 to 20)
#    0.857    0.857    4.286    1.714    0.000    9.714 
#    0.000    0.000    0.000    0.000    0.000    0.000 
#    0.000    6.857    0.000    0.000    0.000    0.000 
#
# Total GULP energy -156417.434667 kJ/mol
# GULP energy per Si atom -5586.336952 kJ/mol
# Density = 2.652432 g / cm^3
# Si number density = 26.584825 Si / 1000 Ang^3
#
#
#
# Elastic Constant Matrix: (Units=GPa)
#
#
# Indices 1 2 3 4 5 6 
#
# 1 126.9730 38.0088 31.2841 0.0000 8.9967 0.0000
# 2 38.0088 82.9632 -12.1184 0.0000 11.5668 0.0000
# 3 31.2841 -12.1184 156.2728 0.0000 34.6995 0.0000
# 4 0.0000 0.0000 0.0000 33.1566 0.0000 7.9058
# 5 8.9967 11.5668 34.6995 0.0000 38.9537 0.0000
# 6 0.0000 0.0000 0.0000 7.9058 0.0000 25.6323
#
#
#
# Elastic Compliance Matrix: (Units=1/GPa)
#
#
# Indices 1 2 3 4 5 6 
#
# 1 0.010008 -0.005235 -0.002794 0.000000 0.001732 0.000000
# 2 -0.005235 0.015980 0.003830 0.000000 -0.006948 0.000000
# 3 -0.002794 0.003830 0.009180 0.000000 -0.008670 0.000000
# 4 0.000000 0.000000 0.000000 0.032554 0.000000 -0.010041
# 5 0.001732 -0.006948 -0.008670 0.000000 0.035057 0.000000
# 6 0.000000 0.000000 0.000000 -0.010041 0.000000 0.042110
#
#
# Mechanical properties :
#
#
# Convention : Reuss Voigt Hill
#
# Bulk Modulus (GPa) = 37.35443 53.39533 45.37488
# Shear Modulus (GPa) = 30.82385 40.15083 35.48734
#
# Velocity S-wave (km/s) = 3.40877 3.89046 3.65755
# Velocity P-wave (km/s) = 5.43824 6.34897 5.91117
#
# Compressibility (1/GPa) = 0.02677058
#
# Stress axis : x y z
#
# Youngs Moduli (GPa) = 99.91587 62.57865 108.92697
#
# Poissons Ratio (x) = 0.32759 0.30435
# Poissons Ratio (y) = 0.52304 -0.41717
# Poissons Ratio (z) = 0.27917 -0.23966
#
# Static dielectric constant tensor:
#      x y z
#    x 2.004300 0.000000 0.019060 
#    y 0.000000 2.250990 0.000000 
#    z 0.019060 0.000000 2.197860 
# 
# From -- ./inp_files/63828.got.cif
#   From: 2010.05.17/outbox.cif.g08.bks.cpg/sg14_32_cif.got.tgz:63828.got - 2010.06.03 17:49:19.
