data_PCOD9239501
_publ_section_title
;
Structure prediction by ZEFSAII (Michael W. Deem and Ramdas Pophale) SiO2 
 PCOD9239501
Probable space group: P 21/C
;
_chemical_formula_sum "Si O2"
_cell_formula_units_Z 32
_cell_length_a 6.963342
_cell_length_b 11.278971
_cell_length_c 23.848586
_cell_angle_alpha 90.000000
_cell_angle_beta 131.129327
_cell_angle_gamma 90.000000
_cell_volume 1410.833010
_symmetry_space_group_name_H-M "P 21/C"
_symmetry_group_IT_number 14
_symmetry_cell_setting 'monoclinic'
loop_
_space_group_symop_operation_xyz
x,y,z
-x,1/2+y,1/2-z
-x,-y,-z
x,1/2-y,1/2+z
loop_
_atom_site_type_symbol
_atom_site_label
_atom_site_fract_x
_atom_site_fract_y
_atom_site_fract_z
Si Si1 0.136493 0.573140 0.610820
Si Si2 0.519506 0.350207 0.108811
Si Si3 0.826718 0.581080 0.168109
Si Si4 0.370618 0.827080 0.635972
Si Si5 0.882930 0.543197 0.053668
Si Si6 0.147911 0.110429 0.207996
Si Si7 0.077932 0.205456 0.598391
Si Si8 0.723024 0.880273 0.946191
O O1 0.266450 0.700699 0.634478
O O2 0.109765 0.507752 0.664777
O O3 0.303063 0.488648 0.601369
O O4 0.856195 0.582659 0.528944
O O5 0.747375 0.442117 0.159586
O O6 0.354926 0.349622 0.135210
O O7 0.513597 0.209535 0.093698
O O8 0.351867 0.406445 0.026008
O O9 0.577007 0.664955 0.125784
O O10 0.976697 0.611171 0.253930
O O11 0.921211 0.594201 0.123657
O O12 0.138000 0.910177 0.573237
O O13 0.549347 0.879285 0.719718
O O14 0.884074 0.402083 0.059904
O O15 0.079230 0.221648 0.155739
O O16 0.059991 0.299527 0.544163
#
# Coordination Sequence:
#
# PCOD9239501 Si02
#       8
#     4   4   4   4   4   4   4   4
#     4  10  17  34  60  83 112 153 186 238 285 340
#     4  10  19  37  58  86 114 143 196 242 279 337
#     4  10  24  36  56  90 118 146 195 237 285 347
#     4  10  21  35  60  82 115 152 190 230 288 340
#     4  12  21  38  61  86 115 155 188 243 289 329
#     4   9  22  37  54  87 115 151 195 233 281 350
#     4   9  18  35  61  80 115 145 192 233 287 338
#     4   8  18  31  59  90 106 145 200 228 289 342
#
# _framework density 22.681633999999999
#
# number of rings (size 3 to 8) (size 9 to 14) (size 15 to 20)
#    1.500    0.750    2.500    0.750    5.250    0.000 
#    2.250    0.000    0.000    2.250    0.000    0.000 
#    0.000    0.000    0.000    0.000    0.000    0.000 
#
# Total GULP energy -178255.582251 kJ/mol
# GULP energy per Si atom -5570.486945 kJ/mol
# Density = 2.263001 g / cm^3
# Si number density = 22.681634 Si / 1000 Ang^3
#
#
#
# Elastic Constant Matrix: (Units=GPa)
#
#
# Indices 1 2 3 4 5 6 
#
# 1 39.7339 -2.2747 17.0372 0.0000 -15.3675 0.0000
# 2 -2.2747 108.2163 23.1542 0.0000 -2.7505 0.0000
# 3 17.0372 23.1542 104.9367 0.0000 -23.7210 0.0000
# 4 0.0000 0.0000 0.0000 36.8702 0.0000 -6.9681
# 5 -15.3675 -2.7505 -23.7210 0.0000 31.8790 0.0000
# 6 0.0000 0.0000 0.0000 -6.9681 0.0000 8.8885
#
#
#
# Elastic Compliance Matrix: (Units=1/GPa)
#
#
# Indices 1 2 3 4 5 6 
#
# 1 0.031518 0.001518 -0.002390 0.000000 0.013546 0.000000
# 2 0.001518 0.009794 -0.002466 0.000000 -0.000258 0.000000
# 3 -0.002390 -0.002466 0.012206 0.000000 0.007718 0.000000
# 4 0.000000 0.000000 0.000000 0.031840 0.000000 0.024961
# 5 0.013546 -0.000258 0.007718 0.000000 0.043619 0.000000
# 6 0.000000 0.000000 0.000000 0.024961 0.000000 0.132072
#
#
# Mechanical properties :
#
#
# Convention : Reuss Voigt Hill
#
# Bulk Modulus (GPa) = 21.34791 36.52448 28.93620
# Shear Modulus (GPa) = 17.64672 29.85888 23.75280
#
# Velocity S-wave (km/s) = 2.79232 3.63221 3.23960
# Velocity P-wave (km/s) = 4.45292 5.80764 5.17480
#
# Compressibility (1/GPa) = 0.04684300
#
# Stress axis : x y z
#
# Youngs Moduli (GPa) = 31.72762 102.10658 81.92508
#
# Poissons Ratio (x) = -0.15502 0.19581
# Poissons Ratio (y) = -0.04817 0.20201
# Poissons Ratio (z) = 0.07583 0.25177
#
# Static dielectric constant tensor:
#      x y z
#    x 1.897570 0.000000 -0.011240 
#    y 0.000000 1.865180 0.000000 
#    z -0.011240 0.000000 1.839320 
# 
# From -- ./inp_files/76573.got.cif
#   From: 2010.05.17/outbox.cif.g08.bks.cpg/sg14_39_cif.got.tgz:76573.got - 2010.06.03 17:49:19.
