data_PCOD9239818
_publ_section_title
;
Structure prediction by ZEFSAII (Michael W. Deem and Ramdas Pophale) SiO2 
 PCOD9239818
Probable space group: P 21/C
;
_chemical_formula_sum "Si O2"
_cell_formula_units_Z 20
_cell_length_a 10.380138
_cell_length_b 23.226071
_cell_length_c 5.295941
_cell_angle_alpha 90.000000
_cell_angle_beta 90.000012
_cell_angle_gamma 90.000000
_cell_volume 1276.797474
_symmetry_space_group_name_H-M "P 21/C"
_symmetry_group_IT_number 14
_symmetry_cell_setting 'monoclinic'
loop_
_space_group_symop_operation_xyz
x,y,z
-x,1/2+y,1/2-z
-x,-y,-z
x,1/2-y,1/2+z
loop_
_atom_site_type_symbol
_atom_site_label
_atom_site_fract_x
_atom_site_fract_y
_atom_site_fract_z
Si Si1 0.387985 0.951718 0.000000
Si Si2 0.862367 0.969640 0.000000
Si Si3 0.346790 0.288296 0.000000
Si Si4 0.483114 0.894811 0.500000
Si Si5 0.776737 0.906727 0.500000
O O1 0.409851 0.913883 0.750206
O O2 0.409851 0.913883 0.249794
O O3 0.500000 0.000000 0.000000
O O4 0.251219 0.983069 1.000000
O O5 0.841693 0.931215 0.750414
O O6 0.841693 0.931215 0.249586
O O7 0.000000 0.000000 0.000000
O O8 0.340629 0.250000 0.250000
O O9 0.475744 0.327872 0.000000
O O10 0.236099 0.337515 0.000000
O O11 0.625010 0.925504 0.500000
#
# Coordination Sequence:
#
# PCOD9239818 Si02
#       5
#     4   4   4   4   4
#     4  12  17  33  51  74 106 140 166 206 256 310
#     4  12  23  34  51  78 112 150 171 213 255 316
#     4  10  18  32  53  81 106 127 168 232 277 290
#     4  10  20  29  53  78 102 129 174 214 258 309
#     4  10  20  35  50  79 109 130 183 211 258 317
#
# _framework density 15.664192
#
# number of rings (size 3 to 8) (size 9 to 14) (size 15 to 20)
#    1.200    0.000    4.000    4.800    0.000    0.000 
#    0.000    0.000    0.000    0.000    0.000   28.000 
#    0.000    0.000    0.000    0.000    0.000    0.000 
#
# Total GULP energy -111492.457879 kJ/mol
# GULP energy per Si atom -5574.622894 kJ/mol
# Density = 1.562854 g / cm^3
# Si number density = 15.664192 Si / 1000 Ang^3
#
#
#
# Elastic Constant Matrix: (Units=GPa)
#
#
# Indices 1 2 3 4 5 6 
#
# 1 93.2143 57.5502 50.4179 0.0000 3.0991 0.0000
# 2 57.5502 132.0257 102.2921 0.0000 -4.4836 0.0000
# 3 50.4179 102.2921 204.9377 0.0000 -14.2949 0.0000
# 4 0.0000 0.0000 0.0000 32.5658 0.0000 -0.7862
# 5 3.0991 -4.4836 -14.2949 0.0000 7.6777 0.0000
# 6 0.0000 0.0000 0.0000 -0.7862 0.0000 24.7195
#
#
#
# Elastic Compliance Matrix: (Units=1/GPa)
#
#
# Indices 1 2 3 4 5 6 
#
# 1 0.015828 -0.005894 -0.001882 0.000000 -0.013336 0.000000
# 2 -0.005894 0.014708 -0.005891 0.000000 -0.000001 0.000000
# 3 -0.001882 -0.005891 0.009305 0.000000 0.014643 0.000000
# 4 0.000000 0.000000 0.000000 0.030731 0.000000 0.000977
# 5 -0.013336 -0.000001 0.014643 0.000000 0.162895 0.000000
# 6 0.000000 0.000000 0.000000 0.000977 0.000000 0.040485
#
#
# Mechanical properties :
#
#
# Convention : Reuss Voigt Hill
#
# Bulk Modulus (GPa) = 79.96410 94.52202 87.24306
# Shear Modulus (GPa) = 16.36899 27.65375 22.01137
#
# Velocity S-wave (km/s) = 3.23614 4.20624 3.75267
# Velocity P-wave (km/s) = 8.06990 9.16862 8.63675
#
# Compressibility (1/GPa) = 0.01250561
#
# Stress axis : x y z
#
# Youngs Moduli (GPa) = 63.17735 67.98976 107.47395
#
# Poissons Ratio (x) = 0.40075 0.20229
# Poissons Ratio (y) = 0.37238 0.63317
# Poissons Ratio (z) = 0.11891 0.40055
#
# Static dielectric constant tensor:
#      x y z
#    x 1.500310 0.000000 -0.001210 
#    y 0.000000 1.522700 0.000000 
#    z -0.001210 0.000000 1.512370 
# 
# From -- ./inp_files/1432.got.cif
#   From: 2010.05.17/outbox.cif.g08.bks.cpg/sg14_1_cif.got.tgz:1432.got - 2010.06.03 17:49:19.
