data_PCOD9239587
_publ_section_title
;
Structure prediction by ZEFSAII (Michael W. Deem and Ramdas Pophale) SiO2 
 PCOD9239587
Probable space group: P 21/C
;
_chemical_formula_sum "Si O2"
_cell_formula_units_Z 28
_cell_length_a 8.861767
_cell_length_b 16.724877
_cell_length_c 12.189044
_cell_angle_alpha 90.000000
_cell_angle_beta 45.030079
_cell_angle_gamma 90.000000
_cell_volume 1278.102787
_symmetry_space_group_name_H-M "P 21/C"
_symmetry_group_IT_number 14
_symmetry_cell_setting 'monoclinic'
loop_
_space_group_symop_operation_xyz
x,y,z
-x,1/2+y,1/2-z
-x,-y,-z
x,1/2-y,1/2+z
loop_
_atom_site_type_symbol
_atom_site_label
_atom_site_fract_x
_atom_site_fract_y
_atom_site_fract_z
Si Si1 0.292067 0.662026 0.263713
Si Si2 0.969112 0.430068 0.427300
Si Si3 0.284674 0.457853 0.575723
Si Si4 0.759315 0.692903 0.017702
Si Si5 0.366263 0.141332 0.809381
Si Si6 0.829556 0.174001 0.579283
Si Si7 0.959847 0.816042 0.749754
O O1 0.207596 0.623721 0.420030
O O2 0.260588 0.757004 0.295150
O O3 0.126412 0.644450 0.251263
O O4 0.539243 0.646017 0.113402
O O5 0.881824 0.471197 0.363499
O O6 0.000000 0.500000 0.500000
O O7 0.198234 0.388212 0.305455
O O8 0.500000 0.500000 0.500000
O O9 0.320760 0.407844 0.444599
O O10 0.198763 0.388644 0.699355
O O11 0.959035 0.644700 0.965752
O O12 0.840034 0.743184 0.870744
O O13 0.696932 0.766107 0.133791
O O14 0.615484 0.126409 0.659416
O O15 0.912939 0.209422 0.422205
#
# Coordination Sequence:
#
# PCOD9239587 Si02
#       7
#     4   4   4   4   4   4   4
#     4  10  19  37  57  84 110 149 190 229 286 343
#     4  10  17  37  64  75 110 156 190 224 283 341
#     4  10  21  37  59  82 108 150 201 234 274 340
#     4   9  19  35  56  83 114 143 182 232 287 338
#     4   9  18  38  56  81 112 147 187 230 283 343
#     4  10  20  35  58  83 118 142 180 245 288 329
#     4  10  20  38  54  85 113 146 188 233 288 343
#
# _framework density 21.907471999999999
#
# number of rings (size 3 to 8) (size 9 to 14) (size 15 to 20)
#    0.000    2.286    5.714    0.000    2.000    2.286 
#    7.714    1.429    0.000    0.000    0.000    0.000 
#    0.000    0.000    0.000    0.000    0.000    0.000 
#
# Total GULP energy -156023.667748 kJ/mol
# GULP energy per Si atom -5572.273848 kJ/mol
# Density = 2.185761 g / cm^3
# Si number density = 21.907472 Si / 1000 Ang^3
#
#
#
# Elastic Constant Matrix: (Units=GPa)
#
#
# Indices 1 2 3 4 5 6 
#
# 1 62.5951 20.3258 40.3071 0.0000 -35.0274 0.0000
# 2 20.3258 28.7157 4.5063 0.0000 -16.6886 0.0000
# 3 40.3071 4.5063 104.3369 0.0000 -39.0241 0.0000
# 4 0.0000 0.0000 0.0000 17.7714 0.0000 -10.5394
# 5 -35.0274 -16.6886 -39.0241 0.0000 43.1579 0.0000
# 6 0.0000 0.0000 0.0000 -10.5394 0.0000 27.7891
#
#
#
# Elastic Compliance Matrix: (Units=1/GPa)
#
#
# Indices 1 2 3 4 5 6 
#
# 1 0.033440 -0.013131 -0.006194 0.000000 0.016462 0.000000
# 2 -0.013131 0.053605 0.009858 0.000000 0.018985 0.000000
# 3 -0.006194 0.009858 0.016768 0.000000 0.013946 0.000000
# 4 0.000000 0.000000 0.000000 0.072600 0.000000 0.027535
# 5 0.016462 0.018985 0.013946 0.000000 0.056483 0.000000
# 6 0.000000 0.000000 0.000000 0.027535 0.000000 0.046428
#
#
# Mechanical properties :
#
#
# Convention : Reuss Voigt Hill
#
# Bulk Modulus (GPa) = 11.78140 36.21401 23.99770
# Shear Modulus (GPa) = 15.31157 26.44425 20.87791
#
# Velocity S-wave (km/s) = 2.64658 3.47809 3.09043
# Velocity P-wave (km/s) = 3.83779 5.71802 4.86952
#
# Compressibility (1/GPa) = 0.08487954
#
# Stress axis : x y z
#
# Youngs Moduli (GPa) = 29.90433 18.65496 59.63834
#
# Poissons Ratio (x) = 0.24495 0.36941
# Poissons Ratio (y) = 0.39266 -0.58793
# Poissons Ratio (z) = 0.18524 -0.18391
#
# Static dielectric constant tensor:
#      x y z
#    x 1.858330 0.000000 -0.035530 
#    y 0.000000 1.837140 0.000000 
#    z -0.035530 0.000000 1.866570 
# 
# From -- ./inp_files/41768.got.cif
#   From: 2010.05.17/outbox.cif.g08.bks.cpg/sg14_21_cif.got.tgz:41768.got - 2010.06.03 17:49:19.
