data_PCOD9239319
_publ_section_title
;
Structure prediction by ZEFSAII (Michael W. Deem and Ramdas Pophale) SiO2 
 PCOD9239319
Probable space group: P 21/C
;
_chemical_formula_sum "Si O2"
_cell_formula_units_Z 32
_cell_length_a 8.844238
_cell_length_b 8.737375
_cell_length_c 21.791557
_cell_angle_alpha 90.000000
_cell_angle_beta 66.956106
_cell_angle_gamma 90.000000
_cell_volume 1549.581287
_symmetry_space_group_name_H-M "P 21/C"
_symmetry_group_IT_number 14
_symmetry_cell_setting 'monoclinic'
loop_
_space_group_symop_operation_xyz
x,y,z
-x,1/2+y,1/2-z
-x,-y,-z
x,1/2-y,1/2+z
loop_
_atom_site_type_symbol
_atom_site_label
_atom_site_fract_x
_atom_site_fract_y
_atom_site_fract_z
Si Si1 0.075548 0.860684 0.799647
Si Si2 0.218541 0.962688 0.087124
Si Si3 0.146717 0.145225 0.973447
Si Si4 0.812240 0.339517 0.587929
Si Si5 0.547918 0.801688 0.909198
Si Si6 0.249732 0.896222 0.580094
Si Si7 0.608609 0.625337 0.029713
Si Si8 0.162262 0.109651 0.694094
O O1 0.166477 0.792666 0.844852
O O2 0.992388 0.723886 0.773940
O O3 0.177382 0.982650 0.744247
O O4 0.921656 0.957103 0.850669
O O5 0.204055 0.780796 0.085576
O O6 0.201709 0.040377 0.022965
O O7 0.389115 0.024604 0.088908
O O8 0.276287 0.277792 0.945549
O O9 0.969101 0.210499 0.021494
O O10 0.157556 0.024555 0.917282
O O11 0.635334 0.301104 0.588063
O O12 0.570100 0.720501 0.972534
O O13 0.677812 0.714277 0.844698
O O14 0.429667 0.906150 0.584404
O O15 0.290196 0.978447 0.509344
O O16 0.134181 0.008397 0.636803
#
# Coordination Sequence:
#
# PCOD9239319 Si02
#       8
#     4   4   4   4   4   4   4   4
#     4  10  21  38  58  76  98 131 176 221 261 309
#     4   9  17  31  55  80 103 140 177 206 250 309
#     4   9  18  32  52  79 110 144 175 205 252 310
#     4  10  18  31  55  80 107 135 170 217 261 304
#     4   9  18  33  53  78 108 138 171 212 258 308
#     4  10  17  28  53  79 102 132 178 218 245 290
#     4   9  18  31  50  78 110 143 175 206 245 306
#     4  10  21  38  56  74  98 134 178 218 260 312
#
# _framework density 20.650739999999999
#
# number of rings (size 3 to 8) (size 9 to 14) (size 15 to 20)
#    0.000    2.500    0.000    4.500    0.000    2.000 
#    0.000    5.000    0.000   72.000    0.000    0.000 
#    0.000    0.000    0.000    0.000    0.000    0.000 
#
# Total GULP energy -178385.840259 kJ/mol
# GULP energy per Si atom -5574.557508 kJ/mol
# Density = 2.060374 g / cm^3
# Si number density = 20.650740 Si / 1000 Ang^3
#
#
#
# Elastic Constant Matrix: (Units=GPa)
#
#
# Indices 1 2 3 4 5 6 
#
# 1 98.4933 13.3992 5.6695 0.0000 0.4127 0.0000
# 2 13.3992 89.3180 -1.4524 0.0000 -2.2475 0.0000
# 3 5.6695 -1.4524 38.1056 0.0000 -2.8453 0.0000
# 4 0.0000 0.0000 0.0000 26.9857 0.0000 -4.2361
# 5 0.4127 -2.2475 -2.8453 0.0000 15.1467 0.0000
# 6 0.0000 0.0000 0.0000 -4.2361 0.0000 33.5697
#
#
#
# Elastic Compliance Matrix: (Units=1/GPa)
#
#
# Indices 1 2 3 4 5 6 
#
# 1 0.010474 -0.001620 -0.001683 0.000000 -0.000842 0.000000
# 2 -0.001620 0.011500 0.000822 0.000000 0.001905 0.000000
# 3 -0.001683 0.000822 0.026915 0.000000 0.005224 0.000000
# 4 0.000000 0.000000 0.000000 0.037806 0.000000 0.004771
# 5 -0.000842 0.001905 0.005224 0.000000 0.067308 0.000000
# 6 0.000000 0.000000 0.000000 0.004771 0.000000 0.030391
#
#
# Mechanical properties :
#
#
# Convention : Reuss Voigt Hill
#
# Bulk Modulus (GPa) = 22.76540 29.01662 25.89101
# Shear Modulus (GPa) = 24.51013 29.02712 26.76862
#
# Velocity S-wave (km/s) = 3.44886 3.75323 3.60426
# Velocity P-wave (km/s) = 5.18724 5.73271 5.46678
#
# Compressibility (1/GPa) = 0.04392631
#
# Stress axis : x y z
#
# Youngs Moduli (GPa) = 95.47697 86.95473 37.15449
#
# Poissons Ratio (x) = 0.14085 0.06253
# Poissons Ratio (y) = 0.15465 -0.03052
# Poissons Ratio (z) = 0.16068 -0.07144
#
# Static dielectric constant tensor:
#      x y z
#    x 1.788120 0.000000 -0.012870 
#    y 0.000000 1.806760 0.000000 
#    z -0.012870 0.000000 1.762030 
# 
# From -- ./inp_files/71922.got.cif
#   From: 2010.05.17/outbox.cif.g08.bks.cpg/sg14_36_cif.got.tgz:71922.got - 2010.06.03 17:49:19.
