data_PCOD9239121
_publ_section_title
;
Structure prediction by ZEFSAII (Michael W. Deem and Ramdas Pophale) SiO2 
 PCOD9239121
Probable space group: P 21/C
;
_chemical_formula_sum "Si O2"
_cell_formula_units_Z 32
_cell_length_a 17.334148
_cell_length_b 20.075443
_cell_length_c 9.521435
_cell_angle_alpha 90.000000
_cell_angle_beta 21.510869
_cell_angle_gamma 90.000000
_cell_volume 1214.939263
_symmetry_space_group_name_H-M "P 21/C"
_symmetry_group_IT_number 14
_symmetry_cell_setting 'monoclinic'
loop_
_space_group_symop_operation_xyz
x,y,z
-x,1/2+y,1/2-z
-x,-y,-z
x,1/2-y,1/2+z
loop_
_atom_site_type_symbol
_atom_site_label
_atom_site_fract_x
_atom_site_fract_y
_atom_site_fract_z
Si Si1 0.807061 0.624565 0.908809
Si Si2 0.609553 0.928216 0.156084
Si Si3 0.961900 0.385440 0.012010
Si Si4 0.661181 0.554798 0.899499
Si Si5 0.704601 0.371767 0.013079
Si Si6 0.195560 0.761651 0.133001
Si Si7 0.062725 0.255248 0.682728
Si Si8 0.148410 0.517156 0.039142
O O1 0.670332 0.613043 0.999611
O O2 0.052981 0.623718 0.447522
O O3 0.780603 0.557834 0.046798
O O4 0.788461 0.696049 0.016562
O O5 0.852678 0.914510 0.708184
O O6 0.609587 0.928353 0.325435
O O7 0.459710 0.876159 0.333964
O O8 0.502448 0.996723 0.288905
O O9 0.789905 0.341350 0.386968
O O10 0.080826 0.331140 0.707079
O O11 0.868014 0.444491 0.081375
O O12 0.898051 0.522856 0.505818
O O13 0.671553 0.300270 0.144667
O O14 0.703740 0.433176 0.121703
O O15 0.979031 0.751810 0.410646
O O16 0.159115 0.743521 0.358636
#
# Coordination Sequence:
#
# PCOD9239121 Si02
#       8
#     4   4   4   4   4   4   4   4
#     4  10  17  28  52  77 103 140 180 220 256 316
#     4  10  17  26  46  81 107 131 162 228 272 304
#     4   9  20  30  52  70 109 142 170 210 275 318
#     4   9  17  26  45  78 110 129 170 215 272 311
#     4  10  15  28  53  76 106 128 178 224 257 305
#     4   9  18  35  55  74  97 145 181 212 255 317
#     4   9  19  33  57  73  99 140 187 213 249 323
#     4  10  15  29  49  77 102 139 172 220 262 309
#
# _framework density 26.338766
#
# number of rings (size 3 to 8) (size 9 to 14) (size 15 to 20)
#    0.750    1.750    3.750    0.750    1.750    0.000 
#    0.000    0.625   16.500    0.750    0.000    0.000 
#    0.000    0.000    0.000    0.000    0.000    0.000 
#
# Total GULP energy -178334.639742 kJ/mol
# GULP energy per Si atom -5572.957492 kJ/mol
# Density = 2.627882 g / cm^3
# Si number density = 26.338766 Si / 1000 Ang^3
#
#
#
# Elastic Constant Matrix: (Units=GPa)
#
#
# Indices 1 2 3 4 5 6 
#
# 1 152.1887 46.0516 34.8335 0.0000 -41.5244 0.0000
# 2 46.0516 143.2064 42.2086 0.0000 -10.7781 0.0000
# 3 34.8335 42.2086 93.4557 0.0000 -19.4625 0.0000
# 4 0.0000 0.0000 0.0000 -26.5078 0.0000 -3.6186
# 5 -41.5244 -10.7781 -19.4625 0.0000 29.3883 0.0000
# 6 0.0000 0.0000 0.0000 -3.6186 0.0000 40.3457
#
#
#
# Elastic Compliance Matrix: (Units=1/GPa)
#
#
# Indices 1 2 3 4 5 6 
#
# 1 0.011535 -0.002571 0.000069 0.000000 0.015402 0.000000
# 2 -0.002571 0.008638 -0.003526 0.000000 -0.002799 0.000000
# 3 0.000069 -0.003526 0.013941 0.000000 0.008037 0.000000
# 4 0.000000 0.000000 0.000000 -0.037268 0.000000 -0.003343
# 5 0.015402 -0.002799 0.008037 0.000000 0.060084 0.000000
# 6 0.000000 0.000000 0.000000 -0.003343 0.000000 0.024486
#
#
# Mechanical properties :
#
#
# Convention : Reuss Voigt Hill
#
# Bulk Modulus (GPa) = 45.33418 70.55979 57.94698
# Shear Modulus (GPa) = 49.59106 26.36238 37.97672
#
# Velocity S-wave (km/s) = 4.34385 3.16713 3.80130
# Velocity P-wave (km/s) = 6.51215 6.34206 6.42767
#
# Compressibility (1/GPa) = 0.02205841
#
# Stress axis : x y z
#
# Youngs Moduli (GPa) = 86.69166 115.76490 71.73196
#
# Poissons Ratio (x) = 0.29758 -0.00495
# Poissons Ratio (y) = 0.22285 0.25294
# Poissons Ratio (z) = -0.00598 0.40821
#
# Static dielectric constant tensor:
#      x y z
#    x 2.042990 0.000000 0.102760 
#    y 0.000000 2.147050 0.000000 
#    z 0.102760 0.000000 2.140820 
# 
# From -- ./inp_files/34428.got.cif
#   From: 2010.05.17/outbox.cif.g08.bks.cpg/sg14_18_cif.got.tgz:34428.got - 2010.06.03 17:49:19.
