data_PCOD9239765
_publ_section_title
;
Structure prediction by ZEFSAII (Michael W. Deem and Ramdas Pophale) SiO2 
 PCOD9239765
Probable space group: P 21/C
;
_chemical_formula_sum "Si O2"
_cell_formula_units_Z 32
_cell_length_a 9.182974
_cell_length_b 22.732652
_cell_length_c 8.998949
_cell_angle_alpha 90.000000
_cell_angle_beta 57.629706
_cell_angle_gamma 90.000000
_cell_volume 1586.642986
_symmetry_space_group_name_H-M "P 21/C"
_symmetry_group_IT_number 14
_symmetry_cell_setting 'monoclinic'
loop_
_space_group_symop_operation_xyz
x,y,z
-x,1/2+y,1/2-z
-x,-y,-z
x,1/2-y,1/2+z
loop_
_atom_site_type_symbol
_atom_site_label
_atom_site_fract_x
_atom_site_fract_y
_atom_site_fract_z
Si Si1 0.090533 0.601945 0.367892
Si Si2 0.224591 0.506043 0.095503
Si Si3 0.727028 0.868011 0.974416
Si Si4 0.317407 0.570958 0.507164
Si Si5 0.307870 0.031479 0.246880
Si Si6 0.437795 0.085974 0.646175
Si Si7 0.470610 0.801902 0.942970
Si Si8 0.582226 0.314862 0.868784
O O1 0.092132 0.549581 0.245749
O O2 0.153728 0.573303 0.488155
O O3 0.242442 0.648241 0.249504
O O4 0.909137 0.634524 0.457582
O O5 0.285255 0.456788 0.177937
O O6 0.193585 0.474248 0.956016
O O7 0.388683 0.547933 0.967105
O O8 0.739367 0.915358 0.835509
O O9 0.647525 0.811276 0.937838
O O10 0.594967 0.892099 0.170190
O O11 0.488856 0.545837 0.327444
O O12 0.296539 0.527828 0.656907
O O13 0.363168 0.637791 0.526872
O O14 0.456175 0.141678 0.527380
O O15 0.489608 0.799139 0.755004
O O16 0.385938 0.743514 0.053567
#
# Coordination Sequence:
#
# PCOD9239765 Si02
#       8
#     4   4   4   4   4   4   4   4
#     4  10  22  37  55  83 116 144 182 235 285 328
#     4  10  18  32  54  82 113 150 191 225 265 330
#     4  11  22  36  56  84 116 146 182 234 286 328
#     4   9  18  34  54  80 111 149 189 224 267 333
#     4  10  18  31  55  82 113 152 190 223 266 329
#     4  10  19  33  57  82 109 150 192 225 268 329
#     4  10  20  37  60  81 106 143 188 226 271 334
#     4  10  21  40  63  81 104 145 190 228 272 336
#
# _framework density 20.168368999999998
#
# number of rings (size 3 to 8) (size 9 to 14) (size 15 to 20)
#    0.000    2.000    0.000    7.500    0.000    3.500 
#    0.000    6.250    0.000    0.000    0.000    0.000 
#    0.000    0.000    0.000    0.000    0.000    0.000 
#
# Total GULP energy -178678.601448 kJ/mol
# GULP energy per Si atom -5583.706295 kJ/mol
# Density = 2.012247 g / cm^3
# Si number density = 20.168369 Si / 1000 Ang^3
#
#
#
# Elastic Constant Matrix: (Units=GPa)
#
#
# Indices 1 2 3 4 5 6 
#
# 1 76.0070 -8.9032 18.9021 0.0000 8.3739 0.0000
# 2 -8.9032 79.5086 17.9972 0.0000 11.8410 0.0000
# 3 18.9021 17.9972 39.8796 0.0000 27.3601 0.0000
# 4 0.0000 0.0000 0.0000 30.6507 0.0000 10.8722
# 5 8.3739 11.8410 27.3601 0.0000 28.0444 0.0000
# 6 0.0000 0.0000 0.0000 10.8722 0.0000 22.2924
#
#
#
# Elastic Compliance Matrix: (Units=1/GPa)
#
#
# Indices 1 2 3 4 5 6 
#
# 1 0.016559 0.004104 -0.015483 0.000000 0.008428 0.000000
# 2 0.004104 0.015031 -0.010686 0.000000 0.002854 0.000000
# 3 -0.015483 -0.010686 0.093656 0.000000 -0.082236 0.000000
# 4 0.000000 0.000000 0.000000 0.039451 0.000000 -0.019240
# 5 0.008428 0.002854 -0.082236 0.000000 0.112166 0.000000
# 6 0.000000 0.000000 0.000000 -0.019240 0.000000 0.054242
#
#
# Mechanical properties :
#
#
# Convention : Reuss Voigt Hill
#
# Bulk Modulus (GPa) = 12.32810 27.93194 20.13002
# Shear Modulus (GPa) = 12.42935 27.35743 19.89339
#
# Velocity S-wave (km/s) = 2.48519 3.68700 3.14405
# Velocity P-wave (km/s) = 3.78956 5.65727 4.81485
#
# Compressibility (1/GPa) = 0.08111552
#
# Stress axis : x y z
#
# Youngs Moduli (GPa) = 60.38899 66.53065 10.67734
#
# Poissons Ratio (x) = -0.27303 0.16532
# Poissons Ratio (y) = -0.24782 0.11410
# Poissons Ratio (z) = 0.93500 0.71096
#
# Static dielectric constant tensor:
#      x y z
#    x 1.761730 0.000000 0.008230 
#    y 0.000000 1.704960 0.000000 
#    z 0.008230 0.000000 1.717610 
# 
# From -- ./inp_files/10790.got.cif
#   From: 2010.05.17/outbox.cif.g08.bks.cpg/sg14_6_cif.got.tgz:10790.got - 2010.06.03 17:49:19.
