data_PCOD9239799
_publ_section_title
;
Structure prediction by ZEFSAII (Michael W. Deem and Ramdas Pophale) SiO2 
 PCOD9239799
Probable space group: P 21/C
;
_chemical_formula_sum "Si O2"
_cell_formula_units_Z 24
_cell_length_a 21.792113
_cell_length_b 7.559964
_cell_length_c 8.245762
_cell_angle_alpha 90.000000
_cell_angle_beta 132.577754
_cell_angle_gamma 90.000000
_cell_volume 1000.322321
_symmetry_space_group_name_H-M "P 21/C"
_symmetry_group_IT_number 14
_symmetry_cell_setting 'monoclinic'
loop_
_space_group_symop_operation_xyz
x,y,z
-x,1/2+y,1/2-z
-x,-y,-z
x,1/2-y,1/2+z
loop_
_atom_site_type_symbol
_atom_site_label
_atom_site_fract_x
_atom_site_fract_y
_atom_site_fract_z
Si Si1 0.493928 0.886349 0.650173
Si Si2 0.327279 0.568903 0.016890
Si Si3 0.889341 0.146086 0.364159
Si Si4 0.372099 0.923918 0.944729
Si Si5 0.997852 0.867228 0.144461
Si Si6 0.171565 0.499123 0.557533
O O1 0.421277 0.970888 0.631207
O O2 0.451077 0.699757 0.531158
O O3 0.500000 0.000000 0.500000
O O4 0.583698 0.908672 0.894482
O O5 0.324955 0.782542 0.975825
O O6 0.317439 0.536691 0.189775
O O7 0.262506 0.462317 0.790749
O O8 0.851054 0.325720 0.373175
O O9 0.962450 0.195482 0.366675
O O10 0.935966 0.068973 0.602988
O O11 0.828989 0.040493 0.135640
O O12 0.904059 0.863899 0.043439
O O13 0.000000 0.000000 0.000000
#
# Coordination Sequence:
#
# PCOD9239799 Si02
#       6
#     4   4   4   4   4   4
#     4  10  19  35  54  78 104 141 180 219 268 331
#     4  10  20  30  55  80 107 131 178 223 275 300
#     4   9  18  31  53  75 105 142 178 205 262 319
#     4  10  19  34  55  78 105 139 179 220 267 330
#     4   9  18  32  52  78 102 143 178 213 257 319
#     4  10  18  32  51  80 108 129 174 226 261 304
#
# _framework density 23.992269
#
# number of rings (size 3 to 8) (size 9 to 14) (size 15 to 20)
#    1.000    1.333    1.667    2.000    0.000    0.000 
#    0.000    0.000    7.333    0.000    0.000    0.000 
#    0.000    0.000    0.000    0.000    0.000    0.000 
#
# Total GULP energy -133736.191191 kJ/mol
# GULP energy per Si atom -5572.341300 kJ/mol
# Density = 2.393766 g / cm^3
# Si number density = 23.992269 Si / 1000 Ang^3
#
#
#
# Elastic Constant Matrix: (Units=GPa)
#
#
# Indices 1 2 3 4 5 6 
#
# 1 48.9891 -4.7767 22.0361 0.0000 -5.1743 0.0000
# 2 -4.7767 29.4156 6.0541 0.0000 -0.0130 0.0000
# 3 22.0361 6.0541 198.7443 0.0000 -26.4897 0.0000
# 4 0.0000 0.0000 0.0000 21.7037 0.0000 2.4010
# 5 -5.1743 -0.0130 -26.4897 0.0000 45.1457 0.0000
# 6 0.0000 0.0000 0.0000 2.4010 0.0000 25.2254
#
#
#
# Elastic Compliance Matrix: (Units=1/GPa)
#
#
# Indices 1 2 3 4 5 6 
#
# 1 0.022014 0.004073 -0.002418 0.000000 0.001106 0.000000
# 2 0.004073 0.034981 -0.001577 0.000000 -0.000448 0.000000
# 3 -0.002418 -0.001577 0.005761 0.000000 0.003103 0.000000
# 4 0.000000 0.000000 0.000000 0.046565 0.000000 -0.004432
# 5 0.001106 -0.000448 0.003103 0.000000 0.024098 0.000000
# 6 0.000000 0.000000 0.000000 -0.004432 0.000000 0.040064
#
#
# Mechanical properties :
#
#
# Convention : Reuss Voigt Hill
#
# Bulk Modulus (GPa) = 15.89487 35.97513 25.93500
# Shear Modulus (GPa) = 25.73357 35.33732 30.53545
#
# Velocity S-wave (km/s) = 3.27858 3.84195 3.57139
# Velocity P-wave (km/s) = 4.57946 5.89133 5.27633
#
# Compressibility (1/GPa) = 0.06291338
#
# Stress axis : x y z
#
# Youngs Moduli (GPa) = 45.42553 28.58665 173.57329
#
# Poissons Ratio (x) = -0.11643 0.41962
# Poissons Ratio (y) = -0.18501 0.27372
# Poissons Ratio (z) = 0.10982 0.04508
#
# Static dielectric constant tensor:
#      x y z
#    x 1.927440 0.000000 0.025920 
#    y 0.000000 2.019010 0.000000 
#    z 0.025920 0.000000 2.020960 
# 
# From -- ./inp_files/19817.got.cif
#   From: 2010.05.17/outbox.cif.g08.bks.cpg/sg14_10_cif.got.tgz:19817.got - 2010.06.03 17:49:19.
