data_PCOD9239331
_publ_section_title
;
Structure prediction by ZEFSAII (Michael W. Deem and Ramdas Pophale) SiO2 
 PCOD9239331
Probable space group: P 21/C
;
_chemical_formula_sum "Si O2"
_cell_formula_units_Z 20
_cell_length_a 16.978366
_cell_length_b 5.645730
_cell_length_c 23.279309
_cell_angle_alpha 90.000000
_cell_angle_beta 161.081463
_cell_angle_gamma 90.000000
_cell_volume 723.486709
_symmetry_space_group_name_H-M "P 21/C"
_symmetry_group_IT_number 14
_symmetry_cell_setting 'monoclinic'
loop_
_space_group_symop_operation_xyz
x,y,z
-x,1/2+y,1/2-z
-x,-y,-z
x,1/2-y,1/2+z
loop_
_atom_site_type_symbol
_atom_site_label
_atom_site_fract_x
_atom_site_fract_y
_atom_site_fract_z
Si Si1 0.861874 0.999999 0.465118
Si Si2 0.426447 0.500000 0.875154
Si Si3 0.030987 0.000002 0.237363
Si Si4 0.838087 0.499999 0.483333
Si Si5 0.378950 0.500000 0.353719
O O1 0.739949 0.746202 0.390250
O O2 0.090869 1.000000 0.667510
O O3 0.739948 0.253796 0.390249
O O4 0.000000 0.000000 0.500000
O O5 0.129398 0.499999 0.671138
O O6 0.453105 0.766383 0.871261
O O7 0.453107 0.233616 0.871262
O O8 0.686193 0.500001 0.091617
O O9 0.999999 0.750003 0.249999
O O10 0.844853 0.000002 0.056419
O O11 0.500000 0.500000 0.500000
#
# Coordination Sequence:
#
# PCOD9239331 Si02
#       5
#     4   4   4   4   4
#     4  10  19  32  55  87 112 139 183 236 279 316
#     4  10  19  33  52  74 106 141 177 218 271 327
#     4  12  23  34  52  84 117 147 181 230 284 327
#     4  10  20  36  55  78 111 148 183 228 274 331
#     4  10  17  29  51  77 104 137 172 218 270 321
#
# _framework density 27.643909000000001
#
# number of rings (size 3 to 8) (size 9 to 14) (size 15 to 20)
#    0.000    1.600    0.000    9.000    0.000    0.000 
#    0.000    0.000    0.000    0.000    0.000  112.000 
#    0.000    0.000    0.000    0.000    0.000    0.000 
#
# Total GULP energy -111363.088004 kJ/mol
# GULP energy per Si atom -5568.154400 kJ/mol
# Density = 2.758099 g / cm^3
# Si number density = 27.643909 Si / 1000 Ang^3
#
#
#
# Elastic Constant Matrix: (Units=GPa)
#
#
# Indices 1 2 3 4 5 6 
#
# 1 78.2730 66.2519 30.9463 0.0000 -8.6346 0.0000
# 2 66.2519 414.2464 -11.4236 0.0000 -20.1026 0.0000
# 3 30.9463 -11.4236 87.0097 0.0000 15.8666 0.0000
# 4 0.0000 0.0000 0.0000 -157.9381 0.0000 -52.7292
# 5 -8.6346 -20.1026 15.8666 0.0000 65.3699 0.0000
# 6 0.0000 0.0000 0.0000 -52.7292 0.0000 17.2728
#
#
#
# Elastic Compliance Matrix: (Units=1/GPa)
#
#
# Indices 1 2 3 4 5 6 
#
# 1 0.018779 -0.003050 -0.007702 0.000000 0.003412 0.000000
# 2 -0.003050 0.002949 0.001444 0.000000 0.000154 0.000000
# 3 -0.007702 0.001444 0.015199 0.000000 -0.004262 0.000000
# 4 0.000000 0.000000 0.000000 -0.003136 0.000000 -0.009573
# 5 0.003412 0.000154 -0.004262 0.000000 0.016830 0.000000
# 6 0.000000 0.000000 0.000000 -0.009573 0.000000 0.028672
#
#
# Mechanical properties :
#
#
# Convention : Reuss Voigt Hill
#
# Bulk Modulus (GPa) = 54.61051 83.45313 69.03182
# Shear Modulus (GPa) = 48.07102 17.85789 32.96445
#
# Velocity S-wave (km/s) = 4.17458 2.54441 3.45696
# Velocity P-wave (km/s) = 6.56003 6.23588 6.40001
#
# Compressibility (1/GPa) = 0.01831149
#
# Stress axis : x y z
#
# Youngs Moduli (GPa) = 53.25140 339.08407 65.79377
#
# Poissons Ratio (x) = 1.03427 0.50672
# Poissons Ratio (y) = 0.16243 -0.09501
# Poissons Ratio (z) = 0.41012 -0.48965
#
# Static dielectric constant tensor:
#      x y z
#    x 2.300000 0.000000 -0.049280 
#    y 0.000000 2.155850 0.000000 
#    z -0.049280 0.000000 2.264340 
# 
# From -- ./inp_files/67923.got.cif
#   From: 2010.05.17/outbox.cif.g08.bks.cpg/sg14_34_cif.got.tgz:67923.got - 2010.06.03 17:49:19.
