data_PCOD9239130
_publ_section_title
;
Structure prediction by ZEFSAII (Michael W. Deem and Ramdas Pophale) SiO2 
 PCOD9239130
Probable space group: P 21/C
;
_chemical_formula_sum "Si O2"
_cell_formula_units_Z 32
_cell_length_a 8.905756
_cell_length_b 12.680333
_cell_length_c 27.461963
_cell_angle_alpha 90.000000
_cell_angle_beta 147.993484
_cell_angle_gamma 90.000000
_cell_volume 1643.697019
_symmetry_space_group_name_H-M "P 21/C"
_symmetry_group_IT_number 14
_symmetry_cell_setting 'monoclinic'
loop_
_space_group_symop_operation_xyz
x,y,z
-x,1/2+y,1/2-z
-x,-y,-z
x,1/2-y,1/2+z
loop_
_atom_site_type_symbol
_atom_site_label
_atom_site_fract_x
_atom_site_fract_y
_atom_site_fract_z
Si Si1 0.016680 0.811638 0.720617
Si Si2 0.584933 0.621628 0.019715
Si Si3 0.622924 0.802954 0.848177
Si Si4 0.259213 0.923845 0.880473
Si Si5 0.184367 0.292535 0.487664
Si Si6 0.600925 0.864711 0.122655
Si Si7 0.114685 0.774785 0.922121
Si Si8 0.759342 0.038521 0.895178
O O1 0.781914 0.858107 0.620532
O O2 0.863111 0.711865 0.702360
O O3 0.292834 0.781170 0.765152
O O4 0.111709 0.889015 0.789612
O O5 0.500000 0.500000 0.000000
O O6 0.761172 0.680982 0.024680
O O7 0.289100 0.685172 0.942299
O O8 0.758540 0.780844 0.938841
O O9 0.811682 0.743688 0.860273
O O10 0.663606 0.927422 0.846155
O O11 0.566414 0.868593 0.963394
O O12 0.097338 0.874840 0.881446
O O13 0.305713 0.047813 0.890916
O O14 0.899959 0.363835 0.404684
O O15 0.499916 0.919279 0.144094
O O16 0.323738 0.808039 0.023971
O O17 0.000000 0.000000 0.000000
#
# Coordination Sequence:
#
# PCOD9239130 Si02
#       8
#     4   4   4   4   4   4   4   4
#     4  10  23  36  54  84 119 151 196 233 285 363
#     4  10  23  42  57  78 116 169 198 228 288 374
#     4  10  18  37  57  89 117 140 187 252 298 332
#     4  10  19  35  56  87 115 149 184 245 304 336
#     4   9  17  34  61  84 105 146 195 236 291 345
#     4  11  18  34  60  87 115 151 193 239 292 356
#     4  10  20  35  62  86 111 141 202 249 288 351
#     4  10  15  31  63  89 111 143 186 243 306 334
#
# _framework density 19.468306999999999
#
# number of rings (size 3 to 8) (size 9 to 14) (size 15 to 20)
#    0.000    2.000    6.250    0.375    0.000    5.000 
#    2.250    1.875    0.000    0.000    0.000    0.000 
#    0.000    0.000    0.000    0.000    0.000    0.000 
#
# Total GULP energy -178313.355150 kJ/mol
# GULP energy per Si atom -5572.292348 kJ/mol
# Density = 1.942400 g / cm^3
# Si number density = 19.468307 Si / 1000 Ang^3
#
#
#
# Elastic Constant Matrix: (Units=GPa)
#
#
# Indices 1 2 3 4 5 6 
#
# 1 104.7995 25.7524 25.7467 0.0000 22.9555 0.0000
# 2 25.7524 88.3663 14.1258 0.0000 12.0771 0.0000
# 3 25.7467 14.1258 53.4578 0.0000 19.9738 0.0000
# 4 0.0000 0.0000 0.0000 18.3298 0.0000 6.2735
# 5 22.9555 12.0771 19.9738 0.0000 26.5666 0.0000
# 6 0.0000 0.0000 0.0000 6.2735 0.0000 33.8405
#
#
#
# Elastic Compliance Matrix: (Units=1/GPa)
#
#
# Indices 1 2 3 4 5 6 
#
# 1 0.012401 -0.002142 -0.002457 0.000000 -0.007894 0.000000
# 2 -0.002142 0.012534 -0.001172 0.000000 -0.002965 0.000000
# 3 -0.002457 -0.001172 0.026710 0.000000 -0.017426 0.000000
# 4 0.000000 0.000000 0.000000 0.058252 0.000000 -0.010799
# 5 -0.007894 -0.002965 -0.017426 0.000000 0.058912 0.000000
# 6 0.000000 0.000000 0.000000 -0.010799 0.000000 0.031552
#
#
# Mechanical properties :
#
#
# Convention : Reuss Voigt Hill
#
# Bulk Modulus (GPa) = 24.93628 41.98594 33.46111
# Shear Modulus (GPa) = 22.19535 27.81395 25.00465
#
# Velocity S-wave (km/s) = 3.38016 3.78389 3.58771
# Velocity P-wave (km/s) = 5.29816 6.37993 5.86404
#
# Compressibility (1/GPa) = 0.04010221
#
# Stress axis : x y z
#
# Youngs Moduli (GPa) = 80.63658 79.78607 37.43846
#
# Poissons Ratio (x) = 0.17093 0.09199
# Poissons Ratio (y) = 0.17275 0.04388
# Poissons Ratio (z) = 0.19813 0.09352
#
# Static dielectric constant tensor:
#      x y z
#    x 1.717700 0.000000 -0.008170 
#    y 0.000000 1.733510 0.000000 
#    z -0.008170 0.000000 1.687710 
# 
# From -- ./inp_files/79618.got.cif
#   From: 2010.05.17/outbox.cif.g08.bks.cpg/sg14_40_cif.got.tgz:79618.got - 2010.06.03 17:49:19.
