data_PCOD9239781
_publ_section_title
;
Structure prediction by ZEFSAII (Michael W. Deem and Ramdas Pophale) SiO2 
 PCOD9239781
Probable space group: P 21/C
;
_chemical_formula_sum "Si O2"
_cell_formula_units_Z 32
_cell_length_a 21.389794
_cell_length_b 15.194474
_cell_length_c 11.588597
_cell_angle_alpha 90.000000
_cell_angle_beta 150.738142
_cell_angle_gamma 90.000000
_cell_volume 1841.009089
_symmetry_space_group_name_H-M "P 21/C"
_symmetry_group_IT_number 14
_symmetry_cell_setting 'monoclinic'
loop_
_space_group_symop_operation_xyz
x,y,z
-x,1/2+y,1/2-z
-x,-y,-z
x,1/2-y,1/2+z
loop_
_atom_site_type_symbol
_atom_site_label
_atom_site_fract_x
_atom_site_fract_y
_atom_site_fract_z
Si Si1 0.680587 0.021314 0.384084
Si Si2 0.103140 0.498863 0.376859
Si Si3 0.784991 0.621359 0.632650
Si Si4 0.211860 0.093355 0.253414
Si Si5 0.595925 0.909301 0.036244
Si Si6 0.061395 0.623076 0.736704
Si Si7 0.020817 0.315817 0.864150
Si Si8 0.268613 0.245191 0.163970
O O1 0.806614 0.081729 0.590854
O O2 0.706961 0.938124 0.509207
O O3 0.654056 0.984159 0.213588
O O4 0.552936 0.070844 0.218216
O O5 0.161873 0.460757 0.354552
O O6 0.202462 0.483599 0.641656
O O7 0.988439 0.432481 0.231853
O O8 0.056159 0.597388 0.291194
O O9 0.676819 0.594597 0.549386
O O10 0.730390 0.689893 0.451091
O O11 0.901174 0.663950 0.892397
O O12 0.260073 0.177620 0.259058
O O13 0.062495 0.109072 0.046085
O O14 0.621103 0.815606 0.138642
O O15 0.062009 0.727052 0.761054
O O16 0.133686 0.296798 0.954113
#
# Coordination Sequence:
#
# PCOD9239781 Si02
#       8
#     4   4   4   4   4   4   4   4
#     4  11  21  40  53  83 122 144 194 234 287 346
#     4   9  19  35  56  89 117 144 187 237 292 337
#     4  10  19  37  58  82 116 147 198 229 274 345
#     4   8  19  35  60  83 112 146 183 240 290 333
#     4  10  24  35  61  80 109 163 188 233 280 331
#     4   9  19  34  57  88 108 148 185 234 295 335
#     4  10  18  31  57  90 113 148 179 238 299 329
#     4   9  19  36  57  87 105 145 206 226 271 350
#
# _framework density 17.381771000000001
#
# number of rings (size 3 to 8) (size 9 to 14) (size 15 to 20)
#    0.750    1.750    1.250    2.250    5.250    1.000 
#    0.000    5.000    0.000    0.000    0.000    0.000 
#    0.000    0.000    0.000    0.000    0.000    0.000 
#
# Total GULP energy -178253.176869 kJ/mol
# GULP energy per Si atom -5570.411777 kJ/mol
# Density = 1.734221 g / cm^3
# Si number density = 17.381771 Si / 1000 Ang^3
#
#
#
# Elastic Constant Matrix: (Units=GPa)
#
#
# Indices 1 2 3 4 5 6 
#
# 1 73.9820 28.3036 18.1744 0.0000 -0.3374 0.0000
# 2 28.3036 103.2714 30.1115 0.0000 9.5720 0.0000
# 3 18.1744 30.1115 54.6706 0.0000 9.1353 0.0000
# 4 0.0000 0.0000 0.0000 21.7684 0.0000 5.1669
# 5 -0.3374 9.5720 9.1353 0.0000 14.9513 0.0000
# 6 0.0000 0.0000 0.0000 5.1669 0.0000 18.4130
#
#
#
# Elastic Compliance Matrix: (Units=1/GPa)
#
#
# Indices 1 2 3 4 5 6 
#
# 1 0.015960 -0.003643 -0.004176 0.000000 0.005244 0.000000
# 2 -0.003643 0.012575 -0.004852 0.000000 -0.005169 0.000000
# 3 -0.004176 -0.004852 0.024333 0.000000 -0.011856 0.000000
# 4 0.000000 0.000000 0.000000 0.049216 0.000000 -0.013811
# 5 0.005244 -0.005169 -0.011856 0.000000 0.077555 0.000000
# 6 0.000000 0.000000 0.000000 -0.013811 0.000000 0.058185
#
#
# Mechanical properties :
#
#
# Convention : Reuss Voigt Hill
#
# Bulk Modulus (GPa) = 36.32621 42.78925 39.55773
# Shear Modulus (GPa) = 18.35942 21.38217 19.87080
#
# Velocity S-wave (km/s) = 3.25352 3.51115 3.38479
# Velocity P-wave (km/s) = 5.92100 6.41158 6.17117
#
# Compressibility (1/GPa) = 0.02752833
#
# Stress axis : x y z
#
# Youngs Moduli (GPa) = 62.65634 79.52125 41.09709
#
# Poissons Ratio (x) = 0.28967 0.17160
# Poissons Ratio (y) = 0.22824 0.19939
# Poissons Ratio (z) = 0.26162 0.38580
#
# Static dielectric constant tensor:
#      x y z
#    x 1.601740 0.000000 -0.024010 
#    y 0.000000 1.604500 0.000000 
#    z -0.024010 0.000000 1.591500 
# 
# From -- ./inp_files/35340.got.cif
#   From: 2010.05.17/outbox.cif.g08.bks.cpg/sg14_18_cif.got.tgz:35340.got - 2010.06.03 17:49:19.
