data_PCOD9239364
_publ_section_title
;
Structure prediction by ZEFSAII (Michael W. Deem and Ramdas Pophale) SiO2 
 PCOD9239364
Probable space group: P 21/C
;
_chemical_formula_sum "Si O2"
_cell_formula_units_Z 24
_cell_length_a 10.183630
_cell_length_b 5.094192
_cell_length_c 17.020324
_cell_angle_alpha 90.000000
_cell_angle_beta 107.980362
_cell_angle_gamma 90.000000
_cell_volume 839.847448
_symmetry_space_group_name_H-M "P 21/C"
_symmetry_group_IT_number 14
_symmetry_cell_setting 'monoclinic'
loop_
_space_group_symop_operation_xyz
x,y,z
-x,1/2+y,1/2-z
-x,-y,-z
x,1/2-y,1/2+z
loop_
_atom_site_type_symbol
_atom_site_label
_atom_site_fract_x
_atom_site_fract_y
_atom_site_fract_z
Si Si1 0.918651 0.784940 0.562311
Si Si2 0.919161 0.225804 0.766402
Si Si3 0.419150 0.246462 0.265892
Si Si4 0.308612 0.638675 0.017950
Si Si5 0.751760 0.647394 0.401630
Si Si6 0.692964 0.046355 0.119825
O O1 0.059635 0.760942 0.635842
O O2 0.900336 0.701945 0.468123
O O3 0.809552 0.607247 0.591306
O O4 0.843657 0.067554 0.547147
O O5 0.022989 0.447828 0.751279
O O6 0.770751 0.290695 0.702629
O O7 0.496163 0.487827 0.238317
O O8 0.273507 0.203378 0.193592
O O9 0.395641 0.329597 0.350990
O O10 0.381994 0.763125 0.955881
O O11 0.338228 0.365606 0.066599
O O12 0.298128 0.863978 0.080732
#
# Coordination Sequence:
#
# PCOD9239364 Si02
#       6
#     4   4   4   4   4   4
#     4   8  18  34  62  89 117 146 187 235 296 347
#     4  10  17  30  57  94 119 146 183 238 293 344
#     4  12  28  43  60  82 119 162 202 244 298 339
#     4   9  17  36  62  84 117 148 188 236 294 335
#     4   9  19  39  59  82 118 155 186 245 295 345
#     4  10  21  38  62  90 121 152 202 241 281 348
#
# _framework density 28.576619999999998
#
# number of rings (size 3 to 8) (size 9 to 14) (size 15 to 20)
#    1.000    1.333    1.667    1.000    2.333    0.000 
#    0.000   12.500    0.000    1.000    0.000    0.000 
#    0.000    0.000    0.000    0.000    0.000    0.000 
#
# Total GULP energy -134416.177255 kJ/mol
# GULP energy per Si atom -5600.674052 kJ/mol
# Density = 2.851158 g / cm^3
# Si number density = 28.576620 Si / 1000 Ang^3
#
#
#
# Elastic Constant Matrix: (Units=GPa)
#
#
# Indices 1 2 3 4 5 6 
#
# 1 76.4287 29.8987 27.7310 0.0000 -20.4357 0.0000
# 2 29.8987 177.2339 36.5697 0.0000 -8.0219 0.0000
# 3 27.7310 36.5697 134.5157 0.0000 8.0314 0.0000
# 4 0.0000 0.0000 0.0000 46.1150 0.0000 -0.4308
# 5 -20.4357 -8.0219 8.0314 0.0000 17.2523 0.0000
# 6 0.0000 0.0000 0.0000 -0.4308 0.0000 29.8158
#
#
#
# Elastic Compliance Matrix: (Units=1/GPa)
#
#
# Indices 1 2 3 4 5 6 
#
# 1 0.024318 -0.001346 -0.006511 0.000000 0.031210 0.000000
# 2 -0.001346 0.006283 -0.001553 0.000000 0.002049 0.000000
# 3 -0.006511 -0.001553 0.009979 0.000000 -0.013080 0.000000
# 4 0.000000 0.000000 0.000000 0.021688 0.000000 0.000313
# 5 0.031210 0.002049 -0.013080 0.000000 0.101975 0.000000
# 6 0.000000 0.000000 0.000000 0.000313 0.000000 0.033544
#
#
# Mechanical properties :
#
#
# Convention : Reuss Voigt Hill
#
# Bulk Modulus (GPa) = 45.95511 64.06414 55.00962
# Shear Modulus (GPa) = 22.33544 38.23520 30.28532
#
# Velocity S-wave (km/s) = 2.79874 3.66182 3.25898
# Velocity P-wave (km/s) = 5.15366 6.35182 5.78385
#
# Compressibility (1/GPa) = 0.02176037
#
# Stress axis : x y z
#
# Youngs Moduli (GPa) = 41.12148 159.17141 100.20670
#
# Poissons Ratio (x) = 0.21430 0.65242
# Poissons Ratio (y) = 0.05536 0.15560
# Poissons Ratio (z) = 0.26773 0.24716
#
# Static dielectric constant tensor:
#      x y z
#    x 2.223540 0.000000 0.059970 
#    y 0.000000 2.234970 0.000000 
#    z 0.059970 0.000000 2.279730 
# 
# From -- ./inp_files/56578.got.cif
#   From: 2010.05.17/outbox.cif.g08.bks.cpg/sg14_29_cif.got.tgz:56578.got - 2010.06.03 17:49:19.
