data_PCOD9239349
_publ_section_title
;
Structure prediction by ZEFSAII (Michael W. Deem and Ramdas Pophale) SiO2 
 PCOD9239349
Probable space group: P 21/C
;
_chemical_formula_sum "Si O2"
_cell_formula_units_Z 24
_cell_length_a 14.632256
_cell_length_b 14.475001
_cell_length_c 8.777768
_cell_angle_alpha 90.000000
_cell_angle_beta 152.526696
_cell_angle_gamma 90.000000
_cell_volume 857.690609
_symmetry_space_group_name_H-M "P 21/C"
_symmetry_group_IT_number 14
_symmetry_cell_setting 'monoclinic'
loop_
_space_group_symop_operation_xyz
x,y,z
-x,1/2+y,1/2-z
-x,-y,-z
x,1/2-y,1/2+z
loop_
_atom_site_type_symbol
_atom_site_label
_atom_site_fract_x
_atom_site_fract_y
_atom_site_fract_z
Si Si1 0.381100 0.896416 0.430061
Si Si2 0.020510 0.112917 0.036843
Si Si3 0.615395 0.948378 0.038016
Si Si4 0.793113 0.094584 0.153752
Si Si5 0.431928 0.791880 0.941233
Si Si6 0.019061 0.265163 0.823126
O O1 0.211074 0.864223 0.293927
O O2 0.502505 0.965722 0.711948
O O3 0.265675 0.927285 0.108569
O O4 0.517079 0.809048 0.597033
O O5 0.105473 0.169446 0.019144
O O6 0.099254 0.167054 0.305633
O O7 0.000000 0.000000 0.000000
O O8 0.568839 0.844359 0.021203
O O9 0.813156 0.007115 0.297639
O O10 0.500000 0.000000 0.000000
O O11 0.613992 0.151430 0.972276
O O12 0.976691 0.165216 0.403407
O O13 0.205476 0.767078 0.555912
#
# Coordination Sequence:
#
# PCOD9239349 Si02
#       6
#     4   4   4   4   4   4
#     4  10  17  30  49  75 114 133 188 223 265 325
#     4  10  20  34  60  89 105 149 189 240 292 328
#     4  10  18  26  45  81 107 142 180 213 270 325
#     4   9  16  26  46  78 105 140 174 218 264 315
#     4   9  15  28  47  74 108 137 173 223 254 315
#     4  10  17  34  56  82 115 134 193 233 272 341
#
# _framework density 27.982118
#
# number of rings (size 3 to 8) (size 9 to 14) (size 15 to 20)
#    0.000    2.667    5.000    1.500    0.000    0.000 
#    0.000    0.833    0.000    0.000   78.000    0.000 
#    0.000    0.000    0.000    0.000    0.000    0.000 
#
# Total GULP energy -133606.221166 kJ/mol
# GULP energy per Si atom -5566.925882 kJ/mol
# Density = 2.791843 g / cm^3
# Si number density = 27.982118 Si / 1000 Ang^3
#
#
#
# Elastic Constant Matrix: (Units=GPa)
#
#
# Indices 1 2 3 4 5 6 
#
# 1 116.8369 53.2920 15.6955 0.0000 -10.2922 0.0000
# 2 53.2920 195.0884 39.9150 0.0000 -26.1181 0.0000
# 3 15.6955 39.9150 52.1944 0.0000 -13.1748 0.0000
# 4 0.0000 0.0000 0.0000 31.3641 0.0000 -12.4879
# 5 -10.2922 -26.1181 -13.1748 0.0000 27.2701 0.0000
# 6 0.0000 0.0000 0.0000 -12.4879 0.0000 75.2601
#
#
#
# Elastic Compliance Matrix: (Units=1/GPa)
#
#
# Indices 1 2 3 4 5 6 
#
# 1 0.009850 -0.002373 -0.000892 0.000000 0.001015 0.000000
# 2 -0.002373 0.007073 -0.003658 0.000000 0.004111 0.000000
# 3 -0.000892 -0.003658 0.024207 0.000000 0.007855 0.000000
# 4 0.000000 0.000000 0.000000 0.034139 0.000000 0.005665
# 5 0.001015 0.004111 0.007855 0.000000 0.044786 0.000000
# 6 0.000000 0.000000 0.000000 0.005665 0.000000 0.014227
#
#
# Mechanical properties :
#
#
# Convention : Reuss Voigt Hill
#
# Bulk Modulus (GPa) = 36.64777 64.65830 50.65303
# Shear Modulus (GPa) = 31.80229 43.79335 37.79782
#
# Velocity S-wave (km/s) = 3.37489 3.96036 3.67929
# Velocity P-wave (km/s) = 5.32088 6.63851 6.01588
#
# Compressibility (1/GPa) = 0.02728679
#
# Stress axis : x y z
#
# Youngs Moduli (GPa) = 101.52026 141.38791 41.31009
#
# Poissons Ratio (x) = 0.33544 0.03683
# Poissons Ratio (y) = 0.24086 0.15109
# Poissons Ratio (z) = 0.09052 0.51713
#
# Static dielectric constant tensor:
#      x y z
#    x 2.193980 0.000000 0.088750 
#    y 0.000000 2.649350 0.000000 
#    z 0.088750 0.000000 2.347440 
# 
# From -- ./inp_files/17907.got.cif
#   From: 2010.05.17/outbox.cif.g08.bks.cpg/sg14_9_cif.got.tgz:17907.got - 2010.06.03 17:49:19.
