data_PCOD9239339
_publ_section_title
;
Structure prediction by ZEFSAII (Michael W. Deem and Ramdas Pophale) SiO2 
 PCOD9239339
Probable space group: P 21/C
;
_chemical_formula_sum "Si O2"
_cell_formula_units_Z 32
_cell_length_a 22.580988
_cell_length_b 8.298906
_cell_length_c 19.104841
_cell_angle_alpha 90.000000
_cell_angle_beta 154.846985
_cell_angle_gamma 90.000000
_cell_volume 1521.717746
_symmetry_space_group_name_H-M "P 21/C"
_symmetry_group_IT_number 14
_symmetry_cell_setting 'monoclinic'
loop_
_space_group_symop_operation_xyz
x,y,z
-x,1/2+y,1/2-z
-x,-y,-z
x,1/2-y,1/2+z
loop_
_atom_site_type_symbol
_atom_site_label
_atom_site_fract_x
_atom_site_fract_y
_atom_site_fract_z
Si Si1 0.685105 0.222768 0.900347
Si Si2 0.593404 0.160984 0.160425
Si Si3 0.129731 0.879475 0.142378
Si Si4 0.535510 0.048989 0.347728
Si Si5 0.694047 0.653873 0.122383
Si Si6 0.155154 0.852283 0.803098
Si Si7 0.032922 0.123073 0.598544
Si Si8 0.433408 0.849546 0.024420
O O1 0.688549 0.270906 0.823498
O O2 0.591134 0.356544 0.839880
O O3 0.600772 0.054867 0.811757
O O4 0.822969 0.208627 0.094943
O O5 0.553179 0.978678 0.138665
O O6 0.446333 0.257956 0.004024
O O7 0.638772 0.170039 0.128588
O O8 0.125690 0.786813 0.213651
O O9 0.260082 0.001826 0.280737
O O10 0.088568 0.753235 0.038135
O O11 0.000000 0.000000 0.000000
O O12 0.513994 0.184911 0.384523
O O13 0.652411 0.926952 0.503452
O O14 0.822201 0.778651 0.256243
O O15 0.052430 0.002318 0.684186
O O16 0.310356 0.908355 0.943971
O O17 0.000000 0.000000 0.500000
#
# Coordination Sequence:
#
# PCOD9239339 Si02
#       8
#     4   4   4   4   4   4   4   4
#     4  10  19  30  47  74 103 139 158 205 250 304
#     4  10  21  32  51  72 106 142 167 198 250 315
#     4   9  17  30  47  75 100 122 168 213 260 292
#     4  10  20  30  50  72 108 135 168 198 249 304
#     4  10  17  30  47  74 104 131 156 215 254 289
#     4  10  17  33  50  74 107 131 158 218 252 299
#     4   9  18  29  49  71 102 127 168 210 264 292
#     4  10  19  35  48  70 107 140 173 199 242 307
#
# _framework density 21.028866000000001
#
# number of rings (size 3 to 8) (size 9 to 14) (size 15 to 20)
#    0.000    2.250    3.750    1.500    1.750    2.000 
#    0.000    0.000    0.000    0.000    0.000    5.250 
#    0.000    0.000    0.000    0.000    0.000    0.000 
#
# Total GULP energy -178364.416731 kJ/mol
# GULP energy per Si atom -5573.888023 kJ/mol
# Density = 2.098100 g / cm^3
# Si number density = 21.028866 Si / 1000 Ang^3
#
#
#
# Elastic Constant Matrix: (Units=GPa)
#
#
# Indices 1 2 3 4 5 6 
#
# 1 62.1391 19.9480 34.7252 0.0000 -22.0506 0.0000
# 2 19.9480 113.9458 47.2153 0.0000 -9.9603 0.0000
# 3 34.7252 47.2153 121.8892 0.0000 -28.2320 0.0000
# 4 0.0000 0.0000 0.0000 41.2606 0.0000 -10.7652
# 5 -22.0506 -9.9603 -28.2320 0.0000 29.0904 0.0000
# 6 0.0000 0.0000 0.0000 -10.7652 0.0000 13.9766
#
#
#
# Elastic Compliance Matrix: (Units=1/GPa)
#
#
# Indices 1 2 3 4 5 6 
#
# 1 0.023246 -0.001727 -0.002592 0.000000 0.014514 0.000000
# 2 -0.001727 0.010587 -0.003964 0.000000 -0.001531 0.000000
# 3 -0.002592 -0.003964 0.012524 0.000000 0.008832 0.000000
# 4 0.000000 0.000000 0.000000 0.030332 0.000000 0.023362
# 5 0.014514 -0.001531 0.008832 0.000000 0.053425 0.000000
# 6 0.000000 0.000000 0.000000 0.023362 0.000000 0.089543
#
#
# Mechanical properties :
#
#
# Convention : Reuss Voigt Hill
#
# Bulk Modulus (GPa) = 33.56612 55.75014 44.65813
# Shear Modulus (GPa) = 20.31271 29.93789 25.12530
#
# Velocity S-wave (km/s) = 3.11134 3.77723 3.46034
# Velocity P-wave (km/s) = 5.37622 6.75219 6.10311
#
# Compressibility (1/GPa) = 0.02979195
#
# Stress axis : x y z
#
# Youngs Moduli (GPa) = 43.01790 94.45564 79.84864
#
# Poissons Ratio (x) = 0.16311 0.20697
# Poissons Ratio (y) = 0.07429 0.31649
# Poissons Ratio (z) = 0.11150 0.37438
#
# Static dielectric constant tensor:
#      x y z
#    x 1.726110 0.000000 -0.010310 
#    y 0.000000 1.820240 0.000000 
#    z -0.010310 0.000000 1.809890 
# 
# From -- ./inp_files/61718.got.cif
#   From: 2010.05.17/outbox.cif.g08.bks.cpg/sg14_31_cif.got.tgz:61718.got - 2010.06.03 17:49:19.
