data_PCOD9239627
_publ_section_title
;
Structure prediction by ZEFSAII (Michael W. Deem and Ramdas Pophale) SiO2 
 PCOD9239627
Probable space group: P 21/C
;
_chemical_formula_sum "Si O2"
_cell_formula_units_Z 32
_cell_length_a 9.928721
_cell_length_b 17.764552
_cell_length_c 7.902603
_cell_angle_alpha 90.000000
_cell_angle_beta 80.962022
_cell_angle_gamma 90.000000
_cell_volume 1376.549925
_symmetry_space_group_name_H-M "P 21/C"
_symmetry_group_IT_number 14
_symmetry_cell_setting 'monoclinic'
loop_
_space_group_symop_operation_xyz
x,y,z
-x,1/2+y,1/2-z
-x,-y,-z
x,1/2-y,1/2+z
loop_
_atom_site_type_symbol
_atom_site_label
_atom_site_fract_x
_atom_site_fract_y
_atom_site_fract_z
Si Si1 0.092278 0.857933 0.049346
Si Si2 0.472397 0.298027 0.684592
Si Si3 0.187629 0.416490 0.330321
Si Si4 0.213611 0.017110 0.176878
Si Si5 0.660398 0.203318 0.856440
Si Si6 0.073630 0.929774 0.710478
Si Si7 0.671053 0.076677 0.580218
Si Si8 0.600609 0.639934 0.980515
O O1 0.935075 0.856232 0.136454
O O2 0.160529 0.934964 0.114647
O O3 0.192591 0.792225 0.087790
O O4 0.089748 0.865703 0.848100
O O5 0.553891 0.333249 0.511783
O O6 0.415055 0.220297 0.617757
O O7 0.591091 0.277775 0.798052
O O8 0.368926 0.340420 0.829028
O O9 0.249278 0.431876 0.505836
O O10 0.113741 0.494214 0.301029
O O11 0.289683 0.400928 0.158642
O O12 0.085533 0.057000 0.296348
O O13 0.326817 0.993172 0.289963
O O14 0.670527 0.151107 0.693328
O O15 0.185123 0.923225 0.544162
O O16 0.534863 0.087758 0.499292
#
# Coordination Sequence:
#
# PCOD9239627 Si02
#       8
#     4   4   4   4   4   4   4   4
#     4   8  15  30  51  70  96 126 153 190 233 281
#     4   9  19  35  52  67  87 119 161 211 245 270
#     4   9  18  32  48  70 101 133 153 179 234 291
#     4   8  16  30  48  72 102 127 152 187 226 278
#     4   9  17  32  52  70  87 116 161 203 242 273
#     4   9  16  29  49  74 101 128 154 185 230 281
#     4  10  18  28  49  74  97 126 156 190 227 280
#     4  10  20  34  51  68  92 126 162 196 239 284
#
# _framework density 23.246524999999998
#
# number of rings (size 3 to 8) (size 9 to 14) (size 15 to 20)
#    0.000    3.000    0.000    2.625    0.000    1.000 
#    0.000    5.000    0.000    0.000    0.000    0.000 
#    0.000    0.000    0.000    0.000    0.000    0.000 
#
# Total GULP energy -178434.217010 kJ/mol
# GULP energy per Si atom -5576.069282 kJ/mol
# Density = 2.319361 g / cm^3
# Si number density = 23.246525 Si / 1000 Ang^3
#
#
#
# Elastic Constant Matrix: (Units=GPa)
#
#
# Indices 1 2 3 4 5 6 
#
# 1 30.5221 6.5978 6.5065 0.0000 2.5309 0.0000
# 2 6.5978 34.6433 4.2027 0.0000 -1.0513 0.0000
# 3 6.5065 4.2027 119.1269 0.0000 -8.7592 0.0000
# 4 0.0000 0.0000 0.0000 39.6873 0.0000 1.7041
# 5 2.5309 -1.0513 -8.7592 0.0000 22.8720 0.0000
# 6 0.0000 0.0000 0.0000 1.7041 0.0000 27.4241
#
#
#
# Elastic Compliance Matrix: (Units=1/GPa)
#
#
# Indices 1 2 3 4 5 6 
#
# 1 0.035032 -0.006574 -0.002046 0.000000 -0.004962 0.000000
# 2 -0.006574 0.030244 -0.000568 0.000000 0.001900 0.000000
# 3 -0.002046 -0.000568 0.008788 0.000000 0.003566 0.000000
# 4 0.000000 0.000000 0.000000 0.025264 0.000000 -0.001570
# 5 -0.004962 0.001900 0.003566 0.000000 0.045724 0.000000
# 6 0.000000 0.000000 0.000000 -0.001570 0.000000 0.036562
#
#
# Mechanical properties :
#
#
# Convention : Reuss Voigt Hill
#
# Bulk Modulus (GPa) = 17.95744 24.32292 21.14018
# Shear Modulus (GPa) = 22.87761 29.12902 26.00331
#
# Velocity S-wave (km/s) = 3.14049 3.54368 3.34816
# Velocity P-wave (km/s) = 4.57075 5.21817 4.90516
#
# Compressibility (1/GPa) = 0.05568723
#
# Stress axis : x y z
#
# Youngs Moduli (GPa) = 28.54542 33.06413 113.78597
#
# Poissons Ratio (x) = 0.21737 0.23284
# Poissons Ratio (y) = 0.18766 0.06466
# Poissons Ratio (z) = 0.05841 0.01879
#
# Static dielectric constant tensor:
#      x y z
#    x 1.970870 0.000000 -0.016120 
#    y 0.000000 1.997920 0.000000 
#    z -0.016120 0.000000 1.909640 
# 
# From -- ./inp_files/14285.got.cif
#   From: 2010.05.17/outbox.cif.g08.bks.cpg/sg14_8_cif.got.tgz:14285.got - 2010.06.03 17:49:19.
