data_PCOD9239128
_publ_section_title
;
Structure prediction by ZEFSAII (Michael W. Deem and Ramdas Pophale) SiO2 
 PCOD9239128
Probable space group: P 21/C
;
_chemical_formula_sum "Si O2"
_cell_formula_units_Z 32
_cell_length_a 10.675755
_cell_length_b 18.356600
_cell_length_c 8.258679
_cell_angle_alpha 90.000000
_cell_angle_beta 120.995421
_cell_angle_gamma 90.000000
_cell_volume 1387.355874
_symmetry_space_group_name_H-M "P 21/C"
_symmetry_group_IT_number 14
_symmetry_cell_setting 'monoclinic'
loop_
_space_group_symop_operation_xyz
x,y,z
-x,1/2+y,1/2-z
-x,-y,-z
x,1/2-y,1/2+z
loop_
_atom_site_type_symbol
_atom_site_label
_atom_site_fract_x
_atom_site_fract_y
_atom_site_fract_z
Si Si1 0.383549 0.176052 0.257804
Si Si2 0.404942 0.114696 0.661780
Si Si3 0.455085 0.707907 0.468863
Si Si4 0.988213 0.847976 0.309250
Si Si5 0.550480 0.525381 0.247547
Si Si6 0.253863 0.610968 0.149031
Si Si7 0.228719 0.474605 0.317994
Si Si8 0.153144 0.219650 0.487741
O O1 0.430064 0.186396 0.097222
O O2 0.512970 0.209345 0.455786
O O3 0.356155 0.091172 0.266617
O O4 0.247326 0.229934 0.173073
O O5 0.312394 0.070284 0.734604
O O6 0.279333 0.165976 0.500511
O O7 0.500805 0.051587 0.640244
O O8 0.510097 0.165021 0.842000
O O9 0.305085 0.679670 0.291630
O O10 0.893837 0.919043 0.198670
O O11 0.938413 0.777386 0.176623
O O12 0.950886 0.829108 0.471210
O O13 0.158529 0.866185 0.432070
O O14 0.402303 0.569217 0.194832
O O15 0.648332 0.505384 0.468798
O O16 0.172170 0.549310 0.201262
#
# Coordination Sequence:
#
# PCOD9239128 Si02
#       8
#     4   4   4   4   4   4   4   4
#     4  10  18  30  53  75 100 130 175 212 260 303
#     4   9  15  28  52  74  99 129 172 208 264 293
#     4  10  18  30  49  78 103 133 163 220 260 299
#     4  11  22  33  51  77 110 140 172 206 259 319
#     4  10  16  30  55  80 102 130 172 228 262 292
#     4  10  19  30  51  79 108 130 171 219 265 295
#     4  10  15  31  51  80 103 131 171 219 260 299
#     4  10  20  34  51  73 108 143 173 207 259 318
#
# _framework density 23.065459000000001
#
# number of rings (size 3 to 8) (size 9 to 14) (size 15 to 20)
#    0.000    2.000    5.000    2.625    0.000    2.000 
#    0.000    0.000    0.000    8.250    0.000   13.125 
#    0.000    0.000    0.000    0.000    0.000    0.000 
#
# Total GULP energy -178397.806346 kJ/mol
# GULP energy per Si atom -5574.931448 kJ/mol
# Density = 2.301296 g / cm^3
# Si number density = 23.065459 Si / 1000 Ang^3
#
#
#
# Elastic Constant Matrix: (Units=GPa)
#
#
# Indices 1 2 3 4 5 6 
#
# 1 16.0399 -6.2368 12.3746 0.0000 8.3962 0.0000
# 2 -6.2368 100.3207 43.6371 0.0000 9.0800 0.0000
# 3 12.3746 43.6371 114.7433 0.0000 21.3306 0.0000
# 4 0.0000 0.0000 0.0000 56.3349 0.0000 -0.3703
# 5 8.3962 9.0800 21.3306 0.0000 27.3051 0.0000
# 6 0.0000 0.0000 0.0000 -0.3703 0.0000 26.4079
#
#
#
# Elastic Compliance Matrix: (Units=1/GPa)
#
#
# Indices 1 2 3 4 5 6 
#
# 1 0.086092 0.011518 -0.009396 0.000000 -0.022963 0.000000
# 2 0.011518 0.013490 -0.005709 0.000000 -0.003568 0.000000
# 3 -0.009396 -0.005709 0.012880 0.000000 -0.005274 0.000000
# 4 0.000000 0.000000 0.000000 0.017753 0.000000 0.000249
# 5 -0.022963 -0.003568 -0.005274 0.000000 0.048991 0.000000
# 6 0.000000 0.000000 0.000000 0.000249 0.000000 0.037871
#
#
# Mechanical properties :
#
#
# Convention : Reuss Voigt Hill
#
# Bulk Modulus (GPa) = 9.49786 36.73931 23.11858
# Shear Modulus (GPa) = 19.27911 34.09817 26.68864
#
# Velocity S-wave (km/s) = 2.89423 3.84907 3.40528
# Velocity P-wave (km/s) = 3.91095 5.97634 5.05035
#
# Compressibility (1/GPa) = 0.10528693
#
# Stress axis : x y z
#
# Youngs Moduli (GPa) = 11.61547 74.12681 77.63878
#
# Poissons Ratio (x) = -0.85377 0.72951
# Poissons Ratio (y) = -0.13378 0.44327
# Poissons Ratio (z) = 0.10914 0.42322
#
# Static dielectric constant tensor:
#      x y z
#    x 1.955440 0.000000 -0.055380 
#    y 0.000000 1.945010 0.000000 
#    z -0.055380 0.000000 1.897310 
# 
# From -- ./inp_files/14319.got.cif
#   From: 2010.05.17/outbox.cif.g08.bks.cpg/sg14_8_cif.got.tgz:14319.got - 2010.06.03 17:49:19.
