data_PCOD9239948
_publ_section_title
;
Structure prediction by ZEFSAII (Michael W. Deem and Ramdas Pophale) SiO2 
 PCOD9239948
Probable space group: P 21/C
;
_chemical_formula_sum "Si O2"
_cell_formula_units_Z 32
_cell_length_a 12.626832
_cell_length_b 13.016359
_cell_length_c 15.034045
_cell_angle_alpha 90.000000
_cell_angle_beta 33.382875
_cell_angle_gamma 90.000000
_cell_volume 1359.580638
_symmetry_space_group_name_H-M "P 21/C"
_symmetry_group_IT_number 14
_symmetry_cell_setting 'monoclinic'
loop_
_space_group_symop_operation_xyz
x,y,z
-x,1/2+y,1/2-z
-x,-y,-z
x,1/2-y,1/2+z
loop_
_atom_site_type_symbol
_atom_site_label
_atom_site_fract_x
_atom_site_fract_y
_atom_site_fract_z
Si Si1 0.300515 0.147829 0.932522
Si Si2 0.274843 0.785439 0.365957
Si Si3 0.726841 0.787868 0.241107
Si Si4 0.732345 0.128238 0.819022
Si Si5 0.814540 0.993030 0.251877
Si Si6 0.270037 0.821570 0.560552
Si Si7 0.261320 0.105193 0.150633
Si Si8 0.753795 0.046612 0.101758
O O1 0.492911 0.214051 0.805724
O O2 0.202494 0.182831 0.908075
O O3 0.376388 0.028912 0.865721
O O4 0.194114 0.148149 0.101532
O O5 0.206134 0.833789 0.322031
O O6 0.208062 0.839984 0.502817
O O7 0.229175 0.666969 0.417373
O O8 0.776239 0.871856 0.282478
O O9 0.497689 0.797125 0.394221
O O10 0.793374 0.678305 0.229261
O O11 0.798910 0.218021 0.840256
O O12 0.797944 0.013276 0.797409
O O13 0.497125 0.116787 0.983453
O O14 0.760071 0.074496 0.363502
O O15 0.705655 0.025571 0.237827
O O16 0.039358 0.998683 0.071397
#
# Coordination Sequence:
#
# PCOD9239948 Si02
#       8
#     4   4   4   4   4   4   4   4
#     4   9  19  34  55  83 106 149 191 232 285 335
#     4  10  19  33  56  86 111 144 189 244 282 333
#     4   9  19  34  54  83 111 148 192 243 272 333
#     4   9  17  31  53  82 110 145 181 236 288 331
#     4  10  20  36  57  79 112 154 189 228 285 339
#     4  10  18  33  56  83 112 143 194 239 282 330
#     4   9  17  32  52  79 113 144 183 230 290 332
#     4  10  20  37  58  79 112 153 190 231 283 345
#
# _framework density 23.536667999999999
#
# number of rings (size 3 to 8) (size 9 to 14) (size 15 to 20)
#    0.000    2.500    1.250    1.125    0.000    3.000 
#    4.500    0.000    0.000    0.750    0.000    0.000 
#    0.000    0.000    0.000    0.000    0.000    0.000 
#
# Total GULP energy -178547.927429 kJ/mol
# GULP energy per Si atom -5579.622732 kJ/mol
# Density = 2.348310 g / cm^3
# Si number density = 23.536668 Si / 1000 Ang^3
#
#
#
# Elastic Constant Matrix: (Units=GPa)
#
#
# Indices 1 2 3 4 5 6 
#
# 1 57.4667 37.1214 41.1479 0.0000 22.0404 0.0000
# 2 37.1214 103.4884 36.8408 0.0000 27.6395 0.0000
# 3 41.1479 36.8408 73.2520 0.0000 36.3342 0.0000
# 4 0.0000 0.0000 0.0000 24.1845 0.0000 4.4167
# 5 22.0404 27.6395 36.3342 0.0000 41.4284 0.0000
# 6 0.0000 0.0000 0.0000 4.4167 0.0000 21.4673
#
#
#
# Elastic Compliance Matrix: (Units=1/GPa)
#
#
# Indices 1 2 3 4 5 6 
#
# 1 0.032077 -0.006231 -0.015013 0.000000 0.000259 0.000000
# 2 -0.006231 0.013524 -0.000833 0.000000 -0.004977 0.000000
# 3 -0.015013 -0.000833 0.032331 0.000000 -0.019813 0.000000
# 4 0.000000 0.000000 0.000000 0.042963 0.000000 -0.008839
# 5 0.000259 -0.004977 -0.019813 0.000000 0.044698 0.000000
# 6 0.000000 0.000000 0.000000 -0.008839 0.000000 0.048401
#
#
# Mechanical properties :
#
#
# Convention : Reuss Voigt Hill
#
# Bulk Modulus (GPa) = 29.60460 51.60306 40.60383
# Shear Modulus (GPa) = 18.55932 25.35583 21.95757
#
# Velocity S-wave (km/s) = 2.81112 3.28577 3.05767
# Velocity P-wave (km/s) = 4.81060 6.03052 5.45477
#
# Compressibility (1/GPa) = 0.03377853
#
# Stress axis : x y z
#
# Youngs Moduli (GPa) = 31.17514 73.94475 30.92977
#
# Poissons Ratio (x) = 0.46071 0.46436
# Poissons Ratio (y) = 0.19424 0.02575
# Poissons Ratio (z) = 0.46805 0.06157
#
# Static dielectric constant tensor:
#      x y z
#    x 1.979620 0.000000 -0.027200 
#    y 0.000000 1.949750 0.000000 
#    z -0.027200 0.000000 1.894990 
# 
# From -- ./inp_files/47131.got.cif
#   From: 2010.05.17/outbox.cif.g08.bks.cpg/sg14_24_cif.got.tgz:47131.got - 2010.06.03 17:49:19.
