data_PCOD9239097
_publ_section_title
;
Structure prediction by ZEFSAII (Michael W. Deem and Ramdas Pophale) SiO2 
 PCOD9239097
Probable space group: P 21/C
;
_chemical_formula_sum "Si O2"
_cell_formula_units_Z 22
_cell_length_a 13.959425
_cell_length_b 11.893292
_cell_length_c 5.206948
_cell_angle_alpha 90.000000
_cell_angle_beta 94.228927
_cell_angle_gamma 90.000000
_cell_volume 862.122179
_symmetry_space_group_name_H-M "P 21/C"
_symmetry_group_IT_number 14
_symmetry_cell_setting 'monoclinic'
loop_
_space_group_symop_operation_xyz
x,y,z
-x,1/2+y,1/2-z
-x,-y,-z
x,1/2-y,1/2+z
loop_
_atom_site_type_symbol
_atom_site_label
_atom_site_fract_x
_atom_site_fract_y
_atom_site_fract_z
Si Si1 0.000000 0.000000 0.500000
Si Si2 0.102294 0.680419 0.370915
Si Si3 0.592131 0.384388 0.184855
Si Si4 0.324727 0.631038 0.302908
Si Si5 0.389117 0.318236 0.995924
Si Si6 0.166019 0.324739 0.982404
O O1 0.041061 0.921217 0.750077
O O2 0.897288 0.934415 0.497628
O O3 0.083383 0.716629 0.662622
O O4 0.215303 0.653273 0.360631
O O5 0.622626 0.252244 0.222939
O O6 0.621909 0.435665 0.461679
O O7 0.481254 0.390807 0.092376
O O8 0.660632 0.423265 0.969931
O O9 0.400439 0.214819 0.200337
O O10 0.279024 0.350459 0.014417
O O11 0.144822 0.239833 0.212901
#
# Coordination Sequence:
#
# PCOD9239097 Si02
#       6
#     2   4   4   4   4   4
#     4  12  28  46  68  90 130 166 216 274 316 362
#     4  12  24  42  66  95 125 165 215 262 316 378
#     4  10  14  26  52  88 114 155 197 241 297 372
#     4  10  16  28  52  88 116 153 202 242 299 372
#     4  10  16  28  54  88 119 152 202 235 302 375
#     4  10  24  44  66  95 125 168 214 260 316 378
#
# _framework density 25.518426999999999
#
# number of rings (size 3 to 8) (size 9 to 14) (size 15 to 20)
#    0.000    1.455    7.273    1.091    0.000    2.909 
#    0.000    0.000    0.000    2.182    0.000    0.000 
#    0.000    0.000    0.000    0.000    0.000    0.000 
#
# Total GULP energy -122630.666993 kJ/mol
# GULP energy per Si atom -5574.121227 kJ/mol
# Density = 2.546035 g / cm^3
# Si number density = 25.518427 Si / 1000 Ang^3
#
#
#
# Elastic Constant Matrix: (Units=GPa)
#
#
# Indices 1 2 3 4 5 6 
#
# 1 95.4414 16.7402 -18.5731 0.0000 28.6838 0.0000
# 2 16.7402 61.6428 8.0019 0.0000 7.8415 0.0000
# 3 -18.5731 8.0019 119.1198 0.0000 5.4258 0.0000
# 4 0.0000 0.0000 0.0000 -13.7953 0.0000 5.2349
# 5 28.6838 7.8415 5.4258 0.0000 49.8398 0.0000
# 6 0.0000 0.0000 0.0000 5.2349 0.0000 35.2831
#
#
#
# Elastic Compliance Matrix: (Units=1/GPa)
#
#
# Indices 1 2 3 4 5 6 
#
# 1 0.013907 -0.003138 0.002735 0.000000 -0.007808 0.000000
# 2 -0.003138 0.017381 -0.001623 0.000000 -0.000752 0.000000
# 3 0.002735 -0.001623 0.009035 0.000000 -0.002302 0.000000
# 4 0.000000 0.000000 0.000000 -0.068625 0.000000 0.010182
# 5 -0.007808 -0.000752 -0.002302 0.000000 0.024927 0.000000
# 6 0.000000 0.000000 0.000000 0.010182 0.000000 0.026832
#
#
# Mechanical properties :
#
#
# Convention : Reuss Voigt Hill
#
# Bulk Modulus (GPa) = 27.57073 32.06024 29.81549
# Shear Modulus (GPa) = 126.26499 32.26785 79.26642
#
# Velocity S-wave (km/s) = 7.04183 3.55983 5.57941
# Velocity P-wave (km/s) = 8.77178 5.43022 7.29491
#
# Compressibility (1/GPa) = 0.03627034
#
# Stress axis : x y z
#
# Youngs Moduli (GPa) = 71.90735 57.53387 110.67844
#
# Poissons Ratio (x) = 0.18057 -0.30268
# Poissons Ratio (y) = 0.22568 0.17960
# Poissons Ratio (z) = -0.19665 0.09336
#
# Static dielectric constant tensor:
#      x y z
#    x 1.932630 0.000000 -0.008260 
#    y 0.000000 2.108160 0.000000 
#    z -0.008260 0.000000 2.076070 
# 
# From -- ./inp_files/3499.got.cif
#   From: 2010.05.17/outbox.cif.g08.bks.cpg/sg14_2_cif.got.tgz:3499.got - 2010.06.03 17:49:19.
