data_PCOD9239427
_publ_section_title
;
Structure prediction by ZEFSAII (Michael W. Deem and Ramdas Pophale) SiO2 
 PCOD9239427
Probable space group: P 21/C
;
_chemical_formula_sum "Si O2"
_cell_formula_units_Z 32
_cell_length_a 13.040955
_cell_length_b 13.867839
_cell_length_c 7.996404
_cell_angle_alpha 90.000000
_cell_angle_beta 81.945980
_cell_angle_gamma 90.000000
_cell_volume 1431.884366
_symmetry_space_group_name_H-M "P 21/C"
_symmetry_group_IT_number 14
_symmetry_cell_setting 'monoclinic'
loop_
_space_group_symop_operation_xyz
x,y,z
-x,1/2+y,1/2-z
-x,-y,-z
x,1/2-y,1/2+z
loop_
_atom_site_type_symbol
_atom_site_label
_atom_site_fract_x
_atom_site_fract_y
_atom_site_fract_z
Si Si1 0.057239 0.435412 0.345315
Si Si2 0.084775 0.875242 0.711324
Si Si3 0.618749 0.528155 0.989525
Si Si4 0.731797 0.457572 0.286472
Si Si5 0.865329 0.189398 0.936251
Si Si6 0.294501 0.432596 0.377538
Si Si7 0.149889 0.354670 0.785733
Si Si8 0.717042 0.763951 0.501713
O O1 0.079933 0.510029 0.189722
O O2 0.170573 0.411126 0.389677
O O3 0.000000 0.500000 0.500000
O O4 0.975889 0.350391 0.339297
O O5 0.134541 0.804742 0.565347
O O6 0.965167 0.842952 0.751340
O O7 0.140439 0.851434 0.874547
O O8 0.665020 0.468089 0.134686
O O9 0.643302 0.642605 0.012031
O O10 0.500000 0.500000 0.000000
O O11 0.672082 0.512946 0.797099
O O12 0.777767 0.357274 0.339843
O O13 0.680405 0.505769 0.463798
O O14 0.825578 0.532434 0.231053
O O15 0.337315 0.323863 0.385188
O O16 0.174256 0.312492 0.961672
O O17 0.239768 0.296062 0.666936
#
# Coordination Sequence:
#
# PCOD9239427 Si02
#       8
#     4   4   4   4   4   4   4   4
#     4  10  18  37  61  93 136 175 215 260 315 387
#     4  11  20  32  58  85 135 178 214 249 315 379
#     4  11  26  43  67 101 128 158 226 290 335 397
#     4  10  21  41  67  89 132 170 215 271 336 384
#     4  11  21  37  55  87 135 176 219 262 309 399
#     4  11  20  41  72  92 135 175 205 274 336 376
#     4  10  17  32  57  95 122 168 211 264 314 374
#     4  10  19  35  61  94 124 155 215 272 333 374
#
# _framework density 22.348172999999999
#
# number of rings (size 3 to 8) (size 9 to 14) (size 15 to 20)
#    0.000    1.500    5.000    3.750    0.000    1.500 
#    0.000    1.250    5.500    0.000    0.000    0.000 
#    0.000    0.000    0.000    0.000    0.000    0.000 
#
# Total GULP energy -178464.437930 kJ/mol
# GULP energy per Si atom -5577.013685 kJ/mol
# Density = 2.229731 g / cm^3
# Si number density = 22.348173 Si / 1000 Ang^3
#
#
#
# Elastic Constant Matrix: (Units=GPa)
#
#
# Indices 1 2 3 4 5 6 
#
# 1 80.4901 4.7225 31.4612 0.0000 8.5723 0.0000
# 2 4.7225 54.3464 -7.2363 0.0000 2.4574 0.0000
# 3 31.4612 -7.2363 85.1653 0.0000 11.0400 0.0000
# 4 0.0000 0.0000 0.0000 25.5244 0.0000 -0.3772
# 5 8.5723 2.4574 11.0400 0.0000 18.9448 0.0000
# 6 0.0000 0.0000 0.0000 -0.3772 0.0000 13.0313
#
#
#
# Elastic Compliance Matrix: (Units=1/GPa)
#
#
# Indices 1 2 3 4 5 6 
#
# 1 0.014945 -0.001837 -0.005226 0.000000 -0.003479 0.000000
# 2 -0.001837 0.019068 0.002717 0.000000 -0.003225 0.000000
# 3 -0.005226 0.002717 0.014757 0.000000 -0.006587 0.000000
# 4 0.000000 0.000000 0.000000 0.039195 0.000000 0.001135
# 5 -0.003479 -0.003225 -0.006587 0.000000 0.058616 0.000000
# 6 0.000000 0.000000 0.000000 0.001135 0.000000 0.076771
#
#
# Mechanical properties :
#
#
# Convention : Reuss Voigt Hill
#
# Bulk Modulus (GPa) = 24.95183 30.87741 27.91462
# Shear Modulus (GPa) = 20.37462 24.23706 22.30584
#
# Velocity S-wave (km/s) = 3.02270 3.29678 3.16271
# Velocity P-wave (km/s) = 4.83441 5.32336 5.08477
#
# Compressibility (1/GPa) = 0.04007721
#
# Stress axis : x y z
#
# Youngs Moduli (GPa) = 66.91268 52.44466 67.76344
#
# Poissons Ratio (x) = 0.09635 0.35413
# Poissons Ratio (y) = 0.12293 -0.18411
# Poissons Ratio (z) = 0.34969 -0.14249
#
# Static dielectric constant tensor:
#      x y z
#    x 1.784680 0.000000 0.016100 
#    y 0.000000 1.957030 0.000000 
#    z 0.016100 0.000000 2.016590 
# 
# From -- ./inp_files/13336.got.cif
#   From: 2010.05.17/outbox.cif.g08.bks.cpg/sg14_7_cif.got.tgz:13336.got - 2010.06.03 17:49:19.
