data_PCOD9239712
_publ_section_title
;
Structure prediction by ZEFSAII (Michael W. Deem and Ramdas Pophale) SiO2 
 PCOD9239712
Probable space group: P 21/C
;
_chemical_formula_sum "Si O2"
_cell_formula_units_Z 24
_cell_length_a 14.095717
_cell_length_b 5.546550
_cell_length_c 17.064360
_cell_angle_alpha 90.000000
_cell_angle_beta 43.099552
_cell_angle_gamma 90.000000
_cell_volume 911.572534
_symmetry_space_group_name_H-M "P 21/C"
_symmetry_group_IT_number 14
_symmetry_cell_setting 'monoclinic'
loop_
_space_group_symop_operation_xyz
x,y,z
-x,1/2+y,1/2-z
-x,-y,-z
x,1/2-y,1/2+z
loop_
_atom_site_type_symbol
_atom_site_label
_atom_site_fract_x
_atom_site_fract_y
_atom_site_fract_z
Si Si1 0.811197 0.238632 0.582976
Si Si2 0.081677 0.667295 0.210549
Si Si3 0.118186 0.251403 0.963230
Si Si4 0.749744 0.643149 0.781576
Si Si5 0.434729 0.736892 0.144249
Si Si6 0.672312 0.030010 0.952177
O O1 0.828062 0.501074 0.534608
O O2 0.674910 0.221612 0.719567
O O3 0.954050 0.238724 0.548391
O O4 0.826506 0.988659 0.528381
O O5 0.150118 0.572255 0.250212
O O6 0.216850 0.775488 0.084833
O O7 0.007051 0.418547 0.226395
O O8 0.183190 0.254657 0.835922
O O9 0.595433 0.548038 0.851458
O O10 0.743423 0.815886 0.859318
O O11 0.399555 0.834657 0.078359
O O12 0.574363 0.889388 0.072582
#
# Coordination Sequence:
#
# PCOD9239712 Si02
#       6
#     4   4   4   4   4   4
#     4   9  16  29  42  68 102 134 160 188 228 298
#     4  11  22  36  50  68  99 130 174 219 254 294
#     4   9  17  27  46  66  99 134 161 191 235 281
#     4  10  18  31  51  72 104 132 170 202 250 305
#     4   9  18  28  47  76 107 139 156 191 251 308
#     4  10  18  31  48  74 104 135 163 200 247 312
#
# _framework density 26.328128
#
# number of rings (size 3 to 8) (size 9 to 14) (size 15 to 20)
#    0.000    2.333    3.333    0.500    0.000    0.000 
#    0.000    0.000    0.000    0.000    0.000    0.000 
#   10.000    0.000    0.000    0.000    0.000    0.000 
#
# Total GULP energy -133665.770186 kJ/mol
# GULP energy per Si atom -5569.407091 kJ/mol
# Density = 2.626820 g / cm^3
# Si number density = 26.328128 Si / 1000 Ang^3
#
#
#
# Elastic Constant Matrix: (Units=GPa)
#
#
# Indices 1 2 3 4 5 6 
#
# 1 41.4723 41.8649 20.0365 0.0000 -6.0369 0.0000
# 2 41.8649 187.6899 28.4348 0.0000 -0.5588 0.0000
# 3 20.0365 28.4348 73.7895 0.0000 -12.8963 0.0000
# 4 0.0000 0.0000 0.0000 40.6517 0.0000 -5.5225
# 5 -6.0369 -0.5588 -12.8963 0.0000 16.2813 0.0000
# 6 0.0000 0.0000 0.0000 -5.5225 0.0000 37.2648
#
#
#
# Elastic Compliance Matrix: (Units=1/GPa)
#
#
# Indices 1 2 3 4 5 6 
#
# 1 0.034952 -0.006965 -0.005320 0.000000 0.008507 0.000000
# 2 -0.006965 0.007091 -0.001451 0.000000 -0.003488 0.000000
# 3 -0.005320 -0.001451 0.017645 0.000000 0.011954 0.000000
# 4 0.000000 0.000000 0.000000 0.025105 0.000000 0.003720
# 5 0.008507 -0.003488 0.011954 0.000000 0.073924 0.000000
# 6 0.000000 0.000000 0.000000 0.003720 0.000000 0.027386
#
#
# Mechanical properties :
#
#
# Convention : Reuss Voigt Hill
#
# Bulk Modulus (GPa) = 31.04046 53.73602 42.38824
# Shear Modulus (GPa) = 22.29034 33.01392 27.65213
#
# Velocity S-wave (km/s) = 2.91286 3.54494 3.24433
# Velocity P-wave (km/s) = 4.80920 6.09999 5.49265
#
# Compressibility (1/GPa) = 0.03221602
#
# Stress axis : x y z
#
# Youngs Moduli (GPa) = 28.61087 141.02595 56.67326
#
# Poissons Ratio (x) = 0.98222 0.30151
# Poissons Ratio (y) = 0.19927 0.08223
# Poissons Ratio (z) = 0.15221 0.20462
#
# Static dielectric constant tensor:
#      x y z
#    x 2.112620 0.000000 -0.126240 
#    y 0.000000 2.219100 0.000000 
#    z -0.126240 0.000000 2.122090 
# 
# From -- ./inp_files/74478.got.cif
#   From: 2010.05.17/outbox.cif.g08.bks.cpg/sg14_38_cif.got.tgz:74478.got - 2010.06.03 17:49:19.
