data_PCOD9239015
_publ_section_title
;
Structure prediction by ZEFSAII (Michael W. Deem and Ramdas Pophale) SiO2 
 PCOD9239015
Probable space group: P 2/C
;
_chemical_formula_sum "Si O2"
_cell_formula_units_Z 20
_cell_length_a 21.000000
_cell_length_b 6.000000
_cell_length_c 15.000000
_cell_angle_alpha 90.000000
_cell_angle_beta 150.000000
_cell_angle_gamma 90.000000
_cell_volume 945.000000
_symmetry_space_group_name_H-M "P 2/C"
_symmetry_group_IT_number 13
_symmetry_cell_setting 'monoclinic'
loop_
_space_group_symop_operation_xyz
x,y,z
-x,y,1/2-z
-x,-y,-z
x,-y,1/2+z
loop_
_atom_site_type_symbol
_atom_site_label
_atom_site_fract_x
_atom_site_fract_y
_atom_site_fract_z
Si Si1 0.114775 0.780991 0.549470
Si Si2 0.643734 0.805260 0.899173
Si Si3 0.129386 0.898122 0.768295
Si Si4 0.203639 0.574246 0.021215
Si Si5 0.364329 0.947948 0.290503
O O1 0.115452 0.756582 0.658792
O O2 0.115095 0.565758 0.483547
O O3 0.248443 0.905114 0.689595
O O4 0.995088 0.941115 0.379831
O O5 0.500000 0.731256 0.750000
O O6 0.722532 0.601629 0.952046
O O7 0.617122 0.978946 0.788446
O O8 0.743695 0.941612 0.083351
O O9 0.142804 0.750446 0.875744
O O10 0.305642 0.700601 0.209243
O O11 0.500000 0.000000 0.500000
#
# Coordination Sequence:
#
# PCOD9239015 Si02
#       5
#     4   4   4   4   4
#     4  10  23  42  67  97 129 173 221 270 333 396
#     4  10  22  38  61  93 129 172 218 268 324 385
#     4  10  23  43  66  96 133 171 219 275 328 391
#     4  10  24  42  68  96 128 175 219 269 329 391
#     4  10  22  39  61  93 133 170 214 274 325 381
#
# _framework density 21.164021000000002
#
# number of rings (size 3 to 8) (size 9 to 14) (size 15 to 20)
#    0.000    2.000    0.000    1.200    0.000   21.600 
#    0.000    4.000    0.000    3.600    0.000    0.000 
#    0.000    0.000    0.000    0.000    0.000    0.000 
#
# Total GULP energy -111624.948050 kJ/mol
# GULP energy per Si atom -5581.247403 kJ/mol
# Density = 2.111585 g / cm^3
# Si number density = 21.164021 Si / 1000 Ang^3
#
#
#
# Elastic Constant Matrix: (Units=GPa)
#
#
# Indices 1 2 3 4 5 6 
#
# 1 93.3269 28.0961 45.4291 0.0000 -3.3167 0.0000
# 2 28.0961 88.2902 41.2420 0.0000 -8.9943 0.0000
# 3 45.4291 41.2420 172.3106 0.0000 -0.9957 0.0000
# 4 0.0000 0.0000 0.0000 37.6484 0.0000 -4.1537
# 5 -3.3167 -8.9943 -0.9957 0.0000 41.7866 0.0000
# 6 0.0000 0.0000 0.0000 -4.1537 0.0000 35.1281
#
#
#
# Elastic Compliance Matrix: (Units=1/GPa)
#
#
# Indices 1 2 3 4 5 6 
#
# 1 0.012897 -0.002793 -0.002730 0.000000 0.000358 0.000000
# 2 -0.002793 0.013662 -0.002518 0.000000 0.002659 0.000000
# 3 -0.002730 -0.002518 0.007123 0.000000 -0.000589 0.000000
# 4 0.000000 0.000000 0.000000 0.026913 0.000000 0.003182
# 5 0.000358 0.002659 -0.000589 0.000000 0.024518 0.000000
# 6 0.000000 0.000000 0.000000 0.003182 0.000000 0.028843
#
#
# Mechanical properties :
#
#
# Convention : Reuss Voigt Hill
#
# Bulk Modulus (GPa) = 56.81712 64.82911 60.82312
# Shear Modulus (GPa) = 36.79055 38.85666 37.82360
#
# Velocity S-wave (km/s) = 4.17388 4.28948 4.23207
# Velocity P-wave (km/s) = 7.08045 7.43176 7.25823
#
# Compressibility (1/GPa) = 0.01760033
#
# Stress axis : x y z
#
# Youngs Moduli (GPa) = 77.53584 73.19451 140.39915
#
# Poissons Ratio (x) = 0.20441 0.38327
# Poissons Ratio (y) = 0.21653 0.35358
# Poissons Ratio (z) = 0.21166 0.18433
#
# Static dielectric constant tensor:
#      x y z
#    x 1.793420 0.000000 0.005250 
#    y 0.000000 1.810840 0.000000 
#    z 0.005250 0.000000 1.784800 
# 
# From -- ./inp_files/56696.got.cif
#   From: 2010.05.17/outbox.ucp.g08.bks.cvg/sg13_29_cif.got.tgz:56696.got - 2010.06.11 12:23:55.
