data_PCOD9239631
_publ_section_title
;
Structure prediction by ZEFSAII (Michael W. Deem and Ramdas Pophale) SiO2 
 PCOD9239631
Probable space group: P 21/C
;
_chemical_formula_sum "Si O2"
_cell_formula_units_Z 32
_cell_length_a 8.274685
_cell_length_b 22.085288
_cell_length_c 9.326185
_cell_angle_alpha 90.000000
_cell_angle_beta 44.108413
_cell_angle_gamma 90.000000
_cell_volume 1186.258073
_symmetry_space_group_name_H-M "P 21/C"
_symmetry_group_IT_number 14
_symmetry_cell_setting 'monoclinic'
loop_
_space_group_symop_operation_xyz
x,y,z
-x,1/2+y,1/2-z
-x,-y,-z
x,1/2-y,1/2+z
loop_
_atom_site_type_symbol
_atom_site_label
_atom_site_fract_x
_atom_site_fract_y
_atom_site_fract_z
Si Si1 0.395651 0.005946 0.286780
Si Si2 0.684313 0.371114 0.221050
Si Si3 0.129538 0.474722 0.680228
Si Si4 0.983766 0.893458 0.241621
Si Si5 0.352567 0.312375 0.218817
Si Si6 0.589490 0.122280 0.256448
Si Si7 0.324156 0.177757 0.177780
Si Si8 0.972748 0.153683 0.191319
O O1 0.213380 0.035695 0.290582
O O2 0.484872 0.055217 0.343418
O O3 0.308840 0.937055 0.362145
O O4 0.634425 0.993741 0.048710
O O5 0.907436 0.365582 0.181734
O O6 0.576871 0.327282 0.171472
O O7 0.477258 0.364652 0.473777
O O8 0.969549 0.534278 0.776934
O O9 0.024902 0.418538 0.661760
O O10 0.756423 0.862160 0.320457
O O11 0.186996 0.884338 0.993377
O O12 0.379485 0.248052 0.127682
O O13 0.142620 0.311198 0.473428
O O14 0.401731 0.159154 0.285764
O O15 0.709181 0.157913 0.309297
O O16 0.060028 0.171621 0.293417
#
# Coordination Sequence:
#
# PCOD9239631 Si02
#       8
#     4   4   4   4   4   4   4   4
#     4   9  13  24  44  65  87 111 133 165 221 277
#     4   9  17  30  43  62  89 119 140 172 218 246
#     4   9  13  23  42  62  89 110 131 166 218 267
#     4   8  17  26  40  66  87 113 138 169 214 265
#     4  10  19  27  42  59  87 124 150 167 203 263
#     4   9  17  25  43  64  85 118 139 165 221 266
#     4  10  18  31  38  58  94 118 149 174 201 257
#     4  10  18  29  43  65  86 121 143 172 219 250
#
# _framework density 26.975579
#
# number of rings (size 3 to 8) (size 9 to 14) (size 15 to 20)
#    0.000    2.750    3.750    1.500    1.750    2.500 
#    0.000    0.000    0.000    0.000    0.000    0.000 
#    0.000    8.000    0.000    1.500    0.000    0.000 
#
# Total GULP energy -178982.160346 kJ/mol
# GULP energy per Si atom -5593.192511 kJ/mol
# Density = 2.691418 g / cm^3
# Si number density = 26.975579 Si / 1000 Ang^3
#
#
#
# Elastic Constant Matrix: (Units=GPa)
#
#
# Indices 1 2 3 4 5 6 
#
# 1 205.8562 54.2793 20.5058 0.0000 -18.3845 0.0000
# 2 54.2793 109.9919 -2.0598 0.0000 -13.8953 0.0000
# 3 20.5058 -2.0598 89.4482 0.0000 -6.6420 0.0000
# 4 0.0000 0.0000 0.0000 13.6455 0.0000 6.1922
# 5 -18.3845 -13.8953 -6.6420 0.0000 49.3561 0.0000
# 6 0.0000 0.0000 0.0000 6.1922 0.0000 34.9748
#
#
#
# Elastic Compliance Matrix: (Units=1/GPa)
#
#
# Indices 1 2 3 4 5 6 
#
# 1 0.005820 -0.002742 -0.001307 0.000000 0.001220 0.000000
# 2 -0.002742 0.010735 0.001035 0.000000 0.002140 0.000000
# 3 -0.001307 0.001035 0.011605 0.000000 0.001366 0.000000
# 4 0.000000 0.000000 0.000000 0.079686 0.000000 -0.014108
# 5 0.001220 0.002140 0.001366 0.000000 0.021502 0.000000
# 6 0.000000 0.000000 0.000000 -0.014108 0.000000 0.031090
#
#
# Mechanical properties :
#
#
# Convention : Reuss Voigt Hill
#
# Bulk Modulus (GPa) = 45.18696 61.19410 53.19053
# Shear Modulus (GPa) = 28.76164 41.76668 35.26416
#
# Velocity S-wave (km/s) = 3.26883 3.93913 3.61953
# Velocity P-wave (km/s) = 5.57085 6.58963 6.10154
#
# Compressibility (1/GPa) = 0.02213028
#
# Stress axis : x y z
#
# Youngs Moduli (GPa) = 171.82147 93.15640 86.17335
#
# Poissons Ratio (x) = 0.25548 0.11261
# Poissons Ratio (y) = 0.47121 -0.08917
# Poissons Ratio (z) = 0.22453 -0.09640
#
# Static dielectric constant tensor:
#      x y z
#    x 2.054990 0.000000 -0.014650 
#    y 0.000000 2.050340 0.000000 
#    z -0.014650 0.000000 2.315640 
# 
# From -- ./inp_files/26642.got.cif
#   From: 2010.05.17/outbox.cif.g08.bks.cpg/sg14_14_cif.got.tgz:26642.got - 2010.06.03 17:49:19.
