data_PCOD9239124
_publ_section_title
;
Structure prediction by ZEFSAII (Michael W. Deem and Ramdas Pophale) SiO2 
 PCOD9239124
Probable space group: P 21/C
;
_chemical_formula_sum "Si O2"
_cell_formula_units_Z 28
_cell_length_a 14.974428
_cell_length_b 15.108683
_cell_length_c 8.801858
_cell_angle_alpha 90.000000
_cell_angle_beta 131.933875
_cell_angle_gamma 90.000000
_cell_volume 1481.410584
_symmetry_space_group_name_H-M "P 21/C"
_symmetry_group_IT_number 14
_symmetry_cell_setting 'monoclinic'
loop_
_space_group_symop_operation_xyz
x,y,z
-x,1/2+y,1/2-z
-x,-y,-z
x,1/2-y,1/2+z
loop_
_atom_site_type_symbol
_atom_site_label
_atom_site_fract_x
_atom_site_fract_y
_atom_site_fract_z
Si Si1 0.649811 0.734821 0.939051
Si Si2 0.539487 0.637936 0.068396
Si Si3 0.695583 0.468597 0.169789
Si Si4 0.920136 0.372809 0.513086
Si Si5 0.005156 0.712143 0.702569
Si Si6 0.826175 0.929020 0.569242
Si Si7 0.145861 0.157106 0.687646
O O1 0.592093 0.788850 0.738784
O O2 0.547494 0.682627 0.912914
O O3 0.749264 0.660967 0.010364
O O4 0.723623 0.806110 0.122102
O O5 0.630568 0.554638 0.166651
O O6 0.408430 0.603977 0.961403
O O7 0.804661 0.434312 0.397109
O O8 0.749768 0.497117 0.068410
O O9 0.918769 0.284163 0.615258
O O10 0.925342 0.345854 0.341341
O O11 0.045404 0.419129 0.701915
O O12 0.930236 0.656504 0.742476
O O13 0.918039 0.769463 0.493084
O O14 0.847151 0.929185 0.411636
#
# Coordination Sequence:
#
# PCOD9239124 Si02
#       7
#     4   4   4   4   4   4   4
#     4  11  17  34  64  82  98 139 199 231 249 315
#     4  10  23  38  61  80 104 150 193 222 262 323
#     4  10  23  39  52  79 123 146 172 222 291 336
#     4  10  19  34  58  81 115 145 179 226 281 320
#     4   9  17  29  55  87 109 137 186 226 263 326
#     4  10  19  33  58  85 105 143 182 229 272 330
#     4  10  15  29  54  86 104 128 188 234 252 307
#
# _framework density 18.900904000000001
#
# number of rings (size 3 to 8) (size 9 to 14) (size 15 to 20)
#    0.000    2.000    5.714    0.429    2.000    1.143 
#    0.000    1.429    6.286    0.000    0.000    0.000 
#    0.000    0.000    0.000    0.000    0.000    0.000 
#
# Total GULP energy -156076.011821 kJ/mol
# GULP energy per Si atom -5574.143279 kJ/mol
# Density = 1.885788 g / cm^3
# Si number density = 18.900904 Si / 1000 Ang^3
#
#
#
# Elastic Constant Matrix: (Units=GPa)
#
#
# Indices 1 2 3 4 5 6 
#
# 1 57.3255 15.7269 37.8136 0.0000 0.2332 0.0000
# 2 15.7269 25.6530 16.9114 0.0000 8.9574 0.0000
# 3 37.8136 16.9114 55.8131 0.0000 -0.3180 0.0000
# 4 0.0000 0.0000 0.0000 18.5632 0.0000 9.7011
# 5 0.2332 8.9574 -0.3180 0.0000 28.8553 0.0000
# 6 0.0000 0.0000 0.0000 9.7011 0.0000 8.2784
#
#
#
# Elastic Compliance Matrix: (Units=1/GPa)
#
#
# Indices 1 2 3 4 5 6 
#
# 1 0.032535 -0.007594 -0.019731 0.000000 0.001877 0.000000
# 2 -0.007594 0.058308 -0.012626 0.000000 -0.018178 0.000000
# 3 -0.019731 -0.012626 0.035136 0.000000 0.004466 0.000000
# 4 0.000000 0.000000 0.000000 0.138988 0.000000 -0.162875
# 5 0.001877 -0.018178 0.004466 0.000000 0.040333 0.000000
# 6 0.000000 0.000000 0.000000 -0.162875 0.000000 0.311664
#
#
# Mechanical properties :
#
#
# Convention : Reuss Voigt Hill
#
# Bulk Modulus (GPa) = 21.70271 31.07727 26.38999
# Shear Modulus (GPa) = 7.02024 15.69537 11.35780
#
# Velocity S-wave (km/s) = 1.92933 2.88480 2.45401
# Velocity P-wave (km/s) = 4.05837 5.25109 4.69278
#
# Compressibility (1/GPa) = 0.04607720
#
# Stress axis : x y z
#
# Youngs Moduli (GPa) = 30.73601 17.15017 28.46098
#
# Poissons Ratio (x) = 0.13024 0.56156
# Poissons Ratio (y) = 0.23341 0.35935
# Poissons Ratio (z) = 0.60645 0.21654
#
# Static dielectric constant tensor:
#      x y z
#    x 1.708010 0.000000 -0.034270 
#    y 0.000000 1.691490 0.000000 
#    z -0.034270 0.000000 1.631400 
# 
# From -- ./inp_files/16293.got.cif
#   From: 2010.05.17/outbox.cif.g08.bks.cpg/sg14_9_cif.got.tgz:16293.got - 2010.06.03 17:49:19.
