data_PCOD9239946
_publ_section_title
;
Structure prediction by ZEFSAII (Michael W. Deem and Ramdas Pophale) SiO2 
 PCOD9239946
Probable space group: P 21/C
;
_chemical_formula_sum "Si O2"
_cell_formula_units_Z 24
_cell_length_a 15.753338
_cell_length_b 12.994753
_cell_length_c 10.288765
_cell_angle_alpha 90.000000
_cell_angle_beta 34.670287
_cell_angle_gamma 90.000000
_cell_volume 1198.130133
_symmetry_space_group_name_H-M "P 21/C"
_symmetry_group_IT_number 14
_symmetry_cell_setting 'monoclinic'
loop_
_space_group_symop_operation_xyz
x,y,z
-x,1/2+y,1/2-z
-x,-y,-z
x,1/2-y,1/2+z
loop_
_atom_site_type_symbol
_atom_site_label
_atom_site_fract_x
_atom_site_fract_y
_atom_site_fract_z
Si Si1 0.272795 0.442507 0.334987
Si Si2 0.414176 0.602028 0.950681
Si Si3 0.780755 0.438294 0.030834
Si Si4 0.193040 0.719188 0.772062
Si Si5 0.989706 0.880488 0.972264
Si Si6 0.031973 0.553571 0.821015
O O1 0.411626 0.396947 0.238125
O O2 0.178329 0.364260 0.363587
O O3 0.152405 0.490640 0.585108
O O4 0.337296 0.531022 0.158541
O O5 0.365871 0.553268 0.873054
O O6 0.337979 0.713896 0.055042
O O7 0.897430 0.378027 0.791281
O O8 0.871371 0.542396 0.952239
O O9 0.762518 0.366309 0.178668
O O10 0.110529 0.659812 0.758674
O O11 0.064683 0.801360 0.977826
O O12 0.000000 0.000000 0.000000
O O13 0.000000 0.500000 0.000000
#
# Coordination Sequence:
#
# PCOD9239946 Si02
#       6
#     4   4   4   4   4   4
#     4  10  20  38  58  82 123 154 193 238 294 357
#     4  10  21  35  57  88 115 163 187 234 301 355
#     4   9  19  35  58  87 113 154 198 238 294 344
#     4  10  20  35  59  87 115 152 201 240 298 345
#     4  10  18  33  56  83 109 149 195 246 284 338
#     4   9  20  38  61  86 115 155 195 249 292 340
#
# _framework density 20.031213999999999
#
# number of rings (size 3 to 8) (size 9 to 14) (size 15 to 20)
#    0.000    2.333    3.333    0.000    4.667    0.000 
#    0.000   10.000    0.000    0.000    0.000    0.000 
#    0.000    0.000    0.000    0.000    0.000    0.000 
#
# Total GULP energy -133601.950957 kJ/mol
# GULP energy per Si atom -5566.747957 kJ/mol
# Density = 1.998562 g / cm^3
# Si number density = 20.031214 Si / 1000 Ang^3
#
#
#
# Elastic Constant Matrix: (Units=GPa)
#
#
# Indices 1 2 3 4 5 6 
#
# 1 145.6992 34.3619 25.0838 0.0000 -39.4189 0.0000
# 2 34.3619 62.8721 1.6804 0.0000 -12.9000 0.0000
# 3 25.0838 1.6804 30.8505 0.0000 -17.1813 0.0000
# 4 0.0000 0.0000 0.0000 12.2328 0.0000 -0.5981
# 5 -39.4189 -12.9000 -17.1813 0.0000 47.0004 0.0000
# 6 0.0000 0.0000 0.0000 -0.5981 0.0000 31.0808
#
#
#
# Elastic Compliance Matrix: (Units=1/GPa)
#
#
# Indices 1 2 3 4 5 6 
#
# 1 0.010255 -0.004324 -0.004989 0.000000 0.005590 0.000000
# 2 -0.004324 0.018785 0.004199 0.000000 0.003064 0.000000
# 3 -0.004989 0.004199 0.043387 0.000000 0.012828 0.000000
# 4 0.000000 0.000000 0.000000 0.081824 0.000000 0.001575
# 5 0.005590 0.003064 0.012828 0.000000 0.031495 0.000000
# 6 0.000000 0.000000 0.000000 0.001575 0.000000 0.032204
#
#
# Mechanical properties :
#
#
# Convention : Reuss Voigt Hill
#
# Bulk Modulus (GPa) = 16.07765 40.18601 28.13183
# Shear Modulus (GPa) = 20.08748 29.94919 25.01834
#
# Velocity S-wave (km/s) = 3.17015 3.87088 3.53791
# Velocity P-wave (km/s) = 4.63072 6.33116 5.54649
#
# Compressibility (1/GPa) = 0.06219816
#
# Stress axis : x y z
#
# Youngs Moduli (GPa) = 97.51787 53.23359 23.04852
#
# Poissons Ratio (x) = 0.23020 0.11499
# Poissons Ratio (y) = 0.42169 -0.09679
# Poissons Ratio (z) = 0.48653 -0.22354
#
# Static dielectric constant tensor:
#      x y z
#    x 1.843650 0.000000 0.015030 
#    y 0.000000 1.798570 0.000000 
#    z 0.015030 0.000000 1.696500 
# 
# From -- ./inp_files/33853.got.cif
#   From: 2010.05.17/outbox.cif.g08.bks.cpg/sg14_17_cif.got.tgz:33853.got - 2010.06.03 17:49:19.
