data_PCOD9239257
_publ_section_title
;
Structure prediction by ZEFSAII (Michael W. Deem and Ramdas Pophale) SiO2 
 PCOD9239257
Probable space group: P 21/C
;
_chemical_formula_sum "Si O2"
_cell_formula_units_Z 32
_cell_length_a 9.704827
_cell_length_b 32.473277
_cell_length_c 5.614163
_cell_angle_alpha 90.000000
_cell_angle_beta 62.175508
_cell_angle_gamma 90.000000
_cell_volume 1564.727072
_symmetry_space_group_name_H-M "P 21/C"
_symmetry_group_IT_number 14
_symmetry_cell_setting 'monoclinic'
loop_
_space_group_symop_operation_xyz
x,y,z
-x,1/2+y,1/2-z
-x,-y,-z
x,1/2-y,1/2+z
loop_
_atom_site_type_symbol
_atom_site_label
_atom_site_fract_x
_atom_site_fract_y
_atom_site_fract_z
Si Si1 0.622938 0.362276 0.000813
Si Si2 0.838189 0.990788 0.258871
Si Si3 0.825834 0.574543 0.123337
Si Si4 0.334942 0.261965 0.746195
Si Si5 0.565189 0.856790 0.844783
Si Si6 0.176095 0.569898 0.927574
Si Si7 0.309578 0.769945 0.553748
Si Si8 0.332162 0.506668 0.523682
O O1 0.523387 0.359556 0.328748
O O2 0.732278 0.401090 0.967632
O O3 0.714036 0.318785 0.916188
O O4 0.532168 0.365343 0.821389
O O5 0.829246 0.944640 0.356172
O O6 0.846737 0.023800 0.459714
O O7 0.683272 0.002483 0.244828
O O8 0.000000 0.000000 0.000000
O O9 0.705708 0.611061 0.243113
O O10 0.767202 0.534994 0.324630
O O11 0.003614 0.586837 0.028581
O O12 0.255757 0.251448 0.557609
O O13 0.374115 0.310088 0.724903
O O14 0.501862 0.237802 0.602642
O O15 0.275409 0.553947 0.620855
O O16 0.253643 0.748799 0.845687
O O17 0.500000 0.500000 0.500000
#
# Coordination Sequence:
#
# PCOD9239257 Si02
#       8
#     4   4   4   4   4   4   4   4
#     4  12  24  38  63  99 125 157 211 270 304 360
#     4  11  21  43  67  80 118 175 209 243 313 385
#     4  11  25  40  59  88 125 167 204 252 319 377
#     4  10  16  34  59  88 120 158 201 250 312 367
#     4  12  24  38  63  99 125 157 211 270 304 360
#     4  11  25  40  59  88 125 167 204 252 319 377
#     4  10  16  34  59  88 120 158 201 250 312 367
#     4  11  23  41  63  87 117 154 213 263 302 362
#
# _framework density 20.450849999999999
#
# number of rings (size 3 to 8) (size 9 to 14) (size 15 to 20)
#    0.000    1.000    7.500    1.500    7.000    1.000 
#    0.000    0.000    0.000    1.500    0.000    0.000 
#    0.000    0.000    0.000    0.000    0.000    0.000 
#
# Total GULP energy -178215.519325 kJ/mol
# GULP energy per Si atom -5569.234979 kJ/mol
# Density = 2.040430 g / cm^3
# Si number density = 20.450850 Si / 1000 Ang^3
#
#
#
# Elastic Constant Matrix: (Units=GPa)
#
#
# Indices 1 2 3 4 5 6 
#
# 1 81.8188 17.7019 29.0032 0.0000 16.1659 0.0000
# 2 17.7019 89.9234 6.4056 0.0000 -3.0566 0.0000
# 3 29.0032 6.4056 78.1083 0.0000 29.3253 0.0000
# 4 0.0000 0.0000 0.0000 22.7468 0.0000 9.2217
# 5 16.1659 -3.0566 29.3253 0.0000 24.4048 0.0000
# 6 0.0000 0.0000 0.0000 9.2217 0.0000 4.6511
#
#
#
# Elastic Compliance Matrix: (Units=1/GPa)
#
#
# Indices 1 2 3 4 5 6 
#
# 1 0.015275 -0.003062 -0.002693 0.000000 -0.007266 0.000000
# 2 -0.003062 0.012086 -0.002157 0.000000 0.006134 0.000000
# 3 -0.002693 -0.002157 0.024435 0.000000 -0.027848 0.000000
# 4 0.000000 0.000000 0.000000 0.224078 0.000000 -0.444281
# 5 -0.007266 0.006134 -0.027848 0.000000 0.080020 0.000000
# 6 0.000000 0.000000 0.000000 -0.444281 0.000000 1.095886
#
#
# Mechanical properties :
#
#
# Convention : Reuss Voigt Hill
#
# Bulk Modulus (GPa) = 27.79994 39.56356 33.68175
# Shear Modulus (GPa) = 3.37931 23.47651 13.42791
#
# Velocity S-wave (km/s) = 1.28685 3.39181 2.56519
# Velocity P-wave (km/s) = 3.97882 5.89295 5.02782
#
# Compressibility (1/GPa) = 0.03597130
#
# Stress axis : x y z
#
# Youngs Moduli (GPa) = 65.46747 82.74366 40.92517
#
# Poissons Ratio (x) = 0.25337 0.11020
# Poissons Ratio (y) = 0.20047 0.08828
# Poissons Ratio (z) = 0.17629 0.17849
#
# Static dielectric constant tensor:
#      x y z
#    x 1.731060 0.000000 0.075830 
#    y 0.000000 1.705240 0.000000 
#    z 0.075830 0.000000 1.868590 
# 
# From -- ./inp_files/2222.got.cif
#   From: 2010.05.17/outbox.cif.g08.bks.cpg/sg14_2_cif.got.tgz:2222.got - 2010.06.03 17:49:19.
