data_PCOD9239262
_publ_section_title
;
Structure prediction by ZEFSAII (Michael W. Deem and Ramdas Pophale) SiO2 
 PCOD9239262
Probable space group: P 21/C
;
_chemical_formula_sum "Si O2"
_cell_formula_units_Z 32
_cell_length_a 18.390844
_cell_length_b 17.907053
_cell_length_c 12.274658
_cell_angle_alpha 90.000000
_cell_angle_beta 153.608711
_cell_angle_gamma 90.000000
_cell_volume 1796.825748
_symmetry_space_group_name_H-M "P 21/C"
_symmetry_group_IT_number 14
_symmetry_cell_setting 'monoclinic'
loop_
_space_group_symop_operation_xyz
x,y,z
-x,1/2+y,1/2-z
-x,-y,-z
x,1/2-y,1/2+z
loop_
_atom_site_type_symbol
_atom_site_label
_atom_site_fract_x
_atom_site_fract_y
_atom_site_fract_z
Si Si1 0.983521 0.397256 0.880437
Si Si2 0.810424 0.035324 0.429365
Si Si3 0.001159 0.164497 0.166939
Si Si4 0.713526 0.445463 0.227942
Si Si5 0.053759 0.161490 0.711119
Si Si6 0.269185 0.050496 0.456442
Si Si7 0.367306 0.549424 0.522145
Si Si8 0.346319 0.067864 0.171984
O O1 0.790070 0.406723 0.643363
O O2 0.014975 0.349045 0.815256
O O3 0.064498 0.477430 0.961849
O O4 0.058278 0.363954 0.090851
O O5 0.661805 0.044666 0.145684
O O6 0.909105 0.112317 0.571085
O O7 0.758382 0.000390 0.473476
O O8 0.015077 0.251607 0.163606
O O9 0.143661 0.118221 0.297916
O O10 0.835206 0.123135 0.907116
O O11 0.722369 0.501295 0.343210
O O12 0.755991 0.497952 0.181945
O O13 0.527316 0.417605 0.961305
O O14 0.221133 0.135858 0.994564
O O15 0.455421 0.079951 0.708333
O O16 0.363439 0.468827 0.575539
#
# Coordination Sequence:
#
# PCOD9239262 Si02
#       8
#     4   4   4   4   4   4   4   4
#     4  10  19  37  63  79 110 153 200 234 272 353
#     4  10  18  35  60  84 109 146 196 239 276 336
#     4  11  23  38  54  88 121 149 188 235 305 343
#     4  10  21  37  61  82 117 152 198 236 277 348
#     4  11  21  36  60  83 116 152 191 236 295 345
#     4  10  22  34  58  86 116 148 189 244 282 333
#     4  10  16  34  62  84 105 140 197 240 273 320
#     4  10  18  36  63  85 103 152 204 232 269 344
#
# _framework density 17.809184999999999
#
# number of rings (size 3 to 8) (size 9 to 14) (size 15 to 20)
#    0.000    1.750    3.750    2.250    0.000    2.000 
#    4.500    0.000    0.000    0.000    0.000    0.000 
#    0.000    0.000    0.000    0.000    0.000    0.000 
#
# Total GULP energy -178550.922625 kJ/mol
# GULP energy per Si atom -5579.716332 kJ/mol
# Density = 1.776865 g / cm^3
# Si number density = 17.809185 Si / 1000 Ang^3
#
#
#
# Elastic Constant Matrix: (Units=GPa)
#
#
# Indices 1 2 3 4 5 6 
#
# 1 50.3278 25.5883 25.2211 0.0000 -2.3690 0.0000
# 2 25.5883 121.8186 65.6022 0.0000 7.9727 0.0000
# 3 25.2211 65.6022 110.2848 0.0000 9.2081 0.0000
# 4 0.0000 0.0000 0.0000 14.0246 0.0000 -2.1983
# 5 -2.3690 7.9727 9.2081 0.0000 26.4471 0.0000
# 6 0.0000 0.0000 0.0000 -2.1983 0.0000 11.6080
#
#
#
# Elastic Compliance Matrix: (Units=1/GPa)
#
#
# Indices 1 2 3 4 5 6 
#
# 1 0.023636 -0.003155 -0.003898 0.000000 0.004425 0.000000
# 2 -0.003155 0.012535 -0.006587 0.000000 -0.001768 0.000000
# 3 -0.003898 -0.006587 0.014152 0.000000 -0.003291 0.000000
# 4 0.000000 0.000000 0.000000 0.073484 0.000000 0.013916
# 5 0.004425 -0.001768 -0.003291 0.000000 0.039887 0.000000
# 6 0.000000 0.000000 0.000000 0.013916 0.000000 0.088783
#
#
# Mechanical properties :
#
#
# Convention : Reuss Voigt Hill
#
# Bulk Modulus (GPa) = 43.39916 57.25048 50.32482
# Shear Modulus (GPa) = 17.39511 21.48391 19.43951
#
# Velocity S-wave (km/s) = 3.12869 3.47701 3.30744
# Velocity P-wave (km/s) = 6.12156 6.95240 6.55016
#
# Compressibility (1/GPa) = 0.02304192
#
# Stress axis : x y z
#
# Youngs Moduli (GPa) = 42.30894 79.77900 70.66241
#
# Poissons Ratio (x) = 0.25173 0.27543
# Poissons Ratio (y) = 0.13350 0.46545
# Poissons Ratio (z) = 0.16491 0.52550
#
# Static dielectric constant tensor:
#      x y z
#    x 1.628040 0.000000 0.003330 
#    y 0.000000 1.566110 0.000000 
#    z 0.003330 0.000000 1.643470 
# 
# From -- ./inp_files/34368.got.cif
#   From: 2010.05.17/outbox.cif.g08.bks.cpg/sg14_18_cif.got.tgz:34368.got - 2010.06.03 17:49:19.
