data_PCOD9239924
_publ_section_title
;
Structure prediction by ZEFSAII (Michael W. Deem and Ramdas Pophale) SiO2 
 PCOD9239924
Probable space group: P 21/C
;
_chemical_formula_sum "Si O2"
_cell_formula_units_Z 28
_cell_length_a 14.355593
_cell_length_b 8.755731
_cell_length_c 13.172583
_cell_angle_alpha 90.000000
_cell_angle_beta 46.131721
_cell_angle_gamma 90.000000
_cell_volume 1193.659715
_symmetry_space_group_name_H-M "P 21/C"
_symmetry_group_IT_number 14
_symmetry_cell_setting 'monoclinic'
loop_
_space_group_symop_operation_xyz
x,y,z
-x,1/2+y,1/2-z
-x,-y,-z
x,1/2-y,1/2+z
loop_
_atom_site_type_symbol
_atom_site_label
_atom_site_fract_x
_atom_site_fract_y
_atom_site_fract_z
Si Si1 0.941039 0.305437 0.608298
Si Si2 0.198276 0.354427 0.587400
Si Si3 0.977620 0.907360 0.271878
Si Si4 0.643296 0.099877 0.092832
Si Si5 0.342742 0.163245 0.298275
Si Si6 0.781104 0.570786 0.678071
Si Si7 0.801784 0.123809 0.537493
O O1 0.840454 0.442768 0.707165
O O2 0.886140 0.220284 0.551635
O O3 0.953652 0.190886 0.691512
O O4 0.083529 0.360146 0.466625
O O5 0.112608 0.225677 0.710860
O O6 0.311865 0.476359 0.526235
O O7 0.272466 0.246055 0.448463
O O8 0.088795 0.485380 0.640514
O O9 0.888678 0.026292 0.397429
O O10 0.492576 0.135300 0.203740
O O11 0.714514 0.261769 0.038592
O O12 0.693762 0.023003 0.161082
O O13 0.307936 0.281448 0.234031
O O14 0.278612 0.998618 0.336933
#
# Coordination Sequence:
#
# PCOD9239924 Si02
#       7
#     4   4   4   4   4   4   4
#     4  10  18  33  54  81 115 140 183 234 279 332
#     4  10  21  35  52  83 113 148 177 226 289 325
#     4  11  20  35  52  82 120 138 178 233 286 345
#     4  10  18  34  55  78 110 146 188 231 263 326
#     4  10  19  34  54  81 112 143 192 227 266 327
#     4   9  18  32  52  81 107 140 185 226 279 312
#     4  10  19  29  55  85 106 147 186 226 283 320
#
# _framework density 23.457270999999999
#
# number of rings (size 3 to 8) (size 9 to 14) (size 15 to 20)
#    0.000    2.000    4.286    3.000    0.000    0.000 
#    0.000    0.000    0.000    8.571    0.000    0.000 
#    0.000    0.000    0.000    0.000    0.000    0.000 
#
# Total GULP energy -155923.207094 kJ/mol
# GULP energy per Si atom -5568.685968 kJ/mol
# Density = 2.340388 g / cm^3
# Si number density = 23.457271 Si / 1000 Ang^3
#
#
#
# Elastic Constant Matrix: (Units=GPa)
#
#
# Indices 1 2 3 4 5 6 
#
# 1 90.6160 48.9103 59.0007 0.0000 -35.0627 0.0000
# 2 48.9103 180.0871 69.6856 0.0000 -25.3027 0.0000
# 3 59.0007 69.6856 101.8145 0.0000 -36.0670 0.0000
# 4 0.0000 0.0000 0.0000 27.2410 0.0000 4.4760
# 5 -35.0627 -25.3027 -36.0670 0.0000 41.3406 0.0000
# 6 0.0000 0.0000 0.0000 4.4760 0.0000 31.8031
#
#
#
# Elastic Compliance Matrix: (Units=1/GPa)
#
#
# Indices 1 2 3 4 5 6 
#
# 1 0.020453 -0.001270 -0.007400 0.000000 0.010113 0.000000
# 2 -0.001270 0.007633 -0.004653 0.000000 -0.000465 0.000000
# 3 -0.007400 -0.004653 0.020353 0.000000 0.008632 0.000000
# 4 0.000000 0.000000 0.000000 0.037578 0.000000 -0.005289
# 5 0.010113 -0.000465 0.008632 0.000000 0.040013 0.000000
# 6 0.000000 0.000000 0.000000 -0.005289 0.000000 0.032188
#
#
# Mechanical properties :
#
#
# Convention : Reuss Voigt Hill
#
# Bulk Modulus (GPa) = 45.88965 80.85678 63.37321
# Shear Modulus (GPa) = 26.02430 33.07168 29.54799
#
# Velocity S-wave (km/s) = 3.33443 3.75890 3.55301
# Velocity P-wave (km/s) = 5.86772 7.30642 6.62623
#
# Compressibility (1/GPa) = 0.02179140
#
# Stress axis : x y z
#
# Youngs Moduli (GPa) = 48.89324 131.01003 49.13372
#
# Poissons Ratio (x) = 0.16642 0.36360
# Poissons Ratio (y) = 0.06211 0.22861
# Poissons Ratio (z) = 0.36182 0.60957
#
# Static dielectric constant tensor:
#      x y z
#    x 1.978380 0.000000 0.064120 
#    y 0.000000 1.963420 0.000000 
#    z 0.064120 0.000000 1.902450 
# 
# From -- ./inp_files/59040.got.cif
#   From: 2010.05.17/outbox.cif.g08.bks.cpg/sg14_30_cif.got.tgz:59040.got - 2010.06.03 17:49:19.
