data_PCOD9239675
_publ_section_title
;
Structure prediction by ZEFSAII (Michael W. Deem and Ramdas Pophale) SiO2 
 PCOD9239675
Probable space group: P 21/C
;
_chemical_formula_sum "Si O2"
_cell_formula_units_Z 32
_cell_length_a 9.114939
_cell_length_b 14.223244
_cell_length_c 11.539113
_cell_angle_alpha 90.000000
_cell_angle_beta 64.998132
_cell_angle_gamma 90.000000
_cell_volume 1355.794794
_symmetry_space_group_name_H-M "P 21/C"
_symmetry_group_IT_number 14
_symmetry_cell_setting 'monoclinic'
loop_
_space_group_symop_operation_xyz
x,y,z
-x,1/2+y,1/2-z
-x,-y,-z
x,1/2-y,1/2+z
loop_
_atom_site_type_symbol
_atom_site_label
_atom_site_fract_x
_atom_site_fract_y
_atom_site_fract_z
Si Si1 0.224236 0.972868 0.844057
Si Si2 0.649240 0.333881 0.234477
Si Si3 0.303970 0.841917 0.030212
Si Si4 0.575494 0.815387 0.382038
Si Si5 0.042804 0.708606 0.019809
Si Si6 0.764761 0.646831 0.253219
Si Si7 0.499018 0.626113 0.153412
Si Si8 0.119805 0.124209 0.040345
O O1 0.290586 0.918505 0.935378
O O2 0.050483 0.926864 0.875851
O O3 0.352024 0.947545 0.703178
O O4 0.192104 0.075944 0.902268
O O5 0.670517 0.382181 0.350754
O O6 0.588135 0.227404 0.288633
O O7 0.515222 0.370375 0.190202
O O8 0.817570 0.331607 0.109443
O O9 0.448426 0.770012 0.952960
O O10 0.140028 0.780117 0.072498
O O11 0.728500 0.758538 0.283931
O O12 0.586622 0.867269 0.500364
O O13 0.936998 0.638903 0.131976
O O14 0.922937 0.769165 0.978201
O O15 0.628924 0.608771 0.211450
O O16 0.771338 0.611742 0.382673
#
# Coordination Sequence:
#
# PCOD9239675 Si02
#       8
#     4   4   4   4   4   4   4   4
#     4  10  19  36  53  75 108 141 175 212 262 325
#     4   9  16  29  52  77  99 134 174 213 263 307
#     4   9  16  31  51  74 104 134 176 215 258 315
#     4   9  18  31  50  77 106 136 172 218 266 310
#     4  10  18  30  50  80 105 134 169 225 265 303
#     4  11  20  31  51  82 108 133 173 225 264 304
#     4  10  18  33  50  74 107 135 172 216 265 310
#     4  10  21  33  52  81 104 137 178 214 266 308
#
# _framework density 23.602391999999998
#
# number of rings (size 3 to 8) (size 9 to 14) (size 15 to 20)
#    0.000    2.250    5.000    1.500    3.500    0.500 
#    0.000    0.000    0.000    1.500    3.250    0.000 
#    0.000    0.000    0.000    0.000    0.000    0.000 
#
# Total GULP energy -178794.852520 kJ/mol
# GULP energy per Si atom -5587.339141 kJ/mol
# Density = 2.354867 g / cm^3
# Si number density = 23.602392 Si / 1000 Ang^3
#
#
#
# Elastic Constant Matrix: (Units=GPa)
#
#
# Indices 1 2 3 4 5 6 
#
# 1 78.5196 9.3273 34.8182 0.0000 23.4217 0.0000
# 2 9.3273 23.1746 -10.1482 0.0000 -7.4959 0.0000
# 3 34.8182 -10.1482 62.3340 0.0000 1.1904 0.0000
# 4 0.0000 0.0000 0.0000 22.2575 0.0000 1.3081
# 5 23.4217 -7.4959 1.1904 0.0000 44.7219 0.0000
# 6 0.0000 0.0000 0.0000 1.3081 0.0000 9.5865
#
#
#
# Elastic Compliance Matrix: (Units=1/GPa)
#
#
# Indices 1 2 3 4 5 6 
#
# 1 0.033047 -0.030420 -0.022996 0.000000 -0.021794 0.000000
# 2 -0.030420 0.077191 0.029022 0.000000 0.028097 0.000000
# 3 -0.022996 0.029022 0.033306 0.000000 0.016021 0.000000
# 4 0.000000 0.000000 0.000000 0.045292 0.000000 -0.006180
# 5 -0.021794 0.028097 0.016021 0.000000 0.038057 0.000000
# 6 0.000000 0.000000 0.000000 -0.006180 0.000000 0.105157
#
#
# Mechanical properties :
#
#
# Convention : Reuss Voigt Hill
#
# Bulk Modulus (GPa) = 10.55322 25.78032 18.16677
# Shear Modulus (GPa) = 12.12343 23.98189 18.05266
#
# Velocity S-wave (km/s) = 2.26885 3.19106 2.76862
# Velocity P-wave (km/s) = 3.36816 4.95213 4.23486
#
# Compressibility (1/GPa) = 0.09475783
#
# Stress axis : x y z
#
# Youngs Moduli (GPa) = 30.25960 12.95486 30.02423
#
# Poissons Ratio (x) = 0.39409 0.69043
# Poissons Ratio (y) = 0.92050 -0.87137
# Poissons Ratio (z) = 0.69584 -0.37598
#
# Static dielectric constant tensor:
#      x y z
#    x 1.896190 0.000000 0.000300 
#    y 0.000000 1.951890 0.000000 
#    z 0.000300 0.000000 1.905280 
# 
# From -- ./inp_files/26033.got.cif
#   From: 2010.05.17/outbox.cif.g08.bks.cpg/sg14_14_cif.got.tgz:26033.got - 2010.06.03 17:49:19.
