data_PCOD9239704
_publ_section_title
;
Structure prediction by ZEFSAII (Michael W. Deem and Ramdas Pophale) SiO2 
 PCOD9239704
Probable space group: P 21/C
;
_chemical_formula_sum "Si O2"
_cell_formula_units_Z 32
_cell_length_a 5.477809
_cell_length_b 8.798209
_cell_length_c 33.402839
_cell_angle_alpha 90.000000
_cell_angle_beta 112.568811
_cell_angle_gamma 90.000000
_cell_volume 1486.563530
_symmetry_space_group_name_H-M "P 21/C"
_symmetry_group_IT_number 14
_symmetry_cell_setting 'monoclinic'
loop_
_space_group_symop_operation_xyz
x,y,z
-x,1/2+y,1/2-z
-x,-y,-z
x,1/2-y,1/2+z
loop_
_atom_site_type_symbol
_atom_site_label
_atom_site_fract_x
_atom_site_fract_y
_atom_site_fract_z
Si Si1 0.062072 0.167408 0.022534
Si Si2 0.115216 0.761648 0.774671
Si Si3 0.228741 0.122100 0.887641
Si Si4 0.110637 0.341331 0.617347
Si Si5 0.479436 0.319992 0.487242
Si Si6 0.563758 0.958419 0.182085
Si Si7 0.799970 0.228062 0.308976
Si Si8 0.293540 0.124008 0.687023
O O1 0.170801 0.150514 0.074207
O O2 0.271530 0.243549 0.006175
O O3 0.774803 0.244050 0.007823
O O4 0.000000 0.000000 0.000000
O O5 0.189507 0.936596 0.790238
O O6 0.046032 0.755107 0.723338
O O7 0.396929 0.672569 0.796189
O O8 0.890756 0.701203 0.790186
O O9 0.366702 0.186337 0.935459
O O10 0.974303 0.217568 0.857555
O O11 0.399205 0.120821 0.858313
O O12 0.146218 0.946514 0.891727
O O13 0.328075 0.423742 0.658389
O O14 0.133329 0.173077 0.636487
O O15 0.500000 0.500000 0.500000
O O16 0.449676 0.841171 0.206755
O O17 0.713470 0.055639 0.307252
#
# Coordination Sequence:
#
# PCOD9239704 Si02
#       8
#     4   4   4   4   4   4   4   4
#     4  10  18  30  56  92 118 155 202 269 305 365
#     4  11  25  44  67  88 127 168 228 258 321 385
#     4  11  21  37  62  93 126 165 214 267 322 376
#     4  10  20  37  62  92 127 162 214 262 321 381
#     4  10  19  31  56  90 123 154 205 267 308 367
#     4  10  22  40  62  93 121 170 210 272 309 388
#     4  11  27  39  64  92 131 168 213 272 329 388
#     4  11  26  44  65  96 128 175 209 273 327 392
#
# _framework density 21.526157999999999
#
# number of rings (size 3 to 8) (size 9 to 14) (size 15 to 20)
#    0.000    1.500    3.750    2.250    7.000    0.000 
#    0.000    0.000    0.000    1.500    0.000    0.000 
#    0.000    0.000    0.000    0.000    0.000    0.000 
#
# Total GULP energy -178631.707780 kJ/mol
# GULP energy per Si atom -5582.240868 kJ/mol
# Density = 2.147716 g / cm^3
# Si number density = 21.526158 Si / 1000 Ang^3
#
#
#
# Elastic Constant Matrix: (Units=GPa)
#
#
# Indices 1 2 3 4 5 6 
#
# 1 124.8191 10.5939 24.9745 0.0000 -10.8699 0.0000
# 2 10.5939 58.5052 28.1458 0.0000 7.8887 0.0000
# 3 24.9745 28.1458 116.9775 0.0000 -17.3778 0.0000
# 4 0.0000 0.0000 0.0000 17.4305 0.0000 -0.6259
# 5 -10.8699 7.8887 -17.3778 0.0000 34.3475 0.0000
# 6 0.0000 0.0000 0.0000 -0.6259 0.0000 13.9982
#
#
#
# Elastic Compliance Matrix: (Units=1/GPa)
#
#
# Indices 1 2 3 4 5 6 
#
# 1 0.008566 -0.001327 -0.001148 0.000000 0.002435 0.000000
# 2 -0.001327 0.021416 -0.006123 0.000000 -0.008436 0.000000
# 3 -0.001148 -0.006123 0.011269 0.000000 0.006744 0.000000
# 4 0.000000 0.000000 0.000000 0.057463 0.000000 0.002569
# 5 0.002435 -0.008436 0.006744 0.000000 0.035235 0.000000
# 6 0.000000 0.000000 0.000000 0.002569 0.000000 0.071552
#
#
# Mechanical properties :
#
#
# Convention : Reuss Voigt Hill
#
# Bulk Modulus (GPa) = 41.57116 47.52559 44.54838
# Shear Modulus (GPa) = 21.67177 28.92774 25.29975
#
# Velocity S-wave (km/s) = 3.17640 3.66982 3.43199
# Velocity P-wave (km/s) = 5.72770 6.33110 6.03694
#
# Compressibility (1/GPa) = 0.02405514
#
# Stress axis : x y z
#
# Youngs Moduli (GPa) = 116.74140 46.69413 88.74048
#
# Poissons Ratio (x) = 0.06198 0.10185
# Poissons Ratio (y) = 0.15495 0.54334
# Poissons Ratio (z) = 0.13399 0.28590
#
# Static dielectric constant tensor:
#      x y z
#    x 1.839060 0.000000 0.040580 
#    y 0.000000 1.789960 0.000000 
#    z 0.040580 0.000000 1.760680 
# 
# From -- ./inp_files/78818.got.cif
#   From: 2010.05.17/outbox.cif.g08.bks.cpg/sg14_40_cif.got.tgz:78818.got - 2010.06.03 17:49:19.
