data_PCOD9239767
_publ_section_title
;
Structure prediction by ZEFSAII (Michael W. Deem and Ramdas Pophale) SiO2 
 PCOD9239767
Probable space group: P 21/C
;
_chemical_formula_sum "Si O2"
_cell_formula_units_Z 30
_cell_length_a 10.860940
_cell_length_b 15.598384
_cell_length_c 8.094407
_cell_angle_alpha 90.000000
_cell_angle_beta 119.086141
_cell_angle_gamma 90.000000
_cell_volume 1198.363982
_symmetry_space_group_name_H-M "P 21/C"
_symmetry_group_IT_number 14
_symmetry_cell_setting 'monoclinic'
loop_
_space_group_symop_operation_xyz
x,y,z
-x,1/2+y,1/2-z
-x,-y,-z
x,1/2-y,1/2+z
loop_
_atom_site_type_symbol
_atom_site_label
_atom_site_fract_x
_atom_site_fract_y
_atom_site_fract_z
Si Si1 0.154599 0.134671 0.364594
Si Si2 0.958889 0.457334 0.151347
Si Si3 0.000000 0.500000 0.500000
Si Si4 0.305088 0.907863 0.691897
Si Si5 0.285018 0.944623 0.053239
Si Si6 0.387103 0.358096 0.588878
Si Si7 0.219951 0.277258 0.201943
Si Si8 0.553785 0.562881 0.890670
O O1 0.087479 0.045313 0.265035
O O2 0.116785 0.218520 0.241381
O O3 0.129556 0.155681 0.538425
O O4 0.324032 0.123970 0.461751
O O5 0.055616 0.430191 0.365908
O O6 0.826456 0.398788 0.017513
O O7 0.000000 0.500000 0.000000
O O8 0.856058 0.442763 0.434894
O O9 0.445482 0.851351 0.769464
O O10 0.360447 0.003328 0.680969
O O11 0.258541 0.911572 0.851370
O O12 0.347967 0.042055 0.089295
O O13 0.416261 0.895369 0.222773
O O14 0.337663 0.330275 0.375261
O O15 0.300183 0.290537 0.639675
O O16 0.500000 0.500000 0.000000
#
# Coordination Sequence:
#
# PCOD9239767 Si02
#       8
#     4   4   2   4   4   4   4   4
#     4  10  20  36  56  89 117 153 200 243 306 365
#     4  11  22  40  60  89 121 155 201 258 312 353
#     4  12  24  34  56  92 118 156 198 238 310 366
#     4  10  19  35  58  82 116 151 185 253 312 352
#     4  11  20  34  55  87 119 155 196 248 310 357
#     4  10  19  34  56  87 114 153 197 241 303 358
#     4  10  20  32  55  87 118 157 191 247 289 368
#     4  10  18  31  55  85 117 145 187 251 306 355
#
# _framework density 25.034130999999999
#
# number of rings (size 3 to 8) (size 9 to 14) (size 15 to 20)
#    0.000    1.600    1.333    8.000    0.000    0.000 
#    0.000    0.000    0.000    1.600   13.867    0.000 
#    0.000    0.000    0.000    0.000    0.000    0.000 
#
# Total GULP energy -167142.394792 kJ/mol
# GULP energy per Si atom -5571.413160 kJ/mol
# Density = 2.497715 g / cm^3
# Si number density = 25.034131 Si / 1000 Ang^3
#
#
#
# Elastic Constant Matrix: (Units=GPa)
#
#
# Indices 1 2 3 4 5 6 
#
# 1 70.5492 -12.7412 17.1118 0.0000 5.5722 0.0000
# 2 -12.7412 60.2473 4.3017 0.0000 5.6981 0.0000
# 3 17.1118 4.3017 116.9052 0.0000 2.2841 0.0000
# 4 0.0000 0.0000 0.0000 36.1890 0.0000 -2.3630
# 5 5.5722 5.6981 2.2841 0.0000 47.4796 0.0000
# 6 0.0000 0.0000 0.0000 -2.3630 0.0000 26.2444
#
#
#
# Elastic Compliance Matrix: (Units=1/GPa)
#
#
# Indices 1 2 3 4 5 6 
#
# 1 0.015583 0.003669 -0.002374 0.000000 -0.002155 0.000000
# 2 0.003669 0.017692 -0.001139 0.000000 -0.002499 0.000000
# 3 -0.002374 -0.001139 0.008944 0.000000 -0.000015 0.000000
# 4 0.000000 0.000000 0.000000 0.027796 0.000000 0.002503
# 5 -0.002155 -0.002499 -0.000015 0.000000 0.021615 0.000000
# 6 0.000000 0.000000 0.000000 0.002503 0.000000 0.038329
#
#
# Mechanical properties :
#
#
# Convention : Reuss Voigt Hill
#
# Bulk Modulus (GPa) = 23.51274 29.44960 26.48117
# Shear Modulus (GPa) = 34.76477 37.91789 36.34133
#
# Velocity S-wave (km/s) = 3.73056 3.89607 3.81421
# Velocity P-wave (km/s) = 5.28855 5.65937 5.47710
#
# Compressibility (1/GPa) = 0.04253013
#
# Stress axis : x y z
#
# Youngs Moduli (GPa) = 64.17218 56.52325 111.81160
#
# Poissons Ratio (x) = -0.20737 0.26542
# Poissons Ratio (y) = -0.23544 0.12737
# Poissons Ratio (z) = 0.15233 0.06439
#
# Static dielectric constant tensor:
#      x y z
#    x 2.170020 0.000000 -0.208730 
#    y 0.000000 2.160720 0.000000 
#    z -0.208730 0.000000 3.157180 
# 
# From -- ./inp_files/13916.got.cif
#   From: 2010.05.17/outbox.cif.g08.bks.cpg/sg14_7_cif.got.tgz:13916.got - 2010.06.03 17:49:19.
