data_PCOD9239543
_publ_section_title
;
Structure prediction by ZEFSAII (Michael W. Deem and Ramdas Pophale) SiO2 
 PCOD9239543
Probable space group: P 21/C
;
_chemical_formula_sum "Si O2"
_cell_formula_units_Z 20
_cell_length_a 17.780614
_cell_length_b 4.992057
_cell_length_c 8.895064
_cell_angle_alpha 90.000000
_cell_angle_beta 72.370106
_cell_angle_gamma 90.000000
_cell_volume 752.459629
_symmetry_space_group_name_H-M "P 21/C"
_symmetry_group_IT_number 14
_symmetry_cell_setting 'monoclinic'
loop_
_space_group_symop_operation_xyz
x,y,z
-x,1/2+y,1/2-z
-x,-y,-z
x,1/2-y,1/2+z
loop_
_atom_site_type_symbol
_atom_site_label
_atom_site_fract_x
_atom_site_fract_y
_atom_site_fract_z
Si Si1 0.051517 0.527043 0.209373
Si Si2 0.480490 0.185596 0.178579
Si Si3 0.631661 0.444578 0.056443
Si Si4 0.847520 0.809773 0.616352
Si Si5 0.265658 0.439700 0.562344
O O1 0.103470 0.400120 0.311799
O O2 0.025205 0.831999 0.247170
O O3 0.096633 0.483189 0.025526
O O4 0.532839 0.933035 0.200843
O O5 0.396834 0.033681 0.258532
O O6 0.549049 0.327806 0.035227
O O7 0.670993 0.698716 0.954201
O O8 0.693171 0.210373 0.011156
O O9 0.790845 0.974881 0.760887
O O10 0.790049 0.655061 0.538706
#
# Coordination Sequence:
#
# PCOD9239543 Si02
#       5
#     4   4   4   4   4
#     4  11  24  45  73  92 127 160 206 248 303 356
#     4   8  14  30  58  88 116 158 226 256 304 356
#     4  10  17  35  63  89 120 176 202 272 304 361
#     4  10  26  42  62 102 124 164 202 252 300 390
#     4  11  23  38  62  87 135 160 206 248 327 359
#
# _framework density 26.579498000000001
#
# number of rings (size 3 to 8) (size 9 to 14) (size 15 to 20)
#    1.200    0.800    2.000    1.200    0.000   11.200 
#    0.000    0.000    0.000   24.000    0.000    0.000 
#    0.000    0.000    0.000    0.000    0.000    0.000 
#
# Total GULP energy -111640.500529 kJ/mol
# GULP energy per Si atom -5582.025026 kJ/mol
# Density = 2.651900 g / cm^3
# Si number density = 26.579498 Si / 1000 Ang^3
#
#
#
# Elastic Constant Matrix: (Units=GPa)
#
#
# Indices 1 2 3 4 5 6 
#
# 1 704.1825 -168.6506 -489.0510 0.0000 196.1660 0.0000
# 2 -168.6506 204.7793 226.9818 0.0000 -79.3012 0.0000
# 3 -489.0510 226.9818 689.3769 0.0000 -217.0020 0.0000
# 4 0.0000 0.0000 0.0000 -28.5856 0.0000 2.2680
# 5 196.1660 -79.3012 -217.0020 0.0000 116.6932 0.0000
# 6 0.0000 0.0000 0.0000 2.2680 0.0000 31.7175
#
#
#
# Elastic Compliance Matrix: (Units=1/GPa)
#
#
# Indices 1 2 3 4 5 6 
#
# 1 0.003121 0.000019 0.001352 0.000000 -0.002721 0.000000
# 2 0.000019 0.007766 -0.002152 0.000000 0.001244 0.000000
# 3 0.001352 -0.002152 0.004685 0.000000 0.004977 0.000000
# 4 0.000000 0.000000 0.000000 -0.034785 0.000000 0.002487
# 5 -0.002721 0.001244 0.004977 0.000000 0.023243 0.000000
# 6 0.000000 0.000000 0.000000 0.002487 0.000000 0.031350
#
#
# Mechanical properties :
#
#
# Convention : Reuss Voigt Hill
#
# Bulk Modulus (GPa) = 71.38608 81.87765 76.63187
# Shear Modulus (GPa) = 120.15460 159.23559 139.69510
#
# Velocity S-wave (km/s) = 6.73082 7.74850 7.25752
# Velocity P-wave (km/s) = 9.34457 10.53205 9.95603
#
# Compressibility (1/GPa) = 0.01400833
#
# Stress axis : x y z
#
# Youngs Moduli (GPa) = 320.39523 128.76802 213.46170
#
# Poissons Ratio (x) = -0.00242 -0.28852
# Poissons Ratio (y) = -0.00602 0.45939
# Poissons Ratio (z) = -0.43305 0.27712
#
# Static dielectric constant tensor:
#      x y z
#    x 2.274650 0.000000 0.130770 
#    y 0.000000 2.022350 0.000000 
#    z 0.130770 0.000000 2.131060 
# 
# From -- ./inp_files/18338.got.cif
#   From: 2010.05.17/outbox.cif.g08.bks.cpg/sg14_10_cif.got.tgz:18338.got - 2010.06.03 17:49:19.
