data_PCOD9239590
_publ_section_title
;
Structure prediction by ZEFSAII (Michael W. Deem and Ramdas Pophale) SiO2 
 PCOD9239590
Probable space group: P 21/C
;
_chemical_formula_sum "Si O2"
_cell_formula_units_Z 28
_cell_length_a 8.828360
_cell_length_b 7.859669
_cell_length_c 16.521933
_cell_angle_alpha 90.000000
_cell_angle_beta 74.926124
_cell_angle_gamma 90.000000
_cell_volume 1106.976739
_symmetry_space_group_name_H-M "P 21/C"
_symmetry_group_IT_number 14
_symmetry_cell_setting 'monoclinic'
loop_
_space_group_symop_operation_xyz
x,y,z
-x,1/2+y,1/2-z
-x,-y,-z
x,1/2-y,1/2+z
loop_
_atom_site_type_symbol
_atom_site_label
_atom_site_fract_x
_atom_site_fract_y
_atom_site_fract_z
Si Si1 0.479494 0.556408 0.770587
Si Si2 0.182990 0.114263 0.460121
Si Si3 0.768980 0.232722 0.114639
Si Si4 0.905122 0.729365 0.362341
Si Si5 0.232132 0.242052 0.292804
Si Si6 0.681807 0.055372 0.966221
Si Si7 0.470784 0.630751 0.076038
O O1 0.387098 0.726761 0.812782
O O2 0.634257 0.618957 0.703975
O O3 0.338946 0.430656 0.762343
O O4 0.552754 0.473997 0.840389
O O5 0.117150 0.138900 0.559050
O O6 0.121304 0.202646 0.385834
O O7 0.353533 0.202233 0.441728
O O8 0.202301 0.916417 0.434422
O O9 0.749147 0.101783 0.044636
O O10 0.911998 0.186123 0.153114
O O11 0.857795 0.781541 0.278151
O O12 0.791905 0.574822 0.404083
O O13 0.660779 0.232264 0.920873
O O14 0.500000 0.000000 0.000000
O O15 0.500000 0.500000 0.000000
#
# Coordination Sequence:
#
# PCOD9239590 Si02
#       7
#     4   4   4   4   4   4   4
#     4  10  22  42  66  92 138 167 232 287 341 409
#     4  10  22  43  69  96 136 175 233 277 344 422
#     4  10  23  43  63  96 138 181 225 277 350 430
#     4  12  24  41  70 100 137 183 224 287 351 410
#     4  10  24  41  67 102 130 174 228 289 344 404
#     4  12  22  35  67  98 132 170 234 285 337 391
#     4  10  17  37  64  93 123 171 220 280 336 392
#
# _framework density 25.294118000000001
#
# number of rings (size 3 to 8) (size 9 to 14) (size 15 to 20)
#    0.000    1.714    4.286    2.571    4.000    1.143 
#    0.000    8.571    0.000    0.000    0.000    0.000 
#    0.000    0.000    0.000    0.000    0.000    0.000 
#
# Total GULP energy -156429.094173 kJ/mol
# GULP energy per Si atom -5586.753363 kJ/mol
# Density = 2.523655 g / cm^3
# Si number density = 25.294118 Si / 1000 Ang^3
#
#
#
# Elastic Constant Matrix: (Units=GPa)
#
#
# Indices 1 2 3 4 5 6 
#
# 1 77.8020 20.3640 30.5047 0.0000 33.0704 0.0000
# 2 20.3640 64.8301 27.6590 0.0000 2.6104 0.0000
# 3 30.5047 27.6590 149.0398 0.0000 31.5050 0.0000
# 4 0.0000 0.0000 0.0000 44.5181 0.0000 3.6310
# 5 33.0704 2.6104 31.5050 0.0000 28.6041 0.0000
# 6 0.0000 0.0000 0.0000 3.6310 0.0000 19.7334
#
#
#
# Elastic Compliance Matrix: (Units=1/GPa)
#
#
# Indices 1 2 3 4 5 6 
#
# 1 0.029939 -0.009418 0.003591 0.000000 -0.037710 0.000000
# 2 -0.009418 0.019849 -0.004790 0.000000 0.014353 0.000000
# 3 0.003591 -0.004790 0.009970 0.000000 -0.014696 0.000000
# 4 0.000000 0.000000 0.000000 0.022805 0.000000 -0.004196
# 5 -0.037710 0.014353 -0.014696 0.000000 0.093435 0.000000
# 6 0.000000 0.000000 0.000000 -0.004196 0.000000 0.051448
#
#
# Mechanical properties :
#
#
# Convention : Reuss Voigt Hill
#
# Bulk Modulus (GPa) = 25.95735 49.85858 37.90797
# Shear Modulus (GPa) = 19.11896 32.78072 25.94984
#
# Velocity S-wave (km/s) = 2.75228 3.60388 3.20648
# Velocity P-wave (km/s) = 4.51493 6.08864 5.35986
#
# Compressibility (1/GPa) = 0.03852473
#
# Stress axis : x y z
#
# Youngs Moduli (GPa) = 33.40121 50.38049 100.30026
#
# Poissons Ratio (x) = 0.47449 -0.36022
# Poissons Ratio (y) = 0.31458 0.48044
# Poissons Ratio (z) = -0.11996 0.24132
#
# Static dielectric constant tensor:
#      x y z
#    x 2.044020 0.000000 -0.064360 
#    y 0.000000 2.113760 0.000000 
#    z -0.064360 0.000000 2.061000 
# 
# From -- ./inp_files/54853.got.cif
#   From: 2010.05.17/outbox.cif.g08.bks.cpg/sg14_28_cif.got.tgz:54853.got - 2010.06.03 17:49:19.
