data_PCOD9239714
_publ_section_title
;
Structure prediction by ZEFSAII (Michael W. Deem and Ramdas Pophale) SiO2 
 PCOD9239714
Probable space group: P 21/C
;
_chemical_formula_sum "Si O2"
_cell_formula_units_Z 24
_cell_length_a 13.362089
_cell_length_b 13.004048
_cell_length_c 12.783651
_cell_angle_alpha 90.000000
_cell_angle_beta 148.729005
_cell_angle_gamma 90.000000
_cell_volume 1153.048449
_symmetry_space_group_name_H-M "P 21/C"
_symmetry_group_IT_number 14
_symmetry_cell_setting 'monoclinic'
loop_
_space_group_symop_operation_xyz
x,y,z
-x,1/2+y,1/2-z
-x,-y,-z
x,1/2-y,1/2+z
loop_
_atom_site_type_symbol
_atom_site_label
_atom_site_fract_x
_atom_site_fract_y
_atom_site_fract_z
Si Si1 0.710734 0.198924 0.940716
Si Si2 0.939566 0.686691 0.835893
Si Si3 0.289322 0.300931 0.559607
Si Si4 0.276373 0.887285 0.270685
Si Si5 0.276341 0.387322 0.770874
Si Si6 0.060474 0.686599 0.163843
O O1 0.500011 0.249909 0.750150
O O2 0.730126 0.123632 0.859944
O O3 0.781520 0.147200 0.112029
O O4 0.864737 0.289565 0.052279
O O5 0.781456 0.647354 0.611704
O O6 0.843643 0.795188 0.786202
O O7 0.000012 0.634266 0.999838
O O8 0.269995 0.376279 0.640391
O O9 0.135247 0.210341 0.448023
O O10 0.500046 0.875093 0.499878
O O11 0.156519 0.795081 0.213692
O O12 0.210234 0.999948 0.246165
#
# Coordination Sequence:
#
# PCOD9239714 Si02
#       6
#     4   4   4   4   4   4
#     4  10  18  31  49  72 103 133 166 204 250 300
#     4   9  19  31  49  74 100 133 168 203 250 300
#     4  10  18  31  49  72 103 133 166 204 250 300
#     4  10  19  32  52  78 105 131 165 211 256 295
#     4  10  19  32  52  78 105 131 165 211 256 295
#     4   9  19  31  49  74 100 133 168 203 250 300
#
# _framework density 20.81439
#
# number of rings (size 3 to 8) (size 9 to 14) (size 15 to 20)
#    0.000    2.333    3.333    0.000    0.000    6.000 
#    0.000    0.000    0.000    1.000    0.000   23.333 
#    0.000    0.000    0.000    0.000    0.000    0.000 
#
# Total GULP energy -133717.982863 kJ/mol
# GULP energy per Si atom -5571.582619 kJ/mol
# Density = 2.076702 g / cm^3
# Si number density = 20.814390 Si / 1000 Ang^3
#
#
#
# Elastic Constant Matrix: (Units=GPa)
#
#
# Indices 1 2 3 4 5 6 
#
# 1 83.1912 5.5048 50.4226 0.0000 -18.8192 0.0000
# 2 5.5048 37.1627 -0.9341 0.0000 4.6649 0.0000
# 3 50.4226 -0.9341 175.9653 0.0000 -21.5984 0.0000
# 4 0.0000 0.0000 0.0000 2.2730 0.0000 -1.8502
# 5 -18.8192 4.6649 -21.5984 0.0000 66.6574 0.0000
# 6 0.0000 0.0000 0.0000 -1.8502 0.0000 12.4798
#
#
#
# Elastic Compliance Matrix: (Units=1/GPa)
#
#
# Indices 1 2 3 4 5 6 
#
# 1 0.015375 -0.002784 -0.004024 0.000000 0.003232 0.000000
# 2 -0.002784 0.027653 0.000636 0.000000 -0.002515 0.000000
# 3 -0.004024 0.000636 0.006972 0.000000 0.001078 0.000000
# 4 0.000000 0.000000 0.000000 0.500337 0.000000 0.074177
# 5 0.003232 -0.002515 0.001078 0.000000 0.016440 0.000000
# 6 0.000000 0.000000 0.000000 0.074177 0.000000 0.091127
#
#
# Mechanical properties :
#
#
# Convention : Reuss Voigt Hill
#
# Bulk Modulus (GPa) = 26.55685 45.14509 35.85097
# Shear Modulus (GPa) = 7.32281 32.37044 19.84663
#
# Velocity S-wave (km/s) = 1.87771 3.94787 3.09124
# Velocity P-wave (km/s) = 4.18182 6.52054 5.47746
#
# Compressibility (1/GPa) = 0.03765507
#
# Stress axis : x y z
#
# Youngs Moduli (GPa) = 65.04250 36.16268 143.43786
#
# Poissons Ratio (x) = 0.10068 0.57715
# Poissons Ratio (y) = 0.18109 -0.09121
# Poissons Ratio (z) = 0.26171 -0.02299
#
# Static dielectric constant tensor:
#      x y z
#    x 1.766930 0.000000 -0.054040 
#    y 0.000000 1.736290 0.000000 
#    z -0.054040 0.000000 1.841950 
# 
# From -- ./inp_files/47307.got.cif
#   From: 2010.05.17/outbox.cif.g08.bks.cpg/sg14_24_cif.got.tgz:47307.got - 2010.06.03 17:49:19.
