data_PCOD9239236
_publ_section_title
;
Structure prediction by ZEFSAII (Michael W. Deem and Ramdas Pophale) SiO2 
 PCOD9239236
Probable space group: P 21/C
;
_chemical_formula_sum "Si O2"
_cell_formula_units_Z 30
_cell_length_a 18.261870
_cell_length_b 16.344828
_cell_length_c 12.758501
_cell_angle_alpha 90.000000
_cell_angle_beta 162.680871
_cell_angle_gamma 90.000000
_cell_volume 1133.691205
_symmetry_space_group_name_H-M "P 21/C"
_symmetry_group_IT_number 14
_symmetry_cell_setting 'monoclinic'
loop_
_space_group_symop_operation_xyz
x,y,z
-x,1/2+y,1/2-z
-x,-y,-z
x,1/2-y,1/2+z
loop_
_atom_site_type_symbol
_atom_site_label
_atom_site_fract_x
_atom_site_fract_y
_atom_site_fract_z
Si Si1 0.419282 0.594996 0.774607
Si Si2 0.761276 0.851583 0.559413
Si Si3 0.000018 0.292731 0.000024
Si Si4 0.419290 0.094997 0.274613
Si Si5 0.000000 0.000000 0.000000
Si Si6 0.167486 0.094408 0.565396
Si Si7 0.832521 0.094415 0.434609
Si Si8 0.761297 0.351585 0.059437
O O1 0.515134 0.500000 0.895826
O O2 0.127788 0.594894 0.362075
O O3 0.552891 0.641867 0.863854
O O4 0.499999 0.624154 0.000000
O O5 0.705576 0.865638 0.361908
O O6 0.938208 0.927783 0.829348
O O7 0.896171 0.767070 0.768641
O O8 0.186933 0.352212 0.196190
O O9 0.896220 0.232921 0.768715
O O10 0.813078 0.352206 0.803818
O O11 0.552908 0.141866 0.363873
O O12 0.127797 0.094896 0.862080
O O13 0.938195 0.072202 0.829311
O O14 0.237827 0.999997 0.678748
O O15 0.705592 0.134374 0.361923
#
# Coordination Sequence:
#
# PCOD9239236 Si02
#       8
#     4   4   4   4   2   4   4   4
#     4  10  20  34  62  94 119 153 205 254 298 354
#     4  11  21  38  62  88 122 154 204 250 301 349
#     4  11  25  39  61  92 126 162 197 249 307 359
#     4  10  20  34  62  94 119 153 205 254 298 354
#     4  10  16  32  60  86 108 148 192 244 286 344
#     4  11  23  42  63  87 124 165 201 244 302 367
#     4  11  23  42  63  87 124 165 201 244 302 367
#     4  11  21  38  62  88 122 154 204 250 301 349
#
# _framework density 26.462233000000001
#
# number of rings (size 3 to 8) (size 9 to 14) (size 15 to 20)
#    0.000    1.333    2.667    4.400    3.733    1.067 
#    0.000    4.000    0.000    4.800    0.000    0.000 
#    0.000    0.000    0.000    0.000    0.000    0.000 
#
# Total GULP energy -167868.776595 kJ/mol
# GULP energy per Si atom -5595.625887 kJ/mol
# Density = 2.640200 g / cm^3
# Si number density = 26.462233 Si / 1000 Ang^3
#
#
#
# Elastic Constant Matrix: (Units=GPa)
#
#
# Indices 1 2 3 4 5 6 
#
# 1 204.0705 82.8155 19.3558 0.0000 1.4829 0.0000
# 2 82.8155 161.2196 36.8511 0.0000 -8.5320 0.0000
# 3 19.3558 36.8511 70.5859 0.0000 10.6365 0.0000
# 4 0.0000 0.0000 0.0000 -46.0170 0.0000 -60.9399
# 5 1.4829 -8.5320 10.6365 0.0000 53.3533 0.0000
# 6 0.0000 0.0000 0.0000 -60.9399 0.0000 -33.6468
#
#
#
# Elastic Compliance Matrix: (Units=1/GPa)
#
#
# Indices 1 2 3 4 5 6 
#
# 1 0.006216 -0.003254 0.000102 0.000000 -0.000714 0.000000
# 2 -0.003254 0.008942 -0.004129 0.000000 0.002344 0.000000
# 3 0.000102 -0.004129 0.016903 0.000000 -0.004033 0.000000
# 4 0.000000 0.000000 0.000000 0.015539 0.000000 -0.028143
# 5 -0.000714 0.002344 -0.004033 0.000000 0.019942 0.000000
# 6 0.000000 0.000000 0.000000 -0.028143 0.000000 0.021252
#
#
# Mechanical properties :
#
#
# Convention : Reuss Voigt Hill
#
# Bulk Modulus (GPa) = 57.14967 79.32453 68.23710
# Shear Modulus (GPa) = 45.79192 14.52813 30.16003
#
# Velocity S-wave (km/s) = 4.16440 2.34565 3.37966
# Velocity P-wave (km/s) = 6.69078 6.11373 6.40875
#
# Compressibility (1/GPa) = 0.01749791
#
# Stress axis : x y z
#
# Youngs Moduli (GPa) = 160.86348 111.82803 59.16206
#
# Poissons Ratio (x) = 0.36392 -0.00603
# Poissons Ratio (y) = 0.52350 0.24430
# Poissons Ratio (z) = -0.01639 0.46177
#
# Static dielectric constant tensor:
#      x y z
#    x 2.440080 0.000000 0.703050 
#    y 0.000000 1.975300 0.000000 
#    z 0.703050 0.000000 3.330190 
# 
# From -- ./inp_files/33002.got.cif
#   From: 2010.05.17/outbox.cif.g08.bks.cpg/sg14_17_cif.got.tgz:33002.got - 2010.06.03 17:49:19.
