data_PCOD9239757
_publ_section_title
;
Structure prediction by ZEFSAII (Michael W. Deem and Ramdas Pophale) SiO2 
 PCOD9239757
Probable space group: P 21/C
;
_chemical_formula_sum "Si O2"
_cell_formula_units_Z 28
_cell_length_a 7.493771
_cell_length_b 27.045970
_cell_length_c 5.705171
_cell_angle_alpha 90.000000
_cell_angle_beta 90.710648
_cell_angle_gamma 90.000000
_cell_volume 1156.214041
_symmetry_space_group_name_H-M "P 21/C"
_symmetry_group_IT_number 14
_symmetry_cell_setting 'monoclinic'
loop_
_space_group_symop_operation_xyz
x,y,z
-x,1/2+y,1/2-z
-x,-y,-z
x,1/2-y,1/2+z
loop_
_atom_site_type_symbol
_atom_site_label
_atom_site_fract_x
_atom_site_fract_y
_atom_site_fract_z
Si Si1 0.244076 0.874232 0.486620
Si Si2 0.763491 0.968607 0.359841
Si Si3 0.803994 0.271927 0.807172
Si Si4 0.216673 0.236123 0.836461
Si Si5 0.920056 0.444986 0.637511
Si Si6 0.096076 0.374355 0.306741
Si Si7 0.386973 0.959932 0.244564
O O1 0.268181 0.826678 0.645257
O O2 0.146368 0.914129 0.644465
O O3 0.401072 0.907154 0.383717
O O4 0.101897 0.859190 0.283923
O O5 0.817560 0.911656 0.380651
O O6 0.590462 0.971686 0.187977
O O7 0.926078 0.999470 0.243245
O O8 0.692295 0.996617 0.590136
O O9 0.748167 0.256432 0.544825
O O10 0.022528 0.264891 0.816379
O O11 0.302039 0.246546 0.583079
O O12 0.191204 0.177042 0.853346
O O13 0.756643 0.447806 0.453495
O O14 0.073754 0.411729 0.525297
#
# Coordination Sequence:
#
# PCOD9239757 Si02
#       7
#     4   4   4   4   4   4   4
#     4  10  20  33  55  83 110 142 187 235 284 340
#     4  10  21  38  54  78 113 150 188 228 287 344
#     4  10  18  31  54  84 115 146 186 238 293 343
#     4  10  19  34  55  83 119 149 184 234 297 349
#     4  10  20  34  55  82 112 144 188 236 284 336
#     4  11  21  32  56  87 110 142 187 240 288 338
#     4   9  21  38  55  74 111 153 190 227 280 350
#
# _framework density 24.21697
#
# number of rings (size 3 to 8) (size 9 to 14) (size 15 to 20)
#    0.000    2.000    2.857    2.571    2.000    6.286 
#    0.000    0.000    0.000    1.714    0.000    0.000 
#    0.000    0.000    0.000    0.000    0.000    0.000 
#
# Total GULP energy -156184.117506 kJ/mol
# GULP energy per Si atom -5578.004197 kJ/mol
# Density = 2.416185 g / cm^3
# Si number density = 24.216970 Si / 1000 Ang^3
#
#
#
# Elastic Constant Matrix: (Units=GPa)
#
#
# Indices 1 2 3 4 5 6 
#
# 1 70.8311 -0.8705 16.1872 0.0000 1.5371 0.0000
# 2 -0.8705 100.2512 -0.2366 0.0000 -4.6673 0.0000
# 3 16.1872 -0.2366 91.1371 0.0000 13.8899 0.0000
# 4 0.0000 0.0000 0.0000 27.9951 0.0000 -3.2263
# 5 1.5371 -4.6673 13.8899 0.0000 12.7461 0.0000
# 6 0.0000 0.0000 0.0000 -3.2263 0.0000 7.5258
#
#
#
# Elastic Compliance Matrix: (Units=1/GPa)
#
#
# Indices 1 2 3 4 5 6 
#
# 1 0.014736 0.000185 -0.002826 0.000000 0.001370 0.000000
# 2 0.000185 0.010182 -0.000685 0.000000 0.004453 0.000000
# 3 -0.002826 -0.000685 0.013741 0.000000 -0.014884 0.000000
# 4 0.000000 0.000000 0.000000 0.037577 0.000000 0.016109
# 5 0.001370 0.004453 -0.014884 0.000000 0.096140 0.000000
# 6 0.000000 0.000000 0.000000 0.016109 0.000000 0.139782
#
#
# Mechanical properties :
#
#
# Convention : Reuss Voigt Hill
#
# Bulk Modulus (GPa) = 31.24189 32.48662 31.86425
# Shear Modulus (GPa) = 15.17546 26.12936 20.65241
#
# Velocity S-wave (km/s) = 2.50600 3.28833 2.92345
# Velocity P-wave (km/s) = 4.61544 5.27839 4.95801
#
# Compressibility (1/GPa) = 0.03200831
#
# Stress axis : x y z
#
# Youngs Moduli (GPa) = 67.85916 98.21028 72.77476
#
# Poissons Ratio (x) = -0.01818 0.20564
# Poissons Ratio (y) = -0.01256 0.04985
# Poissons Ratio (z) = 0.19175 0.06728
#
# Static dielectric constant tensor:
#      x y z
#    x 1.925530 0.000000 0.001330 
#    y 0.000000 1.940210 0.000000 
#    z 0.001330 0.000000 2.024560 
# 
# From -- ./inp_files/1874.got.cif
#   From: 2010.05.17/outbox.cif.g08.bks.cpg/sg14_1_cif.got.tgz:1874.got - 2010.06.03 17:49:19.
