data_PCOD9239976
_publ_section_title
;
Structure prediction by ZEFSAII (Michael W. Deem and Ramdas Pophale) SiO2 
 PCOD9239976
Probable space group: P 21/C
;
_chemical_formula_sum "Si O2"
_cell_formula_units_Z 20
_cell_length_a 8.946929
_cell_length_b 17.561033
_cell_length_c 5.443511
_cell_angle_alpha 90.000000
_cell_angle_beta 76.438146
_cell_angle_gamma 90.000000
_cell_volume 831.422634
_symmetry_space_group_name_H-M "P 21/C"
_symmetry_group_IT_number 14
_symmetry_cell_setting 'monoclinic'
loop_
_space_group_symop_operation_xyz
x,y,z
-x,1/2+y,1/2-z
-x,-y,-z
x,1/2-y,1/2+z
loop_
_atom_site_type_symbol
_atom_site_label
_atom_site_fract_x
_atom_site_fract_y
_atom_site_fract_z
Si Si1 0.032167 0.294145 0.417853
Si Si2 0.614288 0.434886 0.529693
Si Si3 0.938348 0.425727 0.160797
Si Si4 0.752555 0.339778 0.833476
Si Si5 0.533640 0.771478 0.997963
O O1 0.076508 0.258767 0.666617
O O2 0.054583 0.380973 0.301936
O O3 0.848930 0.306937 0.562976
O O4 0.500000 0.500000 0.500000
O O5 0.780300 0.449971 0.350134
O O6 0.661481 0.416608 0.791693
O O7 0.529688 0.356807 0.479231
O O8 0.876689 0.362937 0.988829
O O9 0.000000 0.500000 0.000000
O O10 0.615505 0.283538 0.951713
O O11 0.618701 0.749657 0.214147
#
# Coordination Sequence:
#
# PCOD9239976 Si02
#       5
#     4   4   4   4   4
#     4  11  20  34  61  92 121 159 221 271 308 370
#     4  10  22  36  59  94 129 162 208 266 322 376
#     4  11  23  38  62  95 135 169 210 270 330 386
#     4  10  19  36  61  89 122 162 218 264 312 371
#     4  10  18  33  59  89 110 153 213 259 289 359
#
# _framework density 24.055152
#
# number of rings (size 3 to 8) (size 9 to 14) (size 15 to 20)
#    0.000    1.600    4.000    3.600    0.000    4.000 
#    0.000    0.000    0.000    4.800    0.000    0.000 
#    0.000    0.000    0.000    0.000    0.000    0.000 
#
# Total GULP energy -111413.065158 kJ/mol
# GULP energy per Si atom -5570.653258 kJ/mol
# Density = 2.400040 g / cm^3
# Si number density = 24.055152 Si / 1000 Ang^3
#
#
#
# Elastic Constant Matrix: (Units=GPa)
#
#
# Indices 1 2 3 4 5 6 
#
# 1 55.6955 13.9639 18.0589 0.0000 16.2983 0.0000
# 2 13.9639 79.6085 15.3504 0.0000 2.1316 0.0000
# 3 18.0589 15.3504 117.2897 0.0000 14.9437 0.0000
# 4 0.0000 0.0000 0.0000 25.7721 0.0000 -2.6963
# 5 16.2983 2.1316 14.9437 0.0000 33.7258 0.0000
# 6 0.0000 0.0000 0.0000 -2.6963 0.0000 20.5083
#
#
#
# Elastic Compliance Matrix: (Units=1/GPa)
#
#
# Indices 1 2 3 4 5 6 
#
# 1 0.022199 -0.003296 -0.001745 0.000000 -0.009746 0.000000
# 2 -0.003296 0.013376 -0.001418 0.000000 0.001376 0.000000
# 3 -0.001745 -0.001418 0.009392 0.000000 -0.003228 0.000000
# 4 0.000000 0.000000 0.000000 0.039343 0.000000 0.005173
# 5 -0.009746 0.001376 -0.003228 0.000000 0.035705 0.000000
# 6 0.000000 0.000000 0.000000 0.005173 0.000000 0.049441
#
#
# Mechanical properties :
#
#
# Convention : Reuss Voigt Hill
#
# Bulk Modulus (GPa) = 31.20348 38.59333 34.89841
# Shear Modulus (GPa) = 25.89909 29.68260 27.79084
#
# Velocity S-wave (km/s) = 3.28480 3.51656 3.40265
# Velocity P-wave (km/s) = 5.23320 5.70673 5.47509
#
# Compressibility (1/GPa) = 0.03204770
#
# Stress axis : x y z
#
# Youngs Moduli (GPa) = 45.04682 74.75880 106.47916
#
# Poissons Ratio (x) = 0.24644 0.18578
# Poissons Ratio (y) = 0.14850 0.15103
# Poissons Ratio (z) = 0.07860 0.10604
#
# Static dielectric constant tensor:
#      x y z
#    x 1.927830 0.000000 0.061110 
#    y 0.000000 1.971550 0.000000 
#    z 0.061110 0.000000 2.100510 
# 
# From -- ./inp_files/1164.got.cif
#   From: 2010.05.17/outbox.cif.g08.bks.cpg/sg14_1_cif.got.tgz:1164.got - 2010.06.03 17:49:19.
