data_PCOD9239861
_publ_section_title
;
Structure prediction by ZEFSAII (Michael W. Deem and Ramdas Pophale) SiO2 
 PCOD9239861
Probable space group: P 21/C
;
_chemical_formula_sum "Si O2"
_cell_formula_units_Z 32
_cell_length_a 13.812241
_cell_length_b 15.547630
_cell_length_c 13.818229
_cell_angle_alpha 90.000000
_cell_angle_beta 152.111648
_cell_angle_gamma 90.000000
_cell_volume 1388.016583
_symmetry_space_group_name_H-M "P 21/C"
_symmetry_group_IT_number 14
_symmetry_cell_setting 'monoclinic'
loop_
_space_group_symop_operation_xyz
x,y,z
-x,1/2+y,1/2-z
-x,-y,-z
x,1/2-y,1/2+z
loop_
_atom_site_type_symbol
_atom_site_label
_atom_site_fract_x
_atom_site_fract_y
_atom_site_fract_z
Si Si1 0.390755 0.409281 0.323988
Si Si2 0.846018 0.141865 0.174226
Si Si3 0.242841 0.473583 0.829128
Si Si4 0.107031 0.250509 0.536498
Si Si5 0.224381 0.110948 0.891998
Si Si6 0.779809 0.947402 0.904166
Si Si7 0.821236 0.487456 0.021026
Si Si8 0.095339 0.211695 0.238710
O O1 0.629829 0.395324 0.514014
O O2 0.336568 0.411850 0.390137
O O3 0.301532 0.490181 0.184978
O O4 0.282605 0.322593 0.186115
O O5 0.916836 0.219970 0.304392
O O6 0.885328 0.179860 0.103232
O O7 0.017532 0.067400 0.332517
O O8 0.002574 0.505397 0.609042
O O9 0.304284 0.514496 0.988157
O O10 0.319197 0.484810 0.784232
O O11 0.238402 0.371646 0.847063
O O12 0.180455 0.346565 0.581119
O O13 0.038640 0.249739 0.586379
O O14 0.296934 0.058774 0.051709
O O15 0.223737 0.214262 0.907512
O O16 0.979530 0.091292 0.659854
#
# Coordination Sequence:
#
# PCOD9239861 Si02
#       8
#     4   4   4   4   4   4   4   4
#     4  10  21  34  54  81 110 145 180 218 274 327
#     4  10  19  36  53  78 109 142 178 221 273 320
#     4   8  16  29  55  82 101 142 181 221 268 319
#     4   9  18  34  54  77 105 144 178 222 269 319
#     4  10  18  32  56  83 107 144 184 221 269 326
#     4   9  15  30  55  81 106 136 186 222 263 319
#     4   9  19  35  56  78 111 145 179 221 272 321
#     4   9  17  32  53  77 108 139 178 221 272 322
#
# _framework density 23.054479000000001
#
# number of rings (size 3 to 8) (size 9 to 14) (size 15 to 20)
#    0.000    2.750    1.250    0.375    0.000    0.500 
#    2.250    0.000    5.500    0.000    0.000   26.250 
#    0.000    0.000    0.000    0.000    0.000    0.000 
#
# Total GULP energy -178336.157023 kJ/mol
# GULP energy per Si atom -5573.004907 kJ/mol
# Density = 2.300201 g / cm^3
# Si number density = 23.054479 Si / 1000 Ang^3
#
#
#
# Elastic Constant Matrix: (Units=GPa)
#
#
# Indices 1 2 3 4 5 6 
#
# 1 166.5703 -1.5083 44.2190 0.0000 -1.1929 0.0000
# 2 -1.5083 39.1817 -1.5017 0.0000 -4.3354 0.0000
# 3 44.2190 -1.5017 58.8530 0.0000 -12.3807 0.0000
# 4 0.0000 0.0000 0.0000 10.7933 0.0000 -17.1127
# 5 -1.1929 -4.3354 -12.3807 0.0000 30.8620 0.0000
# 6 0.0000 0.0000 0.0000 -17.1127 0.0000 33.1488
#
#
#
# Elastic Compliance Matrix: (Units=1/GPa)
#
#
# Indices 1 2 3 4 5 6 
#
# 1 0.007634 -0.000190 -0.006208 0.000000 -0.002222 0.000000
# 2 -0.000190 0.026061 0.001722 0.000000 0.004344 0.000000
# 3 -0.006208 0.001722 0.023700 0.000000 0.009510 0.000000
# 4 0.000000 0.000000 0.000000 0.510466 0.000000 0.263523
# 5 -0.002222 0.004344 0.009510 0.000000 0.036742 0.000000
# 6 0.000000 0.000000 0.000000 0.263523 0.000000 0.166208
#
#
# Mechanical properties :
#
#
# Convention : Reuss Voigt Hill
#
# Bulk Modulus (GPa) = 20.81468 38.55808 29.68638
# Shear Modulus (GPa) = 6.28000 29.85389 18.06694
#
# Velocity S-wave (km/s) = 1.65224 3.60241 2.80244
# Velocity P-wave (km/s) = 3.56201 5.83646 4.83488
#
# Compressibility (1/GPa) = 0.04804302
#
# Stress axis : x y z
#
# Youngs Moduli (GPa) = 130.99557 38.37085 42.19367
#
# Poissons Ratio (x) = 0.00729 0.26194
# Poissons Ratio (y) = 0.02488 -0.07264
# Poissons Ratio (z) = 0.81321 -0.06606
#
# Static dielectric constant tensor:
#      x y z
#    x 1.931280 0.000000 -0.052750 
#    y 0.000000 1.918630 0.000000 
#    z -0.052750 0.000000 1.890350 
# 
# From -- ./inp_files/47549.got.cif
#   From: 2010.05.17/outbox.cif.g08.bks.cpg/sg14_24_cif.got.tgz:47549.got - 2010.06.03 17:49:19.
