data_PCOD9239267
_publ_section_title
;
Structure prediction by ZEFSAII (Michael W. Deem and Ramdas Pophale) SiO2 
 PCOD9239267
Probable space group: P 21/C
;
_chemical_formula_sum "Si O2"
_cell_formula_units_Z 28
_cell_length_a 9.691808
_cell_length_b 7.353933
_cell_length_c 20.875450
_cell_angle_alpha 90.000000
_cell_angle_beta 43.201399
_cell_angle_gamma 90.000000
_cell_volume 1018.532632
_symmetry_space_group_name_H-M "P 21/C"
_symmetry_group_IT_number 14
_symmetry_cell_setting 'monoclinic'
loop_
_space_group_symop_operation_xyz
x,y,z
-x,1/2+y,1/2-z
-x,-y,-z
x,1/2-y,1/2+z
loop_
_atom_site_type_symbol
_atom_site_label
_atom_site_fract_x
_atom_site_fract_y
_atom_site_fract_z
Si Si1 0.847503 0.198602 0.156166
Si Si2 0.907142 0.679347 0.580756
Si Si3 0.536455 0.753056 0.640891
Si Si4 0.081398 0.018994 0.184733
Si Si5 0.667452 0.534624 0.880211
Si Si6 0.268868 0.437683 0.760790
Si Si7 0.286128 0.726661 0.026333
O O1 0.905287 0.040214 0.087785
O O2 0.005079 0.174180 0.161956
O O3 0.614011 0.156127 0.255843
O O4 0.828276 0.414390 0.156014
O O5 0.774636 0.760160 0.568140
O O6 0.129056 0.753478 0.521760
O O7 0.768279 0.752907 0.688316
O O8 0.476776 0.540626 0.670651
O O9 0.454996 0.860595 0.607152
O O10 0.864694 0.931138 0.272981
O O11 0.160691 0.055626 0.228619
O O12 0.226558 0.889244 0.094641
O O13 0.735999 0.459218 0.925660
O O14 0.519210 0.706219 0.928971
#
# Coordination Sequence:
#
# PCOD9239267 Si02
#       7
#     4   4   4   4   4   4   4
#     4   8  20  30  50  83 114 141 200 243 281 337
#     4  11  19  33  56  83 114 158 198 230 298 360
#     4   9  19  34  51  83 117 152 192 245 289 343
#     4  10  16  35  55  83 112 156 189 240 299 343
#     4  10  19  35  55  87 123 145 199 258 276 355
#     4  10  19  31  54  84 114 155 195 243 287 348
#     4  10  20  32  57  90 112 155 202 238 299 350
#
# _framework density 27.490528999999999
#
# number of rings (size 3 to 8) (size 9 to 14) (size 15 to 20)
#    0.857    1.429    2.857    0.857    2.000    0.571 
#    0.000    0.000    0.000    7.714   22.286    5.000 
#    0.000    0.143    0.000    0.000    0.000    0.000 
#
# Total GULP energy -156259.739440 kJ/mol
# GULP energy per Si atom -5580.704980 kJ/mol
# Density = 2.742796 g / cm^3
# Si number density = 27.490529 Si / 1000 Ang^3
#
#
#
# Elastic Constant Matrix: (Units=GPa)
#
#
# Indices 1 2 3 4 5 6 
#
# 1 121.0940 31.6087 10.4528 0.0000 -18.9552 0.0000
# 2 31.6087 113.9245 29.8010 0.0000 -11.0301 0.0000
# 3 10.4528 29.8010 56.8606 0.0000 -10.2119 0.0000
# 4 0.0000 0.0000 0.0000 43.9703 0.0000 -1.3402
# 5 -18.9552 -11.0301 -10.2119 0.0000 31.5669 0.0000
# 6 0.0000 0.0000 0.0000 -1.3402 0.0000 23.7541
#
#
#
# Elastic Compliance Matrix: (Units=1/GPa)
#
#
# Indices 1 2 3 4 5 6 
#
# 1 0.009617 -0.002262 0.000332 0.000000 0.005092 0.000000
# 2 -0.002262 0.010818 -0.005116 0.000000 0.000767 0.000000
# 3 0.000332 -0.005116 0.021151 0.000000 0.005254 0.000000
# 4 0.000000 0.000000 0.000000 0.022782 0.000000 0.001285
# 5 0.005092 0.000767 0.005254 0.000000 0.036704 0.000000
# 6 0.000000 0.000000 0.000000 0.001285 0.000000 0.042171
#
#
# Mechanical properties :
#
#
# Convention : Reuss Voigt Hill
#
# Bulk Modulus (GPa) = 36.37253 48.40044 42.38648
# Shear Modulus (GPa) = 30.03029 34.52605 32.27817
#
# Velocity S-wave (km/s) = 3.30871 3.54775 3.43031
# Velocity P-wave (km/s) = 5.27792 5.86741 5.58045
#
# Compressibility (1/GPa) = 0.02749328
#
# Stress axis : x y z
#
# Youngs Moduli (GPa) = 103.98386 92.43920 47.27938
#
# Poissons Ratio (x) = 0.20911 -0.01570
# Poissons Ratio (y) = 0.23523 0.24189
# Poissons Ratio (z) = -0.03454 0.47294
#
# Static dielectric constant tensor:
#      x y z
#    x 2.179960 0.000000 0.001140 
#    y 0.000000 2.146190 0.000000 
#    z 0.001140 0.000000 2.177720 
# 
# From -- ./inp_files/76946.got.cif
#   From: 2010.05.17/outbox.cif.g08.bks.cpg/sg14_39_cif.got.tgz:76946.got - 2010.06.03 17:49:19.
