data_PCOD9239073
_publ_section_title
;
Structure prediction by ZEFSAII (Michael W. Deem and Ramdas Pophale) SiO2 
 PCOD9239073
Probable space group: P 2/C
;
_chemical_formula_sum "Si O2"
_cell_formula_units_Z 28
_cell_length_a 24.000000
_cell_length_b 12.000000
_cell_length_c 30.000000
_cell_angle_alpha 90.000000
_cell_angle_beta 10.000000
_cell_angle_gamma 90.000000
_cell_volume 1500.320255
_symmetry_space_group_name_H-M "P 2/C"
_symmetry_group_IT_number 13
_symmetry_cell_setting 'monoclinic'
loop_
_space_group_symop_operation_xyz
x,y,z
-x,y,1/2-z
-x,-y,-z
x,-y,1/2+z
loop_
_atom_site_type_symbol
_atom_site_label
_atom_site_fract_x
_atom_site_fract_y
_atom_site_fract_z
Si Si1 0.616265 0.716101 0.262609
Si Si2 0.191635 0.520430 0.460297
Si Si3 0.864949 0.872861 0.597280
Si Si4 0.960458 0.742424 0.133492
Si Si5 0.894401 0.874988 0.282416
Si Si6 0.775596 0.880910 0.996021
Si Si7 0.288608 0.693240 0.616144
O O1 0.717585 0.607491 0.152420
O O2 0.397141 0.805403 0.406915
O O3 0.425198 0.677682 0.457944
O O4 0.921377 0.786919 0.041127
O O5 0.500000 0.520283 0.250000
O O6 0.105769 0.387267 0.518607
O O7 0.901534 0.585807 0.714517
O O8 0.897497 0.822644 0.519668
O O9 0.494233 0.876951 0.905864
O O10 0.000000 0.000000 0.500000
O O11 0.977747 0.802303 0.170241
O O12 0.588956 0.724810 0.411242
O O13 0.000000 0.834743 0.250000
O O14 0.056914 0.999963 0.149017
O O15 0.042282 0.797476 0.806704
O O16 0.500000 0.903195 0.250000
#
# Coordination Sequence:
#
# PCOD9239073 Si02
#       7
#     4   4   4   4   4   4   4
#     4  11  23  45  75 103 141 183 241 294 347 423
#     4  12  25  44  70 104 142 191 239 293 348 416
#     4  11  26  47  73 109 144 185 235 297 361 427
#     4  11  29  46  71 103 150 186 239 293 358 423
#     4  12  28  45  70 101 143 193 234 290 364 429
#     4  12  24  43  74 102 139 183 238 296 348 418
#     4  11  22  45  73 106 134 185 237 294 351 413
#
# _framework density 18.662682
#
# number of rings (size 3 to 8) (size 9 to 14) (size 15 to 20)
#    0.000    0.571    2.857    5.143    6.000    4.571 
#    0.000    0.000    0.000    0.000    0.000    0.000 
#    0.000    0.000    0.000    0.000    0.000    0.000 
#
# Total GULP energy -156192.199568 kJ/mol
# GULP energy per Si atom -5578.292842 kJ/mol
# Density = 1.862021 g / cm^3
# Si number density = 18.662682 Si / 1000 Ang^3
#
#
#
# Elastic Constant Matrix: (Units=GPa)
#
#
# Indices 1 2 3 4 5 6 
#
# 1 153.3877 70.9111 50.0091 0.0000 7.2415 0.0000
# 2 70.9111 165.5123 52.2138 0.0000 13.9483 0.0000
# 3 50.0091 52.2138 130.9328 0.0000 10.8293 0.0000
# 4 0.0000 0.0000 0.0000 46.6657 0.0000 0.3310
# 5 7.2415 13.9483 10.8293 0.0000 49.1006 0.0000
# 6 0.0000 0.0000 0.0000 0.3310 0.0000 46.1651
#
#
#
# Elastic Compliance Matrix: (Units=1/GPa)
#
#
# Indices 1 2 3 4 5 6 
#
# 1 0.008596 -0.003032 -0.002079 0.000000 0.000052 0.000000
# 2 -0.003032 0.008074 -0.001944 0.000000 -0.001418 0.000000
# 3 -0.002079 -0.001944 0.009306 0.000000 -0.001193 0.000000
# 4 0.000000 0.000000 0.000000 0.021430 0.000000 -0.000154
# 5 0.000052 -0.001418 -0.001193 0.000000 0.021025 0.000000
# 6 0.000000 0.000000 0.000000 -0.000154 0.000000 0.021662
#
#
# Mechanical properties :
#
#
# Convention : Reuss Voigt Hill
#
# Bulk Modulus (GPa) = 84.27434 88.45565 86.36499
# Shear Modulus (GPa) = 46.22910 46.83287 46.53099
#
# Velocity S-wave (km/s) = 4.98243 5.01486 4.99868
# Velocity P-wave (km/s) = 8.85179 9.00177 8.92709
#
# Compressibility (1/GPa) = 0.01186601
#
# Stress axis : x y z
#
# Youngs Moduli (GPa) = 116.33131 123.86158 107.46271
#
# Poissons Ratio (x) = 0.37549 0.22337
# Poissons Ratio (y) = 0.35266 0.20896
# Poissons Ratio (z) = 0.24181 0.24085
#
# Static dielectric constant tensor:
#      x y z
#    x 1.694420 0.000000 0.005670 
#    y 0.000000 1.650320 0.000000 
#    z 0.005670 0.000000 1.674760 
# 
# From -- ./inp_files/97699.got.cif
#   From: 2010.05.17/outbox.ucp.g08.bks.cvg/sg13_49_cif.got.tgz:97699.got - 2010.06.11 12:23:55.
