data_PCOD9239159
_publ_section_title
;
Structure prediction by ZEFSAII (Michael W. Deem and Ramdas Pophale) SiO2 
 PCOD9239159
Probable space group: P 21/C
;
_chemical_formula_sum "Si O2"
_cell_formula_units_Z 32
_cell_length_a 8.832355
_cell_length_b 9.175321
_cell_length_c 23.572963
_cell_angle_alpha 90.000000
_cell_angle_beta 66.039613
_cell_angle_gamma 90.000000
_cell_volume 1745.724396
_symmetry_space_group_name_H-M "P 21/C"
_symmetry_group_IT_number 14
_symmetry_cell_setting 'monoclinic'
loop_
_space_group_symop_operation_xyz
x,y,z
-x,1/2+y,1/2-z
-x,-y,-z
x,1/2-y,1/2+z
loop_
_atom_site_type_symbol
_atom_site_label
_atom_site_fract_x
_atom_site_fract_y
_atom_site_fract_z
Si Si1 0.410835 0.389292 0.646477
Si Si2 0.444556 0.925284 0.750830
Si Si3 0.033444 0.163883 0.927976
Si Si4 0.230775 0.609111 0.438066
Si Si5 0.791719 0.828898 0.262021
Si Si6 0.065984 0.998478 0.173241
Si Si7 0.155592 0.758379 0.328418
Si Si8 0.195688 0.091918 0.335729
O O1 0.485171 0.436368 0.696123
O O2 0.572249 0.383177 0.582769
O O3 0.319040 0.233642 0.670203
O O4 0.261218 0.493874 0.651977
O O5 0.323906 0.785074 0.769118
O O6 0.605058 0.915466 0.687037
O O7 0.329630 0.062228 0.753862
O O8 0.109454 0.318369 0.898875
O O9 0.169707 0.056256 0.935183
O O10 0.977740 0.086237 0.877959
O O11 0.879433 0.169084 0.993965
O O12 0.186917 0.697857 0.387396
O O13 0.828710 0.688149 0.217428
O O14 0.962751 0.918050 0.238718
O O15 0.989127 0.160315 0.176787
O O16 0.131417 0.929496 0.336490
#
# Coordination Sequence:
#
# PCOD9239159 Si02
#       8
#     4   4   4   4   4   4   4   4
#     4  10  18  29  53  75  93 124 164 197 236 285
#     4   9  17  31  48  70  98 126 158 195 239 294
#     4   9  19  34  51  69  98 129 164 207 241 283
#     4   9  18  34  51  71  94 128 169 204 241 282
#     4   9  19  33  47  70 103 129 154 194 243 294
#     4   9  19  34  48  70 101 130 158 195 242 290
#     4   9  18  30  48  71  98 126 157 200 244 285
#     4  10  16  27  50  73  93 125 162 197 242 286
#
# _framework density 18.330501000000002
#
# number of rings (size 3 to 8) (size 9 to 14) (size 15 to 20)
#    0.000    2.750    0.000    4.500    0.000    4.000 
#    0.000    1.250    0.000   12.750    0.000    0.000 
#    0.000    0.000    0.000    0.000    0.000    0.000 
#
# Total GULP energy -178374.628771 kJ/mol
# GULP energy per Si atom -5574.207149 kJ/mol
# Density = 1.828878 g / cm^3
# Si number density = 18.330501 Si / 1000 Ang^3
#
#
#
# Elastic Constant Matrix: (Units=GPa)
#
#
# Indices 1 2 3 4 5 6 
#
# 1 86.4590 25.5297 35.6567 0.0000 -30.8029 0.0000
# 2 25.5297 117.7276 33.5953 0.0000 -19.2228 0.0000
# 3 35.6567 33.5953 93.8663 0.0000 -38.9223 0.0000
# 4 0.0000 0.0000 0.0000 22.1999 0.0000 -4.1954
# 5 -30.8029 -19.2228 -38.9223 0.0000 29.7275 0.0000
# 6 0.0000 0.0000 0.0000 -4.1954 0.0000 13.2442
#
#
#
# Elastic Compliance Matrix: (Units=1/GPa)
#
#
# Indices 1 2 3 4 5 6 
#
# 1 0.018649 -0.001175 0.002262 0.000000 0.021526 0.000000
# 2 -0.001175 0.009723 -0.002038 0.000000 0.002402 0.000000
# 3 0.002262 -0.002038 0.023954 0.000000 0.032389 0.000000
# 4 0.000000 0.000000 0.000000 0.047914 0.000000 0.015178
# 5 0.021526 0.002402 0.032389 0.000000 0.099904 0.000000
# 6 0.000000 0.000000 0.000000 0.015178 0.000000 0.080313
#
#
# Mechanical properties :
#
#
# Convention : Reuss Voigt Hill
#
# Bulk Modulus (GPa) = 19.83136 54.17958 37.00547
# Shear Modulus (GPa) = 16.71317 26.58572 21.64945
#
# Velocity S-wave (km/s) = 3.02283 3.81248 3.44039
# Velocity P-wave (km/s) = 4.79850 7.00009 6.00112
#
# Compressibility (1/GPa) = 0.05042519
#
# Stress axis : x y z
#
# Youngs Moduli (GPa) = 53.62128 102.85334 41.74708
#
# Poissons Ratio (x) = 0.12084 -0.09444
# Poissons Ratio (y) = 0.06300 0.08506
# Poissons Ratio (z) = -0.12130 0.20957
#
# Static dielectric constant tensor:
#      x y z
#    x 1.664020 0.000000 -0.011040 
#    y 0.000000 1.652820 0.000000 
#    z -0.011040 0.000000 1.657660 
# 
# From -- ./inp_files/76257.got.cif
#   From: 2010.05.17/outbox.cif.g08.bks.cpg/sg14_39_cif.got.tgz:76257.got - 2010.06.03 17:49:19.
