data_PCOD9239960
_publ_section_title
;
Structure prediction by ZEFSAII (Michael W. Deem and Ramdas Pophale) SiO2 
 PCOD9239960
Probable space group: P 21/C
;
_chemical_formula_sum "Si O2"
_cell_formula_units_Z 28
_cell_length_a 7.846567
_cell_length_b 9.156955
_cell_length_c 24.325258
_cell_angle_alpha 90.000000
_cell_angle_beta 134.079127
_cell_angle_gamma 90.000000
_cell_volume 1255.574012
_symmetry_space_group_name_H-M "P 21/C"
_symmetry_group_IT_number 14
_symmetry_cell_setting 'monoclinic'
loop_
_space_group_symop_operation_xyz
x,y,z
-x,1/2+y,1/2-z
-x,-y,-z
x,1/2-y,1/2+z
loop_
_atom_site_type_symbol
_atom_site_label
_atom_site_fract_x
_atom_site_fract_y
_atom_site_fract_z
Si Si1 0.941431 0.048736 0.079114
Si Si2 0.042282 0.705400 0.529369
Si Si3 0.186528 0.463435 0.966426
Si Si4 0.346699 0.350378 0.737822
Si Si5 0.605036 0.826081 0.153670
Si Si6 0.464258 0.758790 0.511403
Si Si7 0.215678 0.024606 0.706746
O O1 0.143905 0.045595 0.169687
O O2 0.030145 0.147378 0.046878
O O3 0.709828 0.132748 0.048230
O O4 0.902824 0.893125 0.042828
O O5 0.319734 0.659604 0.598544
O O6 0.980393 0.871176 0.530386
O O7 0.405146 0.355630 0.003698
O O8 0.036980 0.489532 0.876552
O O9 0.298936 0.620104 0.005939
O O10 0.333366 0.322781 0.799957
O O11 0.597942 0.408144 0.774166
O O12 0.254529 0.049111 0.781051
O O13 0.635853 0.810050 0.095962
O O14 0.706523 0.813378 0.296424
#
# Coordination Sequence:
#
# PCOD9239960 Si02
#       7
#     4   4   4   4   4   4   4
#     4  10  19  36  56  84 114 146 184 240 285 330
#     4  10  20  33  58  85 109 141 194 236 282 333
#     4  11  21  38  57  84 114 154 193 233 277 341
#     4  10  18  33  58  84 109 146 182 242 283 332
#     4   9  19  34  57  81 111 141 187 235 287 328
#     4  10  22  37  58  79 117 154 189 229 282 340
#     4  10  19  34  59  82 116 143 186 239 288 330
#
# _framework density 22.300557999999999
#
# number of rings (size 3 to 8) (size 9 to 14) (size 15 to 20)
#    0.857    1.143    4.286    0.000    0.000    4.000 
#    0.000    1.429    9.429    0.000    0.000    0.000 
#    0.000    0.000    0.000    0.000    0.000    0.000 
#
# Total GULP energy -156084.999300 kJ/mol
# GULP energy per Si atom -5574.464261 kJ/mol
# Density = 2.224980 g / cm^3
# Si number density = 22.300558 Si / 1000 Ang^3
#
#
#
# Elastic Constant Matrix: (Units=GPa)
#
#
# Indices 1 2 3 4 5 6 
#
# 1 26.2154 1.7545 -1.6398 0.0000 4.7316 0.0000
# 2 1.7545 76.8146 -5.5563 0.0000 9.2732 0.0000
# 3 -1.6398 -5.5563 89.0252 0.0000 -2.0794 0.0000
# 4 0.0000 0.0000 0.0000 28.0675 0.0000 0.8303
# 5 4.7316 9.2732 -2.0794 0.0000 21.3408 0.0000
# 6 0.0000 0.0000 0.0000 0.8303 0.0000 33.6624
#
#
#
# Elastic Compliance Matrix: (Units=1/GPa)
#
#
# Indices 1 2 3 4 5 6 
#
# 1 0.039763 0.000199 0.000538 0.000000 -0.008850 0.000000
# 2 0.000199 0.013786 0.000725 0.000000 -0.005964 0.000000
# 3 0.000538 0.000725 0.011304 0.000000 0.000667 0.000000
# 4 0.000000 0.000000 0.000000 0.035654 0.000000 -0.000879
# 5 -0.008850 -0.005964 0.000667 0.000000 0.051478 0.000000
# 6 0.000000 0.000000 0.000000 -0.000879 0.000000 0.029728
#
#
# Mechanical properties :
#
#
# Convention : Reuss Voigt Hill
#
# Bulk Modulus (GPa) = 14.75425 20.13022 17.44223
# Shear Modulus (GPa) = 24.82850 29.78060 27.30455
#
# Velocity S-wave (km/s) = 3.34032 3.65830 3.50292
# Velocity P-wave (km/s) = 4.63761 5.18562 4.91925
#
# Compressibility (1/GPa) = 0.06777709
#
# Stress axis : x y z
#
# Youngs Moduli (GPa) = 25.14889 72.53606 88.46813
#
# Poissons Ratio (x) = -0.01445 -0.04761
# Poissons Ratio (y) = -0.00501 -0.06412
# Poissons Ratio (z) = -0.01353 -0.05257
#
# Static dielectric constant tensor:
#      x y z
#    x 1.876030 0.000000 -0.000990 
#    y 0.000000 1.822850 0.000000 
#    z -0.000990 0.000000 1.834630 
# 
# From -- ./inp_files/79503.got.cif
#   From: 2010.05.17/outbox.cif.g08.bks.cpg/sg14_40_cif.got.tgz:79503.got - 2010.06.03 17:49:19.
