data_PCOD9239634
_publ_section_title
;
Structure prediction by ZEFSAII (Michael W. Deem and Ramdas Pophale) SiO2 
 PCOD9239634
Probable space group: P 21/C
;
_chemical_formula_sum "Si O2"
_cell_formula_units_Z 32
_cell_length_a 17.105160
_cell_length_b 7.375539
_cell_length_c 23.007239
_cell_angle_alpha 90.000000
_cell_angle_beta 155.606786
_cell_angle_gamma 90.000000
_cell_volume 1198.758917
_symmetry_space_group_name_H-M "P 21/C"
_symmetry_group_IT_number 14
_symmetry_cell_setting 'monoclinic'
loop_
_space_group_symop_operation_xyz
x,y,z
-x,1/2+y,1/2-z
-x,-y,-z
x,1/2-y,1/2+z
loop_
_atom_site_type_symbol
_atom_site_label
_atom_site_fract_x
_atom_site_fract_y
_atom_site_fract_z
Si Si1 0.758694 0.793884 0.845839
Si Si2 0.934302 0.506952 0.563105
Si Si3 0.601154 0.276593 0.331684
Si Si4 0.565296 0.328386 0.180320
Si Si5 0.857458 0.611201 0.801520
Si Si6 0.206316 0.578020 0.845216
Si Si7 0.818198 0.530395 0.045950
Si Si8 0.522412 0.766505 0.003143
O O1 0.614843 0.713406 0.796054
O O2 0.801148 0.631798 0.830327
O O3 0.655660 0.965065 0.741628
O O4 0.927890 0.881417 0.998623
O O5 0.715988 0.456211 0.426350
O O6 0.035855 0.309675 0.630217
O O7 0.038089 0.602564 0.686119
O O8 0.646200 0.249107 0.294532
O O9 0.682262 0.115525 0.423927
O O10 0.338573 0.325830 0.039905
O O11 0.585803 0.231933 0.132373
O O12 0.675638 0.601094 0.635811
O O13 0.008013 0.466561 0.880602
O O14 0.118299 0.552400 0.848975
O O15 0.336548 0.406507 0.914016
O O16 0.364559 0.731781 0.945630
#
# Coordination Sequence:
#
# PCOD9239634 Si02
#       8
#     4   4   4   4   4   4   4   4
#     4  10  18  30  48  69  97 127 159 198 238 285
#     4   9  18  30  49  74  96 123 161 203 244 281
#     4   9  18  31  48  70  97 129 158 195 244 288
#     4   9  17  31  48  69  96 124 160 200 240 285
#     4  10  18  29  47  73 101 129 160 197 239 283
#     4   9  16  29  47  69  93 119 154 198 242 279
#     4   9  18  30  46  70 100 128 156 195 241 287
#     4   9  16  27  47  69  91 121 156 197 240 278
#
# _framework density 26.694275000000001
#
# number of rings (size 3 to 8) (size 9 to 14) (size 15 to 20)
#    0.000    2.750    0.000    4.125    0.000    3.000 
#    0.000    0.625    0.000    0.750    0.000   12.250 
#    0.000    0.000    0.000    0.000    0.000    0.000 
#
# Total GULP energy -178722.435739 kJ/mol
# GULP energy per Si atom -5585.076117 kJ/mol
# Density = 2.663352 g / cm^3
# Si number density = 26.694275 Si / 1000 Ang^3
#
#
#
# Elastic Constant Matrix: (Units=GPa)
#
#
# Indices 1 2 3 4 5 6 
#
# 1 115.6870 30.3600 30.1078 0.0000 -12.9100 0.0000
# 2 30.3600 74.9292 11.1562 0.0000 -12.6172 0.0000
# 3 30.1078 11.1562 121.4725 0.0000 -27.3970 0.0000
# 4 0.0000 0.0000 0.0000 13.6718 0.0000 -5.8585
# 5 -12.9100 -12.6172 -27.3970 0.0000 45.9555 0.0000
# 6 0.0000 0.0000 0.0000 -5.8585 0.0000 29.1372
#
#
#
# Elastic Compliance Matrix: (Units=1/GPa)
#
#
# Indices 1 2 3 4 5 6 
#
# 1 0.010227 -0.003733 -0.002051 0.000000 0.000625 0.000000
# 2 -0.003733 0.015380 0.000264 0.000000 0.003331 0.000000
# 3 -0.002051 0.000264 0.009939 0.000000 0.005422 0.000000
# 4 0.000000 0.000000 0.000000 0.080039 0.000000 0.016093
# 5 0.000625 0.003331 0.005422 0.000000 0.026083 0.000000
# 6 0.000000 0.000000 0.000000 0.016093 0.000000 0.037556
#
#
# Mechanical properties :
#
#
# Convention : Reuss Voigt Hill
#
# Bulk Modulus (GPa) = 40.80540 50.59295 45.69917
# Shear Modulus (GPa) = 25.19729 33.78387 29.49058
#
# Velocity S-wave (km/s) = 3.07566 3.56137 3.32739
# Velocity P-wave (km/s) = 5.28510 5.99208 5.64966
#
# Compressibility (1/GPa) = 0.02450656
#
# Stress axis : x y z
#
# Youngs Moduli (GPa) = 97.77750 65.01857 100.61133
#
# Poissons Ratio (x) = 0.24273 0.20635
# Poissons Ratio (y) = 0.36503 -0.02657
# Poissons Ratio (z) = 0.20054 -0.01717
#
# Static dielectric constant tensor:
#      x y z
#    x 2.080020 0.000000 0.038540 
#    y 0.000000 2.210460 0.000000 
#    z 0.038540 0.000000 2.108640 
# 
# From -- ./inp_files/68487.got.cif
#   From: 2010.05.17/outbox.cif.g08.bks.cpg/sg14_35_cif.got.tgz:68487.got - 2010.06.03 17:49:19.
