data_PCOD9239564
_publ_section_title
;
Structure prediction by ZEFSAII (Michael W. Deem and Ramdas Pophale) SiO2 
 PCOD9239564
Probable space group: P 21/C
;
_chemical_formula_sum "Si O2"
_cell_formula_units_Z 32
_cell_length_a 12.500299
_cell_length_b 10.551775
_cell_length_c 16.683241
_cell_angle_alpha 90.000000
_cell_angle_beta 48.319761
_cell_angle_gamma 90.000000
_cell_volume 1643.500915
_symmetry_space_group_name_H-M "P 21/C"
_symmetry_group_IT_number 14
_symmetry_cell_setting 'monoclinic'
loop_
_space_group_symop_operation_xyz
x,y,z
-x,1/2+y,1/2-z
-x,-y,-z
x,1/2-y,1/2+z
loop_
_atom_site_type_symbol
_atom_site_label
_atom_site_fract_x
_atom_site_fract_y
_atom_site_fract_z
Si Si1 0.690286 0.740720 0.434697
Si Si2 0.083353 0.758634 0.859727
Si Si3 0.244037 0.657042 0.625502
Si Si4 0.704260 0.141535 0.634028
Si Si5 0.470342 0.766462 0.905986
Si Si6 0.955929 0.945091 0.811191
Si Si7 0.467177 0.554082 0.627147
Si Si8 0.142357 0.458247 0.068394
O O1 0.608060 0.760776 0.391577
O O2 0.836356 0.661145 0.349506
O O3 0.584798 0.660913 0.546533
O O4 0.734133 0.873366 0.452235
O O5 0.175745 0.723852 0.735219
O O6 0.184448 0.746136 0.886575
O O7 0.020982 0.893307 0.862129
O O8 0.964669 0.646090 0.918978
O O9 0.331527 0.756515 0.530536
O O10 0.126061 0.577994 0.637348
O O11 0.359922 0.558397 0.604426
O O12 0.566123 0.194167 0.655943
O O13 0.635666 0.078590 0.746562
O O14 0.792504 0.048145 0.532240
O O15 0.467721 0.916662 0.891958
O O16 0.058252 0.969451 0.682878
#
# Coordination Sequence:
#
# PCOD9239564 Si02
#       8
#     4   4   4   4   4   4   4   4
#     4  10  20  39  64  88 104 152 203 243 279 330
#     4   9  20  36  57  82 116 152 185 230 289 346
#     4   9  16  34  61  78 102 145 203 232 268 331
#     4  11  24  37  53  87 121 156 179 230 306 344
#     4  11  20  37  60  82 112 152 193 239 284 343
#     4  10  17  36  61  85 107 148 195 243 271 334
#     4  10  20  37  60  80 114 152 193 238 279 353
#     4  10  22  37  63  85 118 146 197 240 282 345
#
# _framework density 19.470632999999999
#
# number of rings (size 3 to 8) (size 9 to 14) (size 15 to 20)
#    0.000    2.000    2.500    1.875    1.750    0.500 
#    2.250    0.625    0.000    0.000    0.000    0.000 
#    0.000    0.000    0.000    0.000    0.000    0.000 
#
# Total GULP energy -178293.647373 kJ/mol
# GULP energy per Si atom -5571.676480 kJ/mol
# Density = 1.942632 g / cm^3
# Si number density = 19.470633 Si / 1000 Ang^3
#
#
#
# Elastic Constant Matrix: (Units=GPa)
#
#
# Indices 1 2 3 4 5 6 
#
# 1 78.5206 13.9218 20.2581 0.0000 4.7948 0.0000
# 2 13.9218 23.4599 18.6659 0.0000 1.3327 0.0000
# 3 20.2581 18.6659 75.9742 0.0000 -3.9610 0.0000
# 4 0.0000 0.0000 0.0000 16.0667 0.0000 -0.7716
# 5 4.7948 1.3327 -3.9610 0.0000 24.6671 0.0000
# 6 0.0000 0.0000 0.0000 -0.7716 0.0000 28.5383
#
#
#
# Elastic Compliance Matrix: (Units=1/GPa)
#
#
# Indices 1 2 3 4 5 6 
#
# 1 0.014718 -0.006621 -0.002449 0.000000 -0.002896 0.000000
# 2 -0.006621 0.056579 -0.012331 0.000000 -0.003750 0.000000
# 3 -0.002449 -0.012331 0.017047 0.000000 0.003880 0.000000
# 4 0.000000 0.000000 0.000000 0.062322 0.000000 0.001685
# 5 -0.002896 -0.003750 0.003880 0.000000 0.041928 0.000000
# 6 0.000000 0.000000 0.000000 0.001685 0.000000 0.035086
#
#
# Mechanical properties :
#
#
# Convention : Reuss Voigt Hill
#
# Bulk Modulus (GPa) = 21.95738 31.51624 26.73681
# Shear Modulus (GPa) = 17.50315 22.19501 19.84908
#
# Velocity S-wave (km/s) = 3.00150 3.37994 3.19633
# Velocity P-wave (km/s) = 4.82843 5.60836 5.23294
#
# Compressibility (1/GPa) = 0.04554278
#
# Stress axis : x y z
#
# Youngs Moduli (GPa) = 67.94360 17.67439 58.66110
#
# Poissons Ratio (x) = 0.11703 0.14365
# Poissons Ratio (y) = 0.44987 0.72333
# Poissons Ratio (z) = 0.16638 0.21794
#
# Static dielectric constant tensor:
#      x y z
#    x 1.732720 0.000000 -0.034470 
#    y 0.000000 1.726260 0.000000 
#    z -0.034470 0.000000 1.691030 
# 
# From -- ./inp_files/44373.got.cif
#   From: 2010.05.17/outbox.cif.g08.bks.cpg/sg14_23_cif.got.tgz:44373.got - 2010.06.03 17:49:19.
