data_PCOD9239966
_publ_section_title
;
Structure prediction by ZEFSAII (Michael W. Deem and Ramdas Pophale) SiO2 
 PCOD9239966
Probable space group: P 21/C
;
_chemical_formula_sum "Si O2"
_cell_formula_units_Z 20
_cell_length_a 8.276998
_cell_length_b 4.941857
_cell_length_c 23.449531
_cell_angle_alpha 90.000000
_cell_angle_beta 119.685105
_cell_angle_gamma 90.000000
_cell_volume 833.291873
_symmetry_space_group_name_H-M "P 21/C"
_symmetry_group_IT_number 14
_symmetry_cell_setting 'monoclinic'
loop_
_space_group_symop_operation_xyz
x,y,z
-x,1/2+y,1/2-z
-x,-y,-z
x,1/2-y,1/2+z
loop_
_atom_site_type_symbol
_atom_site_label
_atom_site_fract_x
_atom_site_fract_y
_atom_site_fract_z
Si Si1 0.379172 0.847896 0.719081
Si Si2 0.112394 0.659999 0.772699
Si Si3 0.316058 0.774745 0.080297
Si Si4 0.286061 0.264658 0.006030
Si Si5 0.328291 0.976837 0.904688
O O1 0.296267 0.819455 0.641303
O O2 0.537777 0.675091 0.608551
O O3 0.242243 0.735259 0.742776
O O4 0.441664 0.151947 0.743467
O O5 0.201544 0.786480 0.844752
O O6 0.070835 0.343807 0.768832
O O7 0.245915 0.559721 0.021687
O O8 0.511409 0.220751 0.040730
O O9 0.231088 0.061677 0.047710
O O10 0.221851 0.146316 0.934523
#
# Coordination Sequence:
#
# PCOD9239966 Si02
#       5
#     4   4   4   4   4
#     4  12  22  40  65  87 122 165 212 258 289 359
#     4  12  27  40  59  91 134 168 193 245 322 384
#     4  10  18  33  58  91 107 143 205 263 290 333
#     4   9  19  31  62  91 111 144 208 272 287 327
#     4   9  20  36  58  87 119 154 202 254 297 356
#
# _framework density 24.001194999999999
#
# number of rings (size 3 to 8) (size 9 to 14) (size 15 to 20)
#    1.200    0.400    2.000    4.200    2.800    0.000 
#    0.000    0.000    0.000    7.200    0.000    0.000 
#    0.000    0.000    0.000    0.000    0.000    0.000 
#
# Total GULP energy -111769.660053 kJ/mol
# GULP energy per Si atom -5588.483003 kJ/mol
# Density = 2.394657 g / cm^3
# Si number density = 24.001195 Si / 1000 Ang^3
#
#
#
# Elastic Constant Matrix: (Units=GPa)
#
#
# Indices 1 2 3 4 5 6 
#
# 1 35.4126 -8.3985 13.5134 0.0000 -0.2554 0.0000
# 2 -8.3985 85.3464 -10.9346 0.0000 6.5374 0.0000
# 3 13.5134 -10.9346 81.4351 0.0000 -26.2635 0.0000
# 4 0.0000 0.0000 0.0000 15.7729 0.0000 -19.1099
# 5 -0.2554 6.5374 -26.2635 0.0000 18.9888 0.0000
# 6 0.0000 0.0000 0.0000 -19.1099 0.0000 5.2001
#
#
#
# Elastic Compliance Matrix: (Units=1/GPa)
#
#
# Indices 1 2 3 4 5 6 
#
# 1 0.032420 0.003030 -0.009331 0.000000 -0.013513 0.000000
# 2 0.003030 0.012329 -0.000367 0.000000 -0.004711 0.000000
# 3 -0.009331 -0.000367 0.024875 0.000000 0.034405 0.000000
# 4 0.000000 0.000000 0.000000 -0.018364 0.000000 -0.067486
# 5 -0.013513 -0.004711 0.034405 0.000000 0.101689 0.000000
# 6 0.000000 0.000000 0.000000 -0.067486 0.000000 -0.055702
#
#
# Mechanical properties :
#
#
# Convention : Reuss Voigt Hill
#
# Bulk Modulus (GPa) = 17.76556 21.17274 19.46915
# Shear Modulus (GPa) = 38.65615 21.85995 30.25805
#
# Velocity S-wave (km/s) = 4.01757 3.02120 3.55447
# Velocity P-wave (km/s) = 5.37952 4.58376 4.99750
#
# Compressibility (1/GPa) = 0.05628869
#
# Stress axis : x y z
#
# Youngs Moduli (GPa) = 30.84474 81.10968 40.20118
#
# Poissons Ratio (x) = -0.24576 0.37512
# Poissons Ratio (y) = -0.09346 0.01474
# Poissons Ratio (z) = 0.28782 0.02974
#
# Static dielectric constant tensor:
#      x y z
#    x 1.951140 0.000000 0.047580 
#    y 0.000000 1.877760 0.000000 
#    z 0.047580 0.000000 1.941740 
# 
# From -- ./inp_files/64034.got.cif
#   From: 2010.05.17/outbox.cif.g08.bks.cpg/sg14_33_cif.got.tgz:64034.got - 2010.06.03 17:49:19.
