data_PCOD9239284
_publ_section_title
;
Structure prediction by ZEFSAII (Michael W. Deem and Ramdas Pophale) SiO2 
 PCOD9239284
Probable space group: P 21/C
;
_chemical_formula_sum "Si O2"
_cell_formula_units_Z 30
_cell_length_a 12.276499
_cell_length_b 8.887111
_cell_length_c 12.501960
_cell_angle_alpha 90.000000
_cell_angle_beta 104.815167
_cell_angle_gamma 90.000000
_cell_volume 1318.651397
_symmetry_space_group_name_H-M "P 21/C"
_symmetry_group_IT_number 14
_symmetry_cell_setting 'monoclinic'
loop_
_space_group_symop_operation_xyz
x,y,z
-x,1/2+y,1/2-z
-x,-y,-z
x,1/2-y,1/2+z
loop_
_atom_site_type_symbol
_atom_site_label
_atom_site_fract_x
_atom_site_fract_y
_atom_site_fract_z
Si Si1 0.391637 0.979135 0.781469
Si Si2 0.500000 0.500000 0.500000
Si Si3 0.454518 0.182928 0.334322
Si Si4 0.885604 0.427500 0.509612
Si Si5 0.746485 0.869117 0.577252
Si Si6 0.846830 0.909177 0.223645
Si Si7 0.698487 0.874985 0.907398
Si Si8 0.936818 0.094244 0.574862
O O1 0.464054 0.132185 0.844345
O O2 0.260971 0.018926 0.742762
O O3 0.426687 0.884350 0.894355
O O4 0.437382 0.907480 0.683002
O O5 0.381519 0.437228 0.519905
O O6 0.383614 0.118907 0.416300
O O7 0.372407 0.160680 0.213535
O O8 0.862789 0.489287 0.622730
O O9 0.789054 0.495936 0.410521
O O10 0.898598 0.251126 0.516111
O O11 0.000000 0.500000 0.500000
O O12 0.804585 0.753704 0.674627
O O13 0.751493 0.777474 0.467125
O O14 0.824954 0.012697 0.589639
O O15 0.965254 0.890575 0.312051
O O16 0.000000 0.000000 0.500000
#
# Coordination Sequence:
#
# PCOD9239284 Si02
#       8
#     4   2   4   4   4   4   4   4
#     4  10  21  39  66  91 128 165 212 265 322 383
#     4  10  16  42  66  86 116 168 216 248 320 386
#     4  10  22  40  67  97 127 169 211 269 321 385
#     4  11  24  41  67  93 126 170 218 257 323 392
#     4  10  22  42  64  93 130 167 216 271 327 369
#     4  10  22  44  65  89 128 176 211 269 324 385
#     4  10  21  41  69  89 127 173 214 263 325 390
#     4  12  26  41  63  96 130 169 216 269 321 386
#
# _framework density 22.750516999999999
#
# number of rings (size 3 to 8) (size 9 to 14) (size 15 to 20)
#    0.000    1.600    4.000    2.400    9.333    1.067 
#    4.800    0.667    0.000    0.000    0.000    0.000 
#    0.000    0.000    0.000    0.000    0.000    0.000 
#
# Total GULP energy -167170.649845 kJ/mol
# GULP energy per Si atom -5572.354995 kJ/mol
# Density = 2.269874 g / cm^3
# Si number density = 22.750517 Si / 1000 Ang^3
#
#
#
# Elastic Constant Matrix: (Units=GPa)
#
#
# Indices 1 2 3 4 5 6 
#
# 1 122.8085 57.2658 -7.6571 0.0000 -7.9180 0.0000
# 2 57.2658 82.9283 -7.6677 0.0000 -13.3993 0.0000
# 3 -7.6571 -7.6677 30.3987 0.0000 7.3392 0.0000
# 4 0.0000 0.0000 0.0000 5.7222 0.0000 -3.7447
# 5 -7.9180 -13.3993 7.3392 0.0000 40.4816 0.0000
# 6 0.0000 0.0000 0.0000 -3.7447 0.0000 43.6553
#
#
#
# Elastic Compliance Matrix: (Units=1/GPa)
#
#
# Indices 1 2 3 4 5 6 
#
# 1 0.012050 -0.008317 0.001080 0.000000 -0.000592 0.000000
# 2 -0.008317 0.018635 0.001578 0.000000 0.004255 0.000000
# 3 0.001080 0.001578 0.034918 0.000000 -0.005597 0.000000
# 4 0.000000 0.000000 0.000000 0.185153 0.000000 0.015882
# 5 -0.000592 0.004255 -0.005597 0.000000 0.027010 0.000000
# 6 0.000000 0.000000 0.000000 0.015882 0.000000 0.024269
#
#
# Mechanical properties :
#
#
# Convention : Reuss Voigt Hill
#
# Bulk Modulus (GPa) = 18.42086 35.55750 26.98918
# Shear Modulus (GPa) = 15.08537 30.91810 23.00174
#
# Velocity S-wave (km/s) = 2.57782 3.69047 3.18314
# Velocity P-wave (km/s) = 4.12004 5.81573 5.03971
#
# Compressibility (1/GPa) = 0.05428628
#
# Stress axis : x y z
#
# Youngs Moduli (GPa) = 82.98652 53.66163 28.63888
#
# Poissons Ratio (x) = 0.44630 -0.03094
# Poissons Ratio (y) = 0.69019 -0.04520
# Poissons Ratio (z) = -0.08965 -0.08469
#
# Static dielectric constant tensor:
#      x y z
#    x 1.863160 0.000000 -0.124140 
#    y 0.000000 1.691270 0.000000 
#    z -0.124140 0.000000 1.594970 
# 
# From -- ./inp_files/43773.got.cif
#   From: 2010.05.17/outbox.cif.g08.bks.cpg/sg14_22_cif.got.tgz:43773.got - 2010.06.03 17:49:19.
