data_PCOD9239188
_publ_section_title
;
Structure prediction by ZEFSAII (Michael W. Deem and Ramdas Pophale) SiO2 
 PCOD9239188
Probable space group: P 21/C
;
_chemical_formula_sum "Si O2"
_cell_formula_units_Z 24
_cell_length_a 21.156833
_cell_length_b 5.340450
_cell_length_c 13.694986
_cell_angle_alpha 90.000000
_cell_angle_beta 143.229764
_cell_angle_gamma 90.000000
_cell_volume 926.258693
_symmetry_space_group_name_H-M "P 21/C"
_symmetry_group_IT_number 14
_symmetry_cell_setting 'monoclinic'
loop_
_space_group_symop_operation_xyz
x,y,z
-x,1/2+y,1/2-z
-x,-y,-z
x,1/2-y,1/2+z
loop_
_atom_site_type_symbol
_atom_site_label
_atom_site_fract_x
_atom_site_fract_y
_atom_site_fract_z
Si Si1 0.535709 0.750939 0.487750
Si Si2 0.943326 0.559845 0.327912
Si Si3 0.977538 0.936379 0.586389
Si Si4 0.253556 0.269941 0.648755
Si Si5 0.645644 0.378981 0.378645
Si Si6 0.292119 0.109658 0.491703
O O1 0.500000 0.500000 0.500000
O O2 0.663355 0.762242 0.659762
O O3 0.463038 0.789687 0.303097
O O4 0.500000 0.000000 0.500000
O O5 0.825022 0.656176 0.190754
O O6 0.000000 0.500000 0.500000
O O7 0.004103 0.784601 0.349252
O O8 0.940700 0.279966 0.281459
O O9 0.863787 0.810385 0.465581
O O10 0.000000 0.000000 0.500000
O O11 0.274410 0.526002 0.610953
O O12 0.284866 0.075126 0.601732
O O13 0.640324 0.640528 0.430561
O O14 0.673698 0.167375 0.493127
#
# Coordination Sequence:
#
# PCOD9239188 Si02
#       6
#     4   4   4   4   4   4
#     4  10  16  30  49  77 115 140 166 217 280 340
#     4  10  22  38  53  73 105 151 193 233 275 330
#     4  10  22  37  53  75 106 150 197 227 270 328
#     4   9  21  30  56  77 115 140 181 226 276 325
#     4   9  18  31  49  83 112 136 173 226 283 339
#     4  10  19  32  53  78 109 141 182 229 281 333
#
# _framework density 25.910691
#
# number of rings (size 3 to 8) (size 9 to 14) (size 15 to 20)
#    1.000    1.333    1.667    1.000    2.333    1.333 
#    0.000    0.000    0.000    0.000    0.000   18.667 
#    0.000    0.000    0.000    0.000    0.000    0.333 
#
# Total GULP energy -133681.385937 kJ/mol
# GULP energy per Si atom -5570.057747 kJ/mol
# Density = 2.585172 g / cm^3
# Si number density = 25.910691 Si / 1000 Ang^3
#
#
#
# Elastic Constant Matrix: (Units=GPa)
#
#
# Indices 1 2 3 4 5 6 
#
# 1 54.7436 24.6617 21.5081 0.0000 8.0233 0.0000
# 2 24.6617 240.9749 48.2114 0.0000 21.6756 0.0000
# 3 21.5081 48.2114 153.1140 0.0000 24.8745 0.0000
# 4 0.0000 0.0000 0.0000 41.7146 0.0000 8.2013
# 5 8.0233 21.6756 24.8745 0.0000 45.1376 0.0000
# 6 0.0000 0.0000 0.0000 8.2013 0.0000 5.2716
#
#
#
# Elastic Compliance Matrix: (Units=1/GPa)
#
#
# Indices 1 2 3 4 5 6 
#
# 1 0.019995 -0.001480 -0.002066 0.000000 -0.001705 0.000000
# 2 -0.001480 0.004632 -0.001024 0.000000 -0.001397 0.000000
# 3 -0.002066 -0.001024 0.007693 0.000000 -0.003381 0.000000
# 4 0.000000 0.000000 0.000000 0.034536 0.000000 -0.053729
# 5 -0.001705 -0.001397 -0.003381 0.000000 0.024991 0.000000
# 6 0.000000 0.000000 0.000000 -0.053729 0.000000 0.273284
#
#
# Mechanical properties :
#
#
# Convention : Reuss Voigt Hill
#
# Bulk Modulus (GPa) = 43.13788 70.84388 56.99088
# Shear Modulus (GPa) = 13.08915 42.05484 27.57199
#
# Velocity S-wave (km/s) = 2.25002 4.03310 3.26562
# Velocity P-wave (km/s) = 4.84097 7.00634 6.02178
#
# Compressibility (1/GPa) = 0.02318148
#
# Stress axis : x y z
#
# Youngs Moduli (GPa) = 50.01229 215.90375 129.99219
#
# Poissons Ratio (x) = 0.31946 0.26854
# Poissons Ratio (y) = 0.07400 0.13306
# Poissons Ratio (z) = 0.10332 0.22099
#
# Static dielectric constant tensor:
#      x y z
#    x 2.155790 0.000000 0.041150 
#    y 0.000000 1.944680 0.000000 
#    z 0.041150 0.000000 2.038790 
# 
# From -- ./inp_files/62101.got.cif
#   From: 2010.05.17/outbox.cif.g08.bks.cpg/sg14_32_cif.got.tgz:62101.got - 2010.06.03 17:49:19.
