data_PCOD9239569
_publ_section_title
;
Structure prediction by ZEFSAII (Michael W. Deem and Ramdas Pophale) SiO2 
 PCOD9239569
Probable space group: P 21/C
;
_chemical_formula_sum "Si O2"
_cell_formula_units_Z 24
_cell_length_a 15.166371
_cell_length_b 13.012975
_cell_length_c 8.837810
_cell_angle_alpha 90.000000
_cell_angle_beta 147.830609
_cell_angle_gamma 90.000000
_cell_volume 928.668404
_symmetry_space_group_name_H-M "P 21/C"
_symmetry_group_IT_number 14
_symmetry_cell_setting 'monoclinic'
loop_
_space_group_symop_operation_xyz
x,y,z
-x,1/2+y,1/2-z
-x,-y,-z
x,1/2-y,1/2+z
loop_
_atom_site_type_symbol
_atom_site_label
_atom_site_fract_x
_atom_site_fract_y
_atom_site_fract_z
Si Si1 0.690800 0.173577 0.868186
Si Si2 0.910371 0.878392 0.029596
Si Si3 0.790326 0.153655 0.710846
Si Si4 0.408760 0.332966 0.352284
Si Si5 0.574525 0.974040 0.400464
Si Si6 0.192602 0.188282 0.814069
O O1 0.832527 0.154545 0.949660
O O2 0.563613 0.261449 0.622928
O O3 0.585120 0.071983 0.747740
O O4 0.761529 0.230378 0.116177
O O5 0.908630 0.876424 0.209042
O O6 0.087486 0.911477 0.219014
O O7 0.740601 0.929419 0.724033
O O8 0.904309 0.768863 0.932057
O O9 0.614990 0.093648 0.455774
O O10 0.305855 0.365004 0.351824
O O11 0.441197 0.427492 0.289396
O O12 0.302013 0.257283 0.088123
#
# Coordination Sequence:
#
# PCOD9239569 Si02
#       6
#     4   4   4   4   4   4
#     4  12  22  43  62  90 129 164 206 253 316 365
#     4  10  20  38  62  94 122 162 206 256 307 369
#     4  12  26  40  62  96 130 155 209 268 309 357
#     4  10  17  36  64  89 112 164 209 242 293 374
#     4  11  23  42  66  90 122 173 208 248 309 381
#     4   9  16  33  65  88 115 164 209 237 305 368
#
# _framework density 25.843454999999999
#
# number of rings (size 3 to 8) (size 9 to 14) (size 15 to 20)
#    0.000    1.333    6.667    2.000    0.000    0.667 
#    0.000    0.833    0.000    0.000    0.000    1.167 
#    0.000    0.000    0.000    0.000    0.000    0.000 
#
# Total GULP energy -134116.361781 kJ/mol
# GULP energy per Si atom -5588.181741 kJ/mol
# Density = 2.578463 g / cm^3
# Si number density = 25.843455 Si / 1000 Ang^3
#
#
#
# Elastic Constant Matrix: (Units=GPa)
#
#
# Indices 1 2 3 4 5 6 
#
# 1 247.1541 26.0015 20.7208 0.0000 -29.0638 0.0000
# 2 26.0015 53.9592 7.7683 0.0000 -2.4042 0.0000
# 3 20.7208 7.7683 51.3991 0.0000 0.3357 0.0000
# 4 0.0000 0.0000 0.0000 30.1213 0.0000 -3.3556
# 5 -29.0638 -2.4042 0.3357 0.0000 30.2410 0.0000
# 6 0.0000 0.0000 0.0000 -3.3556 0.0000 38.4295
#
#
#
# Elastic Compliance Matrix: (Units=1/GPa)
#
#
# Indices 1 2 3 4 5 6 
#
# 1 0.004935 -0.001924 -0.001729 0.000000 0.004610 0.000000
# 2 -0.001924 0.019767 -0.002210 0.000000 -0.000253 0.000000
# 3 -0.001729 -0.002210 0.020500 0.000000 -0.002065 0.000000
# 4 0.000000 0.000000 0.000000 0.033525 0.000000 0.002927
# 5 0.004610 -0.000253 -0.002065 0.000000 0.037501 0.000000
# 6 0.000000 0.000000 0.000000 0.002927 0.000000 0.026277
#
#
# Mechanical properties :
#
#
# Convention : Reuss Voigt Hill
#
# Bulk Modulus (GPa) = 29.87224 51.27705 40.57464
# Shear Modulus (GPa) = 30.23152 39.62647 34.92900
#
# Velocity S-wave (km/s) = 3.42394 3.92002 3.68035
# Velocity P-wave (km/s) = 5.21681 6.35399 5.81328
#
# Compressibility (1/GPa) = 0.03347590
#
# Stress axis : x y z
#
# Youngs Moduli (GPa) = 202.61448 50.59054 48.78013
#
# Poissons Ratio (x) = 0.09733 0.08434
# Poissons Ratio (y) = 0.38983 0.10781
# Poissons Ratio (z) = 0.35032 0.11181
#
# Static dielectric constant tensor:
#      x y z
#    x 2.172180 0.000000 0.042040 
#    y 0.000000 2.071450 0.000000 
#    z 0.042040 0.000000 2.072820 
# 
# From -- ./inp_files/9130.got.cif
#   From: 2010.05.17/outbox.cif.g08.bks.cpg/sg14_5_cif.got.tgz:9130.got - 2010.06.03 17:49:19.
