data_PCOD9239913
_publ_section_title
;
Structure prediction by ZEFSAII (Michael W. Deem and Ramdas Pophale) SiO2 
 PCOD9239913
Probable space group: P 21/C
;
_chemical_formula_sum "Si O2"
_cell_formula_units_Z 32
_cell_length_a 11.565210
_cell_length_b 9.238218
_cell_length_c 20.856613
_cell_angle_alpha 90.000000
_cell_angle_beta 126.689787
_cell_angle_gamma 90.000000
_cell_volume 1786.882777
_symmetry_space_group_name_H-M "P 21/C"
_symmetry_group_IT_number 14
_symmetry_cell_setting 'monoclinic'
loop_
_space_group_symop_operation_xyz
x,y,z
-x,1/2+y,1/2-z
-x,-y,-z
x,1/2-y,1/2+z
loop_
_atom_site_type_symbol
_atom_site_label
_atom_site_fract_x
_atom_site_fract_y
_atom_site_fract_z
Si Si1 0.962066 0.087010 0.423692
Si Si2 0.782142 0.634883 0.230447
Si Si3 0.215808 0.041832 0.813756
Si Si4 0.378156 0.938782 0.219492
Si Si5 0.346660 0.601452 0.242574
Si Si6 0.120969 0.881174 0.040727
Si Si7 0.884949 0.353698 0.610745
Si Si8 0.107386 0.532649 0.849871
O O1 0.802332 0.056507 0.342714
O O2 0.947059 0.251921 0.440141
O O3 0.000000 0.000000 0.500000
O O4 0.078465 0.047383 0.407793
O O5 0.739637 0.797148 0.194315
O O6 0.679581 0.548029 0.244802
O O7 0.794377 0.549823 0.167733
O O8 0.941919 0.635046 0.317172
O O9 0.051116 0.032450 0.734537
O O10 0.313915 0.932180 0.805846
O O11 0.198195 0.984460 0.880732
O O12 0.381468 0.771233 0.243812
O O13 0.263345 0.935415 0.123490
O O14 0.527907 0.001124 0.243537
O O15 0.145804 0.843268 0.974781
O O16 0.000000 0.000000 0.000000
O O17 0.844191 0.197527 0.625969
#
# Coordination Sequence:
#
# PCOD9239913 Si02
#       8
#     4   4   4   4   4   4   4   4
#     4  10  20  36  57  86 114 145 182 228 282 334
#     4  10  19  32  55  81 111 147 187 229 273 330
#     4   9  19  32  54  80 111 145 187 228 273 326
#     4  11  22  38  58  81 112 149 190 228 279 333
#     4  10  22  37  57  82 110 149 190 231 271 336
#     4  11  22  33  56  87 118 145 183 231 285 331
#     4  10  18  33  52  83 116 144 180 231 282 325
#     4   9  18  31  53  81 113 146 181 228 275 325
#
# _framework density 17.908280999999999
#
# number of rings (size 3 to 8) (size 9 to 14) (size 15 to 20)
#    0.000    2.000    2.500    1.500    1.750    4.000 
#    0.000    0.625    0.000    0.750    0.000    0.000 
#    0.000    0.000    0.000    0.000    0.000    0.000 
#
# Total GULP energy -178300.769267 kJ/mol
# GULP energy per Si atom -5571.899040 kJ/mol
# Density = 1.786752 g / cm^3
# Si number density = 17.908281 Si / 1000 Ang^3
#
#
#
# Elastic Constant Matrix: (Units=GPa)
#
#
# Indices 1 2 3 4 5 6 
#
# 1 59.1085 30.4663 9.4477 0.0000 -7.9089 0.0000
# 2 30.4663 71.3564 16.7824 0.0000 4.3196 0.0000
# 3 9.4477 16.7824 35.9596 0.0000 -16.3469 0.0000
# 4 0.0000 0.0000 0.0000 21.3473 0.0000 -6.4960
# 5 -7.9089 4.3196 -16.3469 0.0000 25.1640 0.0000
# 6 0.0000 0.0000 0.0000 -6.4960 0.0000 35.3374
#
#
#
# Elastic Compliance Matrix: (Units=1/GPa)
#
#
# Indices 1 2 3 4 5 6 
#
# 1 0.024239 -0.012450 0.005501 0.000000 0.013329 0.000000
# 2 -0.012450 0.024421 -0.016761 0.000000 -0.018993 0.000000
# 3 0.005501 -0.016761 0.051483 0.000000 0.038050 0.000000
# 4 0.000000 0.000000 0.000000 0.049620 0.000000 0.009122
# 5 0.013329 -0.018993 0.038050 0.000000 0.071907 0.000000
# 6 0.000000 0.000000 0.000000 0.009122 0.000000 0.029975
#
#
# Mechanical properties :
#
#
# Convention : Reuss Voigt Hill
#
# Bulk Modulus (GPa) = 18.96619 31.09082 25.02850
# Shear Modulus (GPa) = 15.79081 23.68496 19.73789
#
# Velocity S-wave (km/s) = 2.97267 3.64066 3.32349
# Velocity P-wave (km/s) = 4.73245 5.92211 5.36038
#
# Compressibility (1/GPa) = 0.05272541
#
# Stress axis : x y z
#
# Youngs Moduli (GPa) = 41.25532 40.94759 19.42382
#
# Poissons Ratio (x) = 0.50979 -0.10686
# Poissons Ratio (y) = 0.51363 0.32555
# Poissons Ratio (z) = -0.22696 0.68631
#
# Static dielectric constant tensor:
#      x y z
#    x 1.612030 0.000000 -0.040770 
#    y 0.000000 1.666020 0.000000 
#    z -0.040770 0.000000 1.648790 
# 
# From -- ./inp_files/66869.got.cif
#   From: 2010.05.17/outbox.cif.g08.bks.cpg/sg14_34_cif.got.tgz:66869.got - 2010.06.03 17:49:19.
