data_PCOD9239261
_publ_section_title
;
Structure prediction by ZEFSAII (Michael W. Deem and Ramdas Pophale) SiO2 
 PCOD9239261
Probable space group: P 21/C
;
_chemical_formula_sum "Si O2"
_cell_formula_units_Z 32
_cell_length_a 10.036726
_cell_length_b 12.497349
_cell_length_c 16.293484
_cell_angle_alpha 90.000000
_cell_angle_beta 137.922801
_cell_angle_gamma 90.000000
_cell_volume 1369.568707
_symmetry_space_group_name_H-M "P 21/C"
_symmetry_group_IT_number 14
_symmetry_cell_setting 'monoclinic'
loop_
_space_group_symop_operation_xyz
x,y,z
-x,1/2+y,1/2-z
-x,-y,-z
x,1/2-y,1/2+z
loop_
_atom_site_type_symbol
_atom_site_label
_atom_site_fract_x
_atom_site_fract_y
_atom_site_fract_z
Si Si1 0.502605 0.164404 0.179476
Si Si2 0.118746 0.992726 0.308524
Si Si3 0.632194 0.283323 0.080163
Si Si4 0.124784 0.111302 0.931073
Si Si5 0.520366 0.214085 0.849743
Si Si6 0.893264 0.210916 0.429934
Si Si7 0.916287 0.775729 0.725750
Si Si8 0.851157 0.611178 0.825250
O O1 0.525079 0.251449 0.115914
O O2 0.433413 0.213394 0.234934
O O3 0.732830 0.139979 0.305137
O O4 0.331082 0.085945 0.069359
O O5 0.293922 0.905977 0.387368
O O6 0.004892 0.982527 0.168351
O O7 0.975120 0.962473 0.319347
O O8 0.180757 0.114073 0.343816
O O9 0.844895 0.219655 0.177624
O O10 0.526468 0.254404 0.946263
O O11 0.163765 0.181065 0.867752
O O12 0.001880 0.196704 0.928639
O O13 0.750745 0.222953 0.927383
O O14 0.387622 0.106593 0.783286
O O15 0.042361 0.127487 0.539646
O O16 0.879989 0.730858 0.798968
#
# Coordination Sequence:
#
# PCOD9239261 Si02
#       8
#     4   4   4   4   4   4   4   4
#     4  10  18  32  62  82 106 146 184 226 274 326
#     4  10  19  35  57  80 111 146 182 226 272 326
#     4  10  18  36  58  76 112 148 182 222 280 322
#     4  10  19  36  57  81 106 147 182 222 280 324
#     4  10  18  32  62  82 106 146 184 226 274 326
#     4  10  16  34  62  74 114 144 180 226 282 314
#     4  10  19  35  57  80 111 146 182 226 272 326
#     4  10  19  36  57  81 106 147 182 222 280 324
#
# _framework density 23.365017999999999
#
# number of rings (size 3 to 8) (size 9 to 14) (size 15 to 20)
#    0.750    1.500    6.250    1.500    0.000    0.000 
#    0.000    6.250    0.000    6.000    0.000    0.000 
#    0.000    0.000    0.000    0.000    0.000    0.000 
#
# Total GULP energy -178178.107945 kJ/mol
# GULP energy per Si atom -5568.065873 kJ/mol
# Density = 2.331184 g / cm^3
# Si number density = 23.365018 Si / 1000 Ang^3
#
#
#
# Elastic Constant Matrix: (Units=GPa)
#
#
# Indices 1 2 3 4 5 6 
#
# 1 73.9431 -3.5373 10.2888 0.0000 -10.6204 0.0000
# 2 -3.5373 25.7619 -3.0524 0.0000 -1.6139 0.0000
# 3 10.2888 -3.0524 147.1135 0.0000 -1.9387 0.0000
# 4 0.0000 0.0000 0.0000 11.3485 0.0000 5.4443
# 5 -10.6204 -1.6139 -1.9387 0.0000 37.6938 0.0000
# 6 0.0000 0.0000 0.0000 5.4443 0.0000 14.4729
#
#
#
# Elastic Compliance Matrix: (Units=1/GPa)
#
#
# Indices 1 2 3 4 5 6 
#
# 1 0.014338 0.002117 -0.000905 0.000000 0.004084 0.000000
# 2 0.002117 0.039336 0.000699 0.000000 0.002317 0.000000
# 3 -0.000905 0.000699 0.006877 0.000000 0.000129 0.000000
# 4 0.000000 0.000000 0.000000 0.107522 0.000000 -0.040447
# 5 0.004084 0.002317 0.000129 0.000000 0.027786 0.000000
# 6 0.000000 0.000000 0.000000 -0.040447 0.000000 0.084310
#
#
# Mechanical properties :
#
#
# Convention : Reuss Voigt Hill
#
# Bulk Modulus (GPa) = 15.53471 28.24631 21.89051
# Shear Modulus (GPa) = 16.78959 28.91099 22.85029
#
# Velocity S-wave (km/s) = 2.68354 3.52143 3.13064
# Velocity P-wave (km/s) = 4.03299 5.35251 4.73890
#
# Compressibility (1/GPa) = 0.06437196
#
# Stress axis : x y z
#
# Youngs Moduli (GPa) = 69.74626 25.42229 145.41319
#
# Poissons Ratio (x) = -0.05383 0.13160
# Poissons Ratio (y) = -0.14767 -0.10159
# Poissons Ratio (z) = 0.06312 -0.01776
#
# Static dielectric constant tensor:
#      x y z
#    x 1.924750 0.000000 0.076120 
#    y 0.000000 1.900420 0.000000 
#    z 0.076120 0.000000 1.997430 
# 
# From -- ./inp_files/57836.got.cif
#   From: 2010.05.17/outbox.cif.g08.bks.cpg/sg14_29_cif.got.tgz:57836.got - 2010.06.03 17:49:19.
