data_PCOD9239670
_publ_section_title
;
Structure prediction by ZEFSAII (Michael W. Deem and Ramdas Pophale) SiO2 
 PCOD9239670
Probable space group: P 21/C
;
_chemical_formula_sum "Si O2"
_cell_formula_units_Z 32
_cell_length_a 11.760431
_cell_length_b 8.027717
_cell_length_c 22.374473
_cell_angle_alpha 90.000000
_cell_angle_beta 136.223857
_cell_angle_gamma 90.000000
_cell_volume 1461.421182
_symmetry_space_group_name_H-M "P 21/C"
_symmetry_group_IT_number 14
_symmetry_cell_setting 'monoclinic'
loop_
_space_group_symop_operation_xyz
x,y,z
-x,1/2+y,1/2-z
-x,-y,-z
x,1/2-y,1/2+z
loop_
_atom_site_type_symbol
_atom_site_label
_atom_site_fract_x
_atom_site_fract_y
_atom_site_fract_z
Si Si1 0.659524 0.622376 0.697727
Si Si2 0.310024 0.187305 0.606330
Si Si3 0.607263 0.159551 0.809045
Si Si4 0.883580 0.681024 0.562728
Si Si5 0.391538 0.242858 0.945902
Si Si6 0.152312 0.559095 0.132173
Si Si7 0.805330 0.974042 0.792213
Si Si8 0.569303 0.090983 0.609525
O O1 0.485217 0.632446 0.664760
O O2 0.619888 0.614302 0.612899
O O3 0.759683 0.483317 0.771584
O O4 0.765504 0.790531 0.752861
O O5 0.461456 0.212603 0.708487
O O6 0.230365 0.338000 0.539035
O O7 0.405634 0.082687 0.589665
O O8 0.171475 0.098839 0.595344
O O9 0.737645 0.306039 0.860551
O O10 0.700440 0.008381 0.812157
O O11 0.771158 0.715762 0.576981
O O12 0.984427 0.849586 0.584607
O O13 0.010824 0.532670 0.624090
O O14 0.403577 0.421167 0.916919
O O15 0.536602 0.261107 0.050057
O O16 0.724616 0.098971 0.712545
#
# Coordination Sequence:
#
# PCOD9239670 Si02
#       8
#     4   4   4   4   4   4   4   4
#     4  10  18  30  50  74  98 125 162 205 244 286
#     4   9  17  32  54  75  98 125 163 203 243 287
#     4   9  17  32  53  73  92 123 164 206 246 287
#     4  10  20  32  49  72 102 135 161 192 238 296
#     4   9  17  29  49  72  97 126 164 201 236 282
#     4  10  19  31  51  77  99 123 162 208 245 280
#     4   9  18  32  51  70  96 131 161 196 248 294
#     4   8  15  30  51  71  90 126 167 199 233 285
#
# _framework density 21.896494000000001
#
# number of rings (size 3 to 8) (size 9 to 14) (size 15 to 20)
#    0.000    2.750    0.000    3.375    0.000    2.000 
#    0.000    2.500    0.000   27.000    0.000    0.000 
#    0.000    0.000    0.000    0.000    0.000    0.000 
#
# Total GULP energy -178338.147494 kJ/mol
# GULP energy per Si atom -5573.067109 kJ/mol
# Density = 2.184666 g / cm^3
# Si number density = 21.896494 Si / 1000 Ang^3
#
#
#
# Elastic Constant Matrix: (Units=GPa)
#
#
# Indices 1 2 3 4 5 6 
#
# 1 102.8967 5.4742 45.6011 0.0000 -18.0293 0.0000
# 2 5.4742 47.7144 3.7521 0.0000 2.0221 0.0000
# 3 45.6011 3.7521 40.5109 0.0000 -13.3234 0.0000
# 4 0.0000 0.0000 0.0000 14.7009 0.0000 8.4594
# 5 -18.0293 2.0221 -13.3234 0.0000 36.1795 0.0000
# 6 0.0000 0.0000 0.0000 8.4594 0.0000 6.8656
#
#
#
# Elastic Compliance Matrix: (Units=1/GPa)
#
#
# Indices 1 2 3 4 5 6 
#
# 1 0.019522 -0.000648 -0.021281 0.000000 0.001928 0.000000
# 2 -0.000648 0.021283 -0.001979 0.000000 -0.002241 0.000000
# 3 -0.021281 -0.001979 0.051624 0.000000 0.008517 0.000000
# 4 0.000000 0.000000 0.000000 0.233770 0.000000 -0.288039
# 5 0.001928 -0.002241 0.008517 0.000000 0.031862 0.000000
# 6 0.000000 0.000000 0.000000 -0.288039 0.000000 0.500561
#
#
# Mechanical properties :
#
#
# Convention : Reuss Voigt Hill
#
# Bulk Modulus (GPa) = 22.41490 33.41966 27.91728
# Shear Modulus (GPa) = 5.42707 20.63548 13.03127
#
# Velocity S-wave (km/s) = 1.57604 3.07320 2.44218
# Velocity P-wave (km/s) = 3.68386 5.28095 4.55298
#
# Compressibility (1/GPa) = 0.04461318
#
# Stress axis : x y z
#
# Youngs Moduli (GPa) = 51.22480 46.98594 19.37093
#
# Poissons Ratio (x) = 0.03044 0.41223
# Poissons Ratio (y) = 0.03319 0.03833
# Poissons Ratio (z) = 1.09010 0.09298
#
# Static dielectric constant tensor:
#      x y z
#    x 1.779230 0.000000 -0.014930 
#    y 0.000000 1.899430 0.000000 
#    z -0.014930 0.000000 1.861290 
# 
# From -- ./inp_files/73001.got.cif
#   From: 2010.05.17/outbox.cif.g08.bks.cpg/sg14_37_cif.got.tgz:73001.got - 2010.06.03 17:49:19.
