data_PCOD9239697
_publ_section_title
;
Structure prediction by ZEFSAII (Michael W. Deem and Ramdas Pophale) SiO2 
 PCOD9239697
Probable space group: P 21/C
;
_chemical_formula_sum "Si O2"
_cell_formula_units_Z 28
_cell_length_a 7.895329
_cell_length_b 13.833301
_cell_length_c 10.895345
_cell_angle_alpha 90.000000
_cell_angle_beta 94.641025
_cell_angle_gamma 90.000000
_cell_volume 1186.071146
_symmetry_space_group_name_H-M "P 21/C"
_symmetry_group_IT_number 14
_symmetry_cell_setting 'monoclinic'
loop_
_space_group_symop_operation_xyz
x,y,z
-x,1/2+y,1/2-z
-x,-y,-z
x,1/2-y,1/2+z
loop_
_atom_site_type_symbol
_atom_site_label
_atom_site_fract_x
_atom_site_fract_y
_atom_site_fract_z
Si Si1 0.798994 0.085419 0.577388
Si Si2 0.198781 0.965021 0.164451
Si Si3 0.910704 0.655333 0.061361
Si Si4 0.052612 0.129631 0.020767
Si Si5 0.551182 0.213646 0.813370
Si Si6 0.438537 0.167127 0.537017
Si Si7 0.866026 0.207133 0.212219
O O1 0.932284 0.091398 0.476213
O O2 0.843952 0.188330 0.649033
O O3 0.821110 0.012910 0.692726
O O4 0.603618 0.099777 0.533069
O O5 0.353933 0.889528 0.158577
O O6 0.198239 0.062237 0.084730
O O7 0.027219 0.912346 0.107503
O O8 0.899318 0.759862 0.992050
O O9 0.733422 0.611618 0.006350
O O10 0.964449 0.690045 0.199425
O O11 0.889499 0.131320 0.104082
O O12 0.445808 0.203291 0.679659
O O13 0.701367 0.291034 0.789762
O O14 0.460856 0.251242 0.931295
#
# Coordination Sequence:
#
# PCOD9239697 Si02
#       7
#     4   4   4   4   4   4   4
#     4   9  18  35  51  74 107 142 172 224 263 323
#     4   9  17  33  55  75 114 141 175 215 285 318
#     4  11  19  33  55  83 104 135 184 229 257 319
#     4  10  18  30  54  87 102 142 178 225 267 332
#     4  10  18  36  52  78 108 146 177 229 268 328
#     4  10  21  30  56  81 105 140 185 221 280 307
#     4   9  17  31  54  75 105 132 179 223 262 302
#
# _framework density 23.607351000000001
#
# number of rings (size 3 to 8) (size 9 to 14) (size 15 to 20)
#    0.000    2.571    4.286    1.714    4.000    0.000 
#    0.000    1.429    0.000   15.429    0.000    0.000 
#    0.000    0.000    0.000    0.000    0.000    0.000 
#
# Total GULP energy -156091.345571 kJ/mol
# GULP energy per Si atom -5574.690913 kJ/mol
# Density = 2.355362 g / cm^3
# Si number density = 23.607351 Si / 1000 Ang^3
#
#
#
# Elastic Constant Matrix: (Units=GPa)
#
#
# Indices 1 2 3 4 5 6 
#
# 1 92.6647 -4.6941 30.1099 0.0000 33.3557 0.0000
# 2 -4.6941 39.2526 7.2409 0.0000 10.9139 0.0000
# 3 30.1099 7.2409 104.5018 0.0000 29.1561 0.0000
# 4 0.0000 0.0000 0.0000 29.9816 0.0000 6.5468
# 5 33.3557 10.9139 29.1561 0.0000 36.5362 0.0000
# 6 0.0000 0.0000 0.0000 6.5468 0.0000 12.3403
#
#
#
# Elastic Compliance Matrix: (Units=1/GPa)
#
#
# Indices 1 2 3 4 5 6 
#
# 1 0.017813 0.007228 -0.000635 0.000000 -0.017914 0.000000
# 2 0.007228 0.030737 0.000245 0.000000 -0.015976 0.000000
# 3 -0.000635 0.000245 0.012342 0.000000 -0.009342 0.000000
# 4 0.000000 0.000000 0.000000 0.037724 0.000000 -0.020013
# 5 -0.017914 -0.015976 -0.009342 0.000000 0.055952 0.000000
# 6 0.000000 0.000000 0.000000 -0.020013 0.000000 0.091653
#
#
# Mechanical properties :
#
#
# Convention : Reuss Voigt Hill
#
# Bulk Modulus (GPa) = 13.41059 33.52582 23.46820
# Shear Modulus (GPa) = 19.42500 29.35578 24.39039
#
# Velocity S-wave (km/s) = 2.87163 3.53016 3.21778
# Velocity P-wave (km/s) = 4.08509 5.55412 4.87526
#
# Compressibility (1/GPa) = 0.07456795
#
# Stress axis : x y z
#
# Youngs Moduli (GPa) = 56.13999 32.53378 81.02631
#
# Poissons Ratio (x) = -0.23516 0.05145
# Poissons Ratio (y) = -0.40579 -0.01985
# Poissons Ratio (z) = 0.03565 -0.00797
#
# Static dielectric constant tensor:
#      x y z
#    x 1.935840 0.000000 -0.059370 
#    y 0.000000 1.970080 0.000000 
#    z -0.059370 0.000000 1.948620 
# 
# From -- ./inp_files/25798.got.cif
#   From: 2010.05.17/outbox.cif.g08.bks.cpg/sg14_13_cif.got.tgz:25798.got - 2010.06.03 17:49:19.
