data_PCOD9239750
_publ_section_title
;
Structure prediction by ZEFSAII (Michael W. Deem and Ramdas Pophale) SiO2 
 PCOD9239750
Probable space group: P 21/C
;
_chemical_formula_sum "Si O2"
_cell_formula_units_Z 28
_cell_length_a 14.563674
_cell_length_b 19.378153
_cell_length_c 4.928769
_cell_angle_alpha 90.000000
_cell_angle_beta 82.682359
_cell_angle_gamma 90.000000
_cell_volume 1379.653733
_symmetry_space_group_name_H-M "P 21/C"
_symmetry_group_IT_number 14
_symmetry_cell_setting 'monoclinic'
loop_
_space_group_symop_operation_xyz
x,y,z
-x,1/2+y,1/2-z
-x,-y,-z
x,1/2-y,1/2+z
loop_
_atom_site_type_symbol
_atom_site_label
_atom_site_fract_x
_atom_site_fract_y
_atom_site_fract_z
Si Si1 0.279432 0.699174 0.862626
Si Si2 0.927131 0.295855 0.994304
Si Si3 0.308437 0.378637 0.834634
Si Si4 0.615959 0.952261 0.196597
Si Si5 0.516034 0.793372 0.646428
Si Si6 0.872669 0.799951 0.458234
Si Si7 0.419719 0.595091 0.553938
O O1 0.292819 0.761552 0.641736
O O2 0.345387 0.636720 0.757168
O O3 0.172700 0.673316 0.899305
O O4 0.928658 0.273686 0.679802
O O5 0.024136 0.330341 0.034820
O O6 0.324357 0.402661 0.521990
O O7 0.377132 0.314588 0.864607
O O8 0.206376 0.354791 0.947307
O O9 0.348897 0.438624 0.014434
O O10 0.508479 0.930221 0.195860
O O11 0.622823 0.029256 0.082183
O O12 0.497991 0.772470 0.345462
O O13 0.459621 0.854858 0.804196
O O14 0.863800 0.764898 0.168321
#
# Coordination Sequence:
#
# PCOD9239750 Si02
#       7
#     4   4   4   4   4   4   4
#     4  10  20  34  55  81 105 130 165 214 263 304
#     4   8  16  30  49  77 105 129 161 200 255 317
#     4  11  21  36  52  74 105 135 172 210 249 300
#     4  10  24  37  52  72 100 144 182 209 239 300
#     4  11  21  32  50  76 101 124 159 209 256 299
#     4  10  18  31  54  79 105 134 162 206 264 311
#     4  10  22  38  54  72 103 140 177 210 254 299
#
# _framework density 20.294947000000001
#
# number of rings (size 3 to 8) (size 9 to 14) (size 15 to 20)
#    0.000    2.000    0.000    4.286    0.000    9.714 
#    0.000    0.000    0.000    1.714    0.000    0.000 
#    0.000    0.000    0.000    0.000    0.000    0.000 
#
# Total GULP energy -156543.294451 kJ/mol
# GULP energy per Si atom -5590.831945 kJ/mol
# Density = 2.024876 g / cm^3
# Si number density = 20.294947 Si / 1000 Ang^3
#
#
#
# Elastic Constant Matrix: (Units=GPa)
#
#
# Indices 1 2 3 4 5 6 
#
# 1 110.1218 24.7066 14.6834 0.0000 -33.6125 0.0000
# 2 24.7066 50.3031 -2.8344 0.0000 -10.2023 0.0000
# 3 14.6834 -2.8344 74.6736 0.0000 -2.0621 0.0000
# 4 0.0000 0.0000 0.0000 16.1490 0.0000 -1.4179
# 5 -33.6125 -10.2023 -2.0621 0.0000 36.8924 0.0000
# 6 0.0000 0.0000 0.0000 -1.4179 0.0000 18.2373
#
#
#
# Elastic Compliance Matrix: (Units=1/GPa)
#
#
# Indices 1 2 3 4 5 6 
#
# 1 0.013910 -0.004701 -0.002604 0.000000 0.011227 0.000000
# 2 -0.004701 0.022719 0.001845 0.000000 0.002102 0.000000
# 3 -0.002604 0.001845 0.013944 0.000000 -0.001083 0.000000
# 4 0.000000 0.000000 0.000000 0.062349 0.000000 0.004848
# 5 0.011227 0.002102 -0.001083 0.000000 0.037856 0.000000
# 6 0.000000 0.000000 0.000000 0.004848 0.000000 0.055210
#
#
# Mechanical properties :
#
#
# Convention : Reuss Voigt Hill
#
# Bulk Modulus (GPa) = 25.21929 34.24553 29.73241
# Shear Modulus (GPa) = 21.72736 27.49193 24.60965
#
# Velocity S-wave (km/s) = 3.27552 3.68451 3.48602
# Velocity P-wave (km/s) = 5.17289 5.91704 5.55743
#
# Compressibility (1/GPa) = 0.03965219
#
# Stress axis : x y z
#
# Youngs Moduli (GPa) = 71.89193 44.01605 71.71704
#
# Poissons Ratio (x) = 0.20694 0.18672
# Poissons Ratio (y) = 0.33800 -0.13231
# Poissons Ratio (z) = 0.18717 -0.08120
#
# Static dielectric constant tensor:
#      x y z
#    x 1.771920 0.000000 -0.002490 
#    y 0.000000 1.704250 0.000000 
#    z -0.002490 0.000000 1.723830 
# 
# From -- ./inp_files/3721.got.cif
#   From: 2010.05.17/outbox.cif.g08.bks.cpg/sg14_2_cif.got.tgz:3721.got - 2010.06.03 17:49:19.
