data_PCOD9239363
_publ_section_title
;
Structure prediction by ZEFSAII (Michael W. Deem and Ramdas Pophale) SiO2 
 PCOD9239363
Probable space group: P 21/C
;
_chemical_formula_sum "Si O2"
_cell_formula_units_Z 32
_cell_length_a 13.349307
_cell_length_b 10.700795
_cell_length_c 14.733053
_cell_angle_alpha 90.000000
_cell_angle_beta 33.005574
_cell_angle_gamma 90.000000
_cell_volume 1146.413610
_symmetry_space_group_name_H-M "P 21/C"
_symmetry_group_IT_number 14
_symmetry_cell_setting 'monoclinic'
loop_
_space_group_symop_operation_xyz
x,y,z
-x,1/2+y,1/2-z
-x,-y,-z
x,1/2-y,1/2+z
loop_
_atom_site_type_symbol
_atom_site_label
_atom_site_fract_x
_atom_site_fract_y
_atom_site_fract_z
Si Si1 0.214393 0.146485 0.089898
Si Si2 0.663488 0.093140 0.747651
Si Si3 0.873031 0.934489 0.023720
Si Si4 0.683189 0.212566 0.914234
Si Si5 0.701764 0.486922 0.890211
Si Si6 0.757949 0.757697 0.252574
Si Si7 0.724950 0.607317 0.059044
Si Si8 0.316760 0.669848 0.381873
O O1 0.434592 0.103148 0.917315
O O2 0.098103 0.065507 0.107158
O O3 0.177371 0.282744 0.071972
O O4 0.165322 0.158599 0.232884
O O5 0.741086 0.214742 0.636442
O O6 0.747605 0.971731 0.634706
O O7 0.716421 0.109731 0.812372
O O8 0.830294 0.797962 0.098664
O O9 0.710014 0.036808 0.146300
O O10 0.000000 0.000000 0.000000
O O11 0.460743 0.231152 0.085710
O O12 0.750159 0.181690 0.963958
O O13 0.758893 0.345937 0.822901
O O14 0.789788 0.610717 0.781132
O O15 0.500000 0.500000 0.000000
O O16 0.701345 0.500660 0.999079
O O17 0.534112 0.677211 0.221958
#
# Coordination Sequence:
#
# PCOD9239363 Si02
#       8
#     4   4   4   4   4   4   4   4
#     4   9  20  36  58  88 118 153 192 232 296 352
#     4  10  18  32  55  92 120 147 175 239 304 349
#     4  12  24  41  59  82 112 162 202 238 277 337
#     4  10  18  29  53  89 120 143 177 233 307 347
#     4   9  15  27  50  81 111 150 180 217 284 354
#     4   9  18  36  59  82 114 151 191 236 287 348
#     4  10  17  30  55  83 120 142 176 239 297 346
#     4  11  20  33  53  82 121 145 189 240 278 359
#
# _framework density 27.913136999999999
#
# number of rings (size 3 to 8) (size 9 to 14) (size 15 to 20)
#    0.000    2.000    2.500    6.000    0.000    0.500 
#    2.250    2.500    0.000    0.750    0.000    0.000 
#    0.000    0.000    0.000    0.000    0.000    0.000 
#
# Total GULP energy -178590.910645 kJ/mol
# GULP energy per Si atom -5580.965958 kJ/mol
# Density = 2.784961 g / cm^3
# Si number density = 27.913137 Si / 1000 Ang^3
#
#
#
# Elastic Constant Matrix: (Units=GPa)
#
#
# Indices 1 2 3 4 5 6 
#
# 1 112.2884 18.1261 45.8719 0.0000 35.0310 0.0000
# 2 18.1261 115.0946 13.2008 0.0000 16.5061 0.0000
# 3 45.8719 13.2008 69.9011 0.0000 26.2071 0.0000
# 4 0.0000 0.0000 0.0000 34.8812 0.0000 20.1227
# 5 35.0310 16.5061 26.2071 0.0000 44.5868 0.0000
# 6 0.0000 0.0000 0.0000 20.1227 0.0000 48.6459
#
#
#
# Elastic Compliance Matrix: (Units=1/GPa)
#
#
# Indices 1 2 3 4 5 6 
#
# 1 0.013713 -0.000446 -0.006333 0.000000 -0.006887 0.000000
# 2 -0.000446 0.009209 -0.000385 0.000000 -0.002833 0.000000
# 3 -0.006333 -0.000385 0.021312 0.000000 -0.007409 0.000000
# 4 0.000000 0.000000 0.000000 0.037654 0.000000 -0.015576
# 5 -0.006887 -0.002833 -0.007409 0.000000 0.033243 0.000000
# 6 0.000000 0.000000 0.000000 -0.015576 0.000000 0.027000
#
#
# Mechanical properties :
#
#
# Convention : Reuss Voigt Hill
#
# Bulk Modulus (GPa) = 33.43569 50.18684 41.81126
# Shear Modulus (GPa) = 30.04317 40.29513 35.16915
#
# Velocity S-wave (km/s) = 3.28427 3.80358 3.55343
# Velocity P-wave (km/s) = 5.13677 6.10805 5.64335
#
# Compressibility (1/GPa) = 0.02990816
#
# Stress axis : x y z
#
# Youngs Moduli (GPa) = 72.92213 108.58834 46.92148
#
# Poissons Ratio (x) = 0.04839 0.29716
# Poissons Ratio (y) = 0.03250 0.01804
# Poissons Ratio (z) = 0.46182 0.04175
#
# Static dielectric constant tensor:
#      x y z
#    x 2.183800 0.000000 -0.020440 
#    y 0.000000 2.365120 0.000000 
#    z -0.020440 0.000000 2.318260 
# 
# From -- ./inp_files/47115.got.cif
#   From: 2010.05.17/outbox.cif.g08.bks.cpg/sg14_24_cif.got.tgz:47115.got - 2010.06.03 17:49:19.
