data_PCOD9239160
_publ_section_title
;
Structure prediction by ZEFSAII (Michael W. Deem and Ramdas Pophale) SiO2 
 PCOD9239160
Probable space group: P 21/C
;
_chemical_formula_sum "Si O2"
_cell_formula_units_Z 24
_cell_length_a 14.559190
_cell_length_b 5.220779
_cell_length_c 26.758737
_cell_angle_alpha 90.000000
_cell_angle_beta 150.264804
_cell_angle_gamma 90.000000
_cell_volume 1008.818293
_symmetry_space_group_name_H-M "P 21/C"
_symmetry_group_IT_number 14
_symmetry_cell_setting 'monoclinic'
loop_
_space_group_symop_operation_xyz
x,y,z
-x,1/2+y,1/2-z
-x,-y,-z
x,1/2-y,1/2+z
loop_
_atom_site_type_symbol
_atom_site_label
_atom_site_fract_x
_atom_site_fract_y
_atom_site_fract_z
Si Si1 0.427344 0.427062 0.200184
Si Si2 0.103003 0.398055 0.318950
Si Si3 0.532015 0.381726 0.138961
Si Si4 0.389091 0.372418 0.377344
Si Si5 0.075037 0.396474 0.671134
Si Si6 0.053115 0.251094 0.555158
O O1 0.411860 0.723943 0.208501
O O2 0.415178 0.402493 0.134536
O O3 0.273690 0.277574 0.159944
O O4 0.312240 0.399313 0.397158
O O5 0.009935 0.126546 0.262084
O O6 0.068639 0.466322 0.360335
O O7 0.518229 0.116764 0.103517
O O8 0.750603 0.414360 0.257887
O O9 0.500640 0.615736 0.085404
O O10 0.191262 0.322191 0.255169
O O11 0.985677 0.283788 0.579500
O O12 0.000000 0.500000 0.500000
O O13 0.000000 0.000000 0.500000
#
# Coordination Sequence:
#
# PCOD9239160 Si02
#       6
#     4   4   4   4   4   4
#     4  12  22  39  63  83 110 158 207 244 292 338
#     4  10  16  27  50  80 116 137 174 236 312 338
#     4  10  18  30  54  79 109 135 187 234 288 327
#     4   9  17  29  50  86 111 133 180 244 298 330
#     4   9  20  33  53  77 116 146 185 235 293 337
#     4  12  27  40  56  85 123 160 198 239 291 352
#
# _framework density 23.790209000000001
#
# number of rings (size 3 to 8) (size 9 to 14) (size 15 to 20)
#    1.000    0.667    3.333    3.000    2.333    0.000 
#    0.000    0.000    0.000    0.000    0.000    7.000 
#    0.000    0.000    0.000    0.000    0.000    0.000 
#
# Total GULP energy -133874.630901 kJ/mol
# GULP energy per Si atom -5578.109621 kJ/mol
# Density = 2.373606 g / cm^3
# Si number density = 23.790209 Si / 1000 Ang^3
#
#
#
# Elastic Constant Matrix: (Units=GPa)
#
#
# Indices 1 2 3 4 5 6 
#
# 1 121.4111 -4.8352 -15.3583 0.0000 -7.0254 0.0000
# 2 -4.8352 123.5153 -5.5415 0.0000 3.4719 0.0000
# 3 -15.3583 -5.5415 20.4225 0.0000 -8.2901 0.0000
# 4 0.0000 0.0000 0.0000 7.8889 0.0000 -2.8073
# 5 -7.0254 3.4719 -8.2901 0.0000 16.1977 0.0000
# 6 0.0000 0.0000 0.0000 -2.8073 0.0000 43.1415
#
#
#
# Elastic Compliance Matrix: (Units=1/GPa)
#
#
# Indices 1 2 3 4 5 6 
#
# 1 0.010453 0.000664 0.012400 0.000000 0.010738 0.000000
# 2 0.000664 0.008246 0.002696 0.000000 -0.000100 0.000000
# 3 0.012400 0.002696 0.076959 0.000000 0.044188 0.000000
# 4 0.000000 0.000000 0.000000 0.129764 0.000000 0.008444
# 5 0.010738 -0.000100 0.044188 0.000000 0.089031 0.000000
# 6 0.000000 0.000000 0.000000 0.008444 0.000000 0.023729
#
#
# Mechanical properties :
#
#
# Convention : Reuss Voigt Hill
#
# Bulk Modulus (GPa) = 7.86309 23.76431 15.81370
# Shear Modulus (GPa) = 14.32434 32.85123 23.58778
#
# Velocity S-wave (km/s) = 2.45646 3.72004 3.15221
# Velocity P-wave (km/s) = 3.37015 5.33502 4.46208
#
# Compressibility (1/GPa) = 0.12717643
#
# Stress axis : x y z
#
# Youngs Moduli (GPa) = 95.66856 121.27226 12.99389
#
# Poissons Ratio (x) = -0.08048 -0.16112
# Poissons Ratio (y) = -0.06349 -0.03503
# Poissons Ratio (z) = -1.18625 -0.32696
#
# Static dielectric constant tensor:
#      x y z
#    x 1.925210 0.000000 0.099650 
#    y 0.000000 1.998630 0.000000 
#    z 0.099650 0.000000 2.175470 
# 
# From -- ./inp_files/80099.got.cif
#   From: 2010.05.17/outbox.cif.g08.bks.cpg/sg14_41_cif.got.tgz:80099.got - 2010.06.03 17:49:19.
