data_PCOD9239676
_publ_section_title
;
Structure prediction by ZEFSAII (Michael W. Deem and Ramdas Pophale) SiO2 
 PCOD9239676
Probable space group: P 21/C
;
_chemical_formula_sum "Si O2"
_cell_formula_units_Z 28
_cell_length_a 11.305832
_cell_length_b 13.477713
_cell_length_c 11.631662
_cell_angle_alpha 90.000000
_cell_angle_beta 38.476138
_cell_angle_gamma 90.000000
_cell_volume 1102.764024
_symmetry_space_group_name_H-M "P 21/C"
_symmetry_group_IT_number 14
_symmetry_cell_setting 'monoclinic'
loop_
_space_group_symop_operation_xyz
x,y,z
-x,1/2+y,1/2-z
-x,-y,-z
x,1/2-y,1/2+z
loop_
_atom_site_type_symbol
_atom_site_label
_atom_site_fract_x
_atom_site_fract_y
_atom_site_fract_z
Si Si1 0.149488 0.317451 0.974835
Si Si2 0.353947 0.471211 0.264422
Si Si3 0.182100 0.540818 0.746570
Si Si4 0.127457 0.362750 0.639915
Si Si5 0.229586 0.785930 0.347045
Si Si6 0.430488 0.851697 0.865140
Si Si7 0.287863 0.881142 0.623135
O O1 0.165511 0.252132 0.079821
O O2 0.036180 0.419781 0.087574
O O3 0.996462 0.269311 0.002374
O O4 0.357370 0.322544 0.765504
O O5 0.221674 0.416849 0.457223
O O6 0.454839 0.562709 0.251553
O O7 0.249587 0.526272 0.238872
O O8 0.517451 0.402905 0.089086
O O9 0.192965 0.426775 0.700689
O O10 0.263829 0.596855 0.797817
O O11 0.299886 0.598261 0.559672
O O12 0.901091 0.373313 0.807926
O O13 0.318650 0.738106 0.390736
O O14 0.311233 0.718697 0.180582
#
# Coordination Sequence:
#
# PCOD9239676 Si02
#       7
#     4   4   4   4   4   4   4
#     4   9  20  34  52  78  99 142 174 205 262 305
#     4   9  18  27  49  78  97 132 162 205 274 313
#     4   9  20  36  51  78 105 137 170 215 259 298
#     4  10  18  30  51  72 102 133 171 214 243 309
#     4   8  19  35  49  77 105 133 171 212 251 308
#     4  10  18  36  52  73 110 134 169 215 254 308
#     4   9  16  30  47  74 106 125 158 214 268 312
#
# _framework density 25.390744999999999
#
# number of rings (size 3 to 8) (size 9 to 14) (size 15 to 20)
#    0.857    2.000    0.000    1.286    2.000    1.143 
#    2.571    0.714    0.000    0.857    0.000    0.000 
#    0.000    0.000    0.000    0.000    0.000    0.000 
#
# Total GULP energy -156462.968188 kJ/mol
# GULP energy per Si atom -5587.963150 kJ/mol
# Density = 2.533295 g / cm^3
# Si number density = 25.390745 Si / 1000 Ang^3
#
#
#
# Elastic Constant Matrix: (Units=GPa)
#
#
# Indices 1 2 3 4 5 6 
#
# 1 84.9953 45.0280 44.8040 0.0000 -11.1796 0.0000
# 2 45.0280 108.5475 35.2638 0.0000 11.6702 0.0000
# 3 44.8040 35.2638 127.5042 0.0000 -6.1908 0.0000
# 4 0.0000 0.0000 0.0000 1.8259 0.0000 18.6866
# 5 -11.1796 11.6702 -6.1908 0.0000 12.2614 0.0000
# 6 0.0000 0.0000 0.0000 18.6866 0.0000 38.5663
#
#
#
# Elastic Compliance Matrix: (Units=1/GPa)
#
#
# Indices 1 2 3 4 5 6 
#
# 1 0.024564 -0.012517 -0.003592 0.000000 0.032496 0.000000
# 2 -0.012517 0.018308 -0.002117 0.000000 -0.029906 0.000000
# 3 -0.003592 -0.002117 0.009872 0.000000 0.003724 0.000000
# 4 0.000000 0.000000 0.000000 -0.138345 0.000000 0.067033
# 5 0.032496 -0.029906 0.003724 0.000000 0.141531 0.000000
# 6 0.000000 0.000000 0.000000 0.067033 0.000000 -0.006550
#
#
# Mechanical properties :
#
#
# Convention : Reuss Voigt Hill
#
# Bulk Modulus (GPa) = 61.38118 63.47095 62.42607
# Shear Modulus (GPa) = 54.78765 23.59413 39.19089
#
# Velocity S-wave (km/s) = 4.65023 3.05165 3.93302
# Velocity P-wave (km/s) = 7.28423 6.12117 6.72788
#
# Compressibility (1/GPa) = 0.01629164
#
# Stress axis : x y z
#
# Youngs Moduli (GPa) = 40.70980 54.62142 101.30160
#
# Poissons Ratio (x) = 0.68367 0.36389
# Poissons Ratio (y) = 0.50955 0.21448
# Poissons Ratio (z) = 0.14623 0.11565
#
# Static dielectric constant tensor:
#      x y z
#    x 2.014770 0.000000 0.062870 
#    y 0.000000 2.073080 0.000000 
#    z 0.062870 0.000000 1.959200 
# 
# From -- ./inp_files/47353.got.cif
#   From: 2010.05.17/outbox.cif.g08.bks.cpg/sg14_24_cif.got.tgz:47353.got - 2010.06.03 17:49:19.
