data_PCOD9239327
_publ_section_title
;
Structure prediction by ZEFSAII (Michael W. Deem and Ramdas Pophale) SiO2 
 PCOD9239327
Probable space group: P 21/C
;
_chemical_formula_sum "Si O2"
_cell_formula_units_Z 32
_cell_length_a 18.713940
_cell_length_b 8.642885
_cell_length_c 23.162543
_cell_angle_alpha 90.000000
_cell_angle_beta 155.652329
_cell_angle_gamma 90.000000
_cell_volume 1544.523753
_symmetry_space_group_name_H-M "P 21/C"
_symmetry_group_IT_number 14
_symmetry_cell_setting 'monoclinic'
loop_
_space_group_symop_operation_xyz
x,y,z
-x,1/2+y,1/2-z
-x,-y,-z
x,1/2-y,1/2+z
loop_
_atom_site_type_symbol
_atom_site_label
_atom_site_fract_x
_atom_site_fract_y
_atom_site_fract_z
Si Si1 0.118968 0.800062 0.172816
Si Si2 0.967344 0.997688 0.596046
Si Si3 0.051223 0.715550 0.488918
Si Si4 0.308676 0.084460 0.324355
Si Si5 0.640577 0.488085 0.013614
Si Si6 0.050859 0.779967 0.310922
Si Si7 0.727878 0.712554 0.987705
Si Si8 0.175093 0.991055 0.985119
O O1 0.116589 0.625673 0.192637
O O2 0.291939 0.898091 0.304057
O O3 0.983855 0.897324 0.112502
O O4 0.061840 0.808251 0.064440
O O5 0.929373 0.106844 0.514342
O O6 0.007640 0.108360 0.679731
O O7 0.800323 0.895843 0.490004
O O8 0.860610 0.663507 0.326480
O O9 0.189162 0.616854 0.552286
O O10 0.481704 0.119638 0.416791
O O11 0.313140 0.094231 0.396655
O O12 0.798665 0.376870 0.110742
O O13 0.601627 0.605735 0.932465
O O14 0.124771 0.624942 0.396140
O O15 0.893389 0.739800 0.152607
O O16 0.682961 0.882798 0.930432
#
# Coordination Sequence:
#
# PCOD9239327 Si02
#       8
#     4   4   4   4   4   4   4   4
#     4  10  18  32  53  73  98 131 169 207 238 283
#     4   9  18  29  49  78  97 119 167 212 243 278
#     4  10  18  32  53  73  98 131 169 207 238 283
#     4  10  20  33  49  72 102 134 164 192 250 309
#     4  10  20  33  49  73 105 131 153 203 258 299
#     4  10  17  29  50  72  97 125 160 203 244 287
#     4  10  17  29  50  72  97 125 160 203 244 287
#     4   9  17  27  47  73  90 118 166 203 233 280
#
# _framework density 20.718360000000001
#
# number of rings (size 3 to 8) (size 9 to 14) (size 15 to 20)
#    0.000    2.250    0.000    7.875    0.000    0.000 
#    0.000    1.250    0.000   28.500    0.000    0.000 
#    0.000    0.000    0.000    0.000    0.000    0.000 
#
# Total GULP energy -178364.662762 kJ/mol
# GULP energy per Si atom -5573.895711 kJ/mol
# Density = 2.067120 g / cm^3
# Si number density = 20.718360 Si / 1000 Ang^3
#
#
#
# Elastic Constant Matrix: (Units=GPa)
#
#
# Indices 1 2 3 4 5 6 
#
# 1 103.9756 28.2603 22.3383 0.0000 -0.5485 0.0000
# 2 28.2603 109.0839 0.2374 0.0000 -2.3390 0.0000
# 3 22.3383 0.2374 16.3233 0.0000 -3.6046 0.0000
# 4 0.0000 0.0000 0.0000 10.3200 0.0000 -2.6395
# 5 -0.5485 -2.3390 -3.6046 0.0000 15.4948 0.0000
# 6 0.0000 0.0000 0.0000 -2.6395 0.0000 28.4113
#
#
#
# Elastic Compliance Matrix: (Units=1/GPa)
#
#
# Indices 1 2 3 4 5 6 
#
# 1 0.015488 -0.004077 -0.022296 0.000000 -0.005254 0.000000
# 2 -0.004077 0.010271 0.006051 0.000000 0.002814 0.000000
# 3 -0.022296 0.006051 0.096680 0.000000 0.022615 0.000000
# 4 0.000000 0.000000 0.000000 0.099257 0.000000 0.009221
# 5 -0.005254 0.002814 0.022615 0.000000 0.070038 0.000000
# 6 0.000000 0.000000 0.000000 0.009221 0.000000 0.036054
#
#
# Mechanical properties :
#
#
# Convention : Reuss Voigt Hill
#
# Bulk Modulus (GPa) = 12.22572 36.78385 24.50479
# Shear Modulus (GPa) = 12.63593 22.74834 17.69213
#
# Velocity S-wave (km/s) = 2.47228 3.31717 2.92539
# Velocity P-wave (km/s) = 3.75010 5.69774 4.82325
#
# Compressibility (1/GPa) = 0.08179475
#
# Stress axis : x y z
#
# Youngs Moduli (GPa) = 64.56576 97.36585 10.34338
#
# Poissons Ratio (x) = 0.39692 0.23062
# Poissons Ratio (y) = 0.26321 -0.06259
# Poissons Ratio (z) = 1.43957 -0.58914
#
# Static dielectric constant tensor:
#      x y z
#    x 1.805290 0.000000 0.013740 
#    y 0.000000 1.832210 0.000000 
#    z 0.013740 0.000000 1.754140 
# 
# From -- ./inp_files/74189.got.cif
#   From: 2010.05.17/outbox.cif.g08.bks.cpg/sg14_38_cif.got.tgz:74189.got - 2010.06.03 17:49:19.
