data_PCOD9239482
_publ_section_title
;
Structure prediction by ZEFSAII (Michael W. Deem and Ramdas Pophale) SiO2 
 PCOD9239482
Probable space group: P 21/C
;
_chemical_formula_sum "Si O2"
_cell_formula_units_Z 28
_cell_length_a 9.450778
_cell_length_b 18.285234
_cell_length_c 15.597685
_cell_angle_alpha 90.000000
_cell_angle_beta 146.259755
_cell_angle_gamma 90.000000
_cell_volume 1497.119669
_symmetry_space_group_name_H-M "P 21/C"
_symmetry_group_IT_number 14
_symmetry_cell_setting 'monoclinic'
loop_
_space_group_symop_operation_xyz
x,y,z
-x,1/2+y,1/2-z
-x,-y,-z
x,1/2-y,1/2+z
loop_
_atom_site_type_symbol
_atom_site_label
_atom_site_fract_x
_atom_site_fract_y
_atom_site_fract_z
Si Si1 0.164651 0.139030 0.922894
Si Si2 0.768600 0.741599 0.177076
Si Si3 0.994940 0.087294 0.012447
Si Si4 0.898953 0.026894 0.661268
Si Si5 0.647657 0.062443 0.128052
Si Si6 0.619466 0.913411 0.645603
Si Si7 0.284162 0.674129 0.490392
O O1 0.198020 0.217955 0.897093
O O2 0.039927 0.091304 0.783676
O O3 0.003216 0.129588 0.927002
O O4 0.438007 0.101323 0.080780
O O5 0.644965 0.661535 0.105720
O O6 0.044951 0.729941 0.360769
O O7 0.559792 0.787948 0.125686
O O8 0.243944 0.101657 0.195881
O O9 0.768046 0.119812 0.956567
O O10 0.000000 0.000000 0.000000
O O11 0.667356 0.059471 0.491325
O O12 0.776974 0.975049 0.673445
O O13 0.103388 0.978619 0.712594
O O14 0.731273 0.123924 0.102251
O O15 0.500000 0.000000 0.000000
#
# Coordination Sequence:
#
# PCOD9239482 Si02
#       7
#     4   4   4   4   4   4   4
#     4  10  20  32  60  86 113 145 197 241 285 345
#     4  10  20  37  54  85 113 160 192 235 285 358
#     4  11  19  37  57  88 112 146 191 248 293 339
#     4  10  17  34  56  87 104 154 192 236 273 345
#     4   9  16  32  55  85 109 148 198 235 273 349
#     4  10  20  33  60  79 119 146 192 234 292 338
#     4  10  20  36  59  79 118 155 193 237 290 355
#
# _framework density 18.702577999999999
#
# number of rings (size 3 to 8) (size 9 to 14) (size 15 to 20)
#    0.000    2.000    4.286    1.714    0.000    0.000 
#    0.000    9.286    0.000    0.000    0.000    0.000 
#    0.000    0.000    0.000    0.000    0.000    0.000 
#
# Total GULP energy -155982.040501 kJ/mol
# GULP energy per Si atom -5570.787161 kJ/mol
# Density = 1.866001 g / cm^3
# Si number density = 18.702578 Si / 1000 Ang^3
#
#
#
# Elastic Constant Matrix: (Units=GPa)
#
#
# Indices 1 2 3 4 5 6 
#
# 1 60.0524 18.3573 4.1835 0.0000 9.1583 0.0000
# 2 18.3573 94.0298 18.7125 0.0000 4.8638 0.0000
# 3 4.1835 18.7125 44.8752 0.0000 17.8224 0.0000
# 4 0.0000 0.0000 0.0000 28.4078 0.0000 9.0443
# 5 9.1583 4.8638 17.8224 0.0000 26.6660 0.0000
# 6 0.0000 0.0000 0.0000 9.0443 0.0000 29.8387
#
#
#
# Elastic Compliance Matrix: (Units=1/GPa)
#
#
# Indices 1 2 3 4 5 6 
#
# 1 0.018801 -0.003852 0.002912 0.000000 -0.007701 0.000000
# 2 -0.003852 0.012432 -0.006058 0.000000 0.003104 0.000000
# 3 0.002912 -0.006058 0.033349 0.000000 -0.022184 0.000000
# 4 0.000000 0.000000 0.000000 0.038961 0.000000 -0.011809
# 5 -0.007701 0.003104 -0.022184 0.000000 0.054406 0.000000
# 6 0.000000 0.000000 0.000000 -0.011809 0.000000 0.037093
#
#
# Mechanical properties :
#
#
# Convention : Reuss Voigt Hill
#
# Bulk Modulus (GPa) = 19.76797 31.27377 25.52087
# Shear Modulus (GPa) = 22.13368 27.49612 24.81490
#
# Velocity S-wave (km/s) = 3.44387 3.83845 3.64650
# Velocity P-wave (km/s) = 5.13870 6.03348 5.60398
#
# Compressibility (1/GPa) = 0.05058688
#
# Stress axis : x y z
#
# Youngs Moduli (GPa) = 53.18844 80.43879 29.98586
#
# Poissons Ratio (x) = 0.30982 -0.08731
# Poissons Ratio (y) = 0.20486 0.18164
# Poissons Ratio (z) = -0.15487 0.48727
#
# Static dielectric constant tensor:
#      x y z
#    x 1.675740 0.000000 0.051690 
#    y 0.000000 1.813070 0.000000 
#    z 0.051690 0.000000 1.657920 
# 
# From -- ./inp_files/41816.got.cif
#   From: 2010.05.17/outbox.cif.g08.bks.cpg/sg14_21_cif.got.tgz:41816.got - 2010.06.03 17:49:19.
