data_PCOD9239499
_publ_section_title
;
Structure prediction by ZEFSAII (Michael W. Deem and Ramdas Pophale) SiO2 
 PCOD9239499
Probable space group: P 21/C
;
_chemical_formula_sum "Si O2"
_cell_formula_units_Z 32
_cell_length_a 8.550593
_cell_length_b 19.781910
_cell_length_c 11.479068
_cell_angle_alpha 90.000000
_cell_angle_beta 142.091548
_cell_angle_gamma 90.000000
_cell_volume 1192.953237
_symmetry_space_group_name_H-M "P 21/C"
_symmetry_group_IT_number 14
_symmetry_cell_setting 'monoclinic'
loop_
_space_group_symop_operation_xyz
x,y,z
-x,1/2+y,1/2-z
-x,-y,-z
x,1/2-y,1/2+z
loop_
_atom_site_type_symbol
_atom_site_label
_atom_site_fract_x
_atom_site_fract_y
_atom_site_fract_z
Si Si1 0.943773 0.410026 0.884296
Si Si2 0.806589 0.907259 0.829343
Si Si3 0.414755 0.017843 0.096606
Si Si4 0.890248 0.266078 0.835614
Si Si5 0.556848 0.770601 0.733743
Si Si6 0.289016 0.872873 0.279223
Si Si7 0.398436 0.127543 0.766319
Si Si8 0.897109 0.011314 0.686091
O O1 0.660810 0.436978 0.726581
O O2 0.918468 0.340052 0.796758
O O3 0.104983 0.476106 0.939417
O O4 0.095229 0.384486 0.087270
O O5 0.675477 0.966711 0.826389
O O6 0.629619 0.841344 0.716680
O O7 0.880943 0.944278 0.756129
O O8 0.054504 0.887615 0.051410
O O9 0.467797 0.939147 0.108542
O O10 0.179134 0.039688 0.877890
O O11 0.688510 0.275332 0.825445
O O12 0.775208 0.200328 0.704352
O O13 0.177696 0.245118 0.040749
O O14 0.530459 0.701180 0.644105
O O15 0.521663 0.869372 0.325229
O O16 0.291784 0.932375 0.375928
#
# Coordination Sequence:
#
# PCOD9239499 Si02
#       8
#     4   4   4   4   4   4   4   4
#     4  11  23  34  53  85 118 142 176 232 292 324
#     4  10  17  34  60  80 102 144 197 224 259 333
#     4  11  19  37  56  81 107 147 188 226 265 332
#     4   9  18  34  55  81 107 148 190 226 272 340
#     4   9  18  32  59  82 106 143 199 230 268 323
#     4   9  17  34  59  79 102 148 196 215 263 342
#     4  10  19  35  57  80 109 146 188 227 271 330
#     4  11  21  35  57  85 111 144 182 233 279 326
#
# _framework density 26.824186999999998
#
# number of rings (size 3 to 8) (size 9 to 14) (size 15 to 20)
#    0.000    2.000    3.750    1.500    0.000    0.500 
#    0.000    1.250    5.500    0.000    0.000    0.000 
#    0.000    0.000    0.000    0.000    0.000    0.000 
#
# Total GULP energy -178942.439965 kJ/mol
# GULP energy per Si atom -5591.951249 kJ/mol
# Density = 2.676313 g / cm^3
# Si number density = 26.824187 Si / 1000 Ang^3
#
#
#
# Elastic Constant Matrix: (Units=GPa)
#
#
# Indices 1 2 3 4 5 6 
#
# 1 66.6620 31.1476 25.4331 0.0000 16.7212 0.0000
# 2 31.1476 192.2413 36.6586 0.0000 5.7866 0.0000
# 3 25.4331 36.6586 110.4234 0.0000 26.0279 0.0000
# 4 0.0000 0.0000 0.0000 47.2813 0.0000 10.6210
# 5 16.7212 5.7866 26.0279 0.0000 37.0075 0.0000
# 6 0.0000 0.0000 0.0000 10.6210 0.0000 46.0295
#
#
#
# Elastic Compliance Matrix: (Units=1/GPa)
#
#
# Indices 1 2 3 4 5 6 
#
# 1 0.018534 -0.002443 -0.001887 0.000000 -0.006665 0.000000
# 2 -0.002443 0.005883 -0.001719 0.000000 0.001393 0.000000
# 3 -0.001887 -0.001719 0.011744 0.000000 -0.007138 0.000000
# 4 0.000000 0.000000 0.000000 0.022306 0.000000 -0.005147
# 5 -0.006665 0.001393 -0.007138 0.000000 0.034836 0.000000
# 6 0.000000 0.000000 0.000000 -0.005147 0.000000 0.022913
#
#
# Mechanical properties :
#
#
# Convention : Reuss Voigt Hill
#
# Bulk Modulus (GPa) = 41.55446 61.75614 51.65530
# Shear Modulus (GPa) = 36.67457 44.46950 40.57204
#
# Velocity S-wave (km/s) = 3.70161 4.07604 3.89333
# Velocity P-wave (km/s) = 5.81328 6.72493 6.28566
#
# Compressibility (1/GPa) = 0.02406480
#
# Stress axis : x y z
#
# Youngs Moduli (GPa) = 53.95466 169.97000 85.15106
#
# Poissons Ratio (x) = 0.41515 0.16067
# Poissons Ratio (y) = 0.13178 0.14636
# Poissons Ratio (z) = 0.10181 0.29215
#
# Static dielectric constant tensor:
#      x y z
#    x 2.138380 0.000000 -0.005950 
#    y 0.000000 2.110460 0.000000 
#    z -0.005950 0.000000 2.104110 
# 
# From -- ./inp_files/26791.got.cif
#   From: 2010.05.17/outbox.cif.g08.bks.cpg/sg14_14_cif.got.tgz:26791.got - 2010.06.03 17:49:19.
