data_PCOD9239137
_publ_section_title
;
Structure prediction by ZEFSAII (Michael W. Deem and Ramdas Pophale) SiO2 
 PCOD9239137
Probable space group: P 21/C
;
_chemical_formula_sum "Si O2"
_cell_formula_units_Z 32
_cell_length_a 9.874277
_cell_length_b 21.256343
_cell_length_c 17.376233
_cell_angle_alpha 90.000000
_cell_angle_beta 155.570435
_cell_angle_gamma 90.000000
_cell_volume 1508.353112
_symmetry_space_group_name_H-M "P 21/C"
_symmetry_group_IT_number 14
_symmetry_cell_setting 'monoclinic'
loop_
_space_group_symop_operation_xyz
x,y,z
-x,1/2+y,1/2-z
-x,-y,-z
x,1/2-y,1/2+z
loop_
_atom_site_type_symbol
_atom_site_label
_atom_site_fract_x
_atom_site_fract_y
_atom_site_fract_z
Si Si1 0.550511 0.161621 0.963946
Si Si2 0.178027 0.992886 0.280824
Si Si3 0.618806 0.116881 0.831815
Si Si4 0.313385 0.298034 0.864521
Si Si5 0.245294 0.942988 0.819426
Si Si6 0.547315 0.623475 0.918826
Si Si7 0.320139 0.390517 0.741398
Si Si8 0.365389 0.980938 0.711820
O O1 0.543378 0.108511 0.025571
O O2 0.932637 0.182637 0.162584
O O3 0.469414 0.135158 0.837201
O O4 0.348839 0.224005 0.875924
O O5 0.248076 0.926158 0.276908
O O6 0.500000 0.000000 0.500000
O O7 0.196649 0.051664 0.231991
O O8 0.874019 0.004594 0.180621
O O9 0.462553 0.145379 0.674371
O O10 0.585655 0.041420 0.806509
O O11 0.997806 0.135346 0.033098
O O12 0.469620 0.337769 0.874613
O O13 0.464075 0.323506 0.021895
O O14 0.392056 0.966970 0.815724
O O15 0.895887 0.911163 0.613397
O O16 0.546142 0.421649 0.794652
O O17 0.000000 0.000000 0.500000
#
# Coordination Sequence:
#
# PCOD9239137 Si02
#       8
#     4   4   4   4   4   4   4   4
#     4  10  23  45  61  85 123 166 211 257 304 366
#     4  10  15  34  64  86 115 162 199 231 310 379
#     4  11  22  40  61  91 127 159 196 261 316 367
#     4  10  22  44  64  82 117 169 217 246 301 377
#     4  10  20  39  59  90 130 158 194 259 302 362
#     4  10  19  36  66  87 116 165 202 239 309 383
#     4  11  21  39  62  87 126 164 200 250 309 379
#     4  12  23  35  62 100 130 153 203 258 317 366
#
# _framework density 21.21519
#
# number of rings (size 3 to 8) (size 9 to 14) (size 15 to 20)
#    0.000    1.500    7.500    1.125    0.000    1.500 
#    4.500    2.500    0.000    0.000    0.000    0.000 
#    0.000    0.000    0.000    0.000    0.000    0.000 
#
# Total GULP energy -178795.647754 kJ/mol
# GULP energy per Si atom -5587.363992 kJ/mol
# Density = 2.116690 g / cm^3
# Si number density = 21.215190 Si / 1000 Ang^3
#
#
#
# Elastic Constant Matrix: (Units=GPa)
#
#
# Indices 1 2 3 4 5 6 
#
# 1 112.6189 29.9672 35.8777 0.0000 -35.8349 0.0000
# 2 29.9672 76.8774 29.0024 0.0000 -15.5561 0.0000
# 3 35.8777 29.0024 80.8914 0.0000 -44.4161 0.0000
# 4 0.0000 0.0000 0.0000 21.9337 0.0000 6.1892
# 5 -35.8349 -15.5561 -44.4161 0.0000 38.4380 0.0000
# 6 0.0000 0.0000 0.0000 6.1892 0.0000 31.2919
#
#
#
# Elastic Compliance Matrix: (Units=1/GPa)
#
#
# Indices 1 2 3 4 5 6 
#
# 1 0.013595 -0.003585 0.003880 0.000000 0.015707 0.000000
# 2 -0.003585 0.015990 -0.006634 0.000000 -0.004536 0.000000
# 3 0.003880 -0.006634 0.037021 0.000000 0.043711 0.000000
# 4 0.000000 0.000000 0.000000 0.048287 0.000000 -0.009551
# 5 0.015707 -0.004536 0.043711 0.000000 0.089332 0.000000
# 6 0.000000 0.000000 0.000000 -0.009551 0.000000 0.033846
#
#
# Mechanical properties :
#
#
# Convention : Reuss Voigt Hill
#
# Bulk Modulus (GPa) = 18.54320 51.12025 34.83172
# Shear Modulus (GPa) = 18.60642 30.03542 24.32092
#
# Velocity S-wave (km/s) = 2.96469 3.76673 3.38951
# Velocity P-wave (km/s) = 4.52534 6.56247 5.63670
#
# Compressibility (1/GPa) = 0.05392813
#
# Stress axis : x y z
#
# Youngs Moduli (GPa) = 73.55473 62.53979 27.01200
#
# Poissons Ratio (x) = 0.22420 -0.10480
# Poissons Ratio (y) = 0.26369 0.17919
# Poissons Ratio (z) = -0.28538 0.41488
#
# Static dielectric constant tensor:
#      x y z
#    x 1.802470 0.000000 0.022030 
#    y 0.000000 1.772190 0.000000 
#    z 0.022030 0.000000 1.835260 
# 
# From -- ./inp_files/42246.got.cif
#   From: 2010.05.17/outbox.cif.g08.bks.cpg/sg14_22_cif.got.tgz:42246.got - 2010.06.03 17:49:19.
