data_PCOD9239841
_publ_section_title
;
Structure prediction by ZEFSAII (Michael W. Deem and Ramdas Pophale) SiO2 
 PCOD9239841
Probable space group: P 21/C
;
_chemical_formula_sum "Si O2"
_cell_formula_units_Z 24
_cell_length_a 19.712121
_cell_length_b 8.237547
_cell_length_c 25.867938
_cell_angle_alpha 90.000000
_cell_angle_beta 161.742812
_cell_angle_gamma 90.000000
_cell_volume 1315.921037
_symmetry_space_group_name_H-M "P 21/C"
_symmetry_group_IT_number 14
_symmetry_cell_setting 'monoclinic'
loop_
_space_group_symop_operation_xyz
x,y,z
-x,1/2+y,1/2-z
-x,-y,-z
x,1/2-y,1/2+z
loop_
_atom_site_type_symbol
_atom_site_label
_atom_site_fract_x
_atom_site_fract_y
_atom_site_fract_z
Si Si1 0.357376 0.648509 0.113171
Si Si2 0.963032 0.470237 0.395088
Si Si3 0.023312 0.598259 0.325812
Si Si4 0.784823 0.829244 0.456323
Si Si5 0.348960 0.588738 0.741187
Si Si6 0.752057 0.777522 0.045063
O O1 0.544758 0.754038 0.275328
O O2 0.242274 0.521550 0.068821
O O3 0.483178 0.539612 0.161844
O O4 0.188130 0.762947 0.963027
O O5 0.753287 0.470453 0.279023
O O6 0.934458 0.523172 0.315230
O O7 0.060608 0.286034 0.465369
O O8 0.146683 0.584316 0.554846
O O9 0.159630 0.460511 0.393931
O O10 0.843657 0.678303 0.159633
O O11 0.847597 0.799513 0.561325
O O12 0.493276 0.749245 0.854486
#
# Coordination Sequence:
#
# PCOD9239841 Si02
#       6
#     4   4   4   4   4   4
#     4  10  18  32  55  77 101 133 175 216 258 306
#     4   9  19  34  55  79 108 140 172 210 259 308
#     4  11  21  34  54  78 103 138 177 217 259 308
#     4   9  17  31  52  76 101 133 172 213 252 304
#     4   9  18  35  55  79 108 138 171 211 259 311
#     4  10  19  32  51  74 103 134 173 212 253 305
#
# _framework density 18.238177
#
# number of rings (size 3 to 8) (size 9 to 14) (size 15 to 20)
#    0.000    2.333    0.000    6.000    0.000    0.667 
#    0.000    1.667    0.000   18.000    0.000    0.000 
#    0.000    0.000    0.000    0.000    0.000    0.000 
#
# Total GULP energy -133668.802225 kJ/mol
# GULP energy per Si atom -5569.533426 kJ/mol
# Density = 1.819667 g / cm^3
# Si number density = 18.238177 Si / 1000 Ang^3
#
#
#
# Elastic Constant Matrix: (Units=GPa)
#
#
# Indices 1 2 3 4 5 6 
#
# 1 77.4309 14.0271 34.8538 0.0000 -2.0063 0.0000
# 2 14.0271 88.7107 32.4459 0.0000 -4.2778 0.0000
# 3 34.8538 32.4459 55.1070 0.0000 -10.0284 0.0000
# 4 0.0000 0.0000 0.0000 23.9597 0.0000 -9.9229
# 5 -2.0063 -4.2778 -10.0284 0.0000 28.8159 0.0000
# 6 0.0000 0.0000 0.0000 -9.9229 0.0000 21.2687
#
#
#
# Elastic Compliance Matrix: (Units=1/GPa)
#
#
# Indices 1 2 3 4 5 6 
#
# 1 0.018507 0.001799 -0.013325 0.000000 -0.003082 0.000000
# 2 0.001799 0.014561 -0.009923 0.000000 -0.001167 0.000000
# 3 -0.013325 -0.009923 0.034142 0.000000 0.009481 0.000000
# 4 0.000000 0.000000 0.000000 0.051733 0.000000 0.024136
# 5 -0.003082 -0.001167 0.009481 0.000000 0.037615 0.000000
# 6 0.000000 0.000000 0.000000 0.024136 0.000000 0.058278
#
#
# Mechanical properties :
#
#
# Convention : Reuss Voigt Hill
#
# Bulk Modulus (GPa) = 41.13322 42.65580 41.89451
# Shear Modulus (GPa) = 18.80832 24.13698 21.47265
#
# Velocity S-wave (km/s) = 3.21481 3.64185 3.43497
# Velocity P-wave (km/s) = 6.03178 6.41272 6.22516
#
# Compressibility (1/GPa) = 0.02431125
#
# Stress axis : x y z
#
# Youngs Moduli (GPa) = 54.03357 68.67467 29.28913
#
# Poissons Ratio (x) = -0.12352 0.39028
# Poissons Ratio (y) = -0.09719 0.29065
# Poissons Ratio (z) = 0.72000 0.68149
#
# Static dielectric constant tensor:
#      x y z
#    x 1.639380 0.000000 -0.021190 
#    y 0.000000 1.693840 0.000000 
#    z -0.021190 0.000000 1.635380 
# 
# From -- ./inp_files/54565.got.cif
#   From: 2010.05.17/outbox.cif.g08.bks.cpg/sg14_28_cif.got.tgz:54565.got - 2010.06.03 17:49:19.
