data_PCOD9239258
_publ_section_title
;
Structure prediction by ZEFSAII (Michael W. Deem and Ramdas Pophale) SiO2 
 PCOD9239258
Probable space group: P 21/C
;
_chemical_formula_sum "Si O2"
_cell_formula_units_Z 32
_cell_length_a 12.153821
_cell_length_b 12.166051
_cell_length_c 17.346613
_cell_angle_alpha 90.000000
_cell_angle_beta 149.164231
_cell_angle_gamma 90.000000
_cell_volume 1314.734228
_symmetry_space_group_name_H-M "P 21/C"
_symmetry_group_IT_number 14
_symmetry_cell_setting 'monoclinic'
loop_
_space_group_symop_operation_xyz
x,y,z
-x,1/2+y,1/2-z
-x,-y,-z
x,1/2-y,1/2+z
loop_
_atom_site_type_symbol
_atom_site_label
_atom_site_fract_x
_atom_site_fract_y
_atom_site_fract_z
Si Si1 0.729449 0.608155 0.862381
Si Si2 0.821740 0.298193 0.867631
Si Si3 0.394683 0.316859 0.054383
Si Si4 0.079112 0.076482 0.980544
Si Si5 0.964895 0.861797 0.205578
Si Si6 0.508460 0.653532 0.211150
Si Si7 0.458265 0.675467 0.015154
Si Si8 0.647527 0.921470 0.140831
O O1 0.635089 0.598453 0.892643
O O2 0.625716 0.728153 0.783425
O O3 0.674404 0.548198 0.747764
O O4 0.985697 0.615538 0.028975
O O5 0.597469 0.266988 0.689835
O O6 0.726203 0.328112 0.894462
O O7 0.955554 0.187947 0.930120
O O8 0.443267 0.374092 0.002864
O O9 0.188650 0.237367 0.918084
O O10 0.336072 0.081866 0.142590
O O11 0.030306 0.052046 0.862405
O O12 0.000000 0.000000 0.000000
O O13 0.869106 0.910600 0.226364
O O14 0.202980 0.818992 0.358693
O O15 0.519736 0.616255 0.130600
O O16 0.546322 0.799858 0.074197
O O17 0.500000 0.000000 0.000000
#
# Coordination Sequence:
#
# PCOD9239258 Si02
#       8
#     4   4   4   4   4   4   4   4
#     4   9  17  32  58  87 113 159 205 240 293 374
#     4  10  16  34  60  81 115 154 203 244 286 370
#     4  10  17  32  61  87 118 151 216 251 281 364
#     4  11  22  36  59  94 120 158 202 259 317 357
#     4  11  20  38  60  89 120 160 211 248 304 378
#     4   9  19  35  58  87 118 155 207 242 299 369
#     4  10  20  36  64  89 117 167 209 254 294 369
#     4  10  23  39  60  93 130 157 198 264 323 358
#
# _framework density 24.339521000000001
#
# number of rings (size 3 to 8) (size 9 to 14) (size 15 to 20)
#    0.000    2.000    5.000    0.750    0.000    4.000 
#    0.000    0.625    5.500    3.750    0.000    0.000 
#    0.000    0.000    0.000    0.000    0.000    0.000 
#
# Total GULP energy -178498.036463 kJ/mol
# GULP energy per Si atom -5578.063639 kJ/mol
# Density = 2.428412 g / cm^3
# Si number density = 24.339521 Si / 1000 Ang^3
#
#
#
# Elastic Constant Matrix: (Units=GPa)
#
#
# Indices 1 2 3 4 5 6 
#
# 1 202.0641 12.2830 65.2332 0.0000 -8.5743 0.0000
# 2 12.2830 27.5037 7.1203 0.0000 -0.7599 0.0000
# 3 65.2332 7.1203 76.4614 0.0000 7.6717 0.0000
# 4 0.0000 0.0000 0.0000 12.6018 0.0000 0.4789
# 5 -8.5743 -0.7599 7.6717 0.0000 45.9250 0.0000
# 6 0.0000 0.0000 0.0000 0.4789 0.0000 31.6821
#
#
#
# Elastic Compliance Matrix: (Units=1/GPa)
#
#
# Indices 1 2 3 4 5 6 
#
# 1 0.007136 -0.001522 -0.006181 0.000000 0.002340 0.000000
# 2 -0.001522 0.037648 -0.002280 0.000000 0.000720 0.000000
# 3 -0.006181 -0.002280 0.019002 0.000000 -0.004366 0.000000
# 4 0.000000 0.000000 0.000000 0.079399 0.000000 -0.001200
# 5 0.002340 0.000720 -0.004366 0.000000 0.022953 0.000000
# 6 0.000000 0.000000 0.000000 -0.001200 0.000000 0.031582
#
#
# Mechanical properties :
#
#
# Convention : Reuss Voigt Hill
#
# Bulk Modulus (GPa) = 22.82000 52.81135 37.81567
# Shear Modulus (GPa) = 21.52446 32.80130 27.16288
#
# Velocity S-wave (km/s) = 2.97701 3.67503 3.34428
# Velocity P-wave (km/s) = 4.60574 6.30497 5.52112
#
# Compressibility (1/GPa) = 0.04382122
#
# Stress axis : x y z
#
# Youngs Moduli (GPa) = 140.12894 26.56150 52.62473
#
# Poissons Ratio (x) = 0.04043 0.32529
# Poissons Ratio (y) = 0.21329 0.11996
# Poissons Ratio (z) = 0.86619 0.06055
#
# Static dielectric constant tensor:
#      x y z
#    x 3.182290 0.000000 0.926400 
#    y 0.000000 2.002120 0.000000 
#    z 0.926400 0.000000 2.714080 
# 
# From -- ./inp_files/57945.got.cif
#   From: 2010.05.17/outbox.cif.g08.bks.cpg/sg14_29_cif.got.tgz:57945.got - 2010.06.03 17:49:19.
