data_PCOD9239386
_publ_section_title
;
Structure prediction by ZEFSAII (Michael W. Deem and Ramdas Pophale) SiO2 
 PCOD9239386
Probable space group: P 21/C
;
_chemical_formula_sum "Si O2"
_cell_formula_units_Z 28
_cell_length_a 9.142215
_cell_length_b 11.555055
_cell_length_c 15.531902
_cell_angle_alpha 90.000000
_cell_angle_beta 131.282151
_cell_angle_gamma 90.000000
_cell_volume 1232.990031
_symmetry_space_group_name_H-M "P 21/C"
_symmetry_group_IT_number 14
_symmetry_cell_setting 'monoclinic'
loop_
_space_group_symop_operation_xyz
x,y,z
-x,1/2+y,1/2-z
-x,-y,-z
x,1/2-y,1/2+z
loop_
_atom_site_type_symbol
_atom_site_label
_atom_site_fract_x
_atom_site_fract_y
_atom_site_fract_z
Si Si1 0.849038 0.689437 0.110852
Si Si2 0.319246 0.542733 0.988322
Si Si3 0.402732 0.312448 0.808857
Si Si4 0.065182 0.451195 0.616304
Si Si5 0.377370 0.599847 0.547466
Si Si6 0.451009 0.155134 0.075234
Si Si7 0.781002 0.173634 0.714066
O O1 0.820155 0.565866 0.055501
O O2 0.724057 0.688423 0.151007
O O3 0.065379 0.725004 0.213636
O O4 0.760864 0.791315 0.019336
O O5 0.224426 0.637200 0.888640
O O6 0.500000 0.500000 0.000000
O O7 0.423517 0.594670 0.111586
O O8 0.236710 0.355363 0.679745
O O9 0.522991 0.193688 0.851011
O O10 0.152940 0.557206 0.708915
O O11 0.000000 0.500000 0.500000
O O12 0.854493 0.400564 0.562284
O O13 0.469956 0.628412 0.490584
O O14 0.438903 0.473692 0.606955
O O15 0.579540 0.262237 0.159961
#
# Coordination Sequence:
#
# PCOD9239386 Si02
#       7
#     4   4   4   4   4   4   4
#     4  10  18  30  56  88 116 143 183 252 301 346
#     4  10  17  31  54  84 113 142 184 242 304 339
#     4  10  20  38  60  85 118 149 194 250 298 347
#     4  12  25  42  58  84 122 170 201 226 284 372
#     4  10  21  39  60  90 120 147 199 245 308 346
#     4  10  19  34  60  94 117 144 187 258 312 339
#     4  12  20  34  58  87 122 151 191 244 303 354
#
# _framework density 22.709025
#
# number of rings (size 3 to 8) (size 9 to 14) (size 15 to 20)
#    0.000    1.429    8.571    0.857    0.000    0.000 
#    2.571    0.000    0.000    0.857    0.000    0.000 
#    0.000    0.000    0.000    0.000    0.000    0.000 
#
# Total GULP energy -156135.218856 kJ/mol
# GULP energy per Si atom -5576.257816 kJ/mol
# Density = 2.265734 g / cm^3
# Si number density = 22.709025 Si / 1000 Ang^3
#
#
#
# Elastic Constant Matrix: (Units=GPa)
#
#
# Indices 1 2 3 4 5 6 
#
# 1 12.4352 8.5191 22.1724 0.0000 4.5345 0.0000
# 2 8.5191 135.4055 49.1582 0.0000 12.2783 0.0000
# 3 22.1724 49.1582 118.7081 0.0000 18.1842 0.0000
# 4 0.0000 0.0000 0.0000 54.8020 0.0000 19.8642
# 5 4.5345 12.2783 18.1842 0.0000 31.4813 0.0000
# 6 0.0000 0.0000 0.0000 19.8642 0.0000 16.1262
#
#
#
# Elastic Compliance Matrix: (Units=1/GPa)
#
#
# Indices 1 2 3 4 5 6 
#
# 1 0.121325 0.000904 -0.022275 0.000000 -0.004961 0.000000
# 2 0.000904 0.008758 -0.003568 0.000000 -0.001485 0.000000
# 3 -0.022275 -0.003568 0.014654 0.000000 -0.003864 0.000000
# 4 0.000000 0.000000 0.000000 0.032967 0.000000 -0.040609
# 5 -0.004961 -0.001485 -0.003864 0.000000 0.035291 0.000000
# 6 0.000000 0.000000 0.000000 -0.040609 0.000000 0.112033
#
#
# Mechanical properties :
#
#
# Convention : Reuss Voigt Hill
#
# Bulk Modulus (GPa) = 10.54211 47.36090 28.95151
# Shear Modulus (GPa) = 12.29928 32.92851 22.61390
#
# Velocity S-wave (km/s) = 2.32976 3.81204 3.15907
# Velocity P-wave (km/s) = 3.44810 6.34637 5.10714
#
# Compressibility (1/GPa) = 0.09485769
#
# Stress axis : x y z
#
# Youngs Moduli (GPa) = 8.24232 114.17521 68.23956
#
# Poissons Ratio (x) = -0.10317 1.52006
# Poissons Ratio (y) = -0.00745 0.24350
# Poissons Ratio (z) = 0.18360 0.40741
#
# Static dielectric constant tensor:
#      x y z
#    x 1.931180 0.000000 -0.040600 
#    y 0.000000 1.964080 0.000000 
#    z -0.040600 0.000000 1.870170 
# 
# From -- ./inp_files/57603.got.cif
#   From: 2010.05.17/outbox.cif.g08.bks.cpg/sg14_29_cif.got.tgz:57603.got - 2010.06.03 17:49:19.
