data_PCOD9239717
_publ_section_title
;
Structure prediction by ZEFSAII (Michael W. Deem and Ramdas Pophale) SiO2 
 PCOD9239717
Probable space group: P 21/C
;
_chemical_formula_sum "Si O2"
_cell_formula_units_Z 32
_cell_length_a 12.856140
_cell_length_b 20.018747
_cell_length_c 18.630022
_cell_angle_alpha 90.000000
_cell_angle_beta 162.858539
_cell_angle_gamma 90.000000
_cell_volume 1413.149081
_symmetry_space_group_name_H-M "P 21/C"
_symmetry_group_IT_number 14
_symmetry_cell_setting 'monoclinic'
loop_
_space_group_symop_operation_xyz
x,y,z
-x,1/2+y,1/2-z
-x,-y,-z
x,1/2-y,1/2+z
loop_
_atom_site_type_symbol
_atom_site_label
_atom_site_fract_x
_atom_site_fract_y
_atom_site_fract_z
Si Si1 0.742773 0.923271 0.259353
Si Si2 0.311893 0.200785 0.165796
Si Si3 0.310623 0.821379 0.058863
Si Si4 0.640188 0.501805 0.837456
Si Si5 0.395897 0.710675 0.298735
Si Si6 0.278205 0.339242 0.929318
Si Si7 0.236321 0.902680 0.798956
Si Si8 0.197918 0.901719 0.124574
O O1 0.604190 0.854889 0.201988
O O2 0.614294 0.975089 0.237339
O O3 0.164825 0.930523 0.532290
O O4 0.544903 0.930366 0.053367
O O5 0.980324 0.251662 0.959366
O O6 0.186071 0.130009 0.114659
O O7 0.392195 0.200053 0.134614
O O8 0.642331 0.242018 0.415355
O O9 0.362473 0.850443 0.173015
O O10 0.928908 0.847657 0.781389
O O11 0.953651 0.544302 0.083111
O O12 0.294973 0.526940 0.652596
O O13 0.365722 0.640745 0.318443
O O14 0.594476 0.763984 0.479817
O O15 0.980986 0.353139 0.792783
O O16 0.591750 0.388449 0.162052
#
# Coordination Sequence:
#
# PCOD9239717 Si02
#       8
#     4   4   4   4   4   4   4   4
#     4   9  18  29  52  79  99 131 175 221 264 296
#     4  11  19  34  52  73 108 144 171 206 265 319
#     4  10  18  31  50  78 104 131 174 213 257 318
#     4   9  17  34  52  75 102 133 172 226 258 302
#     4  11  19  34  51  72 109 142 171 208 257 319
#     4   9  18  30  47  71 102 137 162 205 256 306
#     4  10  18  31  49  74 105 131 173 214 258 308
#     4   9  18  33  49  70 107 135 168 215 258 312
#
# _framework density 22.644459999999999
#
# number of rings (size 3 to 8) (size 9 to 14) (size 15 to 20)
#    0.000    2.250    3.750    1.875    0.000    2.000 
#    2.250    0.000    0.000    0.750    0.000   14.000 
#    0.000    0.000    0.000    0.500    0.000    0.000 
#
# Total GULP energy -178365.675621 kJ/mol
# GULP energy per Si atom -5573.927363 kJ/mol
# Density = 2.259292 g / cm^3
# Si number density = 22.644460 Si / 1000 Ang^3
#
#
#
# Elastic Constant Matrix: (Units=GPa)
#
#
# Indices 1 2 3 4 5 6 
#
# 1 68.4124 -4.3962 19.3549 0.0000 8.1544 0.0000
# 2 -4.3962 13.3100 -0.2900 0.0000 -4.2104 0.0000
# 3 19.3549 -0.2900 45.3375 0.0000 -10.6179 0.0000
# 4 0.0000 0.0000 0.0000 25.6532 0.0000 -0.5145
# 5 8.1544 -4.2104 -10.6179 0.0000 39.2644 0.0000
# 6 0.0000 0.0000 0.0000 -0.5145 0.0000 22.6780
#
#
#
# Elastic Compliance Matrix: (Units=1/GPa)
#
#
# Indices 1 2 3 4 5 6 
#
# 1 0.018128 0.003957 -0.009071 0.000000 -0.005793 0.000000
# 2 0.003957 0.078925 0.000646 0.000000 0.007816 0.000000
# 3 -0.009071 0.000646 0.028175 0.000000 0.009572 0.000000
# 4 0.000000 0.000000 0.000000 0.038999 0.000000 0.000885
# 5 -0.005793 0.007816 0.009572 0.000000 0.030098 0.000000
# 6 0.000000 0.000000 0.000000 0.000885 0.000000 0.044116
#
#
# Mechanical properties :
#
#
# Convention : Reuss Voigt Hill
#
# Bulk Modulus (GPa) = 8.59891 17.37750 12.98821
# Shear Modulus (GPa) = 17.47393 25.01186 21.24289
#
# Velocity S-wave (km/s) = 2.78090 3.32708 3.06617
# Velocity P-wave (km/s) = 3.75723 4.73814 4.27591
#
# Compressibility (1/GPa) = 0.11629374
#
# Stress axis : x y z
#
# Youngs Moduli (GPa) = 55.16247 12.67024 35.49248
#
# Poissons Ratio (x) = -0.05014 0.32194
# Poissons Ratio (y) = -0.21830 -0.02293
# Poissons Ratio (z) = 0.50036 -0.00818
#
# Static dielectric constant tensor:
#      x y z
#    x 1.822050 0.000000 0.021160 
#    y 0.000000 1.936410 0.000000 
#    z 0.021160 0.000000 1.911810 
# 
# From -- ./inp_files/58213.got.cif
#   From: 2010.05.17/outbox.cif.g08.bks.cpg/sg14_30_cif.got.tgz:58213.got - 2010.06.03 17:49:19.
