data_PCOD9239033
_publ_section_title
;
Structure prediction by ZEFSAII (Michael W. Deem and Ramdas Pophale) SiO2 
 PCOD9239033
Probable space group: P 2/C
;
_chemical_formula_sum "Si O2"
_cell_formula_units_Z 24
_cell_length_a 15.000000
_cell_length_b 15.000000
_cell_length_c 9.000000
_cell_angle_alpha 90.000000
_cell_angle_beta 40.000000
_cell_angle_gamma 90.000000
_cell_volume 1301.644910
_symmetry_space_group_name_H-M "P 2/C"
_symmetry_group_IT_number 13
_symmetry_cell_setting 'monoclinic'
loop_
_space_group_symop_operation_xyz
x,y,z
-x,y,1/2-z
-x,-y,-z
x,-y,1/2+z
loop_
_atom_site_type_symbol
_atom_site_label
_atom_site_fract_x
_atom_site_fract_y
_atom_site_fract_z
Si Si1 0.918477 0.725694 0.013926
Si Si2 0.624016 0.627385 0.343074
Si Si3 0.762297 0.901893 0.580511
Si Si4 0.500000 0.496068 0.750000
Si Si5 0.507506 0.180942 0.919262
Si Si6 0.226375 0.913552 0.282178
Si Si7 0.000000 0.755038 0.250000
O O1 0.778225 0.666827 0.172749
O O2 0.882095 0.831779 0.064786
O O3 0.976277 0.708729 0.113158
O O4 0.000000 0.711463 0.750000
O O5 0.580626 0.561844 0.533379
O O6 0.597145 0.568427 0.227968
O O7 0.530088 0.717363 0.448932
O O8 0.737883 0.924002 0.437921
O O9 0.870220 0.820459 0.442816
O O10 0.815323 0.991318 0.595318
O O11 0.625938 0.865647 0.837676
O O12 0.500000 0.183409 0.750000
O O13 0.639000 0.122532 0.802511
#
# Coordination Sequence:
#
# PCOD9239033 Si02
#       7
#     4   4   4   2   4   4   2
#     4  10  24  43  65  92 135 171 222 254 317 381
#     4  10  23  42  68 102 119 166 197 270 328 391
#     4  11  23  38  58  88 128 168 224 259 314 365
#     4  10  22  44  72  96 128 142 210 260 340 402
#     4  11  22  37  62  90 124 164 207 268 322 373
#     4  10  23  37  58  90 122 173 216 271 312 353
#     4  10  26  38  62  94 124 190 210 266 304 370
#
# _framework density 18.438207999999999
#
# number of rings (size 3 to 8) (size 9 to 14) (size 15 to 20)
#    0.000    1.667    0.833    2.000   15.167    1.333 
#    3.000    0.833    0.000    0.000    0.000    0.000 
#    0.000    0.000    0.000    0.000    0.000    0.000 
#
# Total GULP energy -133835.018020 kJ/mol
# GULP energy per Si atom -5576.459084 kJ/mol
# Density = 1.839624 g / cm^3
# Si number density = 18.438208 Si / 1000 Ang^3
#
#
#
# Elastic Constant Matrix: (Units=GPa)
#
#
# Indices 1 2 3 4 5 6 
#
# 1 134.6666 31.7830 42.9645 0.0000 34.9477 0.0000
# 2 31.7830 82.2298 23.0774 0.0000 19.8068 0.0000
# 3 42.9645 23.0774 83.8476 0.0000 27.3240 0.0000
# 4 0.0000 0.0000 0.0000 25.5040 0.0000 10.7122
# 5 34.9477 19.8068 27.3240 0.0000 34.8617 0.0000
# 6 0.0000 0.0000 0.0000 10.7122 0.0000 33.6859
#
#
#
# Elastic Compliance Matrix: (Units=1/GPa)
#
#
# Indices 1 2 3 4 5 6 
#
# 1 0.010604 -0.001520 -0.002461 0.000000 -0.007837 0.000000
# 2 -0.001520 0.014491 -0.001374 0.000000 -0.005632 0.000000
# 3 -0.002461 -0.001374 0.016798 0.000000 -0.009918 0.000000
# 4 0.000000 0.000000 0.000000 0.045254 0.000000 -0.014391
# 5 -0.007837 -0.005632 -0.009918 0.000000 0.047515 0.000000
# 6 0.000000 0.000000 0.000000 -0.014391 0.000000 0.034262
#
#
# Mechanical properties :
#
#
# Convention : Reuss Voigt Hill
#
# Bulk Modulus (GPa) = 32.06985 55.15484 43.61234
# Shear Modulus (GPa) = 26.31199 32.33825 29.32512
#
# Velocity S-wave (km/s) = 3.78171 4.19247 3.99238
# Velocity P-wave (km/s) = 6.04147 7.30849 6.70497
#
# Compressibility (1/GPa) = 0.03118194
#
# Stress axis : x y z
#
# Youngs Moduli (GPa) = 94.30833 69.00925 59.53205
#
# Poissons Ratio (x) = 0.10489 0.14651
# Poissons Ratio (y) = 0.14335 0.08180
# Poissons Ratio (z) = 0.23210 0.09482
#
# Static dielectric constant tensor:
#      x y z
#    x 1.670200 0.000000 -0.001950 
#    y 0.000000 1.615610 0.000000 
#    z -0.001950 0.000000 1.641930 
# 
# From -- ./inp_files/19535.got.cif
#   From: 2010.05.17/outbox.ucp.g08.bks.cvg/sg13_10_cif.got.tgz:19535.got - 2010.06.11 12:23:55.
