data_PCOD9239316
_publ_section_title
;
Structure prediction by ZEFSAII (Michael W. Deem and Ramdas Pophale) SiO2 
 PCOD9239316
Probable space group: P 21/C
;
_chemical_formula_sum "Si O2"
_cell_formula_units_Z 32
_cell_length_a 15.873830
_cell_length_b 8.310863
_cell_length_c 19.845681
_cell_angle_alpha 90.000000
_cell_angle_beta 153.594069
_cell_angle_gamma 90.000000
_cell_volume 1164.362546
_symmetry_space_group_name_H-M "P 21/C"
_symmetry_group_IT_number 14
_symmetry_cell_setting 'monoclinic'
loop_
_space_group_symop_operation_xyz
x,y,z
-x,1/2+y,1/2-z
-x,-y,-z
x,1/2-y,1/2+z
loop_
_atom_site_type_symbol
_atom_site_label
_atom_site_fract_x
_atom_site_fract_y
_atom_site_fract_z
Si Si1 0.705635 0.438247 0.022740
Si Si2 0.764019 0.543953 0.273364
Si Si3 0.128062 0.719649 0.556177
Si Si4 0.996802 0.519351 0.882275
Si Si5 0.437836 0.704078 0.676451
Si Si6 0.040248 0.821652 0.190846
Si Si7 0.611888 0.876432 0.924984
Si Si8 0.339330 0.243763 0.409853
O O1 0.806337 0.301475 0.140090
O O2 0.682085 0.597475 0.050848
O O3 0.859825 0.484896 0.077463
O O4 0.543847 0.355092 0.861230
O O5 0.737140 0.384944 0.298566
O O6 0.890080 0.472031 0.302693
O O7 0.605652 0.644583 0.118582
O O8 0.916088 0.656065 0.419710
O O9 0.224061 0.682289 0.551826
O O10 0.100882 0.908477 0.522683
O O11 0.945426 0.332093 0.848059
O O12 0.830968 0.643733 0.740778
O O13 0.552041 0.747379 0.825098
O O14 0.477270 0.541298 0.666160
O O15 0.840480 0.866193 0.082119
O O16 0.551475 0.860133 0.960069
#
# Coordination Sequence:
#
# PCOD9239316 Si02
#       8
#     4   4   4   4   4   4   4   4
#     4  10  18  32  52  81 109 139 181 225 282 323
#     4   9  19  36  56  83 104 147 191 228 267 328
#     4   9  19  36  55  75 114 145 188 223 274 326
#     4  10  17  28  52  80 110 136 176 228 278 313
#     4  11  24  36  55  83 116 151 175 231 282 339
#     4  11  20  31  57  84 111 141 180 236 273 330
#     4  12  22  35  52  83 115 142 183 222 291 333
#     4  10  19  32  55  81 109 143 181 231 273 331
#
# _framework density 27.482849000000002
#
# number of rings (size 3 to 8) (size 9 to 14) (size 15 to 20)
#    0.000    1.750    3.750    1.500    3.500    0.500 
#    0.000    0.625    0.000    0.000    0.000    5.250 
#    0.000    0.000    0.000    0.000    0.000    0.000 
#
# Total GULP energy -178501.786895 kJ/mol
# GULP energy per Si atom -5578.180840 kJ/mol
# Density = 2.742030 g / cm^3
# Si number density = 27.482849 Si / 1000 Ang^3
#
#
#
# Elastic Constant Matrix: (Units=GPa)
#
#
# Indices 1 2 3 4 5 6 
#
# 1 68.3801 8.7665 17.1315 0.0000 -23.6682 0.0000
# 2 8.7665 99.3456 39.7202 0.0000 -12.4136 0.0000
# 3 17.1315 39.7202 114.5086 0.0000 -14.3999 0.0000
# 4 0.0000 0.0000 0.0000 42.2213 0.0000 -15.6495
# 5 -23.6682 -12.4136 -14.3999 0.0000 43.2274 0.0000
# 6 0.0000 0.0000 0.0000 -15.6495 0.0000 44.0927
#
#
#
# Elastic Compliance Matrix: (Units=1/GPa)
#
#
# Indices 1 2 3 4 5 6 
#
# 1 0.018305 0.000224 -0.001615 0.000000 0.009549 0.000000
# 2 0.000224 0.011874 -0.003870 0.000000 0.002243 0.000000
# 3 -0.001615 -0.003870 0.010506 0.000000 0.001504 0.000000
# 4 0.000000 0.000000 0.000000 0.027273 0.000000 0.009680
# 5 0.009549 0.002243 0.001504 0.000000 0.029507 0.000000
# 6 0.000000 0.000000 0.000000 0.009680 0.000000 0.026115
#
#
# Mechanical properties :
#
#
# Convention : Reuss Voigt Hill
#
# Bulk Modulus (GPa) = 33.15473 45.94117 39.54795
# Shear Modulus (GPa) = 34.68440 40.34935 37.51688
#
# Velocity S-wave (km/s) = 3.55637 3.83582 3.69874
# Velocity P-wave (km/s) = 5.38086 6.03081 5.71508
#
# Compressibility (1/GPa) = 0.03016161
#
# Stress axis : x y z
#
# Youngs Moduli (GPa) = 54.62914 84.21942 95.18167
#
# Poissons Ratio (x) = -0.01884 0.15376
# Poissons Ratio (y) = -0.01222 0.36836
# Poissons Ratio (z) = 0.08825 0.32594
#
# Static dielectric constant tensor:
#      x y z
#    x 2.151610 0.000000 0.056040 
#    y 0.000000 2.211470 0.000000 
#    z 0.056040 0.000000 2.279000 
# 
# From -- ./inp_files/64850.got.cif
#   From: 2010.05.17/outbox.cif.g08.bks.cpg/sg14_33_cif.got.tgz:64850.got - 2010.06.03 17:49:19.
