data_PCOD9239724
_publ_section_title
;
Structure prediction by ZEFSAII (Michael W. Deem and Ramdas Pophale) SiO2 
 PCOD9239724
Probable space group: P 21/C
;
_chemical_formula_sum "Si O2"
_cell_formula_units_Z 24
_cell_length_a 11.852966
_cell_length_b 15.197904
_cell_length_c 11.185821
_cell_angle_alpha 90.000000
_cell_angle_beta 154.799150
_cell_angle_gamma 90.000000
_cell_volume 857.979334
_symmetry_space_group_name_H-M "P 21/C"
_symmetry_group_IT_number 14
_symmetry_cell_setting 'monoclinic'
loop_
_space_group_symop_operation_xyz
x,y,z
-x,1/2+y,1/2-z
-x,-y,-z
x,1/2-y,1/2+z
loop_
_atom_site_type_symbol
_atom_site_label
_atom_site_fract_x
_atom_site_fract_y
_atom_site_fract_z
Si Si1 0.281215 0.326359 0.129490
Si Si2 0.651381 0.560701 0.393636
Si Si3 0.859850 0.354693 0.041231
Si Si4 0.009000 0.687844 0.489695
Si Si5 0.763832 0.421196 0.693689
Si Si6 0.527628 0.603487 0.928959
O O1 0.519230 0.352333 0.448221
O O2 0.428843 0.334641 0.145626
O O3 0.129642 0.243926 0.039771
O O4 0.031719 0.393913 0.880039
O O5 0.436731 0.637793 0.195553
O O6 0.646971 0.505414 0.514515
O O7 0.564600 0.490062 0.211244
O O8 0.943370 0.600115 0.676589
O O9 0.859087 0.415687 0.920903
O O10 0.955308 0.260350 0.083851
O O11 0.296625 0.647497 0.784342
O O12 0.808944 0.610591 0.262006
#
# Coordination Sequence:
#
# PCOD9239724 Si02
#       6
#     4   4   4   4   4   4
#     4  10  20  35  54  80 110 145 182 216 266 325
#     4  11  20  32  51  79 110 144 175 214 268 330
#     4  11  20  32  51  79 110 144 175 214 268 330
#     4  11  22  37  55  80 111 145 182 223 266 320
#     4  10  18  31  50  78 114 143 166 206 266 345
#     4  11  22  37  55  80 111 145 182 223 266 320
#
# _framework density 27.972704
#
# number of rings (size 3 to 8) (size 9 to 14) (size 15 to 20)
#    0.000    1.333    0.000   11.000    0.000    1.333 
#    0.000    0.000    0.000    0.000    0.000   23.333 
#    0.000    0.000    0.000    0.000    0.000    0.000 
#
# Total GULP energy -134591.663016 kJ/mol
# GULP energy per Si atom -5607.985959 kJ/mol
# Density = 2.790904 g / cm^3
# Si number density = 27.972704 Si / 1000 Ang^3
#
#
#
# Elastic Constant Matrix: (Units=GPa)
#
#
# Indices 1 2 3 4 5 6 
#
# 1 115.0603 42.4445 39.1129 0.0000 17.6176 0.0000
# 2 42.4445 116.5122 52.7589 0.0000 0.8498 0.0000
# 3 39.1129 52.7589 171.0162 0.0000 25.9911 0.0000
# 4 0.0000 0.0000 0.0000 56.6746 0.0000 -0.6739
# 5 17.6176 0.8498 25.9911 0.0000 48.2430 0.0000
# 6 0.0000 0.0000 0.0000 -0.6739 0.0000 54.5358
#
#
#
# Elastic Compliance Matrix: (Units=1/GPa)
#
#
# Indices 1 2 3 4 5 6 
#
# 1 0.010807 -0.003520 -0.000866 0.000000 -0.003418 0.000000
# 2 -0.003520 0.011240 -0.003080 0.000000 0.002747 0.000000
# 3 -0.000866 -0.003080 0.007558 0.000000 -0.003701 0.000000
# 4 0.000000 0.000000 0.000000 0.017647 0.000000 0.000218
# 5 -0.003418 0.002747 -0.003701 0.000000 0.023922 0.000000
# 6 0.000000 0.000000 0.000000 0.000218 0.000000 0.018339
#
#
# Mechanical properties :
#
#
# Convention : Reuss Voigt Hill
#
# Bulk Modulus (GPa) = 68.15217 74.58014 71.36616
# Shear Modulus (GPa) = 45.73010 49.77549 47.75280
#
# Velocity S-wave (km/s) = 4.04767 4.22291 4.13621
# Velocity P-wave (km/s) = 6.80158 7.10612 6.95552
#
# Compressibility (1/GPa) = 0.01467305
#
# Stress axis : x y z
#
# Youngs Moduli (GPa) = 92.52950 88.97105 132.30589
#
# Poissons Ratio (x) = 0.31316 0.11463
# Poissons Ratio (y) = 0.32568 0.40749
# Poissons Ratio (z) = 0.08017 0.27402
#
# Static dielectric constant tensor:
#      x y z
#    x 2.202750 0.000000 -0.066140 
#    y 0.000000 2.164070 0.000000 
#    z -0.066140 0.000000 2.074450 
# 
# From -- ./inp_files/37471.got.cif
#   From: 2010.05.17/outbox.cif.g08.bks.cpg/sg14_19_cif.got.tgz:37471.got - 2010.06.03 17:49:19.
