data_PCOD9239691
_publ_section_title
;
Structure prediction by ZEFSAII (Michael W. Deem and Ramdas Pophale) SiO2 
 PCOD9239691
Probable space group: P 21/C
;
_chemical_formula_sum "Si O2"
_cell_formula_units_Z 24
_cell_length_a 19.917279
_cell_length_b 7.348256
_cell_length_c 7.330685
_cell_angle_alpha 90.000000
_cell_angle_beta 128.285932
_cell_angle_gamma 90.000000
_cell_volume 842.149033
_symmetry_space_group_name_H-M "P 21/C"
_symmetry_group_IT_number 14
_symmetry_cell_setting 'monoclinic'
loop_
_space_group_symop_operation_xyz
x,y,z
-x,1/2+y,1/2-z
-x,-y,-z
x,1/2-y,1/2+z
loop_
_atom_site_type_symbol
_atom_site_label
_atom_site_fract_x
_atom_site_fract_y
_atom_site_fract_z
Si Si1 0.823606 0.963587 0.994345
Si Si2 0.990879 0.371082 0.156074
Si Si3 0.626720 0.156567 0.214771
Si Si4 0.494475 0.024704 0.271004
Si Si5 0.866126 0.353764 0.240884
Si Si6 0.318530 0.466411 0.505933
O O1 0.836488 0.152654 0.131183
O O2 0.911745 0.854359 0.115119
O O3 0.800673 0.036134 0.754421
O O4 0.752838 0.865708 0.997873
O O5 0.914111 0.441561 0.153462
O O6 0.000000 0.500000 0.000000
O O7 0.947876 0.185919 0.012195
O O8 0.582194 0.064984 0.314136
O O9 0.657274 0.356019 0.326921
O O10 0.701096 0.055156 0.225146
O O11 0.547834 0.136798 0.932890
O O12 0.500000 0.000000 0.500000
O O13 0.405739 0.143899 0.110802
#
# Coordination Sequence:
#
# PCOD9239691 Si02
#       6
#     4   4   4   4   4   4
#     4  10  18  30  52  82 109 134 173 232 266 301
#     4   9  18  32  50  74 105 147 183 216 262 327
#     4   9  19  32  51  79 106 139 172 211 272 327
#     4   9  19  34  51  74 108 142 174 206 271 333
#     4   9  18  31  49  76 109 144 184 209 264 324
#     4  10  18  31  53  80 108 129 176 229 271 305
#
# _framework density 28.498519999999999
#
# number of rings (size 3 to 8) (size 9 to 14) (size 15 to 20)
#    1.000    1.667    0.000    2.500    0.000    0.000 
#    0.000    0.000    0.000    6.000    0.000    0.000 
#    0.000    0.000    0.000    0.000    0.000    0.000 
#
# Total GULP energy -133672.367523 kJ/mol
# GULP energy per Si atom -5569.681980 kJ/mol
# Density = 2.843366 g / cm^3
# Si number density = 28.498520 Si / 1000 Ang^3
#
#
#
# Elastic Constant Matrix: (Units=GPa)
#
#
# Indices 1 2 3 4 5 6 
#
# 1 272.9354 22.5630 38.8806 0.0000 -15.8889 0.0000
# 2 22.5630 81.4778 16.2195 0.0000 -1.2340 0.0000
# 3 38.8806 16.2195 80.7313 0.0000 -17.7817 0.0000
# 4 0.0000 0.0000 0.0000 34.2060 0.0000 2.3804
# 5 -15.8889 -1.2340 -17.7817 0.0000 59.8132 0.0000
# 6 0.0000 0.0000 0.0000 2.3804 0.0000 21.9978
#
#
#
# Elastic Compliance Matrix: (Units=1/GPa)
#
#
# Indices 1 2 3 4 5 6 
#
# 1 0.003994 -0.000770 -0.001647 0.000000 0.000556 0.000000
# 2 -0.000770 0.012949 -0.002372 0.000000 -0.000643 0.000000
# 3 -0.001647 -0.002372 0.014499 0.000000 0.003824 0.000000
# 4 0.000000 0.000000 0.000000 0.029456 0.000000 -0.003188
# 5 0.000556 -0.000643 0.003824 0.000000 0.017990 0.000000
# 6 0.000000 0.000000 0.000000 -0.003188 0.000000 0.045804
#
#
# Mechanical properties :
#
#
# Convention : Reuss Voigt Hill
#
# Bulk Modulus (GPa) = 45.73657 65.60786 55.67221
# Shear Modulus (GPa) = 35.32110 47.03549 41.17829
#
# Velocity S-wave (km/s) = 3.52433 4.06698 3.80534
# Velocity P-wave (km/s) = 5.71356 6.71754 6.23579
#
# Compressibility (1/GPa) = 0.02186434
#
# Stress axis : x y z
#
# Youngs Moduli (GPa) = 250.34786 77.22608 68.97188
#
# Poissons Ratio (x) = 0.05946 0.11357
# Poissons Ratio (y) = 0.19275 0.16362
# Poissons Ratio (z) = 0.41224 0.18320
#
# Static dielectric constant tensor:
#      x y z
#    x 2.314740 0.000000 0.121900 
#    y 0.000000 2.479980 0.000000 
#    z 0.121900 0.000000 2.508600 
# 
# From -- ./inp_files/17785.got.cif
#   From: 2010.05.17/outbox.cif.g08.bks.cpg/sg14_9_cif.got.tgz:17785.got - 2010.06.03 17:49:19.
