data_PCOD9239858
_publ_section_title
;
Structure prediction by ZEFSAII (Michael W. Deem and Ramdas Pophale) SiO2 
 PCOD9239858
Probable space group: P 21/C
;
_chemical_formula_sum "Si O2"
_cell_formula_units_Z 26
_cell_length_a 17.571187
_cell_length_b 9.243619
_cell_length_c 15.055384
_cell_angle_alpha 90.000000
_cell_angle_beta 151.921824
_cell_angle_gamma 90.000000
_cell_volume 1150.951133
_symmetry_space_group_name_H-M "P 21/C"
_symmetry_group_IT_number 14
_symmetry_cell_setting 'monoclinic'
loop_
_space_group_symop_operation_xyz
x,y,z
-x,1/2+y,1/2-z
-x,-y,-z
x,1/2-y,1/2+z
loop_
_atom_site_type_symbol
_atom_site_label
_atom_site_fract_x
_atom_site_fract_y
_atom_site_fract_z
Si Si1 0.175409 0.744444 0.938778
Si Si2 0.663248 0.684062 0.144063
Si Si3 0.500000 0.000000 0.000000
Si Si4 0.706234 0.431091 0.593531
Si Si5 0.379964 0.519929 0.749816
Si Si6 0.181950 0.263583 0.364817
Si Si7 0.388769 0.028782 0.671147
O O1 0.253637 0.864067 0.083663
O O2 0.249279 0.587838 0.035312
O O3 0.236119 0.795113 0.903518
O O4 0.985066 0.747048 0.755874
O O5 0.697536 0.607889 0.272833
O O6 0.806249 0.682359 0.218378
O O7 0.600048 0.845555 0.087182
O O8 0.514076 0.599503 0.946525
O O9 0.311547 0.912221 0.820877
O O10 0.788277 0.569297 0.631978
O O11 0.505592 0.460105 0.378044
O O12 0.484771 0.472309 0.772392
O O13 0.317616 0.180604 0.563542
#
# Coordination Sequence:
#
# PCOD9239858 Si02
#       7
#     4   4   2   4   4   4   4
#     4  11  20  33  54  79 108 138 173 223 274 314
#     4   9  18  34  53  76 105 138 180 218 259 318
#     4  10  18  32  56  80 100 132 180 228 258 302
#     4  10  20  35  56  78 103 139 181 219 264 320
#     4   9  19  34  54  76 102 142 183 216 258 315
#     4  10  21  34  52  80 109 136 171 222 273 315
#     4  10  19  35  55  75 101 139 180 215 257 320
#
# _framework density 22.590012000000002
#
# number of rings (size 3 to 8) (size 9 to 14) (size 15 to 20)
#    0.000    2.154    0.000    5.538    0.000    1.846 
#    0.000    0.000    0.000   30.462    0.000    0.000 
#    0.000    0.000    0.000    0.000    0.000    0.000 
#
# Total GULP energy -144751.004780 kJ/mol
# GULP energy per Si atom -5567.346338 kJ/mol
# Density = 2.253860 g / cm^3
# Si number density = 22.590012 Si / 1000 Ang^3
#
#
#
# Elastic Constant Matrix: (Units=GPa)
#
#
# Indices 1 2 3 4 5 6 
#
# 1 109.0103 25.0905 22.8192 0.0000 14.0873 0.0000
# 2 25.0905 58.8982 6.3575 0.0000 7.1939 0.0000
# 3 22.8192 6.3575 37.5063 0.0000 23.0482 0.0000
# 4 0.0000 0.0000 0.0000 23.7673 0.0000 2.5184
# 5 14.0873 7.1939 23.0482 0.0000 33.6348 0.0000
# 6 0.0000 0.0000 0.0000 2.5184 0.0000 37.1699
#
#
#
# Elastic Compliance Matrix: (Units=1/GPa)
#
#
# Indices 1 2 3 4 5 6 
#
# 1 0.011459 -0.004244 -0.006669 0.000000 0.000679 0.000000
# 2 -0.004244 0.019035 0.001322 0.000000 -0.003199 0.000000
# 3 -0.006669 0.001322 0.050013 0.000000 -0.031761 0.000000
# 4 0.000000 0.000000 0.000000 0.042379 0.000000 -0.002871
# 5 0.000679 -0.003199 -0.031761 0.000000 0.051896 0.000000
# 6 0.000000 0.000000 0.000000 -0.002871 0.000000 0.027098
#
#
# Mechanical properties :
#
#
# Convention : Reuss Voigt Hill
#
# Bulk Modulus (GPa) = 16.30692 34.88322 25.59507
# Shear Modulus (GPa) = 20.70360 28.99089 24.84724
#
# Velocity S-wave (km/s) = 3.03065 3.58627 3.32010
# Velocity P-wave (km/s) = 4.41370 5.71173 5.10415
#
# Compressibility (1/GPa) = 0.06132366
#
# Stress axis : x y z
#
# Youngs Moduli (GPa) = 87.26973 52.53579 19.99460
#
# Poissons Ratio (x) = 0.22298 0.13335
# Poissons Ratio (y) = 0.37041 -0.02643
# Poissons Ratio (z) = 0.58201 -0.06945
#
# Static dielectric constant tensor:
#      x y z
#    x 2.252420 0.000000 -0.187320 
#    y 0.000000 1.872920 0.000000 
#    z -0.187320 0.000000 1.906730 
# 
# From -- ./inp_files/60139.got.cif
#   From: 2010.05.17/outbox.cif.g08.bks.cpg/sg14_31_cif.got.tgz:60139.got - 2010.06.03 17:49:19.
