data_PCOD9239190
_publ_section_title
;
Structure prediction by ZEFSAII (Michael W. Deem and Ramdas Pophale) SiO2 
 PCOD9239190
Probable space group: P 21/C
;
_chemical_formula_sum "Si O2"
_cell_formula_units_Z 16
_cell_length_a 18.695615
_cell_length_b 6.955400
_cell_length_c 5.570859
_cell_angle_alpha 90.000000
_cell_angle_beta 125.018005
_cell_angle_gamma 90.000000
_cell_volume 593.270781
_symmetry_space_group_name_H-M "P 21/C"
_symmetry_group_IT_number 14
_symmetry_cell_setting 'monoclinic'
loop_
_space_group_symop_operation_xyz
x,y,z
-x,1/2+y,1/2-z
-x,-y,-z
x,1/2-y,1/2+z
loop_
_atom_site_type_symbol
_atom_site_label
_atom_site_fract_x
_atom_site_fract_y
_atom_site_fract_z
Si Si1 0.467641 0.781405 0.431424
Si Si2 0.163928 0.017942 0.234963
Si Si3 0.661745 0.850116 0.285985
Si Si4 0.099055 0.034131 0.611332
O O1 0.419686 0.753616 0.088195
O O2 0.556322 0.651107 0.597985
O O3 0.500000 0.000000 0.500000
O O4 0.264960 0.997232 0.506449
O O5 0.110572 0.949847 0.365935
O O6 0.129879 0.242302 0.150488
O O7 0.153403 0.951266 0.941272
O O8 0.679718 0.705186 0.545042
O O9 0.000000 0.000000 0.500000
#
# Coordination Sequence:
#
# PCOD9239190 Si02
#       4
#     4   4   4   4
#     4  10  21  35  58  90 120 152 195 243 294 348
#     4  10  17  30  45  68  96 121 176 209 259 313
#     4  10  16  30  51  75 101 130 176 231 259 331
#     4  10  18  27  44  69  95 121 156 216 268 301
#
# _framework density 26.969132999999999
#
# number of rings (size 3 to 8) (size 9 to 14) (size 15 to 20)
#    0.000    2.000    5.000    1.500    0.000    0.000 
#    0.000    0.000    0.000    0.000   13.000    0.000 
#    0.000    0.000    0.000    0.000    0.000    0.000 
#
# Total GULP energy -89227.252435 kJ/mol
# GULP energy per Si atom -5576.703277 kJ/mol
# Density = 2.690775 g / cm^3
# Si number density = 26.969133 Si / 1000 Ang^3
#
#
#
# Elastic Constant Matrix: (Units=GPa)
#
#
# Indices 1 2 3 4 5 6 
#
# 1 94.2708 10.6787 14.6434 0.0000 -2.2459 0.0000
# 2 10.6787 92.0633 -3.5264 0.0000 0.2252 0.0000
# 3 14.6434 -3.5264 153.0525 0.0000 -43.5784 0.0000
# 4 0.0000 0.0000 0.0000 -3.8627 0.0000 15.3937
# 5 -2.2459 0.2252 -43.5784 0.0000 84.9323 0.0000
# 6 0.0000 0.0000 0.0000 15.3937 0.0000 23.2155
#
#
#
# Elastic Compliance Matrix: (Units=1/GPa)
#
#
# Indices 1 2 3 4 5 6 
#
# 1 0.010930 -0.001312 -0.001162 0.000000 -0.000304 0.000000
# 2 -0.001312 0.011030 0.000423 0.000000 0.000153 0.000000
# 3 -0.001162 0.000423 0.007783 0.000000 0.003961 0.000000
# 4 0.000000 0.000000 0.000000 -0.071073 0.000000 0.047127
# 5 -0.000304 0.000153 0.003961 0.000000 0.013798 0.000000
# 6 0.000000 0.000000 0.000000 0.047127 0.000000 0.011826
#
#
# Mechanical properties :
#
#
# Convention : Reuss Voigt Hill
#
# Bulk Modulus (GPa) = 39.00041 42.55313 40.77677
# Shear Modulus (GPa) = -1634.72956 42.02975 -796.34990
#
# Velocity S-wave (km/s) = -24.64679 3.95199 -17.20241
# Velocity P-wave (km/s) = 28.20390 6.05285 19.47849
#
# Compressibility (1/GPa) = 0.02564075
#
# Stress axis : x y z
#
# Youngs Moduli (GPa) = 91.49440 90.66139 128.49205
#
# Poissons Ratio (x) = 0.11891 0.14937
# Poissons Ratio (y) = 0.12000 -0.05438
# Poissons Ratio (z) = 0.10636 -0.03837
#
# Static dielectric constant tensor:
#      x y z
#    x 2.100170 0.000000 -0.026540 
#    y 0.000000 2.359540 0.000000 
#    z -0.026540 0.000000 2.105720 
# 
# From -- ./inp_files/4020.got.cif
#   From: 2010.05.17/outbox.cif.g08.bks.cpg/sg14_3_cif.got.tgz:4020.got - 2010.06.03 17:49:19.
