data_PCOD9239413
_publ_section_title
;
Structure prediction by ZEFSAII (Michael W. Deem and Ramdas Pophale) SiO2 
 PCOD9239413
Probable space group: P 21/C
;
_chemical_formula_sum "Si O2"
_cell_formula_units_Z 24
_cell_length_a 9.091171
_cell_length_b 16.011742
_cell_length_c 20.319126
_cell_angle_alpha 90.000000
_cell_angle_beta 29.701788
_cell_angle_gamma 90.000000
_cell_volume 1465.529702
_symmetry_space_group_name_H-M "P 21/C"
_symmetry_group_IT_number 14
_symmetry_cell_setting 'monoclinic'
loop_
_space_group_symop_operation_xyz
x,y,z
-x,1/2+y,1/2-z
-x,-y,-z
x,1/2-y,1/2+z
loop_
_atom_site_type_symbol
_atom_site_label
_atom_site_fract_x
_atom_site_fract_y
_atom_site_fract_z
Si Si1 0.779605 0.254020 0.139724
Si Si2 0.277974 0.469244 0.305149
Si Si3 0.598180 0.499249 0.536696
Si Si4 0.362773 0.155035 0.892765
Si Si5 0.852968 0.082102 0.525067
Si Si6 0.401899 0.109934 0.229205
O O1 0.609989 0.280442 0.271812
O O2 0.869927 0.338599 0.066907
O O3 0.547329 0.199571 0.186966
O O4 0.076427 0.200624 0.033099
O O5 0.262137 0.395531 0.365890
O O6 0.504421 0.440892 0.159821
O O7 0.421685 0.546662 0.289656
O O8 0.953452 0.490780 0.406229
O O9 0.500000 0.500000 0.500000
O O10 0.514621 0.585637 0.605495
O O11 0.458943 0.424886 0.634423
O O12 0.056170 0.104379 0.383764
O O13 0.000000 0.000000 0.500000
#
# Coordination Sequence:
#
# PCOD9239413 Si02
#       6
#     4   4   4   4   4   4
#     4  11  17  29  58  83 107 129 177 235 271 307
#     4   9  17  33  54  77 105 136 184 220 267 314
#     4  11  21  35  55  76 112 153 183 208 263 334
#     4  10  19  32  55  84 101 138 179 230 269 313
#     4   9  19  30  51  87 108 130 170 235 281 310
#     4  10  17  32  54  80 104 135 183 228 265 310
#
# _framework density 16.376332999999999
#
# number of rings (size 3 to 8) (size 9 to 14) (size 15 to 20)
#    0.000    2.000    5.000    2.000    0.000    0.000 
#    0.000    0.833   11.000    0.000    0.000    0.000 
#    0.000    0.000    0.000    0.000    0.000    0.000 
#
# Total GULP energy -133704.524658 kJ/mol
# GULP energy per Si atom -5571.021861 kJ/mol
# Density = 1.633906 g / cm^3
# Si number density = 16.376333 Si / 1000 Ang^3
#
#
#
# Elastic Constant Matrix: (Units=GPa)
#
#
# Indices 1 2 3 4 5 6 
#
# 1 63.8037 10.6619 36.9825 0.0000 15.5334 0.0000
# 2 10.6619 84.0097 25.4707 0.0000 8.3516 0.0000
# 3 36.9825 25.4707 120.4938 0.0000 4.3699 0.0000
# 4 0.0000 0.0000 0.0000 37.4535 0.0000 -1.4905
# 5 15.5334 8.3516 4.3699 0.0000 13.7951 0.0000
# 6 0.0000 0.0000 0.0000 -1.4905 0.0000 10.2064
#
#
#
# Elastic Compliance Matrix: (Units=1/GPa)
#
#
# Indices 1 2 3 4 5 6 
#
# 1 0.026765 0.001753 -0.007541 0.000000 -0.028810 0.000000
# 2 0.001753 0.013523 -0.003064 0.000000 -0.009191 0.000000
# 3 -0.007541 -0.003064 0.011012 0.000000 0.006857 0.000000
# 4 0.000000 0.000000 0.000000 0.026856 0.000000 0.003922
# 5 -0.028810 -0.009191 0.006857 0.000000 0.108322 0.000000
# 6 0.000000 0.000000 0.000000 0.003922 0.000000 0.098550
#
#
# Mechanical properties :
#
#
# Convention : Reuss Voigt Hill
#
# Bulk Modulus (GPa) = 29.76237 46.05971 37.91104
# Shear Modulus (GPa) = 15.92711 25.30381 20.61546
#
# Velocity S-wave (km/s) = 3.12199 3.93510 3.55189
# Velocity P-wave (km/s) = 5.58652 6.98810 6.32624
#
# Compressibility (1/GPa) = 0.03359948
#
# Stress axis : x y z
#
# Youngs Moduli (GPa) = 37.36250 73.94605 90.80613
#
# Poissons Ratio (x) = -0.12966 0.68473
# Poissons Ratio (y) = -0.06552 0.27819
# Poissons Ratio (z) = 0.28173 0.22653
#
# Static dielectric constant tensor:
#      x y z
#    x 1.516140 0.000000 -0.006580 
#    y 0.000000 1.584940 0.000000 
#    z -0.006580 0.000000 1.604430 
# 
# From -- ./inp_files/24598.got.cif
#   From: 2010.05.17/outbox.cif.g08.bks.cpg/sg14_13_cif.got.tgz:24598.got - 2010.06.03 17:49:19.
