data_PCOD9239372
_publ_section_title
;
Structure prediction by ZEFSAII (Michael W. Deem and Ramdas Pophale) SiO2 
 PCOD9239372
Probable space group: P 21/C
;
_chemical_formula_sum "Si O2"
_cell_formula_units_Z 32
_cell_length_a 17.694071
_cell_length_b 12.850642
_cell_length_c 18.811550
_cell_angle_alpha 90.000000
_cell_angle_beta 156.428406
_cell_angle_gamma 90.000000
_cell_volume 1710.498857
_symmetry_space_group_name_H-M "P 21/C"
_symmetry_group_IT_number 14
_symmetry_cell_setting 'monoclinic'
loop_
_space_group_symop_operation_xyz
x,y,z
-x,1/2+y,1/2-z
-x,-y,-z
x,1/2-y,1/2+z
loop_
_atom_site_type_symbol
_atom_site_label
_atom_site_fract_x
_atom_site_fract_y
_atom_site_fract_z
Si Si1 0.037199 0.829826 0.889741
Si Si2 0.548456 0.175011 0.820284
Si Si3 0.529159 0.438161 0.096933
Si Si4 0.313075 0.261889 0.982272
Si Si5 0.428707 0.438854 0.631253
Si Si6 0.021313 0.077327 0.854076
Si Si7 0.376185 0.886521 0.563652
Si Si8 0.951577 0.378030 0.448588
O O1 0.909748 0.763362 0.725699
O O2 0.256949 0.816400 0.058007
O O3 0.987575 0.811574 0.930270
O O4 0.000559 0.953314 0.848797
O O5 0.381968 0.193464 0.618645
O O6 0.548812 0.268953 0.876761
O O7 0.554353 0.062431 0.862856
O O8 0.381839 0.348480 0.986125
O O9 0.506190 0.526524 0.137497
O O10 0.726815 0.380782 0.261571
O O11 0.500000 0.500000 0.000000
O O12 0.414873 0.150425 0.059751
O O13 0.598136 0.411077 0.831006
O O14 0.225967 0.414124 0.494375
O O15 0.834513 0.105645 0.648303
O O16 0.016843 0.141479 0.924335
O O17 0.000000 0.500000 0.500000
#
# Coordination Sequence:
#
# PCOD9239372 Si02
#       8
#     4   4   4   4   4   4   4   4
#     4  10  17  31  48  73 106 133 171 213 263 312
#     4  10  20  33  50  73 105 140 176 214 257 317
#     4  12  19  33  53  82 108 130 174 220 268 307
#     4  11  20  33  51  76 108 140 172 216 268 308
#     4  10  21  34  50  74 110 139 175 213 256 318
#     4  10  18  32  49  77 104 132 169 214 265 310
#     4  11  19  32  52  74 106 136 171 216 267 308
#     4  10  18  29  49  77 110 132 163 218 266 316
#
# _framework density 18.707992999999998
#
# number of rings (size 3 to 8) (size 9 to 14) (size 15 to 20)
#    0.000    1.500    5.000    3.000    0.000    0.000 
#    0.000    0.000    0.000    0.750    0.000    0.875 
#    0.000    0.125    0.000    0.000    0.000    0.000 
#
# Total GULP energy -178178.396285 kJ/mol
# GULP energy per Si atom -5568.074884 kJ/mol
# Density = 1.866541 g / cm^3
# Si number density = 18.707993 Si / 1000 Ang^3
#
#
#
# Elastic Constant Matrix: (Units=GPa)
#
#
# Indices 1 2 3 4 5 6 
#
# 1 16.1318 -1.5779 7.4405 0.0000 3.4991 0.0000
# 2 -1.5779 93.8292 0.7962 0.0000 -2.3718 0.0000
# 3 7.4405 0.7962 86.1679 0.0000 -15.8102 0.0000
# 4 0.0000 0.0000 0.0000 28.2201 0.0000 -3.3243
# 5 3.4991 -2.3718 -15.8102 0.0000 15.5438 0.0000
# 6 0.0000 0.0000 0.0000 -3.3243 0.0000 13.6865
#
#
#
# Elastic Compliance Matrix: (Units=1/GPa)
#
#
# Indices 1 2 3 4 5 6 
#
# 1 0.073469 0.000621 -0.011516 0.000000 -0.028157 0.000000
# 2 0.000621 0.010708 0.000149 0.000000 0.001646 0.000000
# 3 -0.011516 0.000149 0.016079 0.000000 0.018970 0.000000
# 4 0.000000 0.000000 0.000000 0.036479 0.000000 0.008860
# 5 -0.028157 0.001646 0.018970 0.000000 0.090218 0.000000
# 6 0.000000 0.000000 0.000000 0.008860 0.000000 0.075217
#
#
# Mechanical properties :
#
#
# Convention : Reuss Voigt Hill
#
# Bulk Modulus (GPa) = 12.69579 23.27183 17.98381
# Shear Modulus (GPa) = 14.28910 24.12144 19.20527
#
# Velocity S-wave (km/s) = 2.76669 3.59467 3.20751
# Velocity P-wave (km/s) = 4.12397 5.44935 4.83231
#
# Compressibility (1/GPa) = 0.07876624
#
# Stress axis : x y z
#
# Youngs Moduli (GPa) = 13.61111 93.38415 62.19365
#
# Poissons Ratio (x) = -0.05804 0.71623
# Poissons Ratio (y) = -0.00846 -0.00929
# Poissons Ratio (z) = 0.15675 -0.01395
#
# Static dielectric constant tensor:
#      x y z
#    x 1.714660 0.000000 -0.098690 
#    y 0.000000 1.743740 0.000000 
#    z -0.098690 0.000000 1.543630 
# 
# From -- ./inp_files/69935.got.cif
#   From: 2010.05.17/outbox.cif.g08.bks.cpg/sg14_35_cif.got.tgz:69935.got - 2010.06.03 17:49:19.
