data_PCOD9239897
_publ_section_title
;
Structure prediction by ZEFSAII (Michael W. Deem and Ramdas Pophale) SiO2 
 PCOD9239897
Probable space group: P 21/C
;
_chemical_formula_sum "Si O2"
_cell_formula_units_Z 24
_cell_length_a 16.466208
_cell_length_b 13.788605
_cell_length_c 14.088546
_cell_angle_alpha 90.000000
_cell_angle_beta 23.597681
_cell_angle_gamma 90.000000
_cell_volume 1280.497248
_symmetry_space_group_name_H-M "P 21/C"
_symmetry_group_IT_number 14
_symmetry_cell_setting 'monoclinic'
loop_
_space_group_symop_operation_xyz
x,y,z
-x,1/2+y,1/2-z
-x,-y,-z
x,1/2-y,1/2+z
loop_
_atom_site_type_symbol
_atom_site_label
_atom_site_fract_x
_atom_site_fract_y
_atom_site_fract_z
Si Si1 0.420540 0.582368 0.891735
Si Si2 0.869288 0.793498 0.223370
Si Si3 0.544161 0.375303 0.774891
Si Si4 0.221354 0.553348 0.306428
Si Si5 0.775737 0.832876 0.121818
Si Si6 0.867743 0.287840 0.903137
O O1 0.530303 0.482472 0.745639
O O2 0.577879 0.660742 0.766671
O O3 0.278389 0.556797 0.134922
O O4 0.288582 0.625235 0.948222
O O5 0.675137 0.825237 0.493089
O O6 0.782097 0.771101 0.212160
O O7 0.007478 0.717109 0.132201
O O8 0.024640 0.883236 0.041232
O O9 0.596251 0.397018 0.830051
O O10 0.727670 0.308120 0.543947
O O11 0.202594 0.445747 0.368611
O O12 0.964677 0.797793 0.857714
#
# Coordination Sequence:
#
# PCOD9239897 Si02
#       6
#     4   4   4   4   4   4
#     4  11  19  36  59  87 115 148 188 237 295 337
#     4  11  19  33  53  82 118 146 182 233 289 344
#     4  10  20  35  54  84 121 147 185 231 292 346
#     4  10  18  32  62  89 105 139 185 247 304 339
#     4  11  19  34  57  82 115 147 183 235 295 338
#     4  11  24  32  50  90 120 153 186 233 289 340
#
# _framework density 18.742718
#
# number of rings (size 3 to 8) (size 9 to 14) (size 15 to 20)
#    0.000    1.333    5.000    3.500    0.000    0.000 
#    0.000    0.000    0.000    1.000    0.000   18.667 
#    0.000    0.000    0.000    0.000    0.000    0.000 
#
# Total GULP energy -133756.923624 kJ/mol
# GULP energy per Si atom -5573.205151 kJ/mol
# Density = 1.870006 g / cm^3
# Si number density = 18.742718 Si / 1000 Ang^3
#
#
#
# Elastic Constant Matrix: (Units=GPa)
#
#
# Indices 1 2 3 4 5 6 
#
# 1 -21.7581 -22.4111 19.8791 0.0000 -27.5325 0.0000
# 2 -22.4111 25.3271 32.2618 0.0000 1.1269 0.0000
# 3 19.8791 32.2618 92.8105 0.0000 -13.0127 0.0000
# 4 0.0000 0.0000 0.0000 32.9504 0.0000 -7.1825
# 5 -27.5325 1.1269 -13.0127 0.0000 31.6694 0.0000
# 6 0.0000 0.0000 0.0000 -7.1825 0.0000 33.1735
#
#
#
# Elastic Compliance Matrix: (Units=1/GPa)
#
#
# Indices 1 2 3 4 5 6 
#
# 1 -0.010745 -0.020296 0.008646 0.000000 -0.005066 0.000000
# 2 -0.020296 0.038334 -0.012355 0.000000 -0.024085 0.000000
# 3 0.008646 -0.012355 0.015209 0.000000 0.014206 0.000000
# 4 0.000000 0.000000 0.000000 0.031852 0.000000 0.006896
# 5 -0.005066 -0.024085 0.014206 0.000000 0.033866 0.000000
# 6 0.000000 0.000000 0.000000 0.006896 0.000000 0.031638
#
#
# Mechanical properties :
#
#
# Convention : Reuss Voigt Hill
#
# Bulk Modulus (GPa) = -191.90918 17.31547 -87.29686
# Shear Modulus (GPa) = 26.82028 24.00197 25.41112
#
# Velocity S-wave (km/s) = 3.78692 3.58243 3.68610
# Velocity P-wave (km/s) = 9.13743 5.13520 5.34426
#
# Compressibility (1/GPa) = -0.00521080
#
# Stress axis : x y z
#
# Youngs Moduli (GPa) = -93.06818 26.08643 65.74962
#
# Poissons Ratio (x) = 0.52944 -0.56847
# Poissons Ratio (y) = -1.88887 0.81234
# Poissons Ratio (z) = 0.80467 0.32230
#
# Static dielectric constant tensor:
#      x y z
#    x 1.739050 0.000000 -0.049180 
#    y 0.000000 1.667550 0.000000 
#    z -0.049180 0.000000 1.674390 
# 
# From -- ./inp_files/32524.got.cif
#   From: 2010.05.17/outbox.cif.g08.bks.cpg/sg14_17_cif.got.tgz:32524.got - 2010.06.03 17:49:19.
