data_PCOD9239734
_publ_section_title
;
Structure prediction by ZEFSAII (Michael W. Deem and Ramdas Pophale) SiO2 
 PCOD9239734
Probable space group: P 21/C
;
_chemical_formula_sum "Si O2"
_cell_formula_units_Z 32
_cell_length_a 15.498729
_cell_length_b 17.478163
_cell_length_c 10.324226
_cell_angle_alpha 90.000000
_cell_angle_beta 140.674370
_cell_angle_gamma 90.000000
_cell_volume 1772.358459
_symmetry_space_group_name_H-M "P 21/C"
_symmetry_group_IT_number 14
_symmetry_cell_setting 'monoclinic'
loop_
_space_group_symop_operation_xyz
x,y,z
-x,1/2+y,1/2-z
-x,-y,-z
x,1/2-y,1/2+z
loop_
_atom_site_type_symbol
_atom_site_label
_atom_site_fract_x
_atom_site_fract_y
_atom_site_fract_z
Si Si1 0.432462 0.604024 0.531016
Si Si2 0.480812 0.892593 0.373210
Si Si3 0.671054 0.941307 0.809194
Si Si4 0.932892 0.563327 0.015762
Si Si5 0.053566 0.978347 0.920733
Si Si6 0.206390 0.815896 0.106328
Si Si7 0.155068 0.694544 0.258971
Si Si8 0.365478 0.077088 0.945910
O O1 0.507146 0.624297 0.752860
O O2 0.286877 0.644730 0.370280
O O3 0.523090 0.620705 0.510739
O O4 0.404527 0.513053 0.495223
O O5 0.610884 0.897110 0.616249
O O6 0.366964 0.835513 0.298286
O O7 0.407753 0.976525 0.285052
O O8 0.641606 0.900688 0.911601
O O9 0.830085 0.961179 0.985096
O O10 0.946304 0.531786 0.178830
O O11 0.025511 0.638905 0.109597
O O12 0.780486 0.580190 0.793103
O O13 0.000000 0.500000 0.000000
O O14 0.129639 0.896953 0.018029
O O15 0.000000 0.000000 0.000000
O O16 0.150794 0.763989 0.155593
O O17 0.179407 0.779315 0.934579
#
# Coordination Sequence:
#
# PCOD9239734 Si02
#       8
#     4   4   4   4   4   4   4   4
#     4   9  18  31  52  78 104 136 174 220 263 323
#     4   8  16  31  50  73 104 132 165 213 268 305
#     4   9  16  30  49  76 107 133 160 218 268 312
#     4  11  19  35  55  80 114 146 177 232 276 317
#     4  10  21  34  53  82 112 140 184 225 271 333
#     4   9  20  37  55  78 105 142 183 225 269 328
#     4  10  20  37  57  76 109 144 184 226 273 326
#     4  10  18  31  51  81 110 134 175 218 273 316
#
# _framework density 18.055038
#
# number of rings (size 3 to 8) (size 9 to 14) (size 15 to 20)
#    0.000    2.500    2.500    1.500    1.750    2.000 
#    2.250    0.000    2.750    0.000    0.000    0.000 
#    0.000    0.000    0.000    0.000    0.000    0.000 
#
# Total GULP energy -178337.749604 kJ/mol
# GULP energy per Si atom -5573.054675 kJ/mol
# Density = 1.801394 g / cm^3
# Si number density = 18.055038 Si / 1000 Ang^3
#
#
#
# Elastic Constant Matrix: (Units=GPa)
#
#
# Indices 1 2 3 4 5 6 
#
# 1 102.0963 6.6882 41.3967 0.0000 -23.5972 0.0000
# 2 6.6882 17.6244 10.1757 0.0000 -13.2073 0.0000
# 3 41.3967 10.1757 106.0756 0.0000 -13.5811 0.0000
# 4 0.0000 0.0000 0.0000 10.2777 0.0000 -9.2524
# 5 -23.5972 -13.2073 -13.5811 0.0000 23.3607 0.0000
# 6 0.0000 0.0000 0.0000 -9.2524 0.0000 28.1291
#
#
#
# Elastic Compliance Matrix: (Units=1/GPa)
#
#
# Indices 1 2 3 4 5 6 
#
# 1 0.015362 0.011197 -0.004616 0.000000 0.019164 0.000000
# 2 0.011197 0.107230 -0.005884 0.000000 0.068513 0.000000
# 3 -0.004616 -0.005884 0.011636 0.000000 -0.001224 0.000000
# 4 0.000000 0.000000 0.000000 0.138229 0.000000 0.045467
# 5 0.019164 0.068513 -0.001224 0.000000 0.100188 0.000000
# 6 0.000000 0.000000 0.000000 0.045467 0.000000 0.050506
#
#
# Mechanical properties :
#
#
# Convention : Reuss Voigt Hill
#
# Bulk Modulus (GPa) = 7.37341 38.03525 22.70433
# Shear Modulus (GPa) = 10.70744 23.52257 17.11501
#
# Velocity S-wave (km/s) = 2.43789 3.61338 3.08220
# Velocity P-wave (km/s) = 3.46658 6.20651 5.02682
#
# Compressibility (1/GPa) = 0.13562237
#
# Stress axis : x y z
#
# Youngs Moduli (GPa) = 65.09549 9.32573 85.93853
#
# Poissons Ratio (x) = -0.10442 0.39665
# Poissons Ratio (y) = -0.72884 0.50567
# Poissons Ratio (z) = 0.30045 0.05487
#
# Static dielectric constant tensor:
#      x y z
#    x 1.623420 0.000000 -0.011380 
#    y 0.000000 1.607150 0.000000 
#    z -0.011380 0.000000 1.631930 
# 
# From -- ./inp_files/16880.got.cif
#   From: 2010.05.17/outbox.cif.g08.bks.cpg/sg14_9_cif.got.tgz:16880.got - 2010.06.03 17:49:19.
