data_PCOD9239237
_publ_section_title
;
Structure prediction by ZEFSAII (Michael W. Deem and Ramdas Pophale) SiO2 
 PCOD9239237
Probable space group: P 21/C
;
_chemical_formula_sum "Si O2"
_cell_formula_units_Z 32
_cell_length_a 21.047486
_cell_length_b 12.133902
_cell_length_c 14.839750
_cell_angle_alpha 90.000000
_cell_angle_beta 158.621346
_cell_angle_gamma 90.000000
_cell_volume 1381.530374
_symmetry_space_group_name_H-M "P 21/C"
_symmetry_group_IT_number 14
_symmetry_cell_setting 'monoclinic'
loop_
_space_group_symop_operation_xyz
x,y,z
-x,1/2+y,1/2-z
-x,-y,-z
x,1/2-y,1/2+z
loop_
_atom_site_type_symbol
_atom_site_label
_atom_site_fract_x
_atom_site_fract_y
_atom_site_fract_z
Si Si1 0.247231 0.599751 0.014657
Si Si2 0.187509 0.048694 0.770642
Si Si3 0.686082 0.045755 0.777939
Si Si4 0.191981 0.555707 0.750359
Si Si5 0.092936 0.145521 0.834312
Si Si6 0.439520 0.117502 0.961006
Si Si7 0.472090 0.902807 0.252302
Si Si8 0.321242 0.337712 0.126396
O O1 0.198220 0.631547 0.847924
O O2 0.104108 0.629392 0.898686
O O3 0.427070 0.648891 0.285785
O O4 0.270264 0.466310 0.050376
O O5 0.147705 0.121752 0.804757
O O6 0.258250 0.105335 0.773416
O O7 0.000000 0.000000 0.500000
O O8 0.342985 0.967419 0.011619
O O9 0.777174 0.098698 0.810389
O O10 0.645337 0.115265 0.814324
O O11 0.500000 0.000000 0.500000
O O12 0.800317 0.940873 0.962253
O O13 0.000000 0.500000 0.500000
O O14 0.360337 0.475343 0.991199
O O15 0.148697 0.270742 0.918117
O O16 0.433108 0.189450 0.863289
O O17 0.500000 0.000000 0.000000
O O18 0.566526 0.812264 0.314422
#
# Coordination Sequence:
#
# PCOD9239237 Si02
#       8
#     4   4   4   4   4   4   4   4
#     4  10  20  39  68  91 133 178 224 278 347 399
#     4  11  20  36  67  96 126 178 230 277 342 399
#     4   9  19  35  59  88 123 172 218 264 339 398
#     4  10  16  32  61  94 124 176 221 261 336 413
#     4  11  23  38  64  98 134 174 235 282 327 421
#     4  10  18  38  66  90 124 175 218 272 345 400
#     4   9  19  36  60  89 130 170 221 275 329 402
#     4  10  21  40  65  94 133 175 230 274 342 400
#
# _framework density 23.162718999999999
#
# number of rings (size 3 to 8) (size 9 to 14) (size 15 to 20)
#    0.000    2.000    5.000    1.500    0.000    0.000 
#    6.750    1.250    8.250    0.000    0.000    0.000 
#    0.000    0.000    0.000    0.000    0.000    0.000 
#
# Total GULP energy -178398.514644 kJ/mol
# GULP energy per Si atom -5574.953583 kJ/mol
# Density = 2.311000 g / cm^3
# Si number density = 23.162719 Si / 1000 Ang^3
#
#
#
# Elastic Constant Matrix: (Units=GPa)
#
#
# Indices 1 2 3 4 5 6 
#
# 1 198.7214 14.3355 24.6106 0.0000 12.1664 0.0000
# 2 14.3355 37.6258 6.0094 0.0000 3.5640 0.0000
# 3 24.6106 6.0094 104.7109 0.0000 12.4592 0.0000
# 4 0.0000 0.0000 0.0000 5.6480 0.0000 11.9683
# 5 12.1664 3.5640 12.4592 0.0000 47.7100 0.0000
# 6 0.0000 0.0000 0.0000 11.9683 0.0000 10.1060
#
#
#
# Elastic Compliance Matrix: (Units=1/GPa)
#
#
# Indices 1 2 3 4 5 6 
#
# 1 0.005348 -0.001781 -0.001041 0.000000 -0.000959 0.000000
# 2 -0.001781 0.027543 -0.001003 0.000000 -0.001342 0.000000
# 3 -0.001041 -0.001003 0.010126 0.000000 -0.002304 0.000000
# 4 0.000000 0.000000 0.000000 -0.117292 0.000000 0.138906
# 5 -0.000959 -0.001342 -0.002304 0.000000 0.021906 0.000000
# 6 0.000000 0.000000 0.000000 0.138906 0.000000 -0.065552
#
#
# Mechanical properties :
#
#
# Convention : Reuss Voigt Hill
#
# Bulk Modulus (GPa) = 28.27258 47.88548 38.07903
# Shear Modulus (GPa) = -50.77045 32.43297 -9.16874
#
# Velocity S-wave (km/s) = -4.68686 3.74601 -1.99173
# Velocity P-wave (km/s) = 4.12992 6.27922 3.34457
#
# Compressibility (1/GPa) = 0.03536996
#
# Stress axis : x y z
#
# Youngs Moduli (GPa) = 186.97789 36.30667 98.75171
#
# Poissons Ratio (x) = 0.06465 0.10277
# Poissons Ratio (y) = 0.33294 0.09901
# Poissons Ratio (z) = 0.19459 0.03640
#
# Static dielectric constant tensor:
#      x y z
#    x 1.905490 0.000000 -0.080890 
#    y 0.000000 1.822030 0.000000 
#    z -0.080890 0.000000 1.856360 
# 
# From -- ./inp_files/50707.got.cif
#   From: 2010.05.17/outbox.cif.g08.bks.cpg/sg14_26_cif.got.tgz:50707.got - 2010.06.03 17:49:19.
