data_PCOD9239998
_publ_section_title
;
Structure prediction by ZEFSAII (Michael W. Deem and Ramdas Pophale) SiO2 
 PCOD9239998
Probable space group: P 21/C
;
_chemical_formula_sum "Si O2"
_cell_formula_units_Z 28
_cell_length_a 7.410019
_cell_length_b 13.517801
_cell_length_c 18.627679
_cell_angle_alpha 90.000000
_cell_angle_beta 145.746528
_cell_angle_gamma 90.000000
_cell_volume 1050.220900
_symmetry_space_group_name_H-M "P 21/C"
_symmetry_group_IT_number 14
_symmetry_cell_setting 'monoclinic'
loop_
_space_group_symop_operation_xyz
x,y,z
-x,1/2+y,1/2-z
-x,-y,-z
x,1/2-y,1/2+z
loop_
_atom_site_type_symbol
_atom_site_label
_atom_site_fract_x
_atom_site_fract_y
_atom_site_fract_z
Si Si1 0.209611 0.894428 0.837780
Si Si2 0.351682 0.220297 0.493525
Si Si3 0.874957 0.835634 0.356345
Si Si4 0.751821 0.042264 0.983146
Si Si5 0.823879 0.375951 0.331242
Si Si6 0.214067 0.946300 0.337904
Si Si7 0.481043 0.744588 0.117078
O O1 0.866252 0.937865 0.699802
O O2 0.351728 0.784571 0.874960
O O3 0.251582 0.920339 0.934883
O O4 0.464388 0.964090 0.880220
O O5 0.029347 0.275852 0.413132
O O6 0.437899 0.105823 0.538471
O O7 0.379786 0.239960 0.417439
O O8 0.018929 0.905336 0.341801
O O9 0.165472 0.821674 0.506976
O O10 0.557083 0.866850 0.292709
O O11 0.747523 0.739181 0.267633
O O12 0.667527 0.145781 0.918062
O O13 0.065527 0.971958 0.086122
O O14 0.916372 0.403876 0.279956
#
# Coordination Sequence:
#
# PCOD9239998 Si02
#       7
#     4   4   4   4   4   4   4
#     4   8  13  28  52  78 103 132 179 227 267 308
#     4   9  18  32  56  78 107 141 180 224 276 311
#     4  11  22  33  54  81 111 138 181 216 276 319
#     4   8  14  30  53  75 104 129 179 228 271 294
#     4  10  20  33  53  82 101 139 182 231 263 316
#     4  10  18  34  51  77 110 141 166 231 274 317
#     4  10  19  36  53  82 108 145 171 229 265 328
#
# _framework density 26.661057
#
# number of rings (size 3 to 8) (size 9 to 14) (size 15 to 20)
#    0.000    2.571    2.857    1.714    2.000    0.571 
#    0.000    0.000    0.000    1.714    7.429    0.000 
#    0.000    0.000    0.000    0.000    0.000    0.000 
#
# Total GULP energy -156299.059740 kJ/mol
# GULP energy per Si atom -5582.109276 kJ/mol
# Density = 2.660037 g / cm^3
# Si number density = 26.661057 Si / 1000 Ang^3
#
#
#
# Elastic Constant Matrix: (Units=GPa)
#
#
# Indices 1 2 3 4 5 6 
#
# 1 69.4991 14.3626 2.8313 0.0000 22.1183 0.0000
# 2 14.3626 76.2216 22.5041 0.0000 11.2122 0.0000
# 3 2.8313 22.5041 96.3944 0.0000 8.0362 0.0000
# 4 0.0000 0.0000 0.0000 53.7472 0.0000 5.0930
# 5 22.1183 11.2122 8.0362 0.0000 36.7971 0.0000
# 6 0.0000 0.0000 0.0000 5.0930 0.0000 22.2575
#
#
#
# Elastic Compliance Matrix: (Units=1/GPa)
#
#
# Indices 1 2 3 4 5 6 
#
# 1 0.018110 -0.002126 0.000833 0.000000 -0.010420 0.000000
# 2 -0.002126 0.014836 -0.003189 0.000000 -0.002546 0.000000
# 3 0.000833 -0.003189 0.011260 0.000000 -0.001988 0.000000
# 4 0.000000 0.000000 0.000000 0.019018 0.000000 -0.004352
# 5 -0.010420 -0.002546 -0.001988 0.000000 0.034650 0.000000
# 6 0.000000 0.000000 0.000000 -0.004352 0.000000 0.045924
#
#
# Mechanical properties :
#
#
# Convention : Reuss Voigt Hill
#
# Bulk Modulus (GPa) = 28.37432 35.72346 32.04889
# Shear Modulus (GPa) = 30.39342 36.05483 33.22413
#
# Velocity S-wave (km/s) = 3.38004 3.68141 3.53394
# Velocity P-wave (km/s) = 5.08907 5.61236 5.35711
#
# Compressibility (1/GPa) = 0.03524314
#
# Stress axis : x y z
#
# Youngs Moduli (GPa) = 55.21737 67.40223 88.81147
#
# Poissons Ratio (x) = 0.14328 -0.07398
# Poissons Ratio (y) = 0.11738 0.28321
# Poissons Ratio (z) = -0.04600 0.21494
#
# Static dielectric constant tensor:
#      x y z
#    x 2.203660 0.000000 -0.017750 
#    y 0.000000 2.101410 0.000000 
#    z -0.017750 0.000000 2.169380 
# 
# From -- ./inp_files/66012.got.cif
#   From: 2010.05.17/outbox.cif.g08.bks.cpg/sg14_34_cif.got.tgz:66012.got - 2010.06.03 17:49:19.
