data_PCOD9239974
_publ_section_title
;
Structure prediction by ZEFSAII (Michael W. Deem and Ramdas Pophale) SiO2 
 PCOD9239974
Probable space group: P 21/C
;
_chemical_formula_sum "Si O2"
_cell_formula_units_Z 22
_cell_length_a 11.845234
_cell_length_b 7.103365
_cell_length_c 13.499728
_cell_angle_alpha 90.000000
_cell_angle_beta 130.494858
_cell_angle_gamma 90.000000
_cell_volume 863.796807
_symmetry_space_group_name_H-M "P 21/C"
_symmetry_group_IT_number 14
_symmetry_cell_setting 'monoclinic'
loop_
_space_group_symop_operation_xyz
x,y,z
-x,1/2+y,1/2-z
-x,-y,-z
x,1/2-y,1/2+z
loop_
_atom_site_type_symbol
_atom_site_label
_atom_site_fract_x
_atom_site_fract_y
_atom_site_fract_z
Si Si1 0.247117 0.670785 0.613326
Si Si2 0.372218 0.700233 0.991533
Si Si3 0.865100 0.730109 0.590622
Si Si4 0.133626 0.025870 0.227601
Si Si5 0.465421 0.289065 0.101590
Si Si6 0.000000 0.500000 0.000000
O O1 0.305984 0.664585 0.535146
O O2 0.195225 0.492604 0.651315
O O3 0.394508 0.753519 0.751381
O O4 0.115263 0.822416 0.545984
O O5 0.448111 0.516131 0.083158
O O6 0.237437 0.617968 0.848614
O O7 0.492453 0.780072 0.984311
O O8 0.695790 0.724348 0.458844
O O9 0.942129 0.895349 0.570754
O O10 0.966886 0.548983 0.634655
O O11 0.859262 0.784078 0.704752
#
# Coordination Sequence:
#
# PCOD9239974 Si02
#       6
#     4   4   4   4   4   2
#     4  10  18  33  59  87 109 158 195 244 294 358
#     4   9  17  36  54  80 114 154 191 243 288 348
#     4  10  19  38  58  86 116 162 195 248 294 354
#     4   9  19  34  60  81 118 158 201 239 298 356
#     4   9  18  33  57  80 114 152 198 235 294 347
#     4  10  18  34  64  78 116 160 196 228 308 346
#
# _framework density 25.468955000000001
#
# number of rings (size 3 to 8) (size 9 to 14) (size 15 to 20)
#    0.000    2.545    3.636    1.091    0.000    0.000 
#    3.273    2.727    0.000    5.455    0.000    0.000 
#    0.000    0.000    0.000    0.000    0.000    0.000 
#
# Total GULP energy -122580.535193 kJ/mol
# GULP energy per Si atom -5571.842509 kJ/mol
# Density = 2.541099 g / cm^3
# Si number density = 25.468955 Si / 1000 Ang^3
#
#
#
# Elastic Constant Matrix: (Units=GPa)
#
#
# Indices 1 2 3 4 5 6 
#
# 1 174.9411 13.9394 35.0793 0.0000 -22.4332 0.0000
# 2 13.9394 65.3874 15.9371 0.0000 -11.8003 0.0000
# 3 35.0793 15.9371 47.1411 0.0000 -6.9519 0.0000
# 4 0.0000 0.0000 0.0000 -1.7203 0.0000 -7.2848
# 5 -22.4332 -11.8003 -6.9519 0.0000 40.9031 0.0000
# 6 0.0000 0.0000 0.0000 -7.2848 0.0000 25.4373
#
#
#
# Elastic Compliance Matrix: (Units=1/GPa)
#
#
# Indices 1 2 3 4 5 6 
#
# 1 0.007077 0.000246 -0.004889 0.000000 0.003122 0.000000
# 2 0.000246 0.017322 -0.005418 0.000000 0.004211 0.000000
# 3 -0.004889 -0.005418 0.026727 0.000000 0.000298 0.000000
# 4 0.000000 0.000000 0.000000 -0.262706 0.000000 -0.075235
# 5 0.003122 0.004211 0.000298 0.000000 0.027426 0.000000
# 6 0.000000 0.000000 0.000000 -0.075235 0.000000 0.017767
#
#
# Mechanical properties :
#
#
# Convention : Reuss Voigt Hill
#
# Bulk Modulus (GPa) = 32.25468 46.37571 39.31520
# Shear Modulus (GPa) = -36.78332 27.75828 -4.51252
#
# Velocity S-wave (km/s) = -3.80444 3.30492 -1.33252
# Velocity P-wave (km/s) = 2.57032 5.72814 3.61974
#
# Compressibility (1/GPa) = 0.03100325
#
# Stress axis : x y z
#
# Youngs Moduli (GPa) = 141.29697 57.73154 37.41549
#
# Poissons Ratio (x) = -0.01422 0.18294
# Poissons Ratio (y) = -0.03480 0.20272
# Poissons Ratio (z) = 0.69085 0.31280
#
# Static dielectric constant tensor:
#      x y z
#    x 1.792310 0.000000 0.091960 
#    y 0.000000 2.064950 0.000000 
#    z 0.091960 0.000000 2.047960 
# 
# From -- ./inp_files/28746.got.cif
#   From: 2010.05.17/outbox.cif.g08.bks.cpg/sg14_15_cif.got.tgz:28746.got - 2010.06.03 17:49:19.
