data_PCOD9239360
_publ_section_title
;
Structure prediction by ZEFSAII (Michael W. Deem and Ramdas Pophale) SiO2 
 PCOD9239360
Probable space group: P 21/C
;
_chemical_formula_sum "Si O2"
_cell_formula_units_Z 24
_cell_length_a 18.444781
_cell_length_b 11.846207
_cell_length_c 8.466031
_cell_angle_alpha 90.000000
_cell_angle_beta 43.958333
_cell_angle_gamma 90.000000
_cell_volume 1284.034397
_symmetry_space_group_name_H-M "P 21/C"
_symmetry_group_IT_number 14
_symmetry_cell_setting 'monoclinic'
loop_
_space_group_symop_operation_xyz
x,y,z
-x,1/2+y,1/2-z
-x,-y,-z
x,1/2-y,1/2+z
loop_
_atom_site_type_symbol
_atom_site_label
_atom_site_fract_x
_atom_site_fract_y
_atom_site_fract_z
Si Si1 0.313071 0.364027 0.397952
Si Si2 0.684497 0.497842 0.909838
Si Si3 0.173913 0.204521 0.399389
Si Si4 0.098118 0.081704 0.821487
Si Si5 0.520706 0.884733 0.876487
Si Si6 0.468606 0.703483 0.781282
O O1 0.319456 0.468676 0.267800
O O2 0.263503 0.266709 0.363090
O O3 0.426611 0.338675 0.292272
O O4 0.232525 0.367154 0.671520
O O5 0.801188 0.506948 0.789945
O O6 0.622390 0.591652 0.111995
O O7 0.624712 0.381939 0.037666
O O8 0.110075 0.128945 0.623950
O O9 0.108615 0.306025 0.417383
O O10 0.000000 0.000000 0.000000
O O11 0.442207 0.830958 0.873212
O O12 0.505229 0.799046 0.044398
O O13 0.500000 0.000000 0.000000
#
# Coordination Sequence:
#
# PCOD9239360 Si02
#       6
#     4   4   4   4   4   4
#     4  10  17  30  53  80 107 135 177 226 271 331
#     4  10  21  34  53  82 108 143 188 230 276 324
#     4   9  19  35  59  84 106 144 191 228 272 333
#     4  10  20  39  60  81 110 145 188 237 277 322
#     4  10  21  34  50  75 111 149 180 216 270 330
#     4  11  19  32  52  78 110 144 181 225 268 324
#
# _framework density 18.691088000000001
#
# number of rings (size 3 to 8) (size 9 to 14) (size 15 to 20)
#    0.000    2.000    0.000    6.500    0.000    1.333 
#    0.000   10.833    0.000    0.000    0.000    0.000 
#    0.000    0.000    0.000    0.000    0.000    0.000 
#
# Total GULP energy -133628.177014 kJ/mol
# GULP energy per Si atom -5567.840709 kJ/mol
# Density = 1.864855 g / cm^3
# Si number density = 18.691088 Si / 1000 Ang^3
#
#
#
# Elastic Constant Matrix: (Units=GPa)
#
#
# Indices 1 2 3 4 5 6 
#
# 1 52.5571 20.6905 52.0934 0.0000 0.6653 0.0000
# 2 20.6905 67.1144 51.2810 0.0000 -7.5815 0.0000
# 3 52.0934 51.2810 134.9530 0.0000 7.1143 0.0000
# 4 0.0000 0.0000 0.0000 34.3655 0.0000 -2.7769
# 5 0.6653 -7.5815 7.1143 0.0000 36.0021 0.0000
# 6 0.0000 0.0000 0.0000 -2.7769 0.0000 24.6383
#
#
#
# Elastic Compliance Matrix: (Units=1/GPa)
#
#
# Indices 1 2 3 4 5 6 
#
# 1 0.030936 -0.000204 -0.011956 0.000000 0.001748 0.000000
# 2 -0.000204 0.022393 -0.008771 0.000000 0.006453 0.000000
# 3 -0.011956 -0.008771 0.015606 0.000000 -0.004710 0.000000
# 4 0.000000 0.000000 0.000000 0.029366 0.000000 0.003310
# 5 0.001748 0.006453 -0.004710 0.000000 0.030033 0.000000
# 6 0.000000 0.000000 0.000000 0.003310 0.000000 0.040960
#
#
# Mechanical properties :
#
#
# Convention : Reuss Voigt Hill
#
# Bulk Modulus (GPa) = 36.93649 55.86161 46.39905
# Shear Modulus (GPa) = 22.70851 27.70516 25.20684
#
# Velocity S-wave (km/s) = 3.48938 3.85420 3.67632
# Velocity P-wave (km/s) = 6.00323 7.05394 6.54969
#
# Compressibility (1/GPa) = 0.02707350
#
# Stress axis : x y z
#
# Youngs Moduli (GPa) = 32.32495 44.65628 64.07692
#
# Poissons Ratio (x) = 0.00912 0.76611
# Poissons Ratio (y) = 0.00660 0.56199
# Poissons Ratio (z) = 0.38648 0.39166
#
# Static dielectric constant tensor:
#      x y z
#    x 1.607520 0.000000 0.035890 
#    y 0.000000 1.794960 0.000000 
#    z 0.035890 0.000000 1.636080 
# 
# From -- ./inp_files/18831.got.cif
#   From: 2010.05.17/outbox.cif.g08.bks.cpg/sg14_10_cif.got.tgz:18831.got - 2010.06.03 17:49:19.
