data_PCOD9239534
_publ_section_title
;
Structure prediction by ZEFSAII (Michael W. Deem and Ramdas Pophale) SiO2 
 PCOD9239534
Probable space group: P 21/C
;
_chemical_formula_sum "Si O2"
_cell_formula_units_Z 32
_cell_length_a 7.828135
_cell_length_b 11.760446
_cell_length_c 24.252511
_cell_angle_alpha 90.000000
_cell_angle_beta 33.407805
_cell_angle_gamma 90.000000
_cell_volume 1229.336133
_symmetry_space_group_name_H-M "P 21/C"
_symmetry_group_IT_number 14
_symmetry_cell_setting 'monoclinic'
loop_
_space_group_symop_operation_xyz
x,y,z
-x,1/2+y,1/2-z
-x,-y,-z
x,1/2-y,1/2+z
loop_
_atom_site_type_symbol
_atom_site_label
_atom_site_fract_x
_atom_site_fract_y
_atom_site_fract_z
Si Si1 0.795270 0.929954 0.817766
Si Si2 0.493754 0.301739 0.148671
Si Si3 0.864572 0.816167 0.143811
Si Si4 0.752906 0.378240 0.243255
Si Si5 0.497037 0.540953 0.107065
Si Si6 0.934911 0.552097 0.404639
Si Si7 0.322771 0.080075 0.318706
Si Si8 0.893622 0.715497 0.940708
O O1 0.600419 0.822593 0.847790
O O2 0.742132 0.050013 0.801183
O O3 0.782919 0.948777 0.885826
O O4 0.155851 0.907959 0.706453
O O5 0.254282 0.340109 0.261800
O O6 0.486745 0.403791 0.106220
O O7 0.817580 0.295558 0.094505
O O8 0.914179 0.682230 0.130694
O O9 0.574147 0.819659 0.180070
O O10 0.071275 0.923115 0.071459
O O11 0.787610 0.474534 0.186934
O O12 0.006930 0.291473 0.151051
O O13 0.673575 0.559561 0.117500
O O14 0.659022 0.615853 0.017619
O O15 0.783001 0.655060 0.478734
O O16 0.308866 0.585541 0.299018
#
# Coordination Sequence:
#
# PCOD9239534 Si02
#       8
#     4   4   4   4   4   4   4   4
#     4  11  23  35  56  92 123 158 204 249 311 367
#     4  11  19  37  62  89 120 160 208 257 298 369
#     4  10  17  35  61  83 113 154 216 250 278 357
#     4  10  19  32  59  86 116 154 197 249 303 354
#     4  11  24  38  60  96 129 152 201 262 323 365
#     4  10  20  35  55  84 123 162 201 252 301 365
#     4  10  17  36  57  88 113 161 207 245 290 369
#     4  11  22  40  62  90 127 161 199 257 317 368
#
# _framework density 26.030311000000001
#
# number of rings (size 3 to 8) (size 9 to 14) (size 15 to 20)
#    0.000    1.500    8.750    1.125    1.750    0.500 
#    0.000    0.625    0.000    0.750    0.000    0.000 
#    0.000    0.000    0.000    0.000    0.000    0.000 
#
# Total GULP energy -178918.328570 kJ/mol
# GULP energy per Si atom -5591.197768 kJ/mol
# Density = 2.597106 g / cm^3
# Si number density = 26.030311 Si / 1000 Ang^3
#
#
#
# Elastic Constant Matrix: (Units=GPa)
#
#
# Indices 1 2 3 4 5 6 
#
# 1 64.8956 16.2455 19.3769 0.0000 -3.1696 0.0000
# 2 16.2455 101.9950 26.5830 0.0000 -0.2803 0.0000
# 3 19.3769 26.5830 76.9951 0.0000 0.9399 0.0000
# 4 0.0000 0.0000 0.0000 29.1000 0.0000 5.7376
# 5 -3.1696 -0.2803 0.9399 0.0000 13.0009 0.0000
# 6 0.0000 0.0000 0.0000 5.7376 0.0000 50.0451
#
#
#
# Elastic Compliance Matrix: (Units=1/GPa)
#
#
# Indices 1 2 3 4 5 6 
#
# 1 0.017190 -0.001741 -0.003779 0.000000 0.004426 0.000000
# 2 -0.001741 0.010953 -0.003344 0.000000 0.000054 0.000000
# 3 -0.003779 -0.003344 0.015119 0.000000 -0.002086 0.000000
# 4 0.000000 0.000000 0.000000 0.035159 0.000000 -0.004031
# 5 0.004426 0.000054 -0.002086 0.000000 0.078149 0.000000
# 6 0.000000 0.000000 0.000000 -0.004031 0.000000 0.020444
#
#
# Mechanical properties :
#
#
# Convention : Reuss Voigt Hill
#
# Bulk Modulus (GPa) = 39.16370 40.92181 40.04276
# Shear Modulus (GPa) = 24.59981 30.54124 27.57052
#
# Velocity S-wave (km/s) = 3.07749 3.42906 3.25802
# Velocity P-wave (km/s) = 5.26365 5.60650 5.43778
#
# Compressibility (1/GPa) = 0.02553385
#
# Stress axis : x y z
#
# Youngs Moduli (GPa) = 58.17430 91.29549 66.14194
#
# Poissons Ratio (x) = 0.15893 0.24995
# Poissons Ratio (y) = 0.10127 0.22120
# Poissons Ratio (z) = 0.21984 0.30532
#
# Static dielectric constant tensor:
#      x y z
#    x 1.998180 0.000000 -0.019960 
#    y 0.000000 2.117630 0.000000 
#    z -0.019960 0.000000 2.127970 
# 
# From -- ./inp_files/55587.got.cif
#   From: 2010.05.17/outbox.cif.g08.bks.cpg/sg14_28_cif.got.tgz:55587.got - 2010.06.03 17:49:19.
