data_PCOD9239887
_publ_section_title
;
Structure prediction by ZEFSAII (Michael W. Deem and Ramdas Pophale) SiO2 
 PCOD9239887
Probable space group: P 21/C
;
_chemical_formula_sum "Si O2"
_cell_formula_units_Z 30
_cell_length_a 9.004019
_cell_length_b 9.229803
_cell_length_c 18.326931
_cell_angle_alpha 90.000000
_cell_angle_beta 44.721695
_cell_angle_gamma 90.000000
_cell_volume 1071.726047
_symmetry_space_group_name_H-M "P 21/C"
_symmetry_group_IT_number 14
_symmetry_cell_setting 'monoclinic'
loop_
_space_group_symop_operation_xyz
x,y,z
-x,1/2+y,1/2-z
-x,-y,-z
x,1/2-y,1/2+z
loop_
_atom_site_type_symbol
_atom_site_label
_atom_site_fract_x
_atom_site_fract_y
_atom_site_fract_z
Si Si1 0.163765 0.450218 0.544225
Si Si2 0.000000 0.000000 0.500000
Si Si3 0.246309 0.005877 0.174959
Si Si4 0.545984 0.903861 0.764001
Si Si5 0.217373 0.018787 0.668830
Si Si6 0.196043 0.721401 0.813784
Si Si7 0.646999 0.853337 0.529879
Si Si8 0.799040 0.856925 0.165067
O O1 0.272479 0.506299 0.579900
O O2 0.304650 0.314670 0.464686
O O3 0.965274 0.351254 0.636777
O O4 0.029722 0.584772 0.555179
O O5 0.110732 0.895790 0.400327
O O6 0.769549 0.968361 0.537590
O O7 0.423866 0.089773 0.159104
O O8 0.004805 0.058781 0.270577
O O9 0.234348 0.858732 0.225176
O O10 0.395734 0.787058 0.782347
O O11 0.396203 0.042547 0.795861
O O12 0.768932 0.817013 0.663903
O O13 0.406580 0.906288 0.613775
O O14 0.195051 0.113279 0.750058
O O15 0.274308 0.121762 0.580659
#
# Coordination Sequence:
#
# PCOD9239887 Si02
#       8
#     4   2   4   4   4   4   4   4
#     4   9  20  34  56  81 118 148 188 242 291 355
#     4  10  18  32  60  82 130 138 186 268 302 346
#     4  11  20  35  56  82 120 154 190 246 292 355
#     4  11  21  35  57  84 117 153 197 239 294 353
#     4  10  20  34  56  87 120 152 196 247 300 344
#     4  10  20  37  52  94 112 151 192 244 307 338
#     4  10  19  34  57  89 119 150 196 252 301 344
#     4  10  21  36  57  87 117 150 194 243 296 354
#
# _framework density 27.992228000000001
#
# number of rings (size 3 to 8) (size 9 to 14) (size 15 to 20)
#    0.000    1.867    4.000    1.600    1.867    1.067 
#    0.000    0.000    0.000    1.600    0.000    0.000 
#    0.000    0.000    0.000    0.000    0.000    0.000 
#
# Total GULP energy -167105.682715 kJ/mol
# GULP energy per Si atom -5570.189424 kJ/mol
# Density = 2.792852 g / cm^3
# Si number density = 27.992228 Si / 1000 Ang^3
#
#
#
# Elastic Constant Matrix: (Units=GPa)
#
#
# Indices 1 2 3 4 5 6 
#
# 1 197.6162 35.0228 34.3348 0.0000 -5.7273 0.0000
# 2 35.0228 90.7982 7.2911 0.0000 4.6618 0.0000
# 3 34.3348 7.2911 41.3302 0.0000 25.8384 0.0000
# 4 0.0000 0.0000 0.0000 25.4647 0.0000 21.0048
# 5 -5.7273 4.6618 25.8384 0.0000 55.9513 0.0000
# 6 0.0000 0.0000 0.0000 21.0048 0.0000 31.0237
#
#
#
# Elastic Compliance Matrix: (Units=1/GPa)
#
#
# Indices 1 2 3 4 5 6 
#
# 1 0.007087 -0.002299 -0.008513 0.000000 0.004849 0.000000
# 2 -0.002299 0.011918 0.000809 0.000000 -0.001602 0.000000
# 3 -0.008513 0.000809 0.044584 0.000000 -0.021528 0.000000
# 4 0.000000 0.000000 0.000000 0.088942 0.000000 -0.060219
# 5 0.004849 -0.001602 -0.021528 0.000000 0.028444 0.000000
# 6 0.000000 0.000000 0.000000 -0.060219 0.000000 0.073005
#
#
# Mechanical properties :
#
#
# Convention : Reuss Voigt Hill
#
# Bulk Modulus (GPa) = 22.94548 53.67131 38.30840
# Shear Modulus (GPa) = 17.33021 39.36100 28.34561
#
# Velocity S-wave (km/s) = 2.49089 3.75392 3.18563
# Velocity P-wave (km/s) = 4.06049 6.16478 5.21977
#
# Compressibility (1/GPa) = 0.04358157
#
# Stress axis : x y z
#
# Youngs Moduli (GPa) = 141.09409 83.90999 22.42979
#
# Poissons Ratio (x) = 0.19292 0.19096
# Poissons Ratio (y) = 0.32439 -0.01815
# Poissons Ratio (z) = 1.20120 -0.06789
#
# Static dielectric constant tensor:
#      x y z
#    x 2.141960 0.000000 -0.139830 
#    y 0.000000 2.238450 0.000000 
#    z -0.139830 0.000000 2.537080 
# 
# From -- ./inp_files/65220.got.cif
#   From: 2010.05.17/outbox.cif.g08.bks.cpg/sg14_33_cif.got.tgz:65220.got - 2010.06.03 17:49:19.
