data_PCOD9239862
_publ_section_title
;
Structure prediction by ZEFSAII (Michael W. Deem and Ramdas Pophale) SiO2 
 PCOD9239862
Probable space group: P 21/C
;
_chemical_formula_sum "Si O2"
_cell_formula_units_Z 28
_cell_length_a 9.016324
_cell_length_b 16.829224
_cell_length_c 8.843091
_cell_angle_alpha 90.000000
_cell_angle_beta 90.878020
_cell_angle_gamma 90.000000
_cell_volume 1341.673058
_symmetry_space_group_name_H-M "P 21/C"
_symmetry_group_IT_number 14
_symmetry_cell_setting 'monoclinic'
loop_
_space_group_symop_operation_xyz
x,y,z
-x,1/2+y,1/2-z
-x,-y,-z
x,1/2-y,1/2+z
loop_
_atom_site_type_symbol
_atom_site_label
_atom_site_fract_x
_atom_site_fract_y
_atom_site_fract_z
Si Si1 0.532246 0.537776 0.663662
Si Si2 0.732944 0.091965 0.334428
Si Si3 0.813247 0.859104 0.182554
Si Si4 0.738199 0.774394 0.904148
Si Si5 0.275526 0.501525 0.865363
Si Si6 0.563477 0.659672 0.124521
Si Si7 0.983605 0.018458 0.177602
O O1 0.500000 0.500000 0.500000
O O2 0.624058 0.470243 0.750995
O O3 0.641440 0.612515 0.665269
O O4 0.382991 0.550518 0.755343
O O5 0.614935 0.161847 0.365323
O O6 0.777021 0.054510 0.495921
O O7 0.875336 0.090324 0.227308
O O8 0.825276 0.788708 0.302434
O O9 0.906744 0.935788 0.230948
O O10 0.843173 0.826101 0.014623
O O11 0.637690 0.825620 0.789168
O O12 0.630920 0.723645 0.011647
O O13 0.371968 0.426334 0.926280
O O14 0.138504 0.471677 0.764201
O O15 0.000000 0.000000 0.000000
#
# Coordination Sequence:
#
# PCOD9239862 Si02
#       7
#     4   4   4   4   4   4   4
#     4  10  18  32  56  84 110 134 174 229 272 314
#     4  10  20  34  54  81 110 137 177 231 276 318
#     4  10  20  36  55  82 107 141 185 219 275 324
#     4  10  20  33  57  78 109 146 181 222 255 338
#     4  11  20  34  59  85 111 142 178 234 282 321
#     4  10  19  35  56  82 107 141 183 219 275 323
#     4  11  22  36  57  84 111 141 181 236 283 322
#
# _framework density 20.869467
#
# number of rings (size 3 to 8) (size 9 to 14) (size 15 to 20)
#    0.000    1.714    0.000    9.000    0.000    0.000 
#    0.000    0.000    0.000   29.143    0.000    0.000 
#    0.000    0.000    0.000    0.000    0.000    0.000 
#
# Total GULP energy -156251.436153 kJ/mol
# GULP energy per Si atom -5580.408434 kJ/mol
# Density = 2.082197 g / cm^3
# Si number density = 20.869467 Si / 1000 Ang^3
#
#
#
# Elastic Constant Matrix: (Units=GPa)
#
#
# Indices 1 2 3 4 5 6 
#
# 1 79.7871 -7.6309 10.3099 0.0000 -4.5303 0.0000
# 2 -7.6309 38.3640 -8.7695 0.0000 -1.4549 0.0000
# 3 10.3099 -8.7695 98.0352 0.0000 -3.2448 0.0000
# 4 0.0000 0.0000 0.0000 33.8013 0.0000 -0.5139
# 5 -4.5303 -1.4549 -3.2448 0.0000 26.8943 0.0000
# 6 0.0000 0.0000 0.0000 -0.5139 0.0000 21.5787
#
#
#
# Elastic Compliance Matrix: (Units=1/GPa)
#
#
# Indices 1 2 3 4 5 6 
#
# 1 0.013030 0.002428 -0.001080 0.000000 0.002196 0.000000
# 2 0.002428 0.027143 0.002244 0.000000 0.002148 0.000000
# 3 -0.001080 0.002244 0.010555 0.000000 0.001213 0.000000
# 4 0.000000 0.000000 0.000000 0.029595 0.000000 0.000705
# 5 0.002196 0.002148 0.001213 0.000000 0.037815 0.000000
# 6 0.000000 0.000000 0.000000 0.000705 0.000000 0.046359
#
#
# Mechanical properties :
#
#
# Convention : Reuss Voigt Hill
#
# Bulk Modulus (GPa) = 17.26786 22.66725 19.96756
# Shear Modulus (GPa) = 28.30964 31.27330 29.79147
#
# Velocity S-wave (km/s) = 3.68708 3.87527 3.78235
# Velocity P-wave (km/s) = 5.13987 5.55956 5.35383
#
# Compressibility (1/GPa) = 0.05791106
#
# Stress axis : x y z
#
# Youngs Moduli (GPa) = 76.74675 36.84131 94.74275
#
# Poissons Ratio (x) = -0.08945 0.10236
# Poissons Ratio (y) = -0.18634 -0.21258
# Poissons Ratio (z) = 0.08292 -0.08266
#
# Static dielectric constant tensor:
#      x y z
#    x 1.789910 0.000000 -0.061640 
#    y 0.000000 1.813250 0.000000 
#    z -0.061640 0.000000 1.788570 
# 
# From -- ./inp_files/9443.got.cif
#   From: 2010.05.17/outbox.cif.g08.bks.cpg/sg14_5_cif.got.tgz:9443.got - 2010.06.03 17:49:19.
