data_PCOD9239255
_publ_section_title
;
Structure prediction by ZEFSAII (Michael W. Deem and Ramdas Pophale) SiO2 
 PCOD9239255
Probable space group: P 21/C
;
_chemical_formula_sum "Si O2"
_cell_formula_units_Z 20
_cell_length_a 9.105611
_cell_length_b 12.598637
_cell_length_c 9.975516
_cell_angle_alpha 90.000000
_cell_angle_beta 41.511166
_cell_angle_gamma 90.000000
_cell_volume 758.452248
_symmetry_space_group_name_H-M "P 21/C"
_symmetry_group_IT_number 14
_symmetry_cell_setting 'monoclinic'
loop_
_space_group_symop_operation_xyz
x,y,z
-x,1/2+y,1/2-z
-x,-y,-z
x,1/2-y,1/2+z
loop_
_atom_site_type_symbol
_atom_site_label
_atom_site_fract_x
_atom_site_fract_y
_atom_site_fract_z
Si Si1 0.152258 0.063898 0.498184
Si Si2 0.396323 0.741468 0.485522
Si Si3 0.671369 0.025079 0.068930
Si Si4 0.684081 0.720650 0.538232
Si Si5 0.750755 0.452765 0.813170
O O1 0.404666 0.032046 0.282575
O O2 0.153248 0.191983 0.507866
O O3 0.115512 0.024834 0.675458
O O4 0.000000 0.000000 0.500000
O O5 0.308605 0.621580 0.549663
O O6 0.604228 0.753016 0.444714
O O7 0.473733 0.767139 0.282139
O O8 0.235743 0.834404 0.639290
O O9 0.787943 0.051196 0.130208
O O10 0.731853 0.903794 0.997599
O O11 0.500000 0.500000 0.000000
#
# Coordination Sequence:
#
# PCOD9239255 Si02
#       5
#     4   4   4   4   4
#     4  10  20  34  59  88 120 159 198 248 316 361
#     4  11  18  32  59  90 110 152 207 253 286 351
#     4  10  20  34  62  87 115 160 210 250 291 366
#     4  11  19  34  59  89 117 152 208 249 291 369
#     4  10  16  34  57  79 115 154 204 235 302 354
#
# _framework density 26.369492999999999
#
# number of rings (size 3 to 8) (size 9 to 14) (size 15 to 20)
#    0.000    1.600   10.000    0.600    0.000    0.000 
#    0.000    0.000   26.400    1.200    0.000    0.000 
#    0.000    0.000    0.000    0.000    0.000    0.000 
#
# Total GULP energy -111954.216985 kJ/mol
# GULP energy per Si atom -5597.710849 kJ/mol
# Density = 2.630948 g / cm^3
# Si number density = 26.369493 Si / 1000 Ang^3
#
#
#
# Elastic Constant Matrix: (Units=GPa)
#
#
# Indices 1 2 3 4 5 6 
#
# 1 117.8826 49.5233 30.5289 0.0000 10.7070 0.0000
# 2 49.5233 253.9691 32.5790 0.0000 -12.1581 0.0000
# 3 30.5289 32.5790 51.7692 0.0000 -1.7070 0.0000
# 4 0.0000 0.0000 0.0000 46.5989 0.0000 7.9617
# 5 10.7070 -12.1581 -1.7070 0.0000 41.4761 0.0000
# 6 0.0000 0.0000 0.0000 7.9617 0.0000 39.1159
#
#
#
# Elastic Compliance Matrix: (Units=1/GPa)
#
#
# Indices 1 2 3 4 5 6 
#
# 1 0.010903 -0.001582 -0.005550 0.000000 -0.003507 0.000000
# 2 -0.001582 0.004568 -0.001887 0.000000 0.001670 0.000000
# 3 -0.005550 -0.001887 0.023838 0.000000 0.001861 0.000000
# 4 0.000000 0.000000 0.000000 0.022233 0.000000 -0.004525
# 5 -0.003507 0.001670 0.001861 0.000000 0.025582 0.000000
# 6 0.000000 0.000000 0.000000 -0.004525 0.000000 0.026486
#
#
# Mechanical properties :
#
#
# Convention : Reuss Voigt Hill
#
# Bulk Modulus (GPa) = 47.00984 72.09813 59.55399
# Shear Modulus (GPa) = 36.03914 46.17083 41.10498
#
# Velocity S-wave (km/s) = 3.70090 4.18894 3.95246
# Velocity P-wave (km/s) = 6.01068 7.12721 6.59262
#
# Compressibility (1/GPa) = 0.02127214
#
# Stress axis : x y z
#
# Youngs Moduli (GPa) = 91.71377 218.91690 41.94988
#
# Poissons Ratio (x) = 0.34635 0.23282
# Poissons Ratio (y) = 0.14510 0.07914
# Poissons Ratio (z) = 0.50900 0.41301
#
# Static dielectric constant tensor:
#      x y z
#    x 2.064020 0.000000 -0.120520 
#    y 0.000000 2.035200 0.000000 
#    z -0.120520 0.000000 2.156040 
# 
# From -- ./inp_files/23719.got.cif
#   From: 2010.05.17/outbox.cif.g08.bks.cpg/sg14_12_cif.got.tgz:23719.got - 2010.06.03 17:49:19.
