data_PCOD9239283
_publ_section_title
;
Structure prediction by ZEFSAII (Michael W. Deem and Ramdas Pophale) SiO2 
 PCOD9239283
Probable space group: P 21/C
;
_chemical_formula_sum "Si O2"
_cell_formula_units_Z 24
_cell_length_a 22.091766
_cell_length_b 9.422218
_cell_length_c 17.249333
_cell_angle_alpha 90.000000
_cell_angle_beta 161.340848
_cell_angle_gamma 90.000000
_cell_volume 1148.738532
_symmetry_space_group_name_H-M "P 21/C"
_symmetry_group_IT_number 14
_symmetry_cell_setting 'monoclinic'
loop_
_space_group_symop_operation_xyz
x,y,z
-x,1/2+y,1/2-z
-x,-y,-z
x,1/2-y,1/2+z
loop_
_atom_site_type_symbol
_atom_site_label
_atom_site_fract_x
_atom_site_fract_y
_atom_site_fract_z
Si Si1 0.529363 0.167691 0.529377
Si Si2 0.311616 0.423999 0.311629
Si Si3 0.048913 0.050842 0.358725
Si Si4 0.570669 0.550811 0.380448
Si Si5 0.775879 0.230374 0.467408
Si Si6 0.607152 0.769603 0.298657
O O1 0.356001 0.257109 0.356019
O O2 0.705207 0.216821 0.796697
O O3 0.522269 0.216836 0.430806
O O4 0.500000 0.000000 0.500000
O O5 0.500000 0.500000 0.500000
O O6 0.299592 0.461564 0.386402
O O7 0.125997 0.461554 0.039221
O O8 0.211989 0.148984 0.516700
O O9 0.067126 0.893501 0.347062
O O10 0.858936 0.136302 0.113774
O O11 0.397395 0.648951 0.202073
O O12 0.650700 0.636256 0.405494
O O13 0.492714 0.393466 0.272633
#
# Coordination Sequence:
#
# PCOD9239283 Si02
#       6
#     4   4   4   4   4   4
#     4  10  20  34  57  82 107 145 197 225 263 335
#     4  10  16  38  57  74 107 153 181 225 268 330
#     4  10  20  36  57  83 112 144 188 227 279 327
#     4  10  20  36  57  83 112 144 188 227 279 327
#     4  10  21  36  56  84 112 145 185 233 273 331
#     4  10  21  36  56  84 112 145 185 233 273 331
#
# _framework density 20.892482000000001
#
# number of rings (size 3 to 8) (size 9 to 14) (size 15 to 20)
#    0.000    2.000    6.667    0.000    9.333    0.000 
#    0.000    1.667    0.000    8.000    0.000    0.000 
#    0.000    0.000    0.000    0.000    0.000    0.000 
#
# Total GULP energy -133854.916104 kJ/mol
# GULP energy per Si atom -5577.288171 kJ/mol
# Density = 2.084493 g / cm^3
# Si number density = 20.892482 Si / 1000 Ang^3
#
#
#
# Elastic Constant Matrix: (Units=GPa)
#
#
# Indices 1 2 3 4 5 6 
#
# 1 47.8775 26.6942 43.2366 0.0000 -6.1075 0.0000
# 2 26.6942 165.5542 28.2813 0.0000 -4.1684 0.0000
# 3 43.2366 28.2813 55.8107 0.0000 -15.5056 0.0000
# 4 0.0000 0.0000 0.0000 43.6157 0.0000 -3.7561
# 5 -6.1075 -4.1684 -15.5056 0.0000 29.4385 0.0000
# 6 0.0000 0.0000 0.0000 -3.7561 0.0000 42.2491
#
#
#
# Elastic Compliance Matrix: (Units=1/GPa)
#
#
# Indices 1 2 3 4 5 6 
#
# 1 0.077563 -0.002017 -0.064047 0.000000 -0.017928 0.000000
# 2 -0.002017 0.006689 -0.001968 0.000000 -0.000508 0.000000
# 3 -0.064047 -0.001968 0.075865 0.000000 0.026393 0.000000
# 4 0.000000 0.000000 0.000000 0.023104 0.000000 0.002054
# 5 -0.017928 -0.000508 0.026393 0.000000 0.044079 0.000000
# 6 0.000000 0.000000 0.000000 0.002054 0.000000 0.023852
#
#
# Mechanical properties :
#
#
# Convention : Reuss Voigt Hill
#
# Bulk Modulus (GPa) = 41.57537 51.74074 46.65806
# Shear Modulus (GPa) = 12.65074 34.46268 23.55671
#
# Velocity S-wave (km/s) = 2.46339 4.06584 3.36150
# Velocity P-wave (km/s) = 5.29471 6.84547 6.11941
#
# Compressibility (1/GPa) = 0.02405270
#
# Stress axis : x y z
#
# Youngs Moduli (GPa) = 12.89276 149.50030 13.18131
#
# Poissons Ratio (x) = 0.30150 0.84422
# Poissons Ratio (y) = 0.02600 0.02595
# Poissons Ratio (z) = 0.82574 0.29427
#
# Static dielectric constant tensor:
#      x y z
#    x 1.799450 0.000000 0.020600 
#    y 0.000000 1.741190 0.000000 
#    z 0.020600 0.000000 1.791950 
# 
# From -- ./inp_files/55322.got.cif
#   From: 2010.05.17/outbox.cif.g08.bks.cpg/sg14_28_cif.got.tgz:55322.got - 2010.06.03 17:49:19.
