data_PCOD9239103
_publ_section_title
;
Structure prediction by ZEFSAII (Michael W. Deem and Ramdas Pophale) SiO2 
 PCOD9239103
Probable space group: P 21/C
;
_chemical_formula_sum "Si O2"
_cell_formula_units_Z 30
_cell_length_a 19.796131
_cell_length_b 7.862811
_cell_length_c 16.017787
_cell_angle_alpha 90.000000
_cell_angle_beta 29.416324
_cell_angle_gamma 90.000000
_cell_volume 1224.550054
_symmetry_space_group_name_H-M "P 21/C"
_symmetry_group_IT_number 14
_symmetry_cell_setting 'monoclinic'
loop_
_space_group_symop_operation_xyz
x,y,z
-x,1/2+y,1/2-z
-x,-y,-z
x,1/2-y,1/2+z
loop_
_atom_site_type_symbol
_atom_site_label
_atom_site_fract_x
_atom_site_fract_y
_atom_site_fract_z
Si Si1 0.297666 0.468383 0.351117
Si Si2 0.277293 0.432854 0.885765
Si Si3 0.955956 0.603548 0.967296
Si Si4 0.840901 0.936273 0.164569
Si Si5 0.441168 0.868430 0.346152
Si Si6 0.500000 0.500000 0.500000
Si Si7 0.353193 0.232353 0.024766
Si Si8 0.771798 0.106266 0.903361
O O1 0.245537 0.525814 0.316644
O O2 0.461261 0.466228 0.193467
O O3 0.231724 0.584457 0.493764
O O4 0.260168 0.271386 0.413474
O O5 0.333206 0.523915 0.908015
O O6 0.388975 0.467829 0.694361
O O7 0.131258 0.497641 0.007711
O O8 0.089503 0.683436 0.780548
O O9 0.861361 0.749122 0.105477
O O10 0.000000 0.500000 0.000000
O O11 0.740693 0.897346 0.350916
O O12 0.000000 0.000000 0.000000
O O13 0.360349 0.717294 0.478799
O O14 0.543137 0.787425 0.166184
O O15 0.563043 0.667571 0.484805
O O16 0.247059 0.078328 0.117031
#
# Coordination Sequence:
#
# PCOD9239103 Si02
#       8
#     4   4   4   4   4   2   4   4
#     4  10  21  42  64  94 135 175 227 281 352 405
#     4  10  21  36  67  95 131 176 224 281 348 407
#     4  11  22  43  66  97 129 184 237 273 351 428
#     4  11  24  45  66 100 141 186 228 291 357 422
#     4  10  22  40  67 105 132 177 235 292 346 410
#     4  10  14  34  68  92 118 174 230 276 328 410
#     4  10  20  40  70  93 137 181 230 284 354 411
#     4  11  23  41  64  96 139 174 229 293 339 426
#
# _framework density 24.498795000000001
#
# number of rings (size 3 to 8) (size 9 to 14) (size 15 to 20)
#    0.000    1.600    4.000    2.400    0.000    3.200 
#   19.200    0.667    0.000    0.000    0.000    0.000 
#    0.000    0.000    0.000    0.000    0.000    0.000 
#
# Total GULP energy -167046.191595 kJ/mol
# GULP energy per Si atom -5568.206387 kJ/mol
# Density = 2.444303 g / cm^3
# Si number density = 24.498795 Si / 1000 Ang^3
#
#
#
# Elastic Constant Matrix: (Units=GPa)
#
#
# Indices 1 2 3 4 5 6 
#
# 1 150.7549 13.6882 44.9624 0.0000 -26.0426 0.0000
# 2 13.6882 35.0261 4.2807 0.0000 -6.4577 0.0000
# 3 44.9624 4.2807 152.3388 0.0000 6.2631 0.0000
# 4 0.0000 0.0000 0.0000 41.4465 0.0000 -7.1398
# 5 -26.0426 -6.4577 6.2631 0.0000 35.1485 0.0000
# 6 0.0000 0.0000 0.0000 -7.1398 0.0000 28.7616
#
#
#
# Elastic Compliance Matrix: (Units=1/GPa)
#
#
# Indices 1 2 3 4 5 6 
#
# 1 0.008797 -0.001862 -0.002818 0.000000 0.006678 0.000000
# 2 -0.001862 0.030117 -0.000471 0.000000 0.004237 0.000000
# 3 -0.002818 -0.000471 0.007554 0.000000 -0.003521 0.000000
# 4 0.000000 0.000000 0.000000 0.025205 0.000000 0.006257
# 5 0.006678 0.004237 -0.003521 0.000000 0.034804 0.000000
# 6 0.000000 0.000000 0.000000 0.006257 0.000000 0.036322
#
#
# Mechanical properties :
#
#
# Convention : Reuss Voigt Hill
#
# Bulk Modulus (GPa) = 27.65147 51.55360 39.60253
# Shear Modulus (GPa) = 30.27426 39.41720 34.84573
#
# Velocity S-wave (km/s) = 3.51913 4.01552 3.77549
# Velocity P-wave (km/s) = 5.27482 6.52596 5.93346
#
# Compressibility (1/GPa) = 0.03616444
#
# Stress axis : x y z
#
# Youngs Moduli (GPa) = 113.68112 33.20421 132.37707
#
# Poissons Ratio (x) = 0.06183 0.37310
# Poissons Ratio (y) = 0.21168 0.06234
# Poissons Ratio (z) = 0.32041 0.01564
#
# Static dielectric constant tensor:
#      x y z
#    x 2.094650 0.000000 -0.035730 
#    y 0.000000 2.030390 0.000000 
#    z -0.035730 0.000000 1.933740 
# 
# From -- ./inp_files/61128.got.cif
#   From: 2010.05.17/outbox.cif.g08.bks.cpg/sg14_31_cif.got.tgz:61128.got - 2010.06.03 17:49:19.
