data_PCOD9239639
_publ_section_title
;
Structure prediction by ZEFSAII (Michael W. Deem and Ramdas Pophale) SiO2 
 PCOD9239639
Probable space group: P 21/C
;
_chemical_formula_sum "Si O2"
_cell_formula_units_Z 32
_cell_length_a 22.686646
_cell_length_b 5.652061
_cell_length_c 27.020277
_cell_angle_alpha 90.000000
_cell_angle_beta 28.020716
_cell_angle_gamma 90.000000
_cell_volume 1627.688946
_symmetry_space_group_name_H-M "P 21/C"
_symmetry_group_IT_number 14
_symmetry_cell_setting 'monoclinic'
loop_
_space_group_symop_operation_xyz
x,y,z
-x,1/2+y,1/2-z
-x,-y,-z
x,1/2-y,1/2+z
loop_
_atom_site_type_symbol
_atom_site_label
_atom_site_fract_x
_atom_site_fract_y
_atom_site_fract_z
Si Si1 0.833871 0.732461 0.625518
Si Si2 0.330027 0.497414 0.077689
Si Si3 0.992800 0.510233 0.428719
Si Si4 0.918908 0.533246 0.845080
Si Si5 0.081169 0.959122 0.128814
Si Si6 0.213555 0.616253 0.779148
Si Si7 0.392759 0.506064 0.146838
Si Si8 0.196893 0.012460 0.184380
O O1 0.952070 0.683457 0.574650
O O2 0.706855 0.622686 0.743210
O O3 0.874167 0.631137 0.543324
O O4 0.816486 0.009539 0.645353
O O5 0.365167 0.454661 0.109503
O O6 0.261589 0.249304 0.114007
O O7 0.259593 0.753244 0.127655
O O8 0.461425 0.528971 0.951755
O O9 0.962530 0.442647 0.395336
O O10 0.109249 0.691024 0.342969
O O11 0.859022 0.781969 0.905930
O O12 0.052068 0.513101 0.775782
O O13 0.965652 0.534701 0.753688
O O14 0.849859 0.286038 0.907994
O O15 0.352149 0.720327 0.679742
O O16 0.205250 0.451211 0.737420
#
# Coordination Sequence:
#
# PCOD9239639 Si02
#       8
#     4   4   4   4   4   4   4   4
#     4  10  19  32  48  69 103 137 172 202 237 306
#     4  10  21  31  50  70  99 131 168 203 254 291
#     4  10  20  31  47  74 100 138 171 198 249 295
#     4  10  20  33  53  74 102 128 171 200 258 291
#     4  10  20  34  51  75 101 136 160 210 242 305
#     4  10  18  29  49  66 102 134 167 198 243 298
#     4   9  20  31  43  71  96 132 167 206 243 293
#     4  11  19  31  51  73  96 133 161 207 246 300
#
# _framework density 19.659776999999998
#
# number of rings (size 3 to 8) (size 9 to 14) (size 15 to 20)
#    0.000    2.000    2.500    1.875    3.500    1.500 
#    0.000    0.000    0.000    0.000    0.000    1.750 
#    0.000    0.000    0.000    0.000    0.000    0.000 
#
# Total GULP energy -178168.759687 kJ/mol
# GULP energy per Si atom -5567.773740 kJ/mol
# Density = 1.961503 g / cm^3
# Si number density = 19.659777 Si / 1000 Ang^3
#
#
#
# Elastic Constant Matrix: (Units=GPa)
#
#
# Indices 1 2 3 4 5 6 
#
# 1 46.5413 19.7898 17.1850 0.0000 13.0083 0.0000
# 2 19.7898 84.5965 17.5096 0.0000 -0.7487 0.0000
# 3 17.1850 17.5096 84.4330 0.0000 0.8017 0.0000
# 4 0.0000 0.0000 0.0000 17.9012 0.0000 6.4183
# 5 13.0083 -0.7487 0.8017 0.0000 23.0032 0.0000
# 6 0.0000 0.0000 0.0000 6.4183 0.0000 17.0763
#
#
#
# Elastic Compliance Matrix: (Units=1/GPa)
#
#
# Indices 1 2 3 4 5 6 
#
# 1 0.030858 -0.006382 -0.004791 0.000000 -0.017491 0.000000
# 2 -0.006382 0.013676 -0.001576 0.000000 0.004109 0.000000
# 3 -0.004791 -0.001576 0.013125 0.000000 0.002201 0.000000
# 4 0.000000 0.000000 0.000000 0.064563 0.000000 -0.024266
# 5 -0.017491 0.004109 0.002201 0.000000 0.053420 0.000000
# 6 0.000000 0.000000 0.000000 -0.024266 0.000000 0.067682
#
#
# Mechanical properties :
#
#
# Convention : Reuss Voigt Hill
#
# Bulk Modulus (GPa) = 31.09394 36.05994 33.57694
# Shear Modulus (GPa) = 17.88644 22.33522 20.11083
#
# Velocity S-wave (km/s) = 3.01956 3.37425 3.20182
# Velocity P-wave (km/s) = 5.29220 5.79332 5.54842
#
# Compressibility (1/GPa) = 0.03216061
#
# Stress axis : x y z
#
# Youngs Moduli (GPa) = 32.40698 73.11905 76.19138
#
# Poissons Ratio (x) = 0.46662 0.36504
# Poissons Ratio (y) = 0.20681 0.12010
# Poissons Ratio (z) = 0.15526 0.11526
#
# Static dielectric constant tensor:
#      x y z
#    x 1.704410 0.000000 0.011510 
#    y 0.000000 1.891450 0.000000 
#    z 0.011510 0.000000 1.691770 
# 
# From -- ./inp_files/78075.got.cif
#   From: 2010.05.17/outbox.cif.g08.bks.cpg/sg14_40_cif.got.tgz:78075.got - 2010.06.03 17:49:19.
