data_PCOD9239317
_publ_section_title
;
Structure prediction by ZEFSAII (Michael W. Deem and Ramdas Pophale) SiO2 
 PCOD9239317
Probable space group: P 21/C
;
_chemical_formula_sum "Si O2"
_cell_formula_units_Z 24
_cell_length_a 5.376547
_cell_length_b 7.208550
_cell_length_c 25.639744
_cell_angle_alpha 90.000000
_cell_angle_beta 77.623036
_cell_angle_gamma 90.000000
_cell_volume 970.626761
_symmetry_space_group_name_H-M "P 21/C"
_symmetry_group_IT_number 14
_symmetry_cell_setting 'monoclinic'
loop_
_space_group_symop_operation_xyz
x,y,z
-x,1/2+y,1/2-z
-x,-y,-z
x,1/2-y,1/2+z
loop_
_atom_site_type_symbol
_atom_site_label
_atom_site_fract_x
_atom_site_fract_y
_atom_site_fract_z
Si Si1 0.641188 0.771567 0.570830
Si Si2 0.385254 0.689702 0.896318
Si Si3 0.890272 0.671518 0.223711
Si Si4 0.165944 0.353418 0.051799
Si Si5 0.674440 0.236245 0.718155
Si Si6 0.893646 0.232545 0.896499
O O1 0.707340 0.842303 0.510306
O O2 0.385071 0.655220 0.583876
O O3 0.870631 0.652210 0.583066
O O4 0.602568 0.959606 0.607751
O O5 0.640877 0.736615 0.915724
O O6 0.360546 0.781332 0.841034
O O7 0.119673 0.722802 0.937713
O O8 0.615873 0.766833 0.247438
O O9 0.798554 0.466204 0.214354
O O10 0.107432 0.656423 0.258892
O O11 0.030295 0.754251 0.167015
O O12 0.134357 0.563924 0.074409
#
# Coordination Sequence:
#
# PCOD9239317 Si02
#       6
#     4   4   4   4   4   4
#     4  10  17  28  52  81 121 149 181 238 330 368
#     4  10  18  31  49  76 119 152 181 241 304 352
#     4  12  25  41  62  86 122 170 212 253 303 356
#     4  10  17  28  52  81 121 149 181 238 330 368
#     4  12  25  41  62  86 122 170 212 253 303 356
#     4  10  18  31  49  76 119 152 181 241 304 352
#
# _framework density 24.726289000000001
#
# number of rings (size 3 to 8) (size 9 to 14) (size 15 to 20)
#    0.000    1.333    3.333    8.000    4.667    0.000 
#    0.000    0.000    0.000    0.000    0.000    0.000 
#    0.000  154.667    0.000    0.000    0.000    0.000 
#
# Total GULP energy -134146.621294 kJ/mol
# GULP energy per Si atom -5589.442554 kJ/mol
# Density = 2.467001 g / cm^3
# Si number density = 24.726289 Si / 1000 Ang^3
#
#
#
# Elastic Constant Matrix: (Units=GPa)
#
#
# Indices 1 2 3 4 5 6 
#
# 1 220.4950 8.2370 46.4765 0.0000 -7.8025 0.0000
# 2 8.2370 63.8116 8.9495 0.0000 -4.5492 0.0000
# 3 46.4765 8.9495 136.0786 0.0000 -5.7283 0.0000
# 4 0.0000 0.0000 0.0000 -1.2594 0.0000 17.2419
# 5 -7.8025 -4.5492 -5.7283 0.0000 61.1893 0.0000
# 6 0.0000 0.0000 0.0000 17.2419 0.0000 -18.9801
#
#
#
# Elastic Compliance Matrix: (Units=1/GPa)
#
#
# Indices 1 2 3 4 5 6 
#
# 1 0.004909 -0.000373 -0.001633 0.000000 0.000445 0.000000
# 2 -0.000373 0.015917 -0.000875 0.000000 0.001054 0.000000
# 3 -0.001633 -0.000875 0.007984 0.000000 0.000474 0.000000
# 4 0.000000 0.000000 0.000000 0.069427 0.000000 0.063069
# 5 0.000445 0.001054 0.000474 0.000000 0.016522 0.000000
# 6 0.000000 0.000000 0.000000 0.063069 0.000000 0.004607
#
#
# Mechanical properties :
#
#
# Convention : Reuss Voigt Hill
#
# Bulk Modulus (GPa) = 43.38840 60.85681 52.12260
# Shear Modulus (GPa) = 37.64722 31.97145 34.80934
#
# Velocity S-wave (km/s) = 3.90623 3.59975 3.75612
# Velocity P-wave (km/s) = 6.15877 6.47636 6.31956
#
# Compressibility (1/GPa) = 0.02304764
#
# Stress axis : x y z
#
# Youngs Moduli (GPa) = 203.69749 62.82538 125.24902
#
# Poissons Ratio (x) = 0.02343 0.20459
# Poissons Ratio (y) = 0.07595 0.10961
# Poissons Ratio (z) = 0.33273 0.05498
#
# Static dielectric constant tensor:
#      x y z
#    x 2.122790 0.000000 -0.002430 
#    y 0.000000 2.014940 0.000000 
#    z -0.002430 0.000000 1.901370 
# 
# From -- ./inp_files/70975.got.cif
#   From: 2010.05.17/outbox.cif.g08.bks.cpg/sg14_36_cif.got.tgz:70975.got - 2010.06.03 17:49:19.
