data_PCOD9239955
_publ_section_title
;
Structure prediction by ZEFSAII (Michael W. Deem and Ramdas Pophale) SiO2 
 PCOD9239955
Probable space group: P 21/C
;
_chemical_formula_sum "Si O2"
_cell_formula_units_Z 28
_cell_length_a 9.343499
_cell_length_b 19.505422
_cell_length_c 14.547082
_cell_angle_alpha 90.000000
_cell_angle_beta 151.971208
_cell_angle_gamma 90.000000
_cell_volume 1245.834268
_symmetry_space_group_name_H-M "P 21/C"
_symmetry_group_IT_number 14
_symmetry_cell_setting 'monoclinic'
loop_
_space_group_symop_operation_xyz
x,y,z
-x,1/2+y,1/2-z
-x,-y,-z
x,1/2-y,1/2+z
loop_
_atom_site_type_symbol
_atom_site_label
_atom_site_fract_x
_atom_site_fract_y
_atom_site_fract_z
Si Si1 0.771609 0.445688 0.826244
Si Si2 0.818087 0.833105 0.720469
Si Si3 0.956839 0.836754 0.170016
Si Si4 0.376072 0.712678 0.429735
Si Si5 0.081231 0.024978 0.944460
Si Si6 0.350209 0.600248 0.058706
Si Si7 0.170689 0.455062 0.882579
O O1 0.442589 0.479176 0.635892
O O2 0.908647 0.432822 0.804417
O O3 0.752551 0.388968 0.895197
O O4 0.000000 0.500000 0.000000
O O5 0.640716 0.761625 0.620657
O O6 0.688725 0.870078 0.737174
O O7 0.677740 0.883486 0.561354
O O8 0.170364 0.824265 0.891713
O O9 0.002581 0.895677 0.121054
O O10 0.124463 0.764694 0.243242
O O11 0.116776 0.863877 0.355432
O O12 0.592839 0.829896 0.983658
O O13 0.949782 0.984386 0.782156
O O14 0.000000 0.000000 0.000000
O O15 0.345097 0.519023 0.028066
#
# Coordination Sequence:
#
# PCOD9239955 Si02
#       7
#     4   4   4   4   4   4   4
#     4  10  21  35  54  86 124 154 189 235 300 370
#     4  10  18  33  57  81 112 149 195 240 295 356
#     4   9  19  37  61  89 122 159 204 250 308 372
#     4   9  19  34  59  87 115 159 201 246 301 366
#     4  11  22  37  60  91 125 160 204 260 314 367
#     4   9  19  35  58  89 120 151 189 244 305 365
#     4  10  20  35  60  87 116 158 198 249 304 358
#
# _framework density 22.474898
#
# number of rings (size 3 to 8) (size 9 to 14) (size 15 to 20)
#    0.000    2.286    0.000    2.571    0.000    8.000 
#    0.000    0.000    0.000   46.286    0.000    0.000 
#    0.000    0.000    0.000    0.000    0.000    0.000 
#
# Total GULP energy -156014.680658 kJ/mol
# GULP energy per Si atom -5571.952881 kJ/mol
# Density = 2.242374 g / cm^3
# Si number density = 22.474898 Si / 1000 Ang^3
#
#
#
# Elastic Constant Matrix: (Units=GPa)
#
#
# Indices 1 2 3 4 5 6 
#
# 1 195.1863 46.8650 53.4922 0.0000 12.8863 0.0000
# 2 46.8650 73.8438 11.3066 0.0000 4.3373 0.0000
# 3 53.4922 11.3066 88.9219 0.0000 16.4832 0.0000
# 4 0.0000 0.0000 0.0000 29.5983 0.0000 16.2704
# 5 12.8863 4.3373 16.4832 0.0000 43.6153 0.0000
# 6 0.0000 0.0000 0.0000 16.2704 0.0000 38.5692
#
#
#
# Elastic Compliance Matrix: (Units=1/GPa)
#
#
# Indices 1 2 3 4 5 6 
#
# 1 0.007104 -0.003921 -0.003719 0.000000 -0.000304 0.000000
# 2 -0.003921 0.015999 0.000435 0.000000 -0.000597 0.000000
# 3 -0.003719 0.000435 0.014229 0.000000 -0.004322 0.000000
# 4 0.000000 0.000000 0.000000 0.043986 0.000000 -0.018555
# 5 -0.000304 -0.000597 -0.004322 0.000000 0.024710 0.000000
# 6 0.000000 0.000000 0.000000 -0.018555 0.000000 0.033755
#
#
# Mechanical properties :
#
#
# Convention : Reuss Voigt Hill
#
# Bulk Modulus (GPa) = 43.62546 64.58663 54.10605
# Shear Modulus (GPa) = 30.89606 38.77576 34.83591
#
# Velocity S-wave (km/s) = 3.71171 4.15817 3.94126
# Velocity P-wave (km/s) = 6.14995 7.20093 6.69609
#
# Compressibility (1/GPa) = 0.02292239
#
# Stress axis : x y z
#
# Youngs Moduli (GPa) = 140.76578 62.50314 70.28088
#
# Poissons Ratio (x) = 0.24510 0.26135
# Poissons Ratio (y) = 0.55199 -0.03059
# Poissons Ratio (z) = 0.52345 -0.02720
#
# Static dielectric constant tensor:
#      x y z
#    x 1.883500 0.000000 0.025250 
#    y 0.000000 1.979830 0.000000 
#    z 0.025250 0.000000 1.879450 
# 
# From -- ./inp_files/42119.got.cif
#   From: 2010.05.17/outbox.cif.g08.bks.cpg/sg14_22_cif.got.tgz:42119.got - 2010.06.03 17:49:19.
