data_PCOD9239039
_publ_section_title
;
Structure prediction by ZEFSAII (Michael W. Deem and Ramdas Pophale) SiO2 
 PCOD9239039
Probable space group: P 2/C
;
_chemical_formula_sum "Si O2"
_cell_formula_units_Z 30
_cell_length_a 12.000000
_cell_length_b 12.000000
_cell_length_c 21.000000
_cell_angle_alpha 90.000000
_cell_angle_beta 150.000000
_cell_angle_gamma 90.000000
_cell_volume 1512.000000
_symmetry_space_group_name_H-M "P 2/C"
_symmetry_group_IT_number 13
_symmetry_cell_setting 'monoclinic'
loop_
_space_group_symop_operation_xyz
x,y,z
-x,y,1/2-z
-x,-y,-z
x,-y,1/2+z
loop_
_atom_site_type_symbol
_atom_site_label
_atom_site_fract_x
_atom_site_fract_y
_atom_site_fract_z
Si Si1 0.001953 0.016259 0.120279
Si Si2 0.498385 0.037230 0.426943
Si Si3 0.000000 0.602575 0.250000
Si Si4 0.742466 0.456884 0.228388
Si Si5 0.989852 0.218036 0.930453
Si Si6 0.944292 0.271398 0.054237
Si Si7 0.356353 0.286999 0.011928
Si Si8 0.451572 0.331456 0.801190
O O1 0.251473 0.001714 0.276757
O O2 0.003981 0.145641 0.102957
O O3 0.995621 0.916074 0.065295
O O4 0.748140 0.000965 0.024809
O O5 0.514514 0.171164 0.430962
O O6 0.500000 0.000000 0.500000
O O7 0.881553 0.524056 0.243923
O O8 0.814809 0.682765 0.128308
O O9 0.637494 0.547664 0.223940
O O10 0.902814 0.367329 0.340966
O O11 0.532717 0.386411 0.100113
O O12 0.752436 0.250693 0.781911
O O13 0.196482 0.271375 0.994573
O O14 0.977998 0.268681 0.994797
O O15 0.689189 0.297956 0.947868
O O16 0.500000 0.324838 0.750000
#
# Coordination Sequence:
#
# PCOD9239039 Si02
#       8
#     4   4   2   4   4   4   4   4
#     4  11  23  45  68 104 137 178 230 283 350 409
#     4  11  25  42  70  98 137 182 228 285 341 414
#     4  12  26  44  68  92 142 184 224 288 330 420
#     4  12  25  44  66 102 134 180 229 276 349 393
#     4  10  23  43  70 100 135 179 223 279 351 409
#     4  11  24  43  68 102 138 176 228 283 339 410
#     4  11  25  44  65 102 131 178 233 277 345 403
#     4  10  23  40  67  96 135 180 223 275 332 405
#
# _framework density 19.841270000000002
#
# number of rings (size 3 to 8) (size 9 to 14) (size 15 to 20)
#    0.000    1.067    2.667    2.800    5.600    3.200 
#    0.000    1.333    0.000    0.000    0.000    0.000 
#    0.000    0.000    0.000    0.000    0.000    0.000 
#
# Total GULP energy -167205.782784 kJ/mol
# GULP energy per Si atom -5573.526093 kJ/mol
# Density = 1.979611 g / cm^3
# Si number density = 19.841270 Si / 1000 Ang^3
#
#
#
# Elastic Constant Matrix: (Units=GPa)
#
#
# Indices 1 2 3 4 5 6 
#
# 1 39.4119 -8.1261 1.6694 0.0000 14.0567 0.0000
# 2 -8.1261 62.2574 -4.0601 0.0000 -0.7442 0.0000
# 3 1.6694 -4.0601 100.6330 0.0000 18.5480 0.0000
# 4 0.0000 0.0000 0.0000 49.0738 0.0000 8.7460
# 5 14.0567 -0.7442 18.5480 0.0000 24.6618 0.0000
# 6 0.0000 0.0000 0.0000 8.7460 0.0000 34.0692
#
#
#
# Elastic Compliance Matrix: (Units=1/GPa)
#
#
# Indices 1 2 3 4 5 6 
#
# 1 0.033969 0.004410 0.003667 0.000000 -0.021986 0.000000
# 2 0.004410 0.016677 0.001126 0.000000 -0.002858 0.000000
# 3 0.003667 0.001126 0.011958 0.000000 -0.011050 0.000000
# 4 0.000000 0.000000 0.000000 0.021354 0.000000 -0.005482
# 5 -0.021986 -0.002858 -0.011050 0.000000 0.061304 0.000000
# 6 0.000000 0.000000 0.000000 -0.005482 0.000000 0.030759
#
#
# Mechanical properties :
#
#
# Convention : Reuss Voigt Hill
#
# Bulk Modulus (GPa) = 12.34405 20.14094 16.24250
# Shear Modulus (GPa) = 27.08275 35.74890 31.41582
#
# Velocity S-wave (km/s) = 3.69856 4.24930 3.98346
# Velocity P-wave (km/s) = 4.94712 5.85222 5.41860
#
# Compressibility (1/GPa) = 0.08101067
#
# Stress axis : x y z
#
# Youngs Moduli (GPa) = 29.43894 59.96179 83.62368
#
# Poissons Ratio (x) = -0.26444 -0.30663
# Poissons Ratio (y) = -0.12983 -0.09419
# Poissons Ratio (z) = -0.10795 -0.06754
#
# Static dielectric constant tensor:
#      x y z
#    x 1.694850 0.000000 -0.019580 
#    y 0.000000 1.685080 0.000000 
#    z -0.019580 0.000000 1.699650 
# 
# From -- ./inp_files/78653.got.cif
#   From: 2010.05.17/outbox.ucp.g08.bks.cvg/sg13_40_cif.got.tgz:78653.got - 2010.06.11 12:23:55.
