data_PCOD9239949
_publ_section_title
;
Structure prediction by ZEFSAII (Michael W. Deem and Ramdas Pophale) SiO2 
 PCOD9239949
Probable space group: P 21/C
;
_chemical_formula_sum "Si O2"
_cell_formula_units_Z 30
_cell_length_a 15.749964
_cell_length_b 12.053752
_cell_length_c 20.192218
_cell_angle_alpha 90.000000
_cell_angle_beta 160.140424
_cell_angle_gamma 90.000000
_cell_volume 1302.272666
_symmetry_space_group_name_H-M "P 21/C"
_symmetry_group_IT_number 14
_symmetry_cell_setting 'monoclinic'
loop_
_space_group_symop_operation_xyz
x,y,z
-x,1/2+y,1/2-z
-x,-y,-z
x,1/2-y,1/2+z
loop_
_atom_site_type_symbol
_atom_site_label
_atom_site_fract_x
_atom_site_fract_y
_atom_site_fract_z
Si Si1 0.714054 0.977585 0.567629
Si Si2 0.000000 0.500000 0.000000
Si Si3 0.735370 0.908386 0.921580
Si Si4 0.315094 0.323458 0.073520
Si Si5 0.834962 0.552514 0.307409
Si Si6 0.733683 0.185528 0.506052
Si Si7 0.486017 0.080976 0.831284
Si Si8 0.888285 0.234466 0.483310
O O1 0.779462 0.892672 0.557503
O O2 0.794243 0.937125 0.698029
O O3 0.415355 0.995489 0.351349
O O4 0.812128 0.099521 0.619440
O O5 0.285664 0.463590 0.235422
O O6 0.106720 0.622783 0.054520
O O7 0.823716 0.790769 0.014044
O O8 0.489790 0.877408 0.698654
O O9 0.665577 0.989444 0.931034
O O10 0.929295 0.971049 0.017448
O O11 0.303410 0.393045 0.133275
O O12 0.610223 0.292042 0.278573
O O13 0.909082 0.673628 0.388107
O O14 0.626900 0.304689 0.450448
O O15 0.929463 0.206167 0.591128
#
# Coordination Sequence:
#
# PCOD9239949 Si02
#       8
#     4   2   4   4   4   4   4   4
#     4  11  23  37  55  86 113 154 199 233 277 342
#     4  12  18  30  58  94 110 134 188 242 290 328
#     4  10  18  38  56  80 111 145 185 232 287 339
#     4  10  20  37  58  83 113 146 191 234 289 341
#     4  11  23  38  56  81 119 155 193 236 282 339
#     4  10  19  37  60  82 115 146 191 235 286 346
#     4  10  18  33  56  84 113 138 182 236 288 337
#     4  10  20  35  61  86 114 148 183 244 291 339
#
# _framework density 23.036650999999999
#
# number of rings (size 3 to 8) (size 9 to 14) (size 15 to 20)
#    0.000    1.867    6.667    0.800    0.000    5.333 
#    0.000    0.000    0.000    0.800    0.000    0.000 
#    0.000    0.000    0.000    0.000    0.000    0.000 
#
# Total GULP energy -167132.254918 kJ/mol
# GULP energy per Si atom -5571.075164 kJ/mol
# Density = 2.298422 g / cm^3
# Si number density = 23.036651 Si / 1000 Ang^3
#
#
#
# Elastic Constant Matrix: (Units=GPa)
#
#
# Indices 1 2 3 4 5 6 
#
# 1 28.8975 2.9603 -6.1071 0.0000 -6.4637 0.0000
# 2 2.9603 129.5325 7.4401 0.0000 -12.1532 0.0000
# 3 -6.1071 7.4401 45.1456 0.0000 4.2428 0.0000
# 4 0.0000 0.0000 0.0000 24.2264 0.0000 2.3749
# 5 -6.4637 -12.1532 4.2428 0.0000 33.7632 0.0000
# 6 0.0000 0.0000 0.0000 2.3749 0.0000 34.7731
#
#
#
# Elastic Compliance Matrix: (Units=1/GPa)
#
#
# Indices 1 2 3 4 5 6 
#
# 1 0.037026 -0.000510 0.004497 0.000000 0.006340 0.000000
# 2 -0.000510 0.008114 -0.001691 0.000000 0.003036 0.000000
# 3 0.004497 -0.001691 0.023289 0.000000 -0.002675 0.000000
# 4 0.000000 0.000000 0.000000 0.041556 0.000000 -0.002838
# 5 0.006340 0.003036 -0.002675 0.000000 0.032260 0.000000
# 6 0.000000 0.000000 0.000000 -0.002838 0.000000 0.028952
#
#
# Mechanical properties :
#
#
# Convention : Reuss Voigt Hill
#
# Bulk Modulus (GPa) = 13.69490 23.57357 18.63423
# Shear Modulus (GPa) = 26.18566 31.83804 29.01185
#
# Velocity S-wave (km/s) = 3.37515 3.72164 3.55262
# Velocity P-wave (km/s) = 4.59854 5.35936 4.99346
#
# Compressibility (1/GPa) = 0.07301989
#
# Stress axis : x y z
#
# Youngs Moduli (GPa) = 27.00833 123.24879 42.93883
#
# Poissons Ratio (x) = 0.06281 -0.19309
# Poissons Ratio (y) = 0.01376 0.07263
# Poissons Ratio (z) = -0.12145 0.20846
#
# Static dielectric constant tensor:
#      x y z
#    x 2.090820 0.000000 0.096950 
#    y 0.000000 1.893040 0.000000 
#    z 0.096950 0.000000 1.985800 
# 
# From -- ./inp_files/74374.got.cif
#   From: 2010.05.17/outbox.cif.g08.bks.cpg/sg14_38_cif.got.tgz:74374.got - 2010.06.03 17:49:19.
