data_PCOD9239935
_publ_section_title
;
Structure prediction by ZEFSAII (Michael W. Deem and Ramdas Pophale) SiO2 
 PCOD9239935
Probable space group: P 21/C
;
_chemical_formula_sum "Si O2"
_cell_formula_units_Z 32
_cell_length_a 9.161793
_cell_length_b 11.443525
_cell_length_c 19.370112
_cell_angle_alpha 90.000000
_cell_angle_beta 40.254186
_cell_angle_gamma 90.000000
_cell_volume 1312.277754
_symmetry_space_group_name_H-M "P 21/C"
_symmetry_group_IT_number 14
_symmetry_cell_setting 'monoclinic'
loop_
_space_group_symop_operation_xyz
x,y,z
-x,1/2+y,1/2-z
-x,-y,-z
x,1/2-y,1/2+z
loop_
_atom_site_type_symbol
_atom_site_label
_atom_site_fract_x
_atom_site_fract_y
_atom_site_fract_z
Si Si1 0.355562 0.595912 0.835713
Si Si2 0.240671 0.555250 0.333562
Si Si3 0.104440 0.703678 0.501882
Si Si4 0.919002 0.048924 0.697801
Si Si5 0.139402 0.818583 0.618365
Si Si6 0.104278 0.093023 0.165604
Si Si7 0.338072 0.159441 0.381983
Si Si8 0.371348 0.195968 0.528232
O O1 0.619195 0.564290 0.728202
O O2 0.287609 0.700742 0.909706
O O3 0.265456 0.476719 0.904676
O O4 0.240696 0.605699 0.801542
O O5 0.164391 0.587948 0.438052
O O6 0.040943 0.565859 0.350026
O O7 0.436433 0.651370 0.245237
O O8 0.108413 0.704767 0.583072
O O9 0.865593 0.756560 0.564317
O O10 0.984148 0.921268 0.643449
O O11 0.835602 0.014030 0.804675
O O12 0.150577 0.119207 0.622445
O O13 0.056603 0.824856 0.727110
O O14 0.401255 0.851670 0.520794
O O15 0.317482 0.172658 0.071114
O O16 0.405829 0.192358 0.434326
#
# Coordination Sequence:
#
# PCOD9239935 Si02
#       8
#     4   4   4   4   4   4   4   4
#     4  10  20  34  55  83 111 131 184 222 269 318
#     4  10  22  33  53  84 107 140 179 219 267 328
#     4  12  20  35  59  78 112 144 169 228 277 301
#     4  10  20  35  53  85 109 134 180 226 269 314
#     4  10  22  32  54  86 107 133 186 222 268 315
#     4  10  22  35  50  84 111 138 177 223 262 330
#     4  10  18  33  55  82 101 137 179 222 260 323
#     4  12  20  34  59  74 114 144 169 223 280 299
#
# _framework density 24.385082000000001
#
# number of rings (size 3 to 8) (size 9 to 14) (size 15 to 20)
#    1.500    0.000    5.000    1.500    3.500    0.000 
#    0.000    0.000    0.000    3.000    0.000    0.000 
#    0.000    0.000    0.000    0.000    0.000    0.000 
#
# Total GULP energy -178666.965111 kJ/mol
# GULP energy per Si atom -5583.342660 kJ/mol
# Density = 2.432958 g / cm^3
# Si number density = 24.385082 Si / 1000 Ang^3
#
#
#
# Elastic Constant Matrix: (Units=GPa)
#
#
# Indices 1 2 3 4 5 6 
#
# 1 62.3908 13.1195 -3.9701 0.0000 26.8191 0.0000
# 2 13.1195 21.9894 70.6556 0.0000 -15.7645 0.0000
# 3 -3.9701 70.6556 9.8767 0.0000 22.1807 0.0000
# 4 0.0000 0.0000 0.0000 47.7817 0.0000 -0.4438
# 5 26.8191 -15.7645 22.1807 0.0000 24.6882 0.0000
# 6 0.0000 0.0000 0.0000 -0.4438 0.0000 3.3816
#
#
#
# Elastic Compliance Matrix: (Units=1/GPa)
#
#
# Indices 1 2 3 4 5 6 
#
# 1 0.018878 0.005360 -0.007485 0.000000 -0.010361 0.000000
# 2 0.005360 0.002896 0.009472 0.000000 -0.012483 0.000000
# 3 -0.007485 0.009472 0.001338 0.000000 0.012977 0.000000
# 4 0.000000 0.000000 0.000000 0.020954 0.000000 0.002750
# 5 -0.010361 -0.012483 0.012977 0.000000 0.032130 0.000000
# 6 0.000000 0.000000 0.000000 0.002750 0.000000 0.296081
#
#
# Mechanical properties :
#
#
# Convention : Reuss Voigt Hill
#
# Bulk Modulus (GPa) = 26.45218 28.20743 27.32980
# Shear Modulus (GPa) = 13.50674 16.13376 14.82025
#
# Velocity S-wave (km/s) = 2.35605 2.57500 2.46795
# Velocity P-wave (km/s) = 4.27464 4.52033 4.39920
#
# Compressibility (1/GPa) = 0.03780407
#
# Stress axis : x y z
#
# Youngs Moduli (GPa) = 52.97087 345.32633 747.62615
#
# Poissons Ratio (x) = -1.85080 5.59599
# Poissons Ratio (y) = -0.28390 -7.08124
# Poissons Ratio (z) = 0.39649 -3.27081
#
# Static dielectric constant tensor:
#      x y z
#    x 1.865360 0.000000 0.004650 
#    y 0.000000 2.003400 0.000000 
#    z 0.004650 0.000000 1.963950 
# 
# From -- ./inp_files/65735.got.cif
#   From: 2010.05.17/outbox.cif.g08.bks.cpg/sg14_33_cif.got.tgz:65735.got - 2010.06.03 17:49:19.
