data_PCOD9239894
_publ_section_title
;
Structure prediction by ZEFSAII (Michael W. Deem and Ramdas Pophale) SiO2 
 PCOD9239894
Probable space group: P 21/C
;
_chemical_formula_sum "Si O2"
_cell_formula_units_Z 30
_cell_length_a 20.341180
_cell_length_b 7.160556
_cell_length_c 24.600789
_cell_angle_alpha 90.000000
_cell_angle_beta 17.298891
_cell_angle_gamma 90.000000
_cell_volume 1065.489578
_symmetry_space_group_name_H-M "P 21/C"
_symmetry_group_IT_number 14
_symmetry_cell_setting 'monoclinic'
loop_
_space_group_symop_operation_xyz
x,y,z
-x,1/2+y,1/2-z
-x,-y,-z
x,1/2-y,1/2+z
loop_
_atom_site_type_symbol
_atom_site_label
_atom_site_fract_x
_atom_site_fract_y
_atom_site_fract_z
Si Si1 0.071851 0.845670 0.760162
Si Si2 0.633664 0.702602 0.563594
Si Si3 0.792020 0.085154 0.233625
Si Si4 0.296288 0.536975 0.756391
Si Si5 0.332280 0.617166 0.942327
Si Si6 0.500000 0.000000 0.000000
Si Si7 0.104720 0.397941 0.750572
Si Si8 0.250891 0.330283 0.328536
O O1 0.208750 0.935612 0.701577
O O2 0.192290 0.880677 0.608754
O O3 0.058867 0.620798 0.778429
O O4 0.812929 0.905358 0.959127
O O5 0.397945 0.626451 0.729905
O O6 0.773304 0.703662 0.396328
O O7 0.594924 0.902458 0.620992
O O8 0.718879 0.301531 0.278725
O O9 0.677569 0.958454 0.278668
O O10 0.050534 0.066718 0.015688
O O11 0.499591 0.432480 0.564745
O O12 0.142638 0.363618 0.892907
O O13 0.147168 0.676193 0.045416
O O14 0.556990 0.720099 0.780955
O O15 0.265961 0.118685 0.174195
#
# Coordination Sequence:
#
# PCOD9239894 Si02
#       8
#     4   4   4   4   4   2   4   4
#     4  10  20  38  62  91 122 159 208 254 302 370
#     4   9  19  35  61  91 127 158 195 256 316 363
#     4  11  24  43  62  89 124 163 212 257 301 367
#     4  11  21  40  64  89 125 163 201 258 315 366
#     4  10  19  36  59  89 123 164 197 252 307 364
#     4  10  18  32  62 102 118 148 204 262 298 368
#     4   9  18  32  57  89 127 154 195 249 313 356
#     4  11  25  41  62  87 125 169 204 252 315 367
#
# _framework density 28.156071000000001
#
# number of rings (size 3 to 8) (size 9 to 14) (size 15 to 20)
#    0.000    1.867    2.667    2.000    0.000    3.733 
#    0.000    2.667    0.000    0.000    0.000    0.000 
#    0.000    0.000    0.000    0.000    0.000    0.000 
#
# Total GULP energy -167151.691816 kJ/mol
# GULP energy per Si atom -5571.723061 kJ/mol
# Density = 2.809199 g / cm^3
# Si number density = 28.156071 Si / 1000 Ang^3
#
#
#
# Elastic Constant Matrix: (Units=GPa)
#
#
# Indices 1 2 3 4 5 6 
#
# 1 96.5640 1.1499 95.4330 0.0000 -32.0882 0.0000
# 2 1.1499 81.6918 -3.9321 0.0000 -7.4940 0.0000
# 3 95.4330 -3.9321 -73.4178 0.0000 -4.3418 0.0000
# 4 0.0000 0.0000 0.0000 28.5294 0.0000 -4.0924
# 5 -32.0882 -7.4940 -4.3418 0.0000 50.1871 0.0000
# 6 0.0000 0.0000 0.0000 -4.0924 0.0000 8.6022
#
#
#
# Elastic Compliance Matrix: (Units=1/GPa)
#
#
# Indices 1 2 3 4 5 6 
#
# 1 0.005227 0.000607 0.006526 0.000000 0.003998 0.000000
# 2 0.000607 0.012438 -0.000010 0.000000 0.002245 0.000000
# 3 0.006526 -0.000010 -0.005357 0.000000 0.003708 0.000000
# 4 0.000000 0.000000 0.000000 0.037619 0.000000 0.017896
# 5 0.003998 0.002245 0.003708 0.000000 0.023137 0.000000
# 6 0.000000 0.000000 0.000000 0.017896 0.000000 0.124763
#
#
# Mechanical properties :
#
#
# Convention : Reuss Voigt Hill
#
# Bulk Modulus (GPa) = 37.65595 32.23774 34.94684
# Shear Modulus (GPa) = 25.98319 18.27623 22.12971
#
# Velocity S-wave (km/s) = 3.04110 2.55052 2.80655
# Velocity P-wave (km/s) = 5.07288 4.48866 4.78968
#
# Compressibility (1/GPa) = 0.02655623
#
# Stress axis : x y z
#
# Youngs Moduli (GPa) = 191.29924 80.39853 -186.68748
#
# Poissons Ratio (x) = -0.04882 1.21832
# Poissons Ratio (y) = -0.11617 -0.00179
# Poissons Ratio (z) = -1.24842 0.00077
#
# Static dielectric constant tensor:
#      x y z
#    x 2.112940 0.000000 -0.121060 
#    y 0.000000 2.187180 0.000000 
#    z -0.121060 0.000000 1.981490 
# 
# From -- ./inp_files/77928.got.cif
#   From: 2010.05.17/outbox.cif.g08.bks.cpg/sg14_39_cif.got.tgz:77928.got - 2010.06.03 17:49:19.
