data_PCOD9239206
_publ_section_title
;
Structure prediction by ZEFSAII (Michael W. Deem and Ramdas Pophale) SiO2 
 PCOD9239206
Probable space group: P 21/C
;
_chemical_formula_sum "Si O2"
_cell_formula_units_Z 28
_cell_length_a 16.723843
_cell_length_b 8.137826
_cell_length_c 9.565706
_cell_angle_alpha 90.000000
_cell_angle_beta 124.454872
_cell_angle_gamma 90.000000
_cell_volume 1073.470518
_symmetry_space_group_name_H-M "P 21/C"
_symmetry_group_IT_number 14
_symmetry_cell_setting 'monoclinic'
loop_
_space_group_symop_operation_xyz
x,y,z
-x,1/2+y,1/2-z
-x,-y,-z
x,1/2-y,1/2+z
loop_
_atom_site_type_symbol
_atom_site_label
_atom_site_fract_x
_atom_site_fract_y
_atom_site_fract_z
Si Si1 0.721416 0.468616 0.429303
Si Si2 0.149596 0.655147 0.220531
Si Si3 0.395270 0.471766 0.965630
Si Si4 0.717917 0.458411 0.885035
Si Si5 0.592996 0.909390 0.028147
Si Si6 0.145858 0.230402 0.439610
Si Si7 0.036550 0.201061 0.589037
O O1 0.795273 0.336775 0.576690
O O2 0.683391 0.486472 0.233998
O O3 0.627228 0.476867 0.434389
O O4 0.777382 0.634988 0.528065
O O5 0.235403 0.654961 0.189887
O O6 0.064101 0.766224 0.075294
O O7 0.080853 0.488279 0.144802
O O8 0.406338 0.279545 0.017875
O O9 0.500000 0.500000 0.000000
O O10 0.360130 0.571488 0.069505
O O11 0.667155 0.589540 0.731330
O O12 0.809162 0.552525 0.039892
O O13 0.500000 0.000000 0.000000
O O14 0.119791 0.271146 0.572014
O O15 0.046921 0.237461 0.255823
#
# Coordination Sequence:
#
# PCOD9239206 Si02
#       7
#     4   4   4   4   4   4   4
#     4  10  19  34  57  83 115 154 197 240 299 359
#     4   8  18  34  53  75 112 154 186 230 295 372
#     4  12  22  35  58  92 119 147 201 260 288 339
#     4  10  19  34  57  83 115 154 197 240 299 359
#     4  11  21  37  59  83 115 163 200 236 300 368
#     4  10  16  30  58  84 110 144 200 250 286 356
#     4   9  17  30  53  85 106 140 193 242 296 340
#
# _framework density 26.08362
#
# number of rings (size 3 to 8) (size 9 to 14) (size 15 to 20)
#    0.000    2.000    2.857    2.571    0.000    0.000 
#    0.000    1.429   12.571    6.857    0.000    0.000 
#    0.000    0.000    0.000    0.000    0.000    0.000 
#
# Total GULP energy -155934.446033 kJ/mol
# GULP energy per Si atom -5569.087358 kJ/mol
# Density = 2.602425 g / cm^3
# Si number density = 26.083620 Si / 1000 Ang^3
#
#
#
# Elastic Constant Matrix: (Units=GPa)
#
#
# Indices 1 2 3 4 5 6 
#
# 1 72.1096 -4.3704 10.0966 0.0000 -11.2522 0.0000
# 2 -4.3704 52.4619 1.8802 0.0000 3.3901 0.0000
# 3 10.0966 1.8802 96.3296 0.0000 -7.2461 0.0000
# 4 0.0000 0.0000 0.0000 -19.1684 0.0000 -46.1682
# 5 -11.2522 3.3901 -7.2461 0.0000 43.3466 0.0000
# 6 0.0000 0.0000 0.0000 -46.1682 0.0000 -40.1504
#
#
#
# Elastic Compliance Matrix: (Units=1/GPa)
#
#
# Indices 1 2 3 4 5 6 
#
# 1 0.014659 0.001041 -0.001293 0.000000 0.003508 0.000000
# 2 0.001041 0.019255 -0.000585 0.000000 -0.001334 0.000000
# 3 -0.001293 -0.000585 0.010640 0.000000 0.001489 0.000000
# 4 0.000000 0.000000 0.000000 0.029482 0.000000 -0.033900
# 5 0.003508 -0.001334 0.001489 0.000000 0.024334 0.000000
# 6 0.000000 0.000000 0.000000 -0.033900 0.000000 0.014075
#
#
# Mechanical properties :
#
#
# Convention : Reuss Voigt Hill
#
# Bulk Modulus (GPa) = 23.32096 26.23490 24.77793
# Shear Modulus (GPa) = 38.93703 11.02521 24.98112
#
# Velocity S-wave (km/s) = 3.86784 2.05817 3.09808
# Velocity P-wave (km/s) = 5.37654 3.96584 4.72414
#
# Compressibility (1/GPa) = 0.04287987
#
# Stress axis : x y z
#
# Youngs Moduli (GPa) = 68.21623 51.93377 93.98537
#
# Poissons Ratio (x) = -0.05406 0.12152
# Poissons Ratio (y) = -0.07100 0.05500
# Poissons Ratio (z) = 0.08820 0.03039
#
# Static dielectric constant tensor:
#      x y z
#    x 2.084190 0.000000 0.101780 
#    y 0.000000 2.218370 0.000000 
#    z 0.101780 0.000000 2.197880 
# 
# From -- ./inp_files/15627.got.cif
#   From: 2010.05.17/outbox.cif.g08.bks.cpg/sg14_8_cif.got.tgz:15627.got - 2010.06.03 17:49:19.
