data_PCOD9239555
_publ_section_title
;
Structure prediction by ZEFSAII (Michael W. Deem and Ramdas Pophale) SiO2 
 PCOD9239555
Probable space group: P 21/C
;
_chemical_formula_sum "Si O2"
_cell_formula_units_Z 24
_cell_length_a 8.816337
_cell_length_b 17.361037
_cell_length_c 16.096602
_cell_angle_alpha 90.000000
_cell_angle_beta 32.267877
_cell_angle_gamma 90.000000
_cell_volume 1315.347110
_symmetry_space_group_name_H-M "P 21/C"
_symmetry_group_IT_number 14
_symmetry_cell_setting 'monoclinic'
loop_
_space_group_symop_operation_xyz
x,y,z
-x,1/2+y,1/2-z
-x,-y,-z
x,1/2-y,1/2+z
loop_
_atom_site_type_symbol
_atom_site_label
_atom_site_fract_x
_atom_site_fract_y
_atom_site_fract_z
Si Si1 0.746829 0.056902 0.778472
Si Si2 0.764796 0.491527 0.036194
Si Si3 0.966372 0.315279 0.495991
Si Si4 0.132515 0.956257 0.857925
Si Si5 0.377522 0.839355 0.325695
Si Si6 0.279999 0.932270 0.023681
O O1 0.660784 0.113748 0.743333
O O2 0.688923 0.092621 0.895529
O O3 0.072690 0.030799 0.615071
O O4 0.555119 0.979312 0.864852
O O5 0.467577 0.531681 0.195364
O O6 0.691769 0.401162 0.069964
O O7 0.000000 0.500000 0.000000
O O8 0.935856 0.367758 0.592975
O O9 0.830457 0.232573 0.572308
O O10 0.803754 0.363479 0.499139
O O11 0.297245 0.312872 0.319899
O O12 0.966653 0.001829 0.863402
O O13 0.000000 0.000000 0.000000
#
# Coordination Sequence:
#
# PCOD9239555 Si02
#       6
#     4   4   4   4   4   4
#     4  10  22  38  62  86 115 147 199 243 285 333
#     4  10  19  34  59  85 111 146 201 236 270 336
#     4  11  22  36  59  83 116 155 190 231 291 344
#     4  10  17  36  59  80 110 153 192 234 276 332
#     4  11  22  37  56  87 116 152 191 234 285 351
#     4  10  20  41  61  82 114 155 190 243 290 333
#
# _framework density 18.246134999999999
#
# number of rings (size 3 to 8) (size 9 to 14) (size 15 to 20)
#    0.000    1.667    5.000    3.000    7.000    0.667 
#    0.000    3.333    0.000    0.000    0.000    0.000 
#    0.000    0.000    0.000    0.000    0.000    0.000 
#
# Total GULP energy -133757.779308 kJ/mol
# GULP energy per Si atom -5573.240805 kJ/mol
# Density = 1.820461 g / cm^3
# Si number density = 18.246135 Si / 1000 Ang^3
#
#
#
# Elastic Constant Matrix: (Units=GPa)
#
#
# Indices 1 2 3 4 5 6 
#
# 1 43.5373 0.4634 11.8105 0.0000 11.6389 0.0000
# 2 0.4634 85.3856 38.5957 0.0000 2.9514 0.0000
# 3 11.8105 38.5957 137.1019 0.0000 -22.3779 0.0000
# 4 0.0000 0.0000 0.0000 34.0469 0.0000 -8.2089
# 5 11.6389 2.9514 -22.3779 0.0000 30.0872 0.0000
# 6 0.0000 0.0000 0.0000 -8.2089 0.0000 19.7309
#
#
#
# Elastic Compliance Matrix: (Units=1/GPa)
#
#
# Indices 1 2 3 4 5 6 
#
# 1 0.028781 0.003072 -0.005931 0.000000 -0.015846 0.000000
# 2 0.003072 0.014357 -0.005384 0.000000 -0.006601 0.000000
# 3 -0.005931 -0.005384 0.011132 0.000000 0.011102 0.000000
# 4 0.000000 0.000000 0.000000 0.032646 0.000000 0.013582
# 5 -0.015846 -0.006601 0.011102 0.000000 0.048271 0.000000
# 6 0.000000 0.000000 0.000000 0.013582 0.000000 0.056333
#
#
# Mechanical properties :
#
#
# Convention : Reuss Voigt Hill
#
# Bulk Modulus (GPa) = 26.46477 40.86266 33.66371
# Shear Modulus (GPa) = 22.66554 31.11668 26.89111
#
# Velocity S-wave (km/s) = 3.52832 4.13411 3.84317
# Velocity P-wave (km/s) = 5.57984 6.72545 6.17925
#
# Compressibility (1/GPa) = 0.03778609
#
# Stress axis : x y z
#
# Youngs Moduli (GPa) = 34.74516 69.65469 89.82822
#
# Poissons Ratio (x) = -0.21399 0.53273
# Poissons Ratio (y) = -0.10674 0.48360
# Poissons Ratio (z) = 0.20606 0.37499
#
# Static dielectric constant tensor:
#      x y z
#    x 1.688630 0.000000 -0.000050 
#    y 0.000000 1.622450 0.000000 
#    z -0.000050 0.000000 1.646360 
# 
# From -- ./inp_files/13613.got.cif
#   From: 2010.05.17/outbox.cif.g08.bks.cpg/sg14_7_cif.got.tgz:13613.got - 2010.06.03 17:49:19.
