data_PCOD9239770
_publ_section_title
;
Structure prediction by ZEFSAII (Michael W. Deem and Ramdas Pophale) SiO2 
 PCOD9239770
Probable space group: P 21/C
;
_chemical_formula_sum "Si O2"
_cell_formula_units_Z 24
_cell_length_a 7.171301
_cell_length_b 10.341410
_cell_length_c 14.176719
_cell_angle_alpha 90.000000
_cell_angle_beta 85.164890
_cell_angle_gamma 90.000000
_cell_volume 1047.623425
_symmetry_space_group_name_H-M "P 21/C"
_symmetry_group_IT_number 14
_symmetry_cell_setting 'monoclinic'
loop_
_space_group_symop_operation_xyz
x,y,z
-x,1/2+y,1/2-z
-x,-y,-z
x,1/2-y,1/2+z
loop_
_atom_site_type_symbol
_atom_site_label
_atom_site_fract_x
_atom_site_fract_y
_atom_site_fract_z
Si Si1 0.081818 0.762263 0.809373
Si Si2 0.686393 0.822529 0.283484
Si Si3 0.231034 0.440655 0.667733
Si Si4 0.721108 0.041548 0.428201
Si Si5 0.846596 0.496406 0.114192
Si Si6 0.612693 0.207425 0.856208
O O1 0.127658 0.659455 0.888150
O O2 0.255490 0.767792 0.732811
O O3 0.910382 0.691134 0.760783
O O4 0.980859 0.893517 0.845530
O O5 0.647637 0.690554 0.344941
O O6 0.579823 0.820410 0.189731
O O7 0.649305 0.946703 0.349097
O O8 0.234056 0.470484 0.780248
O O9 0.302334 0.569893 0.616522
O O10 0.721654 0.972376 0.529721
O O11 0.622993 0.179777 0.431121
O O12 0.946550 0.057025 0.401458
#
# Coordination Sequence:
#
# PCOD9239770 Si02
#       6
#     4   4   4   4   4   4
#     4   8  18  33  50  72 104 134 172 215 250 313
#     4   9  19  33  51  77 104 135 175 213 252 317
#     4   9  18  34  51  76 103 134 177 211 252 315
#     4  10  18  31  56  82 103 136 176 219 262 303
#     4   9  17  33  55  78 106 136 175 218 263 303
#     4  11  18  32  54  76 102 142 172 208 264 309
#
# _framework density 22.908995000000001
#
# number of rings (size 3 to 8) (size 9 to 14) (size 15 to 20)
#    1.000    1.667    1.667    1.000    0.000    0.000 
#    0.000    8.333    0.000    0.000    0.000   11.667 
#    0.000    0.000    0.000    0.000    0.000    0.000 
#
# Total GULP energy -133787.877716 kJ/mol
# GULP energy per Si atom -5574.494905 kJ/mol
# Density = 2.285685 g / cm^3
# Si number density = 22.908995 Si / 1000 Ang^3
#
#
#
# Elastic Constant Matrix: (Units=GPa)
#
#
# Indices 1 2 3 4 5 6 
#
# 1 56.8636 -4.0753 10.7740 0.0000 8.3076 0.0000
# 2 -4.0753 124.4709 10.7668 0.0000 12.0572 0.0000
# 3 10.7740 10.7668 50.3695 0.0000 21.3227 0.0000
# 4 0.0000 0.0000 0.0000 21.2004 0.0000 10.5249
# 5 8.3076 12.0572 21.3227 0.0000 22.7250 0.0000
# 6 0.0000 0.0000 0.0000 10.5249 0.0000 23.4691
#
#
#
# Elastic Compliance Matrix: (Units=1/GPa)
#
#
# Indices 1 2 3 4 5 6 
#
# 1 0.018892 0.001349 -0.001829 0.000000 -0.005906 0.000000
# 2 0.001349 0.008566 0.000022 0.000000 -0.005059 0.000000
# 3 -0.001829 0.000022 0.033115 0.000000 -0.030414 0.000000
# 4 0.000000 0.000000 0.000000 0.060678 0.000000 -0.027212
# 5 -0.005906 -0.005059 -0.030414 0.000000 0.077385 0.000000
# 6 0.000000 0.000000 0.000000 -0.027212 0.000000 0.054812
#
#
# Mechanical properties :
#
#
# Convention : Reuss Voigt Hill
#
# Bulk Modulus (GPa) = 16.76278 29.62611 23.19445
# Shear Modulus (GPa) = 18.23146 27.76149 22.99647
#
# Velocity S-wave (km/s) = 2.82409 3.48489 3.17175
# Velocity P-wave (km/s) = 4.23875 5.39933 4.85385
#
# Compressibility (1/GPa) = 0.05965597
#
# Stress axis : x y z
#
# Youngs Moduli (GPa) = 52.93252 116.73668 30.19769
#
# Poissons Ratio (x) = -0.15746 0.05524
# Poissons Ratio (y) = -0.07140 -0.00066
# Poissons Ratio (z) = 0.09683 -0.00254
#
# Static dielectric constant tensor:
#      x y z
#    x 1.921420 0.000000 -0.004000 
#    y 0.000000 1.946880 0.000000 
#    z -0.004000 0.000000 1.840590 
# 
# From -- ./inp_files/39382.got.cif
#   From: 2010.05.17/outbox.cif.g08.bks.cpg/sg14_20_cif.got.tgz:39382.got - 2010.06.03 17:49:19.
