data_PCOD9239218
_publ_section_title
;
Structure prediction by ZEFSAII (Michael W. Deem and Ramdas Pophale) SiO2 
 PCOD9239218
Probable space group: P 21/C
;
_chemical_formula_sum "Si O2"
_cell_formula_units_Z 32
_cell_length_a 8.934532
_cell_length_b 23.098792
_cell_length_c 9.337372
_cell_angle_alpha 90.000000
_cell_angle_beta 127.393739
_cell_angle_gamma 90.000000
_cell_volume 1530.979045
_symmetry_space_group_name_H-M "P 21/C"
_symmetry_group_IT_number 14
_symmetry_cell_setting 'monoclinic'
loop_
_space_group_symop_operation_xyz
x,y,z
-x,1/2+y,1/2-z
-x,-y,-z
x,1/2-y,1/2+z
loop_
_atom_site_type_symbol
_atom_site_label
_atom_site_fract_x
_atom_site_fract_y
_atom_site_fract_z
Si Si1 0.026740 0.061409 0.583623
Si Si2 0.858763 0.365921 0.209357
Si Si3 0.988585 0.158966 0.324442
Si Si4 0.295757 0.168040 0.037085
Si Si5 0.756707 0.767513 0.703556
Si Si6 0.706876 0.142485 0.920539
Si Si7 0.818395 0.269676 0.960555
Si Si8 0.565323 0.566864 0.545364
O O1 0.019491 0.110087 0.458377
O O2 0.225768 0.064046 0.774330
O O3 0.879406 0.078958 0.619675
O O4 0.000000 0.000000 0.500000
O O5 0.738770 0.378070 0.278570
O O6 0.775551 0.315780 0.059272
O O7 0.070090 0.345918 0.385612
O O8 0.181095 0.189839 0.389567
O O9 0.838623 0.202387 0.314499
O O10 0.893714 0.134889 0.126344
O O11 0.328125 0.198948 0.209126
O O12 0.338886 0.213053 0.931556
O O13 0.414558 0.108978 0.082460
O O14 0.962256 0.746583 0.880351
O O15 0.554942 0.104645 0.913485
O O16 0.693381 0.212349 0.897083
O O17 0.500000 0.500000 0.500000
#
# Coordination Sequence:
#
# PCOD9239218 Si02
#       8
#     4   4   4   4   4   4   4   4
#     4  10  22  43  65  82 113 165 221 251 301 357
#     4   9  18  34  62  93 119 156 204 247 291 374
#     4  10  18  33  65  93 118 154 200 255 297 368
#     4  10  19  36  60  89 122 162 199 250 301 368
#     4  10  16  31  59  93 118 147 205 247 296 355
#     4  11  19  36  61  91 119 155 193 247 317 357
#     4   9  16  31  57  91 128 154 187 240 304 367
#     4  11  26  44  59  84 130 166 202 261 319 363
#
# _framework density 20.901657
#
# number of rings (size 3 to 8) (size 9 to 14) (size 15 to 20)
#    0.000    2.000    3.750    3.000    0.000    0.000 
#    6.750    2.500    2.750    0.000    0.000    0.000 
#    0.000    0.000    0.000    0.000    0.000    0.000 
#
# Total GULP energy -178610.246626 kJ/mol
# GULP energy per Si atom -5581.570207 kJ/mol
# Density = 2.085408 g / cm^3
# Si number density = 20.901657 Si / 1000 Ang^3
#
#
#
# Elastic Constant Matrix: (Units=GPa)
#
#
# Indices 1 2 3 4 5 6 
#
# 1 76.1871 59.9418 24.9345 0.0000 -29.8935 0.0000
# 2 59.9418 111.5323 16.2481 0.0000 -20.8649 0.0000
# 3 24.9345 16.2481 37.0191 0.0000 -27.2500 0.0000
# 4 0.0000 0.0000 0.0000 25.5901 0.0000 6.4635
# 5 -29.8935 -20.8649 -27.2500 0.0000 31.9828 0.0000
# 6 0.0000 0.0000 0.0000 6.4635 0.0000 8.0132
#
#
#
# Elastic Compliance Matrix: (Units=1/GPa)
#
#
# Indices 1 2 3 4 5 6 
#
# 1 0.031701 -0.013096 -0.000221 0.000000 0.020898 0.000000
# 2 -0.013096 0.015640 0.001225 0.000000 -0.000993 0.000000
# 3 -0.000221 0.001225 0.072583 0.000000 0.062435 0.000000
# 4 0.000000 0.000000 0.000000 0.049076 0.000000 -0.039585
# 5 0.020898 -0.000993 0.062435 0.000000 0.103347 0.000000
# 6 0.000000 0.000000 0.000000 -0.039585 0.000000 0.156723
#
#
# Mechanical properties :
#
#
# Convention : Reuss Voigt Hill
#
# Bulk Modulus (GPa) = 10.44496 47.44304 28.94400
# Shear Modulus (GPa) = 10.30571 21.35815 15.83193
#
# Velocity S-wave (km/s) = 2.22290 3.20009 2.75516
# Velocity P-wave (km/s) = 3.40535 6.03337 4.89888
#
# Compressibility (1/GPa) = 0.09573993
#
# Stress axis : x y z
#
# Youngs Moduli (GPa) = 31.54468 63.93933 13.77732
#
# Poissons Ratio (x) = 0.83732 0.00305
# Poissons Ratio (y) = 0.41310 -0.01688
# Poissons Ratio (z) = 0.00698 -0.07833
#
# Static dielectric constant tensor:
#      x y z
#    x 1.812020 0.000000 0.002000 
#    y 0.000000 1.779180 0.000000 
#    z 0.002000 0.000000 1.747510 
# 
# From -- ./inp_files/10817.got.cif
#   From: 2010.05.17/outbox.cif.g08.bks.cpg/sg14_6_cif.got.tgz:10817.got - 2010.06.03 17:49:19.
