data_PCOD9239988
_publ_section_title
;
Structure prediction by ZEFSAII (Michael W. Deem and Ramdas Pophale) SiO2 
 PCOD9239988
Probable space group: P 21/C
;
_chemical_formula_sum "Si O2"
_cell_formula_units_Z 28
_cell_length_a 11.630563
_cell_length_b 8.471489
_cell_length_c 16.201309
_cell_angle_alpha 90.000000
_cell_angle_beta 62.956548
_cell_angle_gamma 90.000000
_cell_volume 1421.750873
_symmetry_space_group_name_H-M "P 21/C"
_symmetry_group_IT_number 14
_symmetry_cell_setting 'monoclinic'
loop_
_space_group_symop_operation_xyz
x,y,z
-x,1/2+y,1/2-z
-x,-y,-z
x,1/2-y,1/2+z
loop_
_atom_site_type_symbol
_atom_site_label
_atom_site_fract_x
_atom_site_fract_y
_atom_site_fract_z
Si Si1 0.751890 0.130775 0.459080
Si Si2 0.459925 0.656850 0.562965
Si Si3 0.722005 0.777542 0.433180
Si Si4 0.990123 0.670290 0.363771
Si Si5 0.044718 0.848110 0.181136
Si Si6 0.736634 0.533966 0.288203
Si Si7 0.132090 0.936893 0.414028
O O1 0.637868 0.237783 0.460005
O O2 0.885595 0.222396 0.398993
O O3 0.758884 0.093860 0.553332
O O4 0.750765 0.962055 0.414629
O O5 0.500000 0.500000 0.500000
O O6 0.591846 0.753192 0.528251
O O7 0.384356 0.587515 0.667060
O O8 0.842621 0.695376 0.441025
O O9 0.702827 0.691369 0.350749
O O10 0.029064 0.487724 0.341708
O O11 0.981695 0.751678 0.275787
O O12 0.088141 0.774680 0.384087
O O13 0.158409 0.946197 0.188592
O O14 0.805407 0.546769 0.177540
O O15 0.000000 0.000000 0.500000
#
# Coordination Sequence:
#
# PCOD9239988 Si02
#       7
#     4   4   4   4   4   4   4
#     4  11  21  35  60  89 120 151 200 247 301 356
#     4   9  19  39  61  84 111 155 206 245 275 346
#     4  10  18  33  62  85 109 154 205 238 284 351
#     4  10  19  35  57  85 118 157 195 245 301 350
#     4   9  19  33  56  83 113 155 203 240 281 359
#     4   8  19  37  58  79 118 156 192 240 292 345
#     4  11  22  37  56  90 131 153 183 250 312 362
#
# _framework density 19.694026000000001
#
# number of rings (size 3 to 8) (size 9 to 14) (size 15 to 20)
#    0.000    2.286    1.429    2.143    4.000    0.571 
#    0.000    2.857    3.143    0.000    0.000    0.000 
#    0.000    0.000    0.000    0.000    0.000    0.000 
#
# Total GULP energy -155950.082227 kJ/mol
# GULP energy per Si atom -5569.645794 kJ/mol
# Density = 1.964920 g / cm^3
# Si number density = 19.694026 Si / 1000 Ang^3
#
#
#
# Elastic Constant Matrix: (Units=GPa)
#
#
# Indices 1 2 3 4 5 6 
#
# 1 44.2336 19.5063 14.8323 0.0000 -4.2787 0.0000
# 2 19.5063 132.3700 35.1809 0.0000 0.3679 0.0000
# 3 14.8323 35.1809 83.9329 0.0000 -4.0325 0.0000
# 4 0.0000 0.0000 0.0000 21.7503 0.0000 -6.0381
# 5 -4.2787 0.3679 -4.0325 0.0000 25.2916 0.0000
# 6 0.0000 0.0000 0.0000 -6.0381 0.0000 24.9369
#
#
#
# Elastic Compliance Matrix: (Units=1/GPa)
#
#
# Indices 1 2 3 4 5 6 
#
# 1 0.025294 -0.002925 -0.003060 0.000000 0.003834 0.000000
# 2 -0.002925 0.008852 -0.003248 0.000000 -0.001141 0.000000
# 3 -0.003060 -0.003248 0.013900 0.000000 0.001746 0.000000
# 4 0.000000 0.000000 0.000000 0.049290 0.000000 0.011935
# 5 0.003834 -0.001141 0.001746 0.000000 0.040482 0.000000
# 6 0.000000 0.000000 0.000000 0.011935 0.000000 0.042991
#
#
# Mechanical properties :
#
#
# Convention : Reuss Voigt Hill
#
# Bulk Modulus (GPa) = 33.80590 44.39726 39.10158
# Shear Modulus (GPa) = 23.90798 27.13025 25.51911
#
# Velocity S-wave (km/s) = 3.48799 3.71561 3.60360
# Velocity P-wave (km/s) = 5.78137 6.40314 6.10018
#
# Compressibility (1/GPa) = 0.02958063
#
# Stress axis : x y z
#
# Youngs Moduli (GPa) = 39.53528 112.96753 71.94019
#
# Poissons Ratio (x) = 0.33041 0.22012
# Poissons Ratio (y) = 0.11563 0.23369
# Poissons Ratio (z) = 0.12097 0.36696
#
# Static dielectric constant tensor:
#      x y z
#    x 1.715580 0.000000 -0.054130 
#    y 0.000000 1.746820 0.000000 
#    z -0.054130 0.000000 1.761810 
# 
# From -- ./inp_files/43487.got.cif
#   From: 2010.05.17/outbox.cif.g08.bks.cpg/sg14_22_cif.got.tgz:43487.got - 2010.06.03 17:49:19.
