data_PCOD9239028
_publ_section_title
;
Structure prediction by ZEFSAII (Michael W. Deem and Ramdas Pophale) SiO2 
 PCOD9239028
Probable space group: P 2/C
;
_chemical_formula_sum "Si O2"
_cell_formula_units_Z 30
_cell_length_a 30.000000
_cell_length_b 9.000000
_cell_length_c 30.000000
_cell_angle_alpha 90.000000
_cell_angle_beta 10.000000
_cell_angle_gamma 90.000000
_cell_volume 1406.550239
_symmetry_space_group_name_H-M "P 2/C"
_symmetry_group_IT_number 13
_symmetry_cell_setting 'monoclinic'
loop_
_space_group_symop_operation_xyz
x,y,z
-x,y,1/2-z
-x,-y,-z
x,-y,1/2+z
loop_
_atom_site_type_symbol
_atom_site_label
_atom_site_fract_x
_atom_site_fract_y
_atom_site_fract_z
Si Si1 0.295792 0.457746 0.088356
Si Si2 0.920301 0.052823 0.147033
Si Si3 0.765480 0.349821 0.099740
Si Si4 0.606936 0.851211 0.840923
Si Si5 0.182475 0.628802 0.795669
Si Si6 0.750556 0.864692 0.908367
Si Si7 0.000000 0.122498 0.250000
Si Si8 0.369372 0.903562 0.833037
O O1 0.320885 0.451467 0.117637
O O2 0.324785 0.286751 0.043215
O O3 0.026656 0.550712 0.346185
O O4 0.522838 0.540720 0.839044
O O5 0.940594 0.222930 0.107760
O O6 0.929497 0.063714 0.192608
O O7 0.656710 0.951481 0.398967
O O8 0.156611 0.967457 0.891437
O O9 0.686263 0.243164 0.219101
O O10 0.762675 0.233715 0.061807
O O11 0.630627 0.722897 0.855417
O O12 0.000000 0.500000 0.000000
O O13 0.843360 0.799110 0.865090
O O14 0.557006 0.997502 0.115620
O O15 0.826933 0.020305 0.452224
O O16 0.500000 0.844820 0.750000
#
# Coordination Sequence:
#
# PCOD9239028 Si02
#       8
#     4   4   4   4   4   4   2   4
#     4  11  28  45  67  98 143 185 222 277 350 410
#     4  11  25  44  70 100 134 183 232 286 337 405
#     4  12  25  46  69  99 138 182 225 280 348 404
#     4  12  24  44  70  99 137 181 236 286 333 399
#     4  11  25  45  67 102 141 183 230 287 344 404
#     4  10  23  43  69  98 135 177 226 277 343 416
#     4  10  22  42  76 100 130 166 232 278 346 396
#     4  10  23  42  71 100 128 173 227 286 338 411
#
# _framework density 21.328779999999998
#
# number of rings (size 3 to 8) (size 9 to 14) (size 15 to 20)
#    0.000    1.067    2.667    2.400    5.600    4.800 
#    2.400    0.000    0.000    0.000    0.000    0.000 
#    0.000    0.000    0.000    0.000    0.000    0.000 
#
# Total GULP energy -167106.943929 kJ/mol
# GULP energy per Si atom -5570.231464 kJ/mol
# Density = 2.128023 g / cm^3
# Si number density = 21.328780 Si / 1000 Ang^3
#
#
#
# Elastic Constant Matrix: (Units=GPa)
#
#
# Indices 1 2 3 4 5 6 
#
# 1 121.5634 26.4100 4.7586 0.0000 15.9153 0.0000
# 2 26.4100 97.9821 15.5172 0.0000 -3.5119 0.0000
# 3 4.7586 15.5172 87.8325 0.0000 3.5793 0.0000
# 4 0.0000 0.0000 0.0000 24.5790 0.0000 -3.9253
# 5 15.9153 -3.5119 3.5793 0.0000 24.2082 0.0000
# 6 0.0000 0.0000 0.0000 -3.9253 0.0000 50.4772
#
#
#
# Elastic Compliance Matrix: (Units=1/GPa)
#
#
# Indices 1 2 3 4 5 6 
#
# 1 0.009749 -0.002916 0.000267 0.000000 -0.006872 0.000000
# 2 -0.002916 0.011451 -0.002023 0.000000 0.003878 0.000000
# 3 0.000267 -0.002023 0.011819 0.000000 -0.002217 0.000000
# 4 0.000000 0.000000 0.000000 0.041197 0.000000 0.003204
# 5 -0.006872 0.003878 -0.002217 0.000000 0.046716 0.000000
# 6 0.000000 0.000000 0.000000 0.003204 0.000000 0.020060
#
#
# Mechanical properties :
#
#
# Convention : Reuss Voigt Hill
#
# Bulk Modulus (GPa) = 42.24004 44.52773 43.38389
# Shear Modulus (GPa) = 31.59991 37.23236 34.41614
#
# Velocity S-wave (km/s) = 3.85328 4.18262 4.02132
# Velocity P-wave (km/s) = 6.29637 6.65191 6.47658
#
# Compressibility (1/GPa) = 0.02367422
#
# Stress axis : x y z
#
# Youngs Moduli (GPa) = 102.57502 87.32566 84.61255
#
# Poissons Ratio (x) = 0.25467 -0.02260
# Poissons Ratio (y) = 0.29914 0.17118
# Poissons Ratio (z) = -0.02740 0.17667
#
# Static dielectric constant tensor:
#      x y z
#    x 1.900410 0.000000 -0.110670 
#    y 0.000000 1.786520 0.000000 
#    z -0.110670 0.000000 1.834000 
# 
# From -- ./inp_files/98061.got.cif
#   From: 2010.05.17/outbox.ucp.g08.bks.cvg/sg13_50_cif.got.tgz:98061.got - 2010.06.11 12:23:55.
