data_PCOD9239681
_publ_section_title
;
Structure prediction by ZEFSAII (Michael W. Deem and Ramdas Pophale) SiO2 
 PCOD9239681
Probable space group: P 21/C
;
_chemical_formula_sum "Si O2"
_cell_formula_units_Z 20
_cell_length_a 5.537709
_cell_length_b 9.049597
_cell_length_c 13.822755
_cell_angle_alpha 90.000000
_cell_angle_beta 86.584515
_cell_angle_gamma 90.000000
_cell_volume 691.483600
_symmetry_space_group_name_H-M "P 21/C"
_symmetry_group_IT_number 14
_symmetry_cell_setting 'monoclinic'
loop_
_space_group_symop_operation_xyz
x,y,z
-x,1/2+y,1/2-z
-x,-y,-z
x,1/2-y,1/2+z
loop_
_atom_site_type_symbol
_atom_site_label
_atom_site_fract_x
_atom_site_fract_y
_atom_site_fract_z
Si Si1 0.132468 0.164435 0.538266
Si Si2 0.446108 0.808941 0.778940
Si Si3 0.629796 0.201061 0.507175
Si Si4 0.745788 0.502765 0.401928
Si Si5 0.051691 0.182476 0.762649
O O1 0.382723 0.126518 0.479743
O O2 0.167166 0.345445 0.549985
O O3 0.892086 0.133569 0.483563
O O4 0.091473 0.124446 0.651821
O O5 0.405013 0.709761 0.876235
O O6 0.191411 0.786993 0.731570
O O7 0.691860 0.757463 0.720251
O O8 0.541054 0.959993 0.825980
O O9 0.653378 0.369813 0.469962
O O10 0.977237 0.443294 0.338434
#
# Coordination Sequence:
#
# PCOD9239681 Si02
#       5
#     4   4   4   4   4
#     4   9  18  31  43  70  99 115 146 192 224 274
#     4   9  19  32  43  69  98 115 149 193 222 273
#     4   9  17  29  47  69  94 116 144 190 239 271
#     4  10  18  30  52  70  91 126 150 184 236 272
#     4   9  19  30  44  68  95 122 150 179 230 276
#
# _framework density 28.92332
#
# number of rings (size 3 to 8) (size 9 to 14) (size 15 to 20)
#    0.000    3.200    0.000    3.000    0.000   11.200 
#    0.000    1.000    0.000    0.000    0.000   78.400 
#    0.000    0.000    0.000    0.000    0.000    0.000 
#
# Total GULP energy -111919.598697 kJ/mol
# GULP energy per Si atom -5595.979935 kJ/mol
# Density = 2.885749 g / cm^3
# Si number density = 28.923320 Si / 1000 Ang^3
#
#
#
# Elastic Constant Matrix: (Units=GPa)
#
#
# Indices 1 2 3 4 5 6 
#
# 1 210.7745 78.7111 63.3785 0.0000 -51.0891 0.0000
# 2 78.7111 82.5093 21.9586 0.0000 -16.5740 0.0000
# 3 63.3785 21.9586 105.2661 0.0000 -3.4732 0.0000
# 4 0.0000 0.0000 0.0000 42.4444 0.0000 -10.0626
# 5 -51.0891 -16.5740 -3.4732 0.0000 45.8348 0.0000
# 6 0.0000 0.0000 0.0000 -10.0626 0.0000 52.9894
#
#
#
# Elastic Compliance Matrix: (Units=1/GPa)
#
#
# Indices 1 2 3 4 5 6 
#
# 1 0.011412 -0.007642 -0.004961 0.000000 0.009581 0.000000
# 2 -0.007642 0.018923 0.000600 0.000000 -0.001630 0.000000
# 3 -0.004961 0.000600 0.012217 0.000000 -0.004387 0.000000
# 4 0.000000 0.000000 0.000000 0.024671 0.000000 0.004685
# 5 0.009581 -0.001630 -0.004387 0.000000 0.031575 0.000000
# 6 0.000000 0.000000 0.000000 0.004685 0.000000 0.019761
#
#
# Mechanical properties :
#
#
# Convention : Reuss Voigt Hill
#
# Bulk Modulus (GPa) = 53.91959 80.73847 67.32903
# Shear Modulus (GPa) = 33.61402 43.88716 38.75059
#
# Velocity S-wave (km/s) = 3.41277 3.89956 3.66426
# Velocity P-wave (km/s) = 5.84911 6.94627 6.42117
#
# Compressibility (1/GPa) = 0.01854614
#
# Stress axis : x y z
#
# Youngs Moduli (GPa) = 87.62455 52.84572 81.85549
#
# Poissons Ratio (x) = 0.40385 0.40607
# Poissons Ratio (y) = 0.66963 -0.04911
# Poissons Ratio (z) = 0.43469 -0.03171
#
# Static dielectric constant tensor:
#      x y z
#    x 2.373190 0.000000 0.014390 
#    y 0.000000 2.379200 0.000000 
#    z 0.014390 0.000000 2.176200 
# 
# From -- ./inp_files/20626.got.cif
#   From: 2010.05.17/outbox.cif.g08.bks.cpg/sg14_11_cif.got.tgz:20626.got - 2010.06.03 17:49:19.
