data_PCOD9239430
_publ_section_title
;
Structure prediction by ZEFSAII (Michael W. Deem and Ramdas Pophale) SiO2 
 PCOD9239430
Probable space group: P 21/C
;
_chemical_formula_sum "Si O2"
_cell_formula_units_Z 32
_cell_length_a 15.963824
_cell_length_b 17.118996
_cell_length_c 9.456423
_cell_angle_alpha 90.000000
_cell_angle_beta 149.920292
_cell_angle_gamma 90.000000
_cell_volume 1295.259845
_symmetry_space_group_name_H-M "P 21/C"
_symmetry_group_IT_number 14
_symmetry_cell_setting 'monoclinic'
loop_
_space_group_symop_operation_xyz
x,y,z
-x,1/2+y,1/2-z
-x,-y,-z
x,1/2-y,1/2+z
loop_
_atom_site_type_symbol
_atom_site_label
_atom_site_fract_x
_atom_site_fract_y
_atom_site_fract_z
Si Si1 0.674837 0.591553 0.172708
Si Si2 0.215575 0.298686 0.893623
Si Si3 0.082917 0.140351 0.725054
Si Si4 0.341353 0.823914 0.227818
Si Si5 0.839430 0.436524 0.386366
Si Si6 0.149563 0.952652 0.415402
Si Si7 0.533305 0.305343 0.772254
Si Si8 0.710582 0.906179 0.235010
O O1 0.794868 0.628574 0.227524
O O2 0.759782 0.624279 0.439056
O O3 0.690247 0.498948 0.190646
O O4 0.487092 0.621109 0.876135
O O5 0.070813 0.234029 0.689002
O O6 0.366877 0.248131 0.048973
O O7 0.259375 0.336829 0.107251
O O8 0.142197 0.099046 0.667384
O O9 0.923673 0.104244 0.571416
O O10 0.173413 0.870870 0.011998
O O11 0.399475 0.811544 0.473019
O O12 0.343318 0.744202 0.146107
O O13 0.822316 0.412937 0.196620
O O14 0.002083 0.486266 0.660019
O O15 0.286333 0.010517 0.682723
O O16 0.461772 0.382906 0.594305
#
# Coordination Sequence:
#
# PCOD9239430 Si02
#       8
#     4   4   4   4   4   4   4   4
#     4  10  18  34  60  92 112 153 211 245 309 364
#     4  10  17  32  59  89 113 150 207 250 296 359
#     4  10  19  32  58  90 118 153 200 262 295 344
#     4  11  20  38  65  89 121 152 200 260 307 366
#     4  10  22  39  60  83 124 165 199 249 302 370
#     4  10  22  39  58  84 125 166 206 240 298 371
#     4  10  20  35  63  93 118 149 198 258 309 360
#     4  11  18  35  61  91 115 155 205 255 295 357
#
# _framework density 24.705465
#
# number of rings (size 3 to 8) (size 9 to 14) (size 15 to 20)
#    0.000    1.750    5.000    2.250    0.000    0.000 
#    0.000    1.875    8.250    0.000    0.000    0.000 
#    0.000    0.000    0.000    0.000    0.000    0.000 
#
# Total GULP energy -178889.961097 kJ/mol
# GULP energy per Si atom -5590.311284 kJ/mol
# Density = 2.464923 g / cm^3
# Si number density = 24.705465 Si / 1000 Ang^3
#
#
#
# Elastic Constant Matrix: (Units=GPa)
#
#
# Indices 1 2 3 4 5 6 
#
# 1 118.0502 54.8827 7.5204 0.0000 -22.4500 0.0000
# 2 54.8827 75.4905 -1.6100 0.0000 9.1813 0.0000
# 3 7.5204 -1.6100 40.0700 0.0000 -8.6951 0.0000
# 4 0.0000 0.0000 0.0000 21.3732 0.0000 3.4769
# 5 -22.4500 9.1813 -8.6951 0.0000 27.7489 0.0000
# 6 0.0000 0.0000 0.0000 3.4769 0.0000 65.7045
#
#
#
# Elastic Compliance Matrix: (Units=1/GPa)
#
#
# Indices 1 2 3 4 5 6 
#
# 1 0.021603 -0.018585 0.000350 0.000000 0.023737 0.000000
# 2 -0.018585 0.029799 -0.000769 0.000000 -0.025137 0.000000
# 3 0.000350 -0.000769 0.026799 0.000000 0.008935 0.000000
# 4 0.000000 0.000000 0.000000 0.047194 0.000000 -0.002497
# 5 0.023737 -0.025137 0.008935 0.000000 0.066358 0.000000
# 6 0.000000 0.000000 0.000000 -0.002497 0.000000 0.015352
#
#
# Mechanical properties :
#
#
# Convention : Reuss Voigt Hill
#
# Bulk Modulus (GPa) = 24.88108 39.46631 32.17370
# Shear Modulus (GPa) = 19.34139 34.48649 26.91394
#
# Velocity S-wave (km/s) = 2.80103 3.74023 3.30417
# Velocity P-wave (km/s) = 4.53365 5.88743 5.25433
#
# Compressibility (1/GPa) = 0.04019118
#
# Stress axis : x y z
#
# Youngs Moduli (GPa) = 46.28895 33.55764 37.31532
#
# Poissons Ratio (x) = 0.62369 -0.01304
# Poissons Ratio (y) = 0.86030 0.02871
# Poissons Ratio (z) = -0.01618 0.02581
#
# Static dielectric constant tensor:
#      x y z
#    x 1.989790 0.000000 0.058240 
#    y 0.000000 2.045270 0.000000 
#    z 0.058240 0.000000 1.982320 
# 
# From -- ./inp_files/16811.got.cif
#   From: 2010.05.17/outbox.cif.g08.bks.cpg/sg14_9_cif.got.tgz:16811.got - 2010.06.03 17:49:19.
