data_PCOD9239031
_publ_section_title
;
Structure prediction by ZEFSAII (Michael W. Deem and Ramdas Pophale) SiO2 
 PCOD9239031
Probable space group: P 2/C
;
_chemical_formula_sum "Si O2"
_cell_formula_units_Z 18
_cell_length_a 6.000000
_cell_length_b 6.000000
_cell_length_c 24.000000
_cell_angle_alpha 90.000000
_cell_angle_beta 80.000000
_cell_angle_gamma 90.000000
_cell_volume 850.873899
_symmetry_space_group_name_H-M "P 2/C"
_symmetry_group_IT_number 13
_symmetry_cell_setting 'monoclinic'
loop_
_space_group_symop_operation_xyz
x,y,z
-x,y,1/2-z
-x,-y,-z
x,-y,1/2+z
loop_
_atom_site_type_symbol
_atom_site_label
_atom_site_fract_x
_atom_site_fract_y
_atom_site_fract_z
Si Si1 0.313919 0.688785 0.525493
Si Si2 0.702358 0.884923 0.198531
Si Si3 0.514998 0.901383 0.088707
Si Si4 0.107226 0.553674 0.138353
Si Si5 0.000000 0.750035 0.750000
O O1 0.500000 0.500000 0.500000
O O2 0.295895 0.798957 0.463276
O O3 0.123060 0.581645 0.576881
O O4 0.411038 0.890305 0.559275
O O5 0.500000 0.803390 0.250000
O O6 0.610206 0.979192 0.143950
O O7 0.885240 0.700000 0.167268
O O8 0.825771 0.082156 0.227000
O O9 0.319557 0.723048 0.117137
O O10 0.117084 0.393043 0.193693
#
# Coordination Sequence:
#
# PCOD9239031 Si02
#       5
#     4   4   4   4   2
#     4   9  20  41  69  97 129 165 207 260 318 381
#     4  12  25  41  64  93 127 169 216 265 316 376
#     4  10  22  44  68  95 129 166 210 262 317 379
#     4  11  23  43  65  92 129 168 213 265 317 377
#     4  12  26  42  62  92 128 168 216 266 316 374
#
# _framework density 21.154720999999999
#
# number of rings (size 3 to 8) (size 9 to 14) (size 15 to 20)
#    0.000    1.333    0.000    6.000    0.000    7.111 
#    0.000   17.778    0.000    0.000    0.000    0.000 
#    0.000    0.000    0.000    0.000    0.000    0.000 
#
# Total GULP energy -100204.437066 kJ/mol
# GULP energy per Si atom -5566.913170 kJ/mol
# Density = 2.110657 g / cm^3
# Si number density = 21.154721 Si / 1000 Ang^3
#
#
#
# Elastic Constant Matrix: (Units=GPa)
#
#
# Indices 1 2 3 4 5 6 
#
# 1 63.0538 29.3785 60.2268 0.0000 -16.5336 0.0000
# 2 29.3785 93.1001 53.9987 0.0000 -11.9244 0.0000
# 3 60.2268 53.9987 251.6917 0.0000 -29.2926 0.0000
# 4 0.0000 0.0000 0.0000 75.6458 0.0000 -12.6682
# 5 -16.5336 -11.9244 -29.2926 0.0000 56.2028 0.0000
# 6 0.0000 0.0000 0.0000 -12.6682 0.0000 20.7931
#
#
#
# Elastic Compliance Matrix: (Units=1/GPa)
#
#
# Indices 1 2 3 4 5 6 
#
# 1 0.022739 -0.004339 -0.004087 0.000000 0.003639 0.000000
# 2 -0.004339 0.013187 -0.001718 0.000000 0.000626 0.000000
# 3 -0.004087 -0.001718 0.005469 0.000000 0.001284 0.000000
# 4 0.000000 0.000000 0.000000 0.014722 0.000000 0.008969
# 5 0.003639 0.000626 0.001284 0.000000 0.019665 0.000000
# 6 0.000000 0.000000 0.000000 0.008969 0.000000 0.053557
#
#
# Mechanical properties :
#
#
# Convention : Reuss Voigt Hill
#
# Bulk Modulus (GPa) = 47.37728 77.22816 62.30272
# Shear Modulus (GPa) = 31.91589 48.14445 40.03017
#
# Velocity S-wave (km/s) = 3.88840 4.77574 4.35473
# Velocity P-wave (km/s) = 6.52715 8.18510 7.40269
#
# Compressibility (1/GPa) = 0.02110717
#
# Stress axis : x y z
#
# Youngs Moduli (GPa) = 43.97777 75.83231 182.84837
#
# Poissons Ratio (x) = 0.32904 0.74725
# Poissons Ratio (y) = 0.19082 0.31414
# Poissons Ratio (z) = 0.17973 0.13028
#
# Static dielectric constant tensor:
#      x y z
#    x 1.830770 0.000000 0.023850 
#    y 0.000000 1.824110 0.000000 
#    z 0.023850 0.000000 1.759680 
# 
# From -- ./inp_files/72645.got.cif
#   From: 2010.05.17/outbox.ucp.g08.bks.cvg/sg13_37_cif.got.tgz:72645.got - 2010.06.11 12:23:55.
