data_PCOD9239888
_publ_section_title
;
Structure prediction by ZEFSAII (Michael W. Deem and Ramdas Pophale) SiO2 
 PCOD9239888
Probable space group: P 21/C
;
_chemical_formula_sum "Si O2"
_cell_formula_units_Z 24
_cell_length_a 12.049367
_cell_length_b 7.369233
_cell_length_c 23.089865
_cell_angle_alpha 90.000000
_cell_angle_beta 28.075845
_cell_angle_gamma 90.000000
_cell_volume 964.931985
_symmetry_space_group_name_H-M "P 21/C"
_symmetry_group_IT_number 14
_symmetry_cell_setting 'monoclinic'
loop_
_space_group_symop_operation_xyz
x,y,z
-x,1/2+y,1/2-z
-x,-y,-z
x,1/2-y,1/2+z
loop_
_atom_site_type_symbol
_atom_site_label
_atom_site_fract_x
_atom_site_fract_y
_atom_site_fract_z
Si Si1 0.958100 0.209940 0.990294
Si Si2 0.916868 0.422083 0.346573
Si Si3 0.054432 0.000336 0.300136
Si Si4 0.677841 0.975240 0.265018
Si Si5 0.190907 0.390104 0.984502
Si Si6 0.538879 0.096303 0.114120
O O1 0.166712 0.115215 0.857693
O O2 0.908124 0.412710 0.989647
O O3 0.043929 0.243878 0.015883
O O4 0.715257 0.104870 0.087579
O O5 0.896329 0.445507 0.288077
O O6 0.688931 0.465428 0.489788
O O7 0.973738 0.210758 0.334019
O O8 0.136122 0.535157 0.272140
O O9 0.294474 0.990262 0.227305
O O10 0.858099 0.887173 0.424705
O O11 0.537598 0.805873 0.358046
O O12 0.469785 0.110919 0.342729
#
# Coordination Sequence:
#
# PCOD9239888 Si02
#       6
#     4   4   4   4   4   4
#     4   9  17  32  61  82 109 149 205 246 299 361
#     4  10  20  34  58  83 121 162 201 246 296 358
#     4  11  20  35  60  88 121 161 202 247 299 359
#     4   9  16  34  57  80 113 152 198 246 310 349
#     4  10  18  32  60  83 110 160 205 244 301 362
#     4   9  16  35  57  84 110 160 196 242 309 349
#
# _framework density 24.872219000000001
#
# number of rings (size 3 to 8) (size 9 to 14) (size 15 to 20)
#    0.000    2.333    6.667    0.500    0.000    0.667 
#    0.000    0.000   14.667    9.000    0.000    0.000 
#    0.000    0.000    0.000    0.000    0.000    0.000 
#
# Total GULP energy -134195.998257 kJ/mol
# GULP energy per Si atom -5591.499927 kJ/mol
# Density = 2.481561 g / cm^3
# Si number density = 24.872219 Si / 1000 Ang^3
#
#
#
# Elastic Constant Matrix: (Units=GPa)
#
#
# Indices 1 2 3 4 5 6 
#
# 1 99.0713 18.8483 32.6886 0.0000 -8.3298 0.0000
# 2 18.8483 78.4784 10.5211 0.0000 -7.8244 0.0000
# 3 32.6886 10.5211 103.4480 0.0000 -32.2685 0.0000
# 4 0.0000 0.0000 0.0000 14.6631 0.0000 -0.1516
# 5 -8.3298 -7.8244 -32.2685 0.0000 29.8829 0.0000
# 6 0.0000 0.0000 0.0000 -0.1516 0.0000 40.9459
#
#
#
# Elastic Compliance Matrix: (Units=1/GPa)
#
#
# Indices 1 2 3 4 5 6 
#
# 1 0.011732 -0.002451 -0.003978 0.000000 -0.001667 0.000000
# 2 -0.002451 0.013607 0.000435 0.000000 0.003350 0.000000
# 3 -0.003978 0.000435 0.015937 0.000000 0.016215 0.000000
# 4 0.000000 0.000000 0.000000 0.068201 0.000000 0.000253
# 5 -0.001667 0.003350 0.016215 0.000000 0.051386 0.000000
# 6 0.000000 0.000000 0.000000 0.000253 0.000000 0.024423
#
#
# Mechanical properties :
#
#
# Convention : Reuss Voigt Hill
#
# Bulk Modulus (GPa) = 34.14171 45.01263 39.57717
# Shear Modulus (GPa) = 24.15037 31.69435 27.92236
#
# Velocity S-wave (km/s) = 3.11943 3.57359 3.35421
# Velocity P-wave (km/s) = 5.17021 5.92994 5.56306
#
# Compressibility (1/GPa) = 0.02928969
#
# Stress axis : x y z
#
# Youngs Moduli (GPa) = 85.23419 73.49406 62.74587
#
# Poissons Ratio (x) = 0.18011 0.24961
# Poissons Ratio (y) = 0.20888 -0.02732
# Poissons Ratio (z) = 0.33906 -0.03200
#
# Static dielectric constant tensor:
#      x y z
#    x 1.962570 0.000000 -0.024610 
#    y 0.000000 2.014960 0.000000 
#    z -0.024610 0.000000 1.940990 
# 
# From -- ./inp_files/28200.got.cif
#   From: 2010.05.17/outbox.cif.g08.bks.cpg/sg14_15_cif.got.tgz:28200.got - 2010.06.03 17:49:19.
