data_PCOD9239533
_publ_section_title
;
Structure prediction by ZEFSAII (Michael W. Deem and Ramdas Pophale) SiO2 
 PCOD9239533
Probable space group: P 21/C
;
_chemical_formula_sum "Si O2"
_cell_formula_units_Z 28
_cell_length_a 8.461277
_cell_length_b 12.433129
_cell_length_c 16.740684
_cell_angle_alpha 90.000000
_cell_angle_beta 141.629567
_cell_angle_gamma 90.000000
_cell_volume 1093.204920
_symmetry_space_group_name_H-M "P 21/C"
_symmetry_group_IT_number 14
_symmetry_cell_setting 'monoclinic'
loop_
_space_group_symop_operation_xyz
x,y,z
-x,1/2+y,1/2-z
-x,-y,-z
x,1/2-y,1/2+z
loop_
_atom_site_type_symbol
_atom_site_label
_atom_site_fract_x
_atom_site_fract_y
_atom_site_fract_z
Si Si1 0.273700 0.776476 0.234759
Si Si2 0.567030 0.650224 0.461312
Si Si3 0.899664 0.500939 0.677738
Si Si4 0.812698 0.652294 0.116807
Si Si5 0.315904 0.713652 0.080484
Si Si6 0.837628 0.844300 0.305059
Si Si7 0.646640 0.540910 0.891170
O O1 0.508255 0.695061 0.349735
O O2 0.191445 0.759488 0.112226
O O3 0.378912 0.895178 0.289983
O O4 0.055033 0.730148 0.203923
O O5 0.814144 0.573712 0.568752
O O6 0.336436 0.580273 0.402870
O O7 0.588734 0.761317 0.520152
O O8 0.887077 0.580524 0.748795
O O9 0.144882 0.426273 0.792153
O O10 0.792273 0.580726 0.028590
O O11 0.585252 0.775465 0.185707
O O12 0.362724 0.586634 0.111073
O O13 0.093402 0.721965 0.926370
O O14 0.773001 0.914109 0.359468
#
# Coordination Sequence:
#
# PCOD9239533 Si02
#       7
#     4   4   4   4   4   4   4
#     4   9  19  33  57  85 111 148 197 242 280 347
#     4   9  20  36  57  83 108 151 204 238 281 355
#     4  10  20  39  57  81 118 155 189 242 305 342
#     4  10  17  35  61  81 109 149 199 235 286 349
#     4  11  21  38  59  91 119 154 195 243 296 355
#     4  11  22  38  61  88 122 158 190 242 303 351
#     4  10  18  34  60  81 114 152 193 234 293 346
#
# _framework density 25.612763999999999
#
# number of rings (size 3 to 8) (size 9 to 14) (size 15 to 20)
#    0.000    2.000    2.857    2.143    0.000    0.000 
#   10.286    1.429    0.000    6.000    0.000    0.000 
#    0.000    0.000    0.000    0.000    0.000    0.000 
#
# Total GULP energy -156549.991011 kJ/mol
# GULP energy per Si atom -5591.071108 kJ/mol
# Density = 2.555447 g / cm^3
# Si number density = 25.612764 Si / 1000 Ang^3
#
#
#
# Elastic Constant Matrix: (Units=GPa)
#
#
# Indices 1 2 3 4 5 6 
#
# 1 58.2073 14.4293 33.6248 0.0000 5.0120 0.0000
# 2 14.4293 112.0694 49.0421 0.0000 6.2427 0.0000
# 3 33.6248 49.0421 129.5537 0.0000 11.3941 0.0000
# 4 0.0000 0.0000 0.0000 62.3588 0.0000 4.3184
# 5 5.0120 6.2427 11.3941 0.0000 32.6007 0.0000
# 6 0.0000 0.0000 0.0000 4.3184 0.0000 40.3343
#
#
#
# Elastic Compliance Matrix: (Units=1/GPa)
#
#
# Indices 1 2 3 4 5 6 
#
# 1 0.020276 -0.000342 -0.005019 0.000000 -0.001298 0.000000
# 2 -0.000342 0.010714 -0.003911 0.000000 -0.000632 0.000000
# 3 -0.005019 -0.003911 0.010697 0.000000 -0.002218 0.000000
# 4 0.000000 0.000000 0.000000 0.016156 0.000000 -0.001730
# 5 -0.001298 -0.000632 -0.002218 0.000000 0.031770 0.000000
# 6 0.000000 0.000000 0.000000 -0.001730 0.000000 0.024978
#
#
# Mechanical properties :
#
#
# Convention : Reuss Voigt Hill
#
# Bulk Modulus (GPa) = 43.21086 54.89142 49.05114
# Shear Modulus (GPa) = 35.49894 40.57437 38.03665
#
# Velocity S-wave (km/s) = 3.72692 3.98445 3.85784
# Velocity P-wave (km/s) = 5.95209 6.53036 6.24792
#
# Compressibility (1/GPa) = 0.02314233
#
# Stress axis : x y z
#
# Youngs Moduli (GPa) = 49.32001 93.33661 93.48305
#
# Poissons Ratio (x) = 0.03192 0.46918
# Poissons Ratio (y) = 0.01687 0.36565
# Poissons Ratio (z) = 0.24753 0.36507
#
# Static dielectric constant tensor:
#      x y z
#    x 2.037540 0.000000 0.052770 
#    y 0.000000 2.002360 0.000000 
#    z 0.052770 0.000000 2.095490 
# 
# From -- ./inp_files/28574.got.cif
#   From: 2010.05.17/outbox.cif.g08.bks.cpg/sg14_15_cif.got.tgz:28574.got - 2010.06.03 17:49:19.
