data_PCOD9239759
_publ_section_title
;
Structure prediction by ZEFSAII (Michael W. Deem and Ramdas Pophale) SiO2 
 PCOD9239759
Probable space group: P 21/C
;
_chemical_formula_sum "Si O2"
_cell_formula_units_Z 32
_cell_length_a 15.185777
_cell_length_b 20.800096
_cell_length_c 8.992900
_cell_angle_alpha 90.000000
_cell_angle_beta 38.202133
_cell_angle_gamma 90.000000
_cell_volume 1756.701788
_symmetry_space_group_name_H-M "P 21/C"
_symmetry_group_IT_number 14
_symmetry_cell_setting 'monoclinic'
loop_
_space_group_symop_operation_xyz
x,y,z
-x,1/2+y,1/2-z
-x,-y,-z
x,1/2-y,1/2+z
loop_
_atom_site_type_symbol
_atom_site_label
_atom_site_fract_x
_atom_site_fract_y
_atom_site_fract_z
Si Si1 0.133068 0.829465 0.513801
Si Si2 0.380891 0.072156 0.647868
Si Si3 0.472081 0.996375 0.283225
Si Si4 0.745971 0.238748 0.371645
Si Si5 0.338695 0.288055 0.668227
Si Si6 0.428197 0.685498 0.164090
Si Si7 0.426190 0.601766 0.586507
Si Si8 0.195862 0.180121 0.048919
O O1 0.145301 0.768105 0.389318
O O2 0.181624 0.811139 0.614884
O O3 0.263954 0.873849 0.284979
O O4 0.967085 0.843130 0.733804
O O5 0.417096 0.027956 0.740177
O O6 0.521411 0.112812 0.412873
O O7 0.347620 0.028947 0.548079
O O8 0.275896 0.126843 0.843930
O O9 0.433011 0.935060 0.235324
O O10 0.532986 0.049800 0.091356
O O11 0.625215 0.207132 0.428455
O O12 0.684606 0.294258 0.561419
O O13 0.439108 0.231118 0.474056
O O14 0.454395 0.341040 0.574017
O O15 0.254821 0.317292 0.639378
O O16 0.234796 0.250106 0.922092
#
# Coordination Sequence:
#
# PCOD9239759 Si02
#       8
#     4   4   4   4   4   4   4   4
#     4  11  22  36  55  86 123 152 180 237 295 360
#     4  10  20  36  57  81 119 143 195 248 282 334
#     4  10  22  37  59  87 105 156 210 245 270 330
#     4  10  18  31  54  85 118 141 185 224 292 359
#     4  11  21  36  61  87 117 150 187 243 294 360
#     4  10  18  31  59  89 108 144 188 244 293 332
#     4  11  21  38  63  83 116 151 204 242 281 337
#     4  11  24  37  56  90 122 151 183 236 314 351
#
# _framework density 18.215954
#
# number of rings (size 3 to 8) (size 9 to 14) (size 15 to 20)
#    0.000    1.500    3.750    3.750    3.500    0.000 
#    0.000    1.250    0.000    0.000    0.000    0.000 
#    0.000    0.000    0.000    0.000    0.000    0.000 
#
# Total GULP energy -178218.503187 kJ/mol
# GULP energy per Si atom -5569.328225 kJ/mol
# Density = 1.817449 g / cm^3
# Si number density = 18.215954 Si / 1000 Ang^3
#
#
#
# Elastic Constant Matrix: (Units=GPa)
#
#
# Indices 1 2 3 4 5 6 
#
# 1 80.4625 21.6989 38.6877 0.0000 -0.6390 0.0000
# 2 21.6989 73.6577 18.7535 0.0000 -5.1896 0.0000
# 3 38.6877 18.7535 48.6140 0.0000 -11.8662 0.0000
# 4 0.0000 0.0000 0.0000 21.3080 0.0000 11.4289
# 5 -0.6390 -5.1896 -11.8662 0.0000 29.4029 0.0000
# 6 0.0000 0.0000 0.0000 11.4289 0.0000 22.0837
#
#
#
# Elastic Compliance Matrix: (Units=1/GPa)
#
#
# Indices 1 2 3 4 5 6 
#
# 1 0.021731 -0.002283 -0.018188 0.000000 -0.007271 0.000000
# 2 -0.002283 0.015298 -0.003813 0.000000 0.001112 0.000000
# 3 -0.018188 -0.003813 0.040216 0.000000 0.015162 0.000000
# 4 0.000000 0.000000 0.000000 0.064963 0.000000 -0.033620
# 5 -0.007271 0.001112 0.015162 0.000000 0.040167 0.000000
# 6 0.000000 0.000000 0.000000 -0.033620 0.000000 0.062682
#
#
# Mechanical properties :
#
#
# Convention : Reuss Voigt Hill
#
# Bulk Modulus (GPa) = 34.87115 40.11268 37.49192
# Shear Modulus (GPa) = 16.49157 22.79854 19.64505
#
# Velocity S-wave (km/s) = 3.01215 3.54159 3.28754
# Velocity P-wave (km/s) = 5.59304 6.22834 5.91922
#
# Compressibility (1/GPa) = 0.02867700
#
# Stress axis : x y z
#
# Youngs Moduli (GPa) = 46.01679 65.36767 24.86567
#
# Poissons Ratio (x) = 0.14926 0.45225
# Poissons Ratio (y) = 0.10507 0.09481
# Poissons Ratio (z) = 0.83695 0.24924
#
# Static dielectric constant tensor:
#      x y z
#    x 1.655030 0.000000 0.010700 
#    y 0.000000 1.662780 0.000000 
#    z 0.010700 0.000000 1.647450 
# 
# From -- ./inp_files/16853.got.cif
#   From: 2010.05.17/outbox.cif.g08.bks.cpg/sg14_9_cif.got.tgz:16853.got - 2010.06.03 17:49:19.
