data_PCOD9239113
_publ_section_title
;
Structure prediction by ZEFSAII (Michael W. Deem and Ramdas Pophale) SiO2 
 PCOD9239113
Probable space group: P 21/C
;
_chemical_formula_sum "Si O2"
_cell_formula_units_Z 32
_cell_length_a 8.134142
_cell_length_b 18.380195
_cell_length_c 8.113388
_cell_angle_alpha 90.000000
_cell_angle_beta 70.607109
_cell_angle_gamma 90.000000
_cell_volume 1144.187784
_symmetry_space_group_name_H-M "P 21/C"
_symmetry_group_IT_number 14
_symmetry_cell_setting 'monoclinic'
loop_
_space_group_symop_operation_xyz
x,y,z
-x,1/2+y,1/2-z
-x,-y,-z
x,1/2-y,1/2+z
loop_
_atom_site_type_symbol
_atom_site_label
_atom_site_fract_x
_atom_site_fract_y
_atom_site_fract_z
Si Si1 0.407126 0.855730 0.339500
Si Si2 0.406886 0.214614 0.166929
Si Si3 0.367657 0.096377 0.428241
Si Si4 0.836236 0.730489 0.990240
Si Si5 0.312053 0.445967 0.438432
Si Si6 0.828323 0.434562 0.301932
Si Si7 0.185492 0.522605 0.148496
Si Si8 0.052346 0.859074 0.905234
O O1 0.437386 0.769389 0.343702
O O2 0.485032 0.887128 0.485254
O O3 0.530942 0.893216 0.159763
O O4 0.223942 0.883823 0.333371
O O5 0.199862 0.353709 0.037724
O O6 0.209758 0.235944 0.299243
O O7 0.350517 0.234279 0.002901
O O8 0.426651 0.134575 0.237810
O O9 0.299900 0.014581 0.465060
O O10 0.010570 0.774308 0.905135
O O11 0.307569 0.503906 0.587321
O O12 0.278739 0.492059 0.282849
O O13 0.139264 0.396817 0.521805
O O14 0.998838 0.482346 0.205359
O O15 0.860352 0.383627 0.452317
O O16 0.143052 0.605159 0.216239
#
# Coordination Sequence:
#
# PCOD9239113 Si02
#       8
#     4   4   4   4   4   4   4   4
#     4  10  15  27  44  68  95 117 156 194 230 279
#     4   9  18  30  51  68  84 122 171 194 224 276
#     4   8  17  30  48  62  89 125 163 189 228 286
#     4   9  17  30  51  68  87 120 167 193 228 274
#     4   8  13  25  42  65  96 125 153 181 227 285
#     4   9  17  22  42  74 101 118 142 196 250 265
#     4   8  15  27  43  68  98 124 154 192 235 280
#     4   9  15  27  44  69  96 126 154 193 236 279
#
# _framework density 27.967438000000001
#
# number of rings (size 3 to 8) (size 9 to 14) (size 15 to 20)
#    0.750    2.500    1.250    1.875    1.750    0.000 
#    0.000    1.875    0.000    0.000    0.000    3.500 
#    0.000    0.000    0.000    0.000    0.000    0.000 
#
# Total GULP energy -178631.380076 kJ/mol
# GULP energy per Si atom -5582.230627 kJ/mol
# Density = 2.790378 g / cm^3
# Si number density = 27.967438 Si / 1000 Ang^3
#
#
#
# Elastic Constant Matrix: (Units=GPa)
#
#
# Indices 1 2 3 4 5 6 
#
# 1 65.2128 35.1117 11.6427 0.0000 -2.8351 0.0000
# 2 35.1117 139.2055 9.9693 0.0000 3.5113 0.0000
# 3 11.6427 9.9693 59.3282 0.0000 2.0704 0.0000
# 4 0.0000 0.0000 0.0000 35.7038 0.0000 0.6170
# 5 -2.8351 3.5113 2.0704 0.0000 35.4709 0.0000
# 6 0.0000 0.0000 0.0000 0.6170 0.0000 41.4223
#
#
#
# Elastic Compliance Matrix: (Units=1/GPa)
#
#
# Indices 1 2 3 4 5 6 
#
# 1 0.018355 -0.004473 -0.002923 0.000000 0.002080 0.000000
# 2 -0.004473 0.008376 -0.000489 0.000000 -0.001158 0.000000
# 3 -0.002923 -0.000489 0.017553 0.000000 -0.001210 0.000000
# 4 0.000000 0.000000 0.000000 0.028015 0.000000 -0.000417
# 5 0.002080 -0.001158 -0.001210 0.000000 0.028544 0.000000
# 6 0.000000 0.000000 0.000000 -0.000417 0.000000 0.024148
#
#
# Mechanical properties :
#
#
# Convention : Reuss Voigt Hill
#
# Bulk Modulus (GPa) = 35.07029 41.91043 38.49036
# Shear Modulus (GPa) = 33.27427 36.32094 34.79761
#
# Velocity S-wave (km/s) = 3.45302 3.60764 3.53117
# Velocity P-wave (km/s) = 5.33523 5.68959 5.51525
#
# Compressibility (1/GPa) = 0.02851417
#
# Stress axis : x y z
#
# Youngs Moduli (GPa) = 54.48129 119.38813 56.96888
#
# Poissons Ratio (x) = 0.53400 0.16652
# Poissons Ratio (y) = 0.24368 0.02788
# Poissons Ratio (z) = 0.15925 0.05842
#
# Static dielectric constant tensor:
#      x y z
#    x 2.160520 0.000000 -0.009050 
#    y 0.000000 2.592260 0.000000 
#    z -0.009050 0.000000 2.194000 
# 
# From -- ./inp_files/26452.got.cif
#   From: 2010.05.17/outbox.cif.g08.bks.cpg/sg14_14_cif.got.tgz:26452.got - 2010.06.03 17:49:19.
