data_PCOD9239678
_publ_section_title
;
Structure prediction by ZEFSAII (Michael W. Deem and Ramdas Pophale) SiO2 
 PCOD9239678
Probable space group: P 21/C
;
_chemical_formula_sum "Si O2"
_cell_formula_units_Z 32
_cell_length_a 8.364848
_cell_length_b 10.929445
_cell_length_c 18.018654
_cell_angle_alpha 90.000000
_cell_angle_beta 120.411225
_cell_angle_gamma 90.000000
_cell_volume 1420.674435
_symmetry_space_group_name_H-M "P 21/C"
_symmetry_group_IT_number 14
_symmetry_cell_setting 'monoclinic'
loop_
_space_group_symop_operation_xyz
x,y,z
-x,1/2+y,1/2-z
-x,-y,-z
x,1/2-y,1/2+z
loop_
_atom_site_type_symbol
_atom_site_label
_atom_site_fract_x
_atom_site_fract_y
_atom_site_fract_z
Si Si1 0.254651 0.927341 0.623073
Si Si2 0.368833 0.326991 0.073634
Si Si3 0.981317 0.770520 0.837802
Si Si4 0.203097 0.614530 0.683306
Si Si5 0.445053 0.250996 0.753501
Si Si6 0.004611 0.298375 0.486963
Si Si7 0.743799 0.054002 0.637643
Si Si8 0.025356 0.630141 0.197386
O O1 0.266827 0.052167 0.581738
O O2 0.871687 0.177343 0.444934
O O3 0.453534 0.866600 0.685824
O O4 0.165074 0.951514 0.682386
O O5 0.445181 0.251112 0.163276
O O6 0.207937 0.240432 0.005308
O O7 0.544034 0.386932 0.072980
O O8 0.765442 0.740963 0.770648
O O9 0.987093 0.816558 0.923145
O O10 0.048390 0.866035 0.791110
O O11 0.110055 0.652712 0.858276
O O12 0.407089 0.643045 0.698245
O O13 0.237900 0.546282 0.768216
O O14 0.080978 0.592137 0.581826
O O15 0.091532 0.735329 0.687498
O O16 0.821211 0.922462 0.629911
#
# Coordination Sequence:
#
# PCOD9239678 Si02
#       8
#     4   4   4   4   4   4   4   4
#     4  10  19  34  52  74 101 132 165 200 246 301
#     4  10  18  30  51  74  99 133 165 195 245 301
#     4  10  18  31  51  74  98 126 164 210 248 282
#     4   8  18  34  49  69 100 133 165 200 246 299
#     4   8  16  30  48  69  94 131 166 194 237 297
#     4   9  18  33  49  71 103 135 160 199 250 297
#     4  10  19  32  50  76 100 128 169 207 239 286
#     4   9  17  30  49  71  96 126 165 207 239 279
#
# _framework density 22.524514
#
# number of rings (size 3 to 8) (size 9 to 14) (size 15 to 20)
#    0.000    3.000    0.000    3.375    0.000    1.000 
#    0.000   13.750    0.000    1.500    0.000   39.375 
#    0.000    0.000    0.000    0.000    0.000    0.000 
#
# Total GULP energy -178159.252588 kJ/mol
# GULP energy per Si atom -5567.476643 kJ/mol
# Density = 2.247325 g / cm^3
# Si number density = 22.524514 Si / 1000 Ang^3
#
#
#
# Elastic Constant Matrix: (Units=GPa)
#
#
# Indices 1 2 3 4 5 6 
#
# 1 133.6457 23.6139 35.8960 0.0000 13.6055 0.0000
# 2 23.6139 43.7697 7.0780 0.0000 5.4427 0.0000
# 3 35.8960 7.0780 77.4007 0.0000 16.6433 0.0000
# 4 0.0000 0.0000 0.0000 13.5098 0.0000 5.1851
# 5 13.6055 5.4427 16.6433 0.0000 38.6568 0.0000
# 6 0.0000 0.0000 0.0000 5.1851 0.0000 32.5432
#
#
#
# Elastic Compliance Matrix: (Units=1/GPa)
#
#
# Indices 1 2 3 4 5 6 
#
# 1 0.009351 -0.004310 -0.003709 0.000000 -0.001088 0.000000
# 2 -0.004310 0.025414 0.000130 0.000000 -0.002117 0.000000
# 3 -0.003709 0.000130 0.015815 0.000000 -0.005522 0.000000
# 4 0.000000 0.000000 0.000000 0.078841 0.000000 -0.012562
# 5 -0.001088 -0.002117 -0.005522 0.000000 0.028927 0.000000
# 6 0.000000 0.000000 0.000000 -0.012562 0.000000 0.032730
#
#
# Mechanical properties :
#
#
# Convention : Reuss Voigt Hill
#
# Bulk Modulus (GPa) = 28.73283 43.11022 35.92152
# Shear Modulus (GPa) = 22.88786 29.49052 26.18919
#
# Velocity S-wave (km/s) = 3.19114 3.62230 3.41353
# Velocity P-wave (km/s) = 5.13437 6.05603 5.61415
#
# Compressibility (1/GPa) = 0.03480340
#
# Stress axis : x y z
#
# Youngs Moduli (GPa) = 106.94271 39.34794 63.23013
#
# Poissons Ratio (x) = 0.16958 0.23450
# Poissons Ratio (y) = 0.46091 -0.00822
# Poissons Ratio (z) = 0.39661 -0.00512
#
# Static dielectric constant tensor:
#      x y z
#    x 1.859790 0.000000 -0.017450 
#    y 0.000000 1.884410 0.000000 
#    z -0.017450 0.000000 1.928890 
# 
# From -- ./inp_files/65699.got.cif
#   From: 2010.05.17/outbox.cif.g08.bks.cpg/sg14_33_cif.got.tgz:65699.got - 2010.06.03 17:49:19.
