data_PCOD9239050
_publ_section_title
;
Structure prediction by ZEFSAII (Michael W. Deem and Ramdas Pophale) SiO2 
 PCOD9239050
Probable space group: P 2/C
;
_chemical_formula_sum "Si O2"
_cell_formula_units_Z 30
_cell_length_a 30.000000
_cell_length_b 6.000000
_cell_length_c 9.000000
_cell_angle_alpha 90.000000
_cell_angle_beta 120.000000
_cell_angle_gamma 90.000000
_cell_volume 1402.961154
_symmetry_space_group_name_H-M "P 2/C"
_symmetry_group_IT_number 13
_symmetry_cell_setting 'monoclinic'
loop_
_space_group_symop_operation_xyz
x,y,z
-x,y,1/2-z
-x,-y,-z
x,-y,1/2+z
loop_
_atom_site_type_symbol
_atom_site_label
_atom_site_fract_x
_atom_site_fract_y
_atom_site_fract_z
Si Si1 0.656337 0.802087 0.257396
Si Si2 0.939088 0.228120 0.673258
Si Si3 0.253281 0.104006 0.163652
Si Si4 0.907897 0.727316 0.472441
Si Si5 0.543197 0.811737 0.072806
Si Si6 0.206837 0.238630 0.813239
Si Si7 0.500000 0.497791 0.250000
Si Si8 0.693697 0.489250 0.075857
O O1 0.600509 0.910767 0.170318
O O2 0.664723 0.685382 0.112653
O O3 0.660324 0.616064 0.390797
O O4 0.706293 0.954689 0.361229
O O5 0.924272 0.480508 0.574495
O O6 0.927967 0.247211 0.833569
O O7 0.000000 0.212635 0.750000
O O8 0.918911 0.976321 0.573593
O O9 0.289223 0.301913 0.279317
O O10 0.230653 0.963831 0.260132
O O11 0.205052 0.172790 0.982348
O O12 0.846477 0.701785 0.349958
O O13 0.533549 0.655042 0.198999
O O14 0.534350 0.657462 0.913735
O O15 0.500000 0.000000 0.000000
O O16 0.250885 0.425619 0.887094
#
# Coordination Sequence:
#
# PCOD9239050 Si02
#       8
#     4   4   4   4   4   4   2   4
#     4  11  24  40  68  91 125 172 216 264 345 402
#     4  12  26  50  74 111 151 201 259 315 375 442
#     4  11  23  42  63  96 132 176 212 281 330 424
#     4  12  27  44  78 109 148 204 248 318 377 444
#     4  11  24  44  66  95 128 167 217 282 330 409
#     4  11  25  41  66  98 139 172 232 274 349 414
#     4  10  24  44  64  94 122 166 210 276 336 388
#     4  11  23  42  63  95 129 170 215 275 325 419
#
# _framework density 21.383343
#
# number of rings (size 3 to 8) (size 9 to 14) (size 15 to 20)
#    0.000    0.800    2.667    4.000    3.733    4.267 
#    0.000    0.000    0.000    0.000    0.000    0.000 
#    0.000    0.000    0.000    0.000    0.000    0.000 
#
# Total GULP energy -167293.263705 kJ/mol
# GULP energy per Si atom -5576.442124 kJ/mol
# Density = 2.133467 g / cm^3
# Si number density = 21.383343 Si / 1000 Ang^3
#
#
#
# Elastic Constant Matrix: (Units=GPa)
#
#
# Indices 1 2 3 4 5 6 
#
# 1 58.4360 16.9287 25.0239 0.0000 5.1558 0.0000
# 2 16.9287 92.4430 22.3436 0.0000 -12.7877 0.0000
# 3 25.0239 22.3436 59.9400 0.0000 -33.7115 0.0000
# 4 0.0000 0.0000 0.0000 37.0552 0.0000 7.5540
# 5 5.1558 -12.7877 -33.7115 0.0000 20.3951 0.0000
# 6 0.0000 0.0000 0.0000 7.5540 0.0000 22.4340
#
#
#
# Elastic Compliance Matrix: (Units=1/GPa)
#
#
# Indices 1 2 3 4 5 6 
#
# 1 -0.004739 0.000595 0.037523 0.000000 0.063594 0.000000
# 2 0.000595 0.011819 -0.008117 0.000000 -0.006157 0.000000
# 3 0.037523 -0.008117 -0.059027 0.000000 -0.112143 0.000000
# 4 0.000000 0.000000 0.000000 0.028976 0.000000 -0.009757
# 5 0.063594 -0.006157 -0.112143 0.000000 -0.156269 0.000000
# 6 0.000000 0.000000 0.000000 -0.009757 0.000000 0.047861
#
#
# Mechanical properties :
#
#
# Convention : Reuss Voigt Hill
#
# Bulk Modulus (GPa) = 124.15038 37.71237 80.93137
# Shear Modulus (GPa) = -26.49741 25.74504 -0.37618
#
# Velocity S-wave (km/s) = -3.52399 3.47360 -0.41989
# Velocity P-wave (km/s) = 6.45193 5.81055 6.13962
#
# Compressibility (1/GPa) = 0.00805475
#
# Stress axis : x y z
#
# Youngs Moduli (GPa) = -211.01491 84.61229 -16.94130
#
# Poissons Ratio (x) = -0.05038 0.63569
# Poissons Ratio (y) = 0.12565 -0.13752
# Poissons Ratio (z) = 7.91791 0.68681
#
# Static dielectric constant tensor:
#      x y z
#    x 1.786360 0.000000 -0.059870 
#    y 0.000000 1.863710 0.000000 
#    z -0.059870 0.000000 1.860550 
# 
# From -- ./inp_files/24800.got.cif
#   From: 2010.05.17/outbox.ucp.g08.bks.cvg/sg13_13_cif.got.tgz:24800.got - 2010.06.11 12:23:55.
