data_PCOD9239145
_publ_section_title
;
Structure prediction by ZEFSAII (Michael W. Deem and Ramdas Pophale) SiO2 
 PCOD9239145
Probable space group: P 21/C
;
_chemical_formula_sum "Si O2"
_cell_formula_units_Z 20
_cell_length_a 7.583702
_cell_length_b 8.740012
_cell_length_c 13.567605
_cell_angle_alpha 90.000000
_cell_angle_beta 90.000817
_cell_angle_gamma 90.000000
_cell_volume 899.283198
_symmetry_space_group_name_H-M "P 21/C"
_symmetry_group_IT_number 14
_symmetry_cell_setting 'monoclinic'
loop_
_space_group_symop_operation_xyz
x,y,z
-x,1/2+y,1/2-z
-x,-y,-z
x,1/2-y,1/2+z
loop_
_atom_site_type_symbol
_atom_site_label
_atom_site_fract_x
_atom_site_fract_y
_atom_site_fract_z
Si Si1 0.448820 0.310297 0.053162
Si Si2 0.250001 0.012680 0.005235
Si Si3 0.749997 0.316742 0.905313
Si Si4 0.051182 0.189705 0.553164
Si Si5 0.249996 0.796260 0.821590
O O1 0.250001 0.371262 0.068581
O O2 0.577764 0.302820 0.147117
O O3 0.407258 0.132890 0.025536
O O4 0.570693 0.365961 0.962422
O O5 0.249997 0.940862 0.895919
O O6 0.092743 0.132889 0.025538
O O7 0.250003 0.868763 0.078707
O O8 0.750000 0.345772 0.790323
O O9 0.929302 0.365959 0.962426
O O10 0.922246 0.197183 0.647121
#
# Coordination Sequence:
#
# PCOD9239145 Si02
#       5
#     4   4   4   4   4
#     4   8  17  31  47  58  93 120 143 170 222 262
#     4   8  16  34  46  60  92 118 144 172 218 266
#     4  10  16  24  44  74  88 104 146 192 214 240
#     4   8  17  31  47  58  93 120 143 170 222 262
#     4  10  16  24  44  74  88 104 146 192 214 240
#
# _framework density 22.239937000000001
#
# number of rings (size 3 to 8) (size 9 to 14) (size 15 to 20)
#    1.200    2.400    0.000    4.800    0.000    1.600 
#    0.000    0.000    0.000    0.000    0.000  100.800 
#    0.000    0.000    0.000    0.000    0.000    0.000 
#
# Total GULP energy -111347.885035 kJ/mol
# GULP energy per Si atom -5567.394252 kJ/mol
# Density = 2.218932 g / cm^3
# Si number density = 22.239937 Si / 1000 Ang^3
#
#
#
# Elastic Constant Matrix: (Units=GPa)
#
#
# Indices 1 2 3 4 5 6 
#
# 1 226.3886 33.7808 66.0819 0.0000 11.2112 0.0000
# 2 33.7808 50.2377 10.0496 0.0000 1.7798 0.0000
# 3 66.0819 10.0496 153.3335 0.0000 -5.7428 0.0000
# 4 0.0000 0.0000 0.0000 11.7363 0.0000 3.2550
# 5 11.2112 1.7798 -5.7428 0.0000 6.6904 0.0000
# 6 0.0000 0.0000 0.0000 3.2550 0.0000 55.1134
#
#
#
# Elastic Compliance Matrix: (Units=1/GPa)
#
#
# Indices 1 2 3 4 5 6 
#
# 1 0.006398 -0.003259 -0.003009 0.000000 -0.012437 0.000000
# 2 -0.003259 0.022127 -0.000063 0.000000 -0.000479 0.000000
# 3 -0.003009 -0.000063 0.008279 0.000000 0.012166 0.000000
# 4 0.000000 0.000000 0.000000 0.086624 0.000000 -0.005116
# 5 -0.012437 -0.000479 0.012166 0.000000 0.180881 0.000000
# 6 0.000000 0.000000 0.000000 -0.005116 0.000000 0.018447
#
#
# Mechanical properties :
#
#
# Convention : Reuss Voigt Hill
#
# Bulk Modulus (GPa) = 41.42760 72.19826 56.81293
# Shear Modulus (GPa) = 14.55748 36.04452 25.30100
#
# Velocity S-wave (km/s) = 2.56122 4.03017 3.37655
# Velocity P-wave (km/s) = 5.23588 7.36140 6.38767
#
# Compressibility (1/GPa) = 0.02413850
#
# Stress axis : x y z
#
# Youngs Moduli (GPa) = 156.30066 45.19419 120.79417
#
# Poissons Ratio (x) = 0.14731 0.36353
# Poissons Ratio (y) = 0.50945 0.00766
# Poissons Ratio (z) = 0.47039 0.00287
#
# Static dielectric constant tensor:
#      x y z
#    x 1.933120 0.000000 0.016110 
#    y 0.000000 1.977350 0.000000 
#    z 0.016110 0.000000 1.718390 
# 
# From -- ./inp_files/24395.got.cif
#   From: 2010.05.17/outbox.cif.g08.bks.cpg/sg14_13_cif.got.tgz:24395.got - 2010.06.03 17:49:19.
