data_PCOD9239731
_publ_section_title
;
Structure prediction by ZEFSAII (Michael W. Deem and Ramdas Pophale) SiO2 
 PCOD9239731
Probable space group: P 21/C
;
_chemical_formula_sum "Si O2"
_cell_formula_units_Z 32
_cell_length_a 10.701923
_cell_length_b 31.999083
_cell_length_c 5.252647
_cell_angle_alpha 90.000000
_cell_angle_beta 88.797452
_cell_angle_gamma 90.000000
_cell_volume 1798.381833
_symmetry_space_group_name_H-M "P 21/C"
_symmetry_group_IT_number 14
_symmetry_cell_setting 'monoclinic'
loop_
_space_group_symop_operation_xyz
x,y,z
-x,1/2+y,1/2-z
-x,-y,-z
x,1/2-y,1/2+z
loop_
_atom_site_type_symbol
_atom_site_label
_atom_site_fract_x
_atom_site_fract_y
_atom_site_fract_z
Si Si1 0.193688 0.726679 0.360080
Si Si2 0.110521 0.225306 0.112617
Si Si3 0.806702 0.133591 0.300230
Si Si4 0.170558 0.453414 0.819397
Si Si5 0.094810 0.129664 0.139041
Si Si6 0.969779 0.555336 0.671658
Si Si7 0.244074 0.916493 0.201434
Si Si8 0.418086 0.507131 0.753535
O O1 0.233779 0.740979 0.638672
O O2 0.231170 0.680482 0.271287
O O3 0.041717 0.726313 0.377273
O O4 0.152578 0.250780 0.863792
O O5 0.143527 0.176329 0.105758
O O6 0.765172 0.118369 0.578789
O O7 0.958362 0.131393 0.278811
O O8 0.757348 0.103180 0.079787
O O9 0.180632 0.402985 0.787844
O O10 0.071594 0.463646 0.597934
O O11 0.300246 0.475857 0.767221
O O12 0.110975 0.462485 0.095071
O O13 0.067013 0.104568 0.877382
O O14 0.115882 0.556472 0.724830
O O15 0.359341 0.946713 0.245649
O O16 0.500000 0.500000 0.500000
O O17 0.500000 0.500000 0.000000
#
# Coordination Sequence:
#
# PCOD9239731 Si02
#       8
#     4   4   4   4   4   4   4   4
#     4   9  16  26  41  69 109 151 177 197 242 318
#     4   9  17  23  38  65 103 147 170 193 238 307
#     4  10  18  31  51  79 111 144 178 217 264 314
#     4  10  20  36  56  77 105 138 177 224 269 318
#     4   8  18  29  49  72 111 133 178 207 259 312
#     4   9  18  32  55  83  99 136 173 219 270 309
#     4  11  20  36  55  79 108 141 180 229 268 324
#     4  12  27  43  57  76 107 143 181 232 274 329
#
# _framework density 17.793776000000001
#
# number of rings (size 3 to 8) (size 9 to 14) (size 15 to 20)
#    0.750    1.500    1.250    2.250    1.750    4.000 
#    0.000    0.000    0.000    0.000    0.000    0.000 
#    0.000   20.000    0.000    0.000    0.000    0.000 
#
# Total GULP energy -178391.695337 kJ/mol
# GULP energy per Si atom -5574.740479 kJ/mol
# Density = 1.775328 g / cm^3
# Si number density = 17.793776 Si / 1000 Ang^3
#
#
#
# Elastic Constant Matrix: (Units=GPa)
#
#
# Indices 1 2 3 4 5 6 
#
# 1 38.2720 8.8456 10.8596 0.0000 -1.2355 0.0000
# 2 8.8456 70.0225 -3.8987 0.0000 1.8347 0.0000
# 3 10.8596 -3.8987 90.9929 0.0000 -5.0524 0.0000
# 4 0.0000 0.0000 0.0000 26.8105 0.0000 -2.2297
# 5 -1.2355 1.8347 -5.0524 0.0000 19.4120 0.0000
# 6 0.0000 0.0000 0.0000 -2.2297 0.0000 10.9513
#
#
#
# Elastic Compliance Matrix: (Units=1/GPa)
#
#
# Indices 1 2 3 4 5 6 
#
# 1 0.028013 -0.003763 -0.003435 0.000000 0.001244 0.000000
# 2 -0.003763 0.014849 0.001009 0.000000 -0.001380 0.000000
# 3 -0.003435 0.001009 0.011593 0.000000 0.002703 0.000000
# 4 0.000000 0.000000 0.000000 0.037941 0.000000 0.007725
# 5 0.001244 -0.001380 0.002703 0.000000 0.052428 0.000000
# 6 0.000000 0.000000 0.000000 0.007725 0.000000 0.092886
#
#
# Mechanical properties :
#
#
# Convention : Reuss Voigt Hill
#
# Bulk Modulus (GPa) = 23.76626 25.65560 24.71093
# Shear Modulus (GPa) = 18.93117 23.66682 21.29900
#
# Velocity S-wave (km/s) = 3.26532 3.65096 3.46351
# Velocity P-wave (km/s) = 5.25375 5.67647 5.46919
#
# Compressibility (1/GPa) = 0.04207646
#
# Stress axis : x y z
#
# Youngs Moduli (GPa) = 35.69725 67.34560 86.25754
#
# Poissons Ratio (x) = 0.25340 0.29633
# Poissons Ratio (y) = 0.13432 -0.08700
# Poissons Ratio (z) = 0.12263 -0.06793
#
# Static dielectric constant tensor:
#      x y z
#    x 1.569900 0.000000 0.002500 
#    y 0.000000 1.661920 0.000000 
#    z 0.002500 0.000000 1.609670 
# 
# From -- ./inp_files/2248.got.cif
#   From: 2010.05.17/outbox.cif.g08.bks.cpg/sg14_2_cif.got.tgz:2248.got - 2010.06.03 17:49:19.
