data_PCOD9239055
_publ_section_title
;
Structure prediction by ZEFSAII (Michael W. Deem and Ramdas Pophale) SiO2 
 PCOD9239055
Probable space group: P 2/C
;
_chemical_formula_sum "Si O2"
_cell_formula_units_Z 32
_cell_length_a 15.000000
_cell_length_b 12.000000
_cell_length_c 18.000000
_cell_angle_alpha 90.000000
_cell_angle_beta 30.000000
_cell_angle_gamma 90.000000
_cell_volume 1620.000000
_symmetry_space_group_name_H-M "P 2/C"
_symmetry_group_IT_number 13
_symmetry_cell_setting 'monoclinic'
loop_
_space_group_symop_operation_xyz
x,y,z
-x,y,1/2-z
-x,-y,-z
x,-y,1/2+z
loop_
_atom_site_type_symbol
_atom_site_label
_atom_site_fract_x
_atom_site_fract_y
_atom_site_fract_z
Si Si1 0.164095 0.333603 0.923544
Si Si2 0.041937 0.948351 0.299937
Si Si3 0.242785 0.719698 0.804910
Si Si4 0.305285 0.934201 0.853134
Si Si5 0.536469 0.513892 0.811640
Si Si6 0.689296 0.124644 0.771421
Si Si7 0.813300 0.374920 0.416372
Si Si8 0.284871 0.166603 0.114264
O O1 0.294773 0.431110 0.801232
O O2 0.254988 0.221927 0.825855
O O3 0.168842 0.344312 0.009547
O O4 0.956758 0.332642 0.048907
O O5 0.167741 0.879137 0.265042
O O6 0.000000 0.895509 0.250000
O O7 0.854478 0.970132 0.476670
O O8 0.155250 0.060414 0.202704
O O9 0.265930 0.809114 0.853993
O O10 0.397452 0.628108 0.700285
O O11 0.264232 0.783290 0.711452
O O12 0.500000 0.943210 0.750000
O O13 0.299691 0.011839 0.784373
O O14 0.500000 0.530192 0.750000
O O15 0.355602 0.457002 0.972124
O O16 0.489970 0.137089 0.947370
O O17 0.774576 0.261777 0.399964
O O18 0.000000 0.421496 0.250000
#
# Coordination Sequence:
#
# PCOD9239055 Si02
#       8
#     4   4   4   4   4   4   4   4
#     4  11  23  44  73  99 130 177 231 283 338 402
#     4  12  26  44  67 100 143 181 224 278 337 404
#     4  12  24  45  69  95 137 181 226 278 342 405
#     4  12  27  42  68  98 139 186 224 272 339 413
#     4  10  24  46  69  97 132 175 232 282 339 404
#     4  12  25  45  67 103 138 179 227 278 337 410
#     4  11  23  42  68 104 132 171 230 291 341 396
#     4  12  25  41  69  99 139 176 225 284 337 400
#
# _framework density 19.753086
#
# number of rings (size 3 to 8) (size 9 to 14) (size 15 to 20)
#    0.000    0.500    5.000    3.375    5.250    0.500 
#    0.000    0.000    0.000    0.000    0.000    0.000 
#    0.000    0.000    0.000    0.000    0.000    0.000 
#
# Total GULP energy -179002.418754 kJ/mol
# GULP energy per Si atom -5593.825586 kJ/mol
# Density = 1.970813 g / cm^3
# Si number density = 19.753086 Si / 1000 Ang^3
#
#
#
# Elastic Constant Matrix: (Units=GPa)
#
#
# Indices 1 2 3 4 5 6 
#
# 1 94.2616 28.0978 41.6033 0.0000 -12.9261 0.0000
# 2 28.0978 70.1987 23.4362 0.0000 -1.7105 0.0000
# 3 41.6033 23.4362 172.2533 0.0000 -21.7474 0.0000
# 4 0.0000 0.0000 0.0000 14.0298 0.0000 -6.8523
# 5 -12.9261 -1.7105 -21.7474 0.0000 31.8285 0.0000
# 6 0.0000 0.0000 0.0000 -6.8523 0.0000 22.6521
#
#
#
# Elastic Compliance Matrix: (Units=1/GPa)
#
#
# Indices 1 2 3 4 5 6 
#
# 1 0.013432 -0.004567 -0.002151 0.000000 0.003740 0.000000
# 2 -0.004567 0.016488 -0.001382 0.000000 -0.001913 0.000000
# 3 -0.002151 -0.001382 0.006997 0.000000 0.003833 0.000000
# 4 0.000000 0.000000 0.000000 0.083633 0.000000 0.025299
# 5 0.003740 -0.001913 0.003833 0.000000 0.035453 0.000000
# 6 0.000000 0.000000 0.000000 0.025299 0.000000 0.051799
#
#
# Mechanical properties :
#
#
# Convention : Reuss Voigt Hill
#
# Bulk Modulus (GPa) = 48.26745 58.10980 53.18862
# Shear Modulus (GPa) = 21.65363 29.94050 25.79707
#
# Velocity S-wave (km/s) = 3.31451 3.89747 3.61775
# Velocity P-wave (km/s) = 6.25591 7.05235 6.66603
#
# Compressibility (1/GPa) = 0.02071790
#
# Stress axis : x y z
#
# Youngs Moduli (GPa) = 74.44750 60.64993 142.92372
#
# Poissons Ratio (x) = 0.27701 0.30737
# Poissons Ratio (y) = 0.34002 0.19748
# Poissons Ratio (z) = 0.16011 0.08380
#
# Static dielectric constant tensor:
#      x y z
#    x 1.683760 0.000000 0.001150 
#    y 0.000000 1.694870 0.000000 
#    z 0.001150 0.000000 1.675300 
# 
# From -- ./inp_files/68635.got.cif
#   From: 2010.05.17/outbox.ucp.g08.bks.cvg/sg13_35_cif.got.tgz:68635.got - 2010.06.11 12:23:55.
