data_PCOD9239503
_publ_section_title
;
Structure prediction by ZEFSAII (Michael W. Deem and Ramdas Pophale) SiO2 
 PCOD9239503
Probable space group: P 21/C
;
_chemical_formula_sum "Si O2"
_cell_formula_units_Z 30
_cell_length_a 8.947364
_cell_length_b 14.139694
_cell_length_c 13.089974
_cell_angle_alpha 90.000000
_cell_angle_beta 46.708935
_cell_angle_gamma 90.000000
_cell_volume 1205.406440
_symmetry_space_group_name_H-M "P 21/C"
_symmetry_group_IT_number 14
_symmetry_cell_setting 'monoclinic'
loop_
_space_group_symop_operation_xyz
x,y,z
-x,1/2+y,1/2-z
-x,-y,-z
x,1/2-y,1/2+z
loop_
_atom_site_type_symbol
_atom_site_label
_atom_site_fract_x
_atom_site_fract_y
_atom_site_fract_z
Si Si1 0.323864 0.967184 0.912553
Si Si2 0.588908 0.469832 0.114231
Si Si3 0.107429 0.639442 0.136182
Si Si4 0.500000 0.000000 0.000000
Si Si5 0.856715 0.049806 0.693025
Si Si6 0.245499 0.355267 0.081124
Si Si7 0.187937 0.160264 0.048159
Si Si8 0.056595 0.332543 0.382688
O O1 0.385277 0.008095 0.775411
O O2 0.510804 0.925396 0.888585
O O3 0.121950 0.907253 0.007832
O O4 0.300987 0.057716 0.003971
O O5 0.748370 0.454394 0.134145
O O6 0.658391 0.386244 0.004390
O O7 0.621510 0.564842 0.034276
O O8 0.037636 0.733635 0.110966
O O9 0.980453 0.546634 0.159898
O O10 0.027923 0.651481 0.290267
O O11 0.688815 0.065289 0.858628
O O12 0.026861 0.131927 0.623780
O O13 0.310805 0.247521 0.036435
O O14 0.190151 0.370321 0.225173
O O15 0.170129 0.179170 0.936663
#
# Coordination Sequence:
#
# PCOD9239503 Si02
#       8
#     4   4   4   2   4   4   4   4
#     4  11  22  37  58  86 120 151 191 233 294 336
#     4  10  21  35  60  83 119 149 189 247 279 335
#     4  10  20  38  60  86 113 150 199 232 285 339
#     4  10  18  34  56  86 112 144 188 236 278 330
#     4  10  17  34  60  86 112 148 192 238 282 330
#     4  10  20  38  60  86 113 150 199 232 285 339
#     4  11  22  38  61  84 114 155 195 235 282 350
#     4  11  22  38  61  84 114 155 195 235 282 350
#
# _framework density 24.887869999999999
#
# number of rings (size 3 to 8) (size 9 to 14) (size 15 to 20)
#    0.000    1.600    2.667    4.400    0.000    1.067 
#    0.000    2.667    0.000    0.000    0.000    0.000 
#    0.000    0.000    0.000    0.000    0.000    0.000 
#
# Total GULP energy -167324.607257 kJ/mol
# GULP energy per Si atom -5577.486909 kJ/mol
# Density = 2.483122 g / cm^3
# Si number density = 24.887870 Si / 1000 Ang^3
#
#
#
# Elastic Constant Matrix: (Units=GPa)
#
#
# Indices 1 2 3 4 5 6 
#
# 1 70.3597 12.2131 14.6745 0.0000 27.3823 0.0000
# 2 12.2131 118.4617 50.5922 0.0000 10.6474 0.0000
# 3 14.6745 50.5922 194.0732 0.0000 25.5316 0.0000
# 4 0.0000 0.0000 0.0000 36.7568 0.0000 9.3530
# 5 27.3823 10.6474 25.5316 0.0000 40.1913 0.0000
# 6 0.0000 0.0000 0.0000 9.3530 0.0000 25.8729
#
#
#
# Elastic Compliance Matrix: (Units=1/GPa)
#
#
# Indices 1 2 3 4 5 6 
#
# 1 0.019470 -0.001045 0.000555 0.000000 -0.013341 0.000000
# 2 -0.001045 0.009594 -0.002380 0.000000 -0.000317 0.000000
# 3 0.000555 -0.002380 0.006218 0.000000 -0.003698 0.000000
# 4 0.000000 0.000000 0.000000 0.029962 0.000000 -0.010831
# 5 -0.013341 -0.000317 -0.003698 0.000000 0.036403 0.000000
# 6 0.000000 0.000000 0.000000 -0.010831 0.000000 0.042566
#
#
# Mechanical properties :
#
#
# Convention : Reuss Voigt Hill
#
# Bulk Modulus (GPa) = 33.85048 59.76158 46.80603
# Shear Modulus (GPa) = 31.28880 40.92517 36.10698
#
# Velocity S-wave (km/s) = 3.54954 4.05950 3.81305
# Velocity P-wave (km/s) = 5.51631 6.78507 6.18332
#
# Compressibility (1/GPa) = 0.02954168
#
# Stress axis : x y z
#
# Youngs Moduli (GPa) = 51.36024 104.22700 160.83217
#
# Poissons Ratio (x) = 0.10896 -0.08933
# Poissons Ratio (y) = 0.05369 0.38283
# Poissons Ratio (z) = -0.02853 0.24810
#
# Static dielectric constant tensor:
#      x y z
#    x 2.224220 0.000000 -0.077500 
#    y 0.000000 2.018070 0.000000 
#    z -0.077500 0.000000 2.048390 
# 
# From -- ./inp_files/44921.got.cif
#   From: 2010.05.17/outbox.cif.g08.bks.cpg/sg14_23_cif.got.tgz:44921.got - 2010.06.03 17:49:19.
