data_PCOD9239348
_publ_section_title
;
Structure prediction by ZEFSAII (Michael W. Deem and Ramdas Pophale) SiO2 
 PCOD9239348
Probable space group: P 21/C
;
_chemical_formula_sum "Si O2"
_cell_formula_units_Z 20
_cell_length_a 4.952789
_cell_length_b 6.904480
_cell_length_c 21.112522
_cell_angle_alpha 90.000000
_cell_angle_beta 97.965928
_cell_angle_gamma 90.000000
_cell_volume 715.006370
_symmetry_space_group_name_H-M "P 21/C"
_symmetry_group_IT_number 14
_symmetry_cell_setting 'monoclinic'
loop_
_space_group_symop_operation_xyz
x,y,z
-x,1/2+y,1/2-z
-x,-y,-z
x,1/2-y,1/2+z
loop_
_atom_site_type_symbol
_atom_site_label
_atom_site_fract_x
_atom_site_fract_y
_atom_site_fract_z
Si Si1 0.753933 0.355677 0.727497
Si Si2 0.540451 0.195866 0.844963
Si Si3 0.747228 0.730556 0.539380
Si Si4 0.202393 0.762465 0.965263
Si Si5 0.779175 0.797240 0.849457
O O1 0.710906 0.319843 0.800224
O O2 0.669090 0.569479 0.703597
O O3 0.525452 0.232338 0.679894
O O4 0.050582 0.325560 0.709380
O O5 0.371961 0.288477 0.896449
O O6 0.725282 0.015085 0.875329
O O7 0.765391 0.495913 0.540008
O O8 0.516220 0.795960 0.481239
O O9 0.040535 0.792886 0.523921
O O10 0.995936 0.699666 0.903214
#
# Coordination Sequence:
#
# PCOD9239348 Si02
#       5
#     4   4   4   4   4
#     4  10  23  33  54  73 112 141 175 212 254 315
#     4  10  22  36  52  81 109 138 178 211 260 318
#     4  10  18  26  53  74 110 126 166 218 278 298
#     4  10  17  30  48  80 107 127 161 227 277 299
#     4  10  20  33  52  77 110 132 176 210 268 310
#
# _framework density 27.971776999999999
#
# number of rings (size 3 to 8) (size 9 to 14) (size 15 to 20)
#    1.200    0.800    2.000    4.800    2.800    0.000 
#    0.000    0.000    0.000    0.000    0.000    8.400 
#    0.000    0.000    0.000    0.000    0.000    0.000 
#
# Total GULP energy -111733.558179 kJ/mol
# GULP energy per Si atom -5586.677909 kJ/mol
# Density = 2.790811 g / cm^3
# Si number density = 27.971777 Si / 1000 Ang^3
#
#
#
# Elastic Constant Matrix: (Units=GPa)
#
#
# Indices 1 2 3 4 5 6 
#
# 1 178.3739 2.7467 23.6191 0.0000 -16.6587 0.0000
# 2 2.7467 73.8687 9.2119 0.0000 9.7135 0.0000
# 3 23.6191 9.2119 99.3450 0.0000 -19.0433 0.0000
# 4 0.0000 0.0000 0.0000 18.6433 0.0000 -8.0583
# 5 -16.6587 9.7135 -19.0433 0.0000 55.5234 0.0000
# 6 0.0000 0.0000 0.0000 -8.0583 0.0000 4.9229
#
#
#
# Elastic Compliance Matrix: (Units=1/GPa)
#
#
# Indices 1 2 3 4 5 6 
#
# 1 0.005890 -0.000271 -0.001100 0.000000 0.001437 0.000000
# 2 -0.000271 0.014202 -0.001867 0.000000 -0.003206 0.000000
# 3 -0.001100 -0.001867 0.011239 0.000000 0.003851 0.000000
# 4 0.000000 0.000000 0.000000 0.183388 0.000000 0.300185
# 5 0.001437 -0.003206 0.003851 0.000000 0.020324 0.000000
# 6 0.000000 0.000000 0.000000 0.300185 0.000000 0.694500
#
#
# Mechanical properties :
#
#
# Convention : Reuss Voigt Hill
#
# Bulk Modulus (GPa) = 40.23236 46.97145 43.60191
# Shear Modulus (GPa) = 5.29491 36.88527 21.09009
#
# Velocity S-wave (km/s) = 1.37734 3.63528 2.74884
# Velocity P-wave (km/s) = 4.11629 5.86934 5.06917
#
# Compressibility (1/GPa) = 0.02485561
#
# Stress axis : x y z
#
# Youngs Moduli (GPa) = 169.77241 70.41238 88.97763
#
# Poissons Ratio (x) = 0.01907 0.09785
# Poissons Ratio (y) = 0.04599 0.16613
# Poissons Ratio (z) = 0.18670 0.13147
#
# Static dielectric constant tensor:
#      x y z
#    x 2.100470 0.000000 0.039810 
#    y 0.000000 2.294140 0.000000 
#    z 0.039810 0.000000 2.212660 
# 
# From -- ./inp_files/63185.got.cif
#   From: 2010.05.17/outbox.cif.g08.bks.cpg/sg14_32_cif.got.tgz:63185.got - 2010.06.03 17:49:19.
