data_PCOD9239328
_publ_section_title
;
Structure prediction by ZEFSAII (Michael W. Deem and Ramdas Pophale) SiO2 
 PCOD9239328
Probable space group: P 21/C
;
_chemical_formula_sum "Si O2"
_cell_formula_units_Z 32
_cell_length_a 30.607940
_cell_length_b 7.302169
_cell_length_c 21.806720
_cell_angle_alpha 90.000000
_cell_angle_beta 161.235455
_cell_angle_gamma 90.000000
_cell_volume 1567.834345
_symmetry_space_group_name_H-M "P 21/C"
_symmetry_group_IT_number 14
_symmetry_cell_setting 'monoclinic'
loop_
_space_group_symop_operation_xyz
x,y,z
-x,1/2+y,1/2-z
-x,-y,-z
x,1/2-y,1/2+z
loop_
_atom_site_type_symbol
_atom_site_label
_atom_site_fract_x
_atom_site_fract_y
_atom_site_fract_z
Si Si1 0.362653 0.407518 0.963806
Si Si2 0.658507 0.535037 0.200952
Si Si3 0.729083 0.571398 0.031157
Si Si4 0.833686 0.476050 0.545326
Si Si5 0.135535 0.410661 0.906330
Si Si6 0.603915 0.587272 0.685247
Si Si7 0.540750 0.500520 0.388463
Si Si8 0.648656 0.001707 0.906337
O O1 0.258574 0.451987 0.880174
O O2 0.508942 0.480112 0.182228
O O3 0.390255 0.187552 0.995942
O O4 0.315599 0.486271 0.836435
O O5 0.748279 0.429648 0.370428
O O6 0.667365 0.745966 0.232014
O O7 0.500000 0.500000 0.000000
O O8 0.600707 0.456945 0.834935
O O9 0.681225 0.785369 0.960172
O O10 0.853383 0.536214 0.150583
O O11 0.829618 0.696062 0.546135
O O12 0.763246 0.412428 0.514608
O O13 0.990010 0.429757 0.743120
O O14 0.260679 0.509240 0.107716
O O15 0.500000 0.500000 0.500000
O O16 0.510254 0.619239 0.621559
O O17 0.629798 0.421382 0.450499
#
# Coordination Sequence:
#
# PCOD9239328 Si02
#       8
#     4   4   4   4   4   4   4   4
#     4  10  17  29  50  78 102 135 166 208 263 302
#     4  11  21  32  51  79 109 134 166 212 264 305
#     4   8  17  32  49  73 103 133 171 212 253 298
#     4  10  20  35  52  73 102 136 174 209 253 305
#     4   9  20  34  52  72 101 137 171 212 248 303
#     4  10  19  34  53  80 103 129 167 212 259 304
#     4   9  17  29  50  77 104 130 166 211 254 302
#     4   9  17  31  51  75 103 134 168 212 251 300
#
# _framework density 20.410321
#
# number of rings (size 3 to 8) (size 9 to 14) (size 15 to 20)
#    0.000    2.500    2.500    0.750    0.000    3.000 
#    0.000    0.625    0.000    0.750    0.000    0.000 
#    0.000    0.000    0.000    0.000    0.000    0.000 
#
# Total GULP energy -178149.087568 kJ/mol
# GULP energy per Si atom -5567.158986 kJ/mol
# Density = 2.036387 g / cm^3
# Si number density = 20.410321 Si / 1000 Ang^3
#
#
#
# Elastic Constant Matrix: (Units=GPa)
#
#
# Indices 1 2 3 4 5 6 
#
# 1 212.7453 2.1716 64.6921 0.0000 -4.2275 0.0000
# 2 2.1716 28.9506 -7.4667 0.0000 -7.8506 0.0000
# 3 64.6921 -7.4667 69.3206 0.0000 3.5644 0.0000
# 4 0.0000 0.0000 0.0000 18.7799 0.0000 2.8678
# 5 -4.2275 -7.8506 3.5644 0.0000 33.3974 0.0000
# 6 0.0000 0.0000 0.0000 2.8678 0.0000 16.5632
#
#
#
# Elastic Compliance Matrix: (Units=1/GPa)
#
#
# Indices 1 2 3 4 5 6 
#
# 1 0.006731 -0.001893 -0.006542 0.000000 0.001105 0.000000
# 2 -0.001893 0.038314 0.005472 0.000000 0.008183 0.000000
# 3 -0.006542 0.005472 0.021214 0.000000 -0.001806 0.000000
# 4 0.000000 0.000000 0.000000 0.054694 0.000000 -0.009470
# 5 0.001105 0.008183 -0.001806 0.000000 0.032199 0.000000
# 6 0.000000 0.000000 0.000000 -0.009470 0.000000 0.062015
#
#
# Mechanical properties :
#
#
# Convention : Reuss Voigt Hill
#
# Bulk Modulus (GPa) = 16.57459 47.75672 32.16565
# Shear Modulus (GPa) = 20.72946 30.52272 25.62609
#
# Velocity S-wave (km/s) = 3.19036 3.87131 3.54721
# Velocity P-wave (km/s) = 4.65935 6.59028 5.70707
#
# Compressibility (1/GPa) = 0.06033333
#
# Stress axis : x y z
#
# Youngs Moduli (GPa) = 148.56246 26.10021 47.13959
#
# Poissons Ratio (x) = 0.04940 0.30841
# Poissons Ratio (y) = 0.28116 -0.25796
# Poissons Ratio (z) = 0.97196 -0.14283
#
# Static dielectric constant tensor:
#      x y z
#    x 1.711020 0.000000 0.035260 
#    y 0.000000 1.987760 0.000000 
#    z 0.035260 0.000000 1.707210 
# 
# From -- ./inp_files/67057.got.cif
#   From: 2010.05.17/outbox.cif.g08.bks.cpg/sg14_34_cif.got.tgz:67057.got - 2010.06.03 17:49:19.
