data_PCOD9239892
_publ_section_title
;
Structure prediction by ZEFSAII (Michael W. Deem and Ramdas Pophale) SiO2 
 PCOD9239892
Probable space group: P 21/C
;
_chemical_formula_sum "Si O2"
_cell_formula_units_Z 32
_cell_length_a 11.278009
_cell_length_b 8.210140
_cell_length_c 27.640887
_cell_angle_alpha 90.000000
_cell_angle_beta 145.189471
_cell_angle_gamma 90.000000
_cell_volume 1461.059758
_symmetry_space_group_name_H-M "P 21/C"
_symmetry_group_IT_number 14
_symmetry_cell_setting 'monoclinic'
loop_
_space_group_symop_operation_xyz
x,y,z
-x,1/2+y,1/2-z
-x,-y,-z
x,1/2-y,1/2+z
loop_
_atom_site_type_symbol
_atom_site_label
_atom_site_fract_x
_atom_site_fract_y
_atom_site_fract_z
Si Si1 0.834381 0.950090 0.374825
Si Si2 0.140761 0.153031 0.176595
Si Si3 0.204909 0.975788 0.822945
Si Si4 0.881130 0.657714 0.612576
Si Si5 0.471201 0.024762 0.647454
Si Si6 0.143142 0.862412 0.348661
Si Si7 0.310521 0.860676 0.763784
Si Si8 0.286982 0.044566 0.487866
O O1 0.826493 0.757209 0.360751
O O2 0.743650 0.000036 0.395889
O O3 0.691466 0.040949 0.286659
O O4 0.067342 0.004025 0.440378
O O5 0.037934 0.279459 0.179659
O O6 0.352275 0.085890 0.269725
O O7 0.981407 0.000949 0.120873
O O8 0.232356 0.792336 0.850907
O O9 0.337111 0.980217 0.818371
O O10 0.232116 0.097610 0.876632
O O11 0.968225 0.016250 0.726172
O O12 0.727151 0.764719 0.529118
O O13 0.079648 0.775455 0.690271
O O14 0.535376 0.210559 0.680378
O O15 0.455434 0.001770 0.584560
O O16 0.284837 0.948828 0.436203
#
# Coordination Sequence:
#
# PCOD9239892 Si02
#       8
#     4   4   4   4   4   4   4   4
#     4  10  19  38  58  79 103 147 192 227 265 329
#     4   9  19  34  56  84 104 137 188 231 261 322
#     4  11  16  32  60  82 100 144 188 225 262 320
#     4   9  18  32  57  79 107 139 185 220 266 332
#     4  11  22  35  55  79 116 144 178 231 286 310
#     4  10  18  32  61  81 108 138 190 220 265 332
#     4  10  19  33  55  84 106 138 187 227 267 322
#     4  10  20  38  53  82 112 145 178 227 276 337
#
# _framework density 21.901910999999998
#
# number of rings (size 3 to 8) (size 9 to 14) (size 15 to 20)
#    0.000    2.000    5.000    1.125    0.000    0.000 
#    0.000    5.625    0.000    0.000    0.000    0.000 
#    0.000    0.000    0.000    0.000    0.000    0.000 
#
# Total GULP energy -178626.955124 kJ/mol
# GULP energy per Si atom -5582.092348 kJ/mol
# Density = 2.185206 g / cm^3
# Si number density = 21.901911 Si / 1000 Ang^3
#
#
#
# Elastic Constant Matrix: (Units=GPa)
#
#
# Indices 1 2 3 4 5 6 
#
# 1 61.6733 17.9062 27.4711 0.0000 -17.8614 0.0000
# 2 17.9062 95.7021 26.4435 0.0000 -10.5933 0.0000
# 3 27.4711 26.4435 56.5062 0.0000 -8.8475 0.0000
# 4 0.0000 0.0000 0.0000 4.4069 0.0000 -1.0477
# 5 -17.8614 -10.5933 -8.8475 0.0000 31.8064 0.0000
# 6 0.0000 0.0000 0.0000 -1.0477 0.0000 19.6726
#
#
#
# Elastic Compliance Matrix: (Units=1/GPa)
#
#
# Indices 1 2 3 4 5 6 
#
# 1 0.023688 -0.000628 -0.009590 0.000000 0.010425 0.000000
# 2 -0.000628 0.012218 -0.005050 0.000000 0.002312 0.000000
# 3 -0.009590 -0.005050 0.024692 0.000000 -0.000199 0.000000
# 4 0.000000 0.000000 0.000000 0.229826 0.000000 0.012240
# 5 0.010425 0.002312 -0.000199 0.000000 0.038009 0.000000
# 6 0.000000 0.000000 0.000000 0.012240 0.000000 0.051484
#
#
# Mechanical properties :
#
#
# Convention : Reuss Voigt Hill
#
# Bulk Modulus (GPa) = 33.26598 39.72482 36.49540
# Shear Modulus (GPa) = 11.89136 20.64792 16.26964
#
# Velocity S-wave (km/s) = 2.33263 3.07375 2.72847
# Velocity P-wave (km/s) = 4.74094 5.54745 5.15997
#
# Compressibility (1/GPa) = 0.03006074
#
# Stress axis : x y z
#
# Youngs Moduli (GPa) = 42.21597 81.84663 40.49974
#
# Poissons Ratio (x) = 0.05143 0.38838
# Poissons Ratio (y) = 0.02653 0.20454
# Poissons Ratio (z) = 0.40483 0.41335
#
# Static dielectric constant tensor:
#      x y z
#    x 1.835600 0.000000 0.012800 
#    y 0.000000 1.802740 0.000000 
#    z 0.012800 0.000000 1.814420 
# 
# From -- ./inp_files/77044.got.cif
#   From: 2010.05.17/outbox.cif.g08.bks.cpg/sg14_39_cif.got.tgz:77044.got - 2010.06.03 17:49:19.
