data_PCOD9239677
_publ_section_title
;
Structure prediction by ZEFSAII (Michael W. Deem and Ramdas Pophale) SiO2 
 PCOD9239677
Probable space group: P 21/C
;
_chemical_formula_sum "Si O2"
_cell_formula_units_Z 24
_cell_length_a 7.914822
_cell_length_b 14.407213
_cell_length_c 11.388235
_cell_angle_alpha 90.000000
_cell_angle_beta 45.972603
_cell_angle_gamma 90.000000
_cell_volume 933.707835
_symmetry_space_group_name_H-M "P 21/C"
_symmetry_group_IT_number 14
_symmetry_cell_setting 'monoclinic'
loop_
_space_group_symop_operation_xyz
x,y,z
-x,1/2+y,1/2-z
-x,-y,-z
x,1/2-y,1/2+z
loop_
_atom_site_type_symbol
_atom_site_label
_atom_site_fract_x
_atom_site_fract_y
_atom_site_fract_z
Si Si1 0.216649 0.062531 0.942125
Si Si2 0.104688 0.778114 0.943235
Si Si3 0.399101 0.937469 0.442125
Si Si4 0.491158 0.721886 0.056764
Si Si5 0.696461 0.102302 0.941440
Si Si6 0.079341 0.102302 0.558560
O O1 0.400739 0.080105 0.750000
O O2 0.088166 0.158817 0.031806
O O3 0.342366 0.995517 0.975604
O O4 0.000000 0.000000 0.000000
O O5 0.159709 0.834102 0.034257
O O6 0.005898 0.673884 0.000070
O O7 0.338357 0.775502 0.750000
O O8 0.206426 0.004483 0.475605
O O9 0.500000 0.000000 0.500000
O O10 0.348221 0.841183 0.531807
O O11 0.506039 0.826116 0.999929
O O12 0.728224 0.665898 0.965742
O O13 0.864169 0.085791 0.750001
#
# Coordination Sequence:
#
# PCOD9239677 Si02
#       6
#     4   4   4   4   4   4
#     4  10  18  30  51  74  99 132 168 204 244 296
#     4  10  20  34  53  76 102 132 167 207 249 295
#     4  10  18  30  51  74  99 132 168 204 244 296
#     4  10  20  34  53  76 102 132 167 207 249 295
#     4  10  20  34  53  76 102 132 167 207 249 295
#     4  10  20  34  53  76 102 132 167 207 249 295
#
# _framework density 25.703973999999999
#
# number of rings (size 3 to 8) (size 9 to 14) (size 15 to 20)
#    0.000    2.000    0.000    9.000    0.000    5.333 
#    0.000    1.667    0.000    0.000    0.000    0.000 
#    0.000    0.000    0.000    0.000    0.000    0.000 
#
# Total GULP energy -134303.425235 kJ/mol
# GULP energy per Si atom -5595.976051 kJ/mol
# Density = 2.564547 g / cm^3
# Si number density = 25.703974 Si / 1000 Ang^3
#
#
#
# Elastic Constant Matrix: (Units=GPa)
#
#
# Indices 1 2 3 4 5 6 
#
# 1 89.4888 9.8453 -3.8246 0.0000 -2.5724 0.0000
# 2 9.8453 196.2863 8.5179 0.0000 -0.0666 0.0000
# 3 -3.8246 8.5179 70.2388 0.0000 1.6121 0.0000
# 4 0.0000 0.0000 0.0000 20.1113 0.0000 -1.5530
# 5 -2.5724 -0.0666 1.6121 0.0000 21.0706 0.0000
# 6 0.0000 0.0000 0.0000 -1.5530 0.0000 51.2637
#
#
#
# Elastic Compliance Matrix: (Units=1/GPa)
#
#
# Indices 1 2 3 4 5 6 
#
# 1 0.011306 -0.000595 0.000657 0.000000 0.001328 0.000000
# 2 -0.000595 0.005153 -0.000657 0.000000 -0.000006 0.000000
# 3 0.000657 -0.000657 0.014376 0.000000 -0.001022 0.000000
# 4 0.000000 0.000000 0.000000 0.049840 0.000000 0.001510
# 5 0.001328 -0.000006 -0.001022 0.000000 0.047700 0.000000
# 6 0.000000 0.000000 0.000000 0.001510 0.000000 0.019553
#
#
# Mechanical properties :
#
#
# Convention : Reuss Voigt Hill
#
# Bulk Modulus (GPa) = 33.73205 42.78788 38.25996
# Shear Modulus (GPa) = 31.44661 41.25414 36.35038
#
# Velocity S-wave (km/s) = 3.50153 4.01056 3.76466
# Velocity P-wave (km/s) = 5.43133 6.17484 5.81498
#
# Compressibility (1/GPa) = 0.02964540
#
# Stress axis : x y z
#
# Youngs Moduli (GPa) = 88.44596 194.06292 69.55996
#
# Poissons Ratio (x) = 0.11550 -0.04573
# Poissons Ratio (y) = 0.05264 0.04571
# Poissons Ratio (z) = -0.05814 0.12753
#
# Static dielectric constant tensor:
#      x y z
#    x 2.060010 0.000000 -0.011170 
#    y 0.000000 2.015210 0.000000 
#    z -0.011170 0.000000 1.836000 
# 
# From -- ./inp_files/18834.got.cif
#   From: 2010.05.17/outbox.cif.g08.bks.cpg/sg14_10_cif.got.tgz:18834.got - 2010.06.03 17:49:19.
