data_PCOD9239012
_publ_section_title
;
Structure prediction by ZEFSAII (Michael W. Deem and Ramdas Pophale) SiO2 
 PCOD9239012
Probable space group: P 2/C
;
_chemical_formula_sum "Si O2"
_cell_formula_units_Z 28
_cell_length_a 30.000000
_cell_length_b 9.000000
_cell_length_c 30.000000
_cell_angle_alpha 90.000000
_cell_angle_beta 10.000000
_cell_angle_gamma 90.000000
_cell_volume 1406.550239
_symmetry_space_group_name_H-M "P 2/C"
_symmetry_group_IT_number 13
_symmetry_cell_setting 'monoclinic'
loop_
_space_group_symop_operation_xyz
x,y,z
-x,y,1/2-z
-x,-y,-z
x,-y,1/2+z
loop_
_atom_site_type_symbol
_atom_site_label
_atom_site_fract_x
_atom_site_fract_y
_atom_site_fract_z
Si Si1 0.531854 0.471740 0.860378
Si Si2 0.999680 0.979968 0.446329
Si Si3 0.051841 0.670360 0.346595
Si Si4 0.343190 0.573279 0.359417
Si Si5 0.906119 0.238628 0.893592
Si Si6 0.479098 0.125733 0.921111
Si Si7 0.368715 0.088531 0.829755
O O1 0.483719 0.449722 0.854815
O O2 0.525169 0.302323 0.884306
O O3 0.803560 0.560426 0.595352
O O4 0.306793 0.572530 0.101926
O O5 0.729855 0.039645 0.692364
O O6 0.028459 0.807105 0.403751
O O7 0.229975 0.067415 0.193520
O O8 0.000000 0.000000 0.500000
O O9 0.065542 0.741699 0.282857
O O10 0.500000 0.584562 0.250000
O O11 0.205581 0.410512 0.498307
O O12 0.226015 0.744496 0.469191
O O13 0.000000 0.218980 0.750000
O O14 0.761678 0.077537 0.043928
O O15 0.468632 0.097920 0.877192
O O16 0.500000 0.087249 0.750000
#
# Coordination Sequence:
#
# PCOD9239012 Si02
#       7
#     4   4   4   4   4   4   4
#     4  10  22  41  68  96 130 180 219 279 339 401
#     4  12  26  46  71  99 134 179 227 291 359 414
#     4  11  23  42  66  96 135 171 227 276 339 402
#     4   9  19  36  55  86 135 175 225 265 330 387
#     4  11  22  34  59  94 135 179 229 270 336 401
#     4  11  24  46  70 100 140 177 229 283 344 414
#     4  10  22  37  62  98 135 182 225 276 331 415
#
# _framework density 19.906860999999999
#
# number of rings (size 3 to 8) (size 9 to 14) (size 15 to 20)
#    0.000    1.429    1.429    3.429    4.000    0.571 
#    0.000    4.286    0.000    0.000    0.000    0.000 
#    0.000    0.000    0.000    0.000    0.000    0.000 
#
# Total GULP energy -155888.916989 kJ/mol
# GULP energy per Si atom -5567.461321 kJ/mol
# Density = 1.986155 g / cm^3
# Si number density = 19.906861 Si / 1000 Ang^3
#
#
#
# Elastic Constant Matrix: (Units=GPa)
#
#
# Indices 1 2 3 4 5 6 
#
# 1 105.5600 12.2793 23.4321 0.0000 23.2662 0.0000
# 2 12.2793 183.1954 40.7976 0.0000 16.9074 0.0000
# 3 23.4321 40.7976 102.0985 0.0000 17.6778 0.0000
# 4 0.0000 0.0000 0.0000 40.6405 0.0000 5.9416
# 5 23.2662 16.9074 17.6778 0.0000 28.7865 0.0000
# 6 0.0000 0.0000 0.0000 5.9416 0.0000 29.4402
#
#
#
# Elastic Compliance Matrix: (Units=1/GPa)
#
#
# Indices 1 2 3 4 5 6 
#
# 1 0.011666 0.000317 -0.001275 0.000000 -0.008832 0.000000
# 2 0.000317 0.006139 -0.002078 0.000000 -0.002586 0.000000
# 3 -0.001275 -0.002078 0.011780 0.000000 -0.004983 0.000000
# 4 0.000000 0.000000 0.000000 0.025354 0.000000 -0.005117
# 5 -0.008832 -0.002586 -0.004983 0.000000 0.046456 0.000000
# 6 0.000000 0.000000 0.000000 -0.005117 0.000000 0.035000
#
#
# Mechanical properties :
#
#
# Convention : Reuss Voigt Hill
#
# Bulk Modulus (GPa) = 42.52878 60.43019 51.47949
# Shear Modulus (GPa) = 33.26574 40.72976 36.99775
#
# Velocity S-wave (km/s) = 4.09231 4.52820 4.31576
# Velocity P-wave (km/s) = 6.61359 7.60012 7.12395
#
# Compressibility (1/GPa) = 0.02351349
#
# Stress axis : x y z
#
# Youngs Moduli (GPa) = 85.71844 162.89763 84.88763
#
# Poissons Ratio (x) = -0.05165 0.10822
# Poissons Ratio (y) = -0.02718 0.17640
# Poissons Ratio (z) = 0.10928 0.33852
#
# Static dielectric constant tensor:
#      x y z
#    x 1.691280 0.000000 -0.012910 
#    y 0.000000 1.740430 0.000000 
#    z -0.012910 0.000000 1.746980 
# 
# From -- ./inp_files/98021.got.cif
#   From: 2010.05.17/outbox.ucp.g08.bks.cvg/sg13_50_cif.got.tgz:98021.got - 2010.06.11 12:23:55.
