data_PCOD9239596
_publ_section_title
;
Structure prediction by ZEFSAII (Michael W. Deem and Ramdas Pophale) SiO2 
 PCOD9239596
Probable space group: P 21/C
;
_chemical_formula_sum "Si O2"
_cell_formula_units_Z 32
_cell_length_a 21.958916
_cell_length_b 16.853925
_cell_length_c 9.009086
_cell_angle_alpha 90.000000
_cell_angle_beta 151.258838
_cell_angle_gamma 90.000000
_cell_volume 1603.265666
_symmetry_space_group_name_H-M "P 21/C"
_symmetry_group_IT_number 14
_symmetry_cell_setting 'monoclinic'
loop_
_space_group_symop_operation_xyz
x,y,z
-x,1/2+y,1/2-z
-x,-y,-z
x,1/2-y,1/2+z
loop_
_atom_site_type_symbol
_atom_site_label
_atom_site_fract_x
_atom_site_fract_y
_atom_site_fract_z
Si Si1 0.889690 0.725463 0.239997
Si Si2 0.610285 0.774553 0.759982
Si Si3 0.978265 0.861531 0.215231
Si Si4 0.749999 0.605021 0.750013
Si Si5 0.478287 0.138471 0.715258
Si Si6 0.634774 0.475839 0.716356
Si Si7 0.865233 0.024155 0.283681
Si Si8 0.749988 0.512440 0.249993
O O1 0.947504 0.801601 0.283684
O O2 0.969913 0.687897 0.545254
O O3 0.749988 0.750012 0.999984
O O4 0.860099 0.659591 0.052562
O O5 0.552494 0.698410 0.716350
O O6 0.530049 0.812111 0.454698
O O7 0.639875 0.840428 0.947411
O O8 0.104605 0.907916 0.532553
O O9 0.867212 0.927999 0.968816
O O10 0.694511 0.550322 0.760177
O O11 0.805509 0.550330 0.739898
O O12 0.367239 0.072000 0.468845
O O13 0.604620 0.092090 0.032605
O O14 0.500000 0.500000 0.500000
O O15 0.721954 0.460153 0.045203
O O16 0.000000 0.000000 0.500000
O O17 0.778031 0.039841 0.954807
#
# Coordination Sequence:
#
# PCOD9239596 Si02
#       8
#     4   4   4   4   4   4   4   4
#     4  12  19  34  62  92 123 152 205 264 309 350
#     4  12  19  34  62  92 123 152 205 264 309 350
#     4  11  21  35  59  93 122 155 200 256 310 361
#     4  12  21  38  66  91 124 166 200 260 307 360
#     4  11  21  35  59  93 122 155 200 256 310 361
#     4  10  23  38  59  94 127 160 204 254 311 362
#     4  10  23  38  59  94 127 160 204 254 311 362
#     4  10  17  38  58  83 128 156 194 260 299 360
#
# _framework density 19.959264000000001
#
# number of rings (size 3 to 8) (size 9 to 14) (size 15 to 20)
#    0.000    1.000    7.500    1.500    0.000    1.000 
#    0.000    0.000    0.000    4.500    0.000    0.000 
#    0.000    0.000    0.000    0.000    0.000    0.000 
#
# Total GULP energy -178679.586696 kJ/mol
# GULP energy per Si atom -5583.737084 kJ/mol
# Density = 1.991384 g / cm^3
# Si number density = 19.959264 Si / 1000 Ang^3
#
#
#
# Elastic Constant Matrix: (Units=GPa)
#
#
# Indices 1 2 3 4 5 6 
#
# 1 19.9529 -6.3552 18.4838 0.0000 -11.2912 0.0000
# 2 -6.3552 60.7655 53.3967 0.0000 -9.8727 0.0000
# 3 18.4838 53.3967 126.5820 0.0000 -45.4356 0.0000
# 4 0.0000 0.0000 0.0000 36.3294 0.0000 -21.2733
# 5 -11.2912 -9.8727 -45.4356 0.0000 35.7573 0.0000
# 6 0.0000 0.0000 0.0000 -21.2733 0.0000 18.8649
#
#
#
# Elastic Compliance Matrix: (Units=1/GPa)
#
#
# Indices 1 2 3 4 5 6 
#
# 1 0.083821 0.029578 -0.022587 0.000000 0.005935 0.000000
# 2 0.029578 0.040023 -0.025525 0.000000 -0.012044 0.000000
# 3 -0.022587 -0.025525 0.031027 0.000000 0.025246 0.000000
# 4 0.000000 0.000000 0.000000 0.081037 0.000000 0.091382
# 5 0.005935 -0.012044 0.025246 0.000000 0.058594 0.000000
# 6 0.000000 0.000000 0.000000 0.091382 0.000000 0.156058
#
#
# Mechanical properties :
#
#
# Convention : Reuss Voigt Hill
#
# Bulk Modulus (GPa) = 8.48864 37.59457 23.04160
# Shear Modulus (GPa) = 9.48956 27.64197 18.56576
#
# Velocity S-wave (km/s) = 2.18284 3.72549 3.05320
# Velocity P-wave (km/s) = 3.25811 6.11410 4.89885
#
# Compressibility (1/GPa) = 0.11780453
#
# Stress axis : x y z
#
# Youngs Moduli (GPa) = 11.93019 24.98540 32.22968
#
# Poissons Ratio (x) = -0.73902 0.72796
# Poissons Ratio (y) = -0.35287 0.82267
# Poissons Ratio (z) = 0.26946 0.63776
#
# Static dielectric constant tensor:
#      x y z
#    x 1.713400 0.000000 -0.036930 
#    y 0.000000 1.709670 0.000000 
#    z -0.036930 0.000000 1.731320 
# 
# From -- ./inp_files/19573.got.cif
#   From: 2010.05.17/outbox.cif.g08.bks.cpg/sg14_10_cif.got.tgz:19573.got - 2010.06.03 17:49:19.
