data_PCOD9239111
_publ_section_title
;
Structure prediction by ZEFSAII (Michael W. Deem and Ramdas Pophale) SiO2 
 PCOD9239111
Probable space group: P 21/C
;
_chemical_formula_sum "Si O2"
_cell_formula_units_Z 28
_cell_length_a 18.036668
_cell_length_b 20.438800
_cell_length_c 9.133367
_cell_angle_alpha 90.000000
_cell_angle_beta 21.627418
_cell_angle_gamma 90.000000
_cell_volume 1240.971871
_symmetry_space_group_name_H-M "P 21/C"
_symmetry_group_IT_number 14
_symmetry_cell_setting 'monoclinic'
loop_
_space_group_symop_operation_xyz
x,y,z
-x,1/2+y,1/2-z
-x,-y,-z
x,1/2-y,1/2+z
loop_
_atom_site_type_symbol
_atom_site_label
_atom_site_fract_x
_atom_site_fract_y
_atom_site_fract_z
Si Si1 0.385545 0.207825 0.661156
Si Si2 0.167407 0.386876 0.344037
Si Si3 0.634469 0.943253 0.814201
Si Si4 0.569075 0.671868 0.609661
Si Si5 0.935162 0.339274 0.309096
Si Si6 0.971501 0.226576 0.039748
Si Si7 0.013012 0.513633 0.803400
O O1 0.318829 0.151085 0.673275
O O2 0.484438 0.263657 0.382051
O O3 0.487363 0.178233 0.617991
O O4 0.190858 0.246456 0.085119
O O5 0.004067 0.330563 0.601127
O O6 0.100636 0.451826 0.553565
O O7 0.257882 0.407965 0.021121
O O8 0.500940 0.891427 0.147425
O O9 0.797472 0.973925 0.624359
O O10 0.500000 0.000000 0.000000
O O11 0.816282 0.663089 0.152857
O O12 0.880753 0.306191 0.562603
O O13 0.879051 0.415447 0.407518
O O14 0.875243 0.291024 0.287449
O O15 0.000000 0.500000 0.000000
#
# Coordination Sequence:
#
# PCOD9239111 Si02
#       7
#     4   4   4   4   4   4   4
#     4  10  15  28  54  89 111 139 205 261 277 333
#     4  12  19  33  59  91 114 160 194 260 301 348
#     4  11  23  39  55  85 123 162 198 237 308 372
#     4   9  15  29  49  82 108 143 193 248 277 334
#     4   9  17  28  47  81 114 138 187 249 287 330
#     4  10  15  26  50  83 110 139 199 247 283 328
#     4  11  23  37  57  91 128 152 200 253 308 359
#
# _framework density 22.562961000000001
#
# number of rings (size 3 to 8) (size 9 to 14) (size 15 to 20)
#    0.000    1.714    8.571    3.000    0.000    0.000 
#    0.000    2.857    0.000    0.000   22.286    0.000 
#    0.000    0.000    0.000    0.000    0.000    0.000 
#
# Total GULP energy -156433.715580 kJ/mol
# GULP energy per Si atom -5586.918414 kJ/mol
# Density = 2.251161 g / cm^3
# Si number density = 22.562961 Si / 1000 Ang^3
#
#
#
# Elastic Constant Matrix: (Units=GPa)
#
#
# Indices 1 2 3 4 5 6 
#
# 1 164.9549 70.4962 18.2670 0.0000 28.8974 0.0000
# 2 70.4962 167.9059 26.2536 0.0000 3.0810 0.0000
# 3 18.2670 26.2536 66.3207 0.0000 11.9364 0.0000
# 4 0.0000 0.0000 0.0000 30.0464 0.0000 11.2003
# 5 28.8974 3.0810 11.9364 0.0000 24.3281 0.0000
# 6 0.0000 0.0000 0.0000 11.2003 0.0000 56.2517
#
#
#
# Elastic Compliance Matrix: (Units=1/GPa)
#
#
# Indices 1 2 3 4 5 6 
#
# 1 0.009674 -0.004005 0.000985 0.000000 -0.011466 0.000000
# 2 -0.004005 0.008012 -0.003008 0.000000 0.005218 0.000000
# 3 0.000985 -0.003008 0.017703 0.000000 -0.009475 0.000000
# 4 0.000000 0.000000 0.000000 0.035950 0.000000 -0.007158
# 5 -0.011466 0.005218 -0.009475 0.000000 0.058713 0.000000
# 6 0.000000 0.000000 0.000000 -0.007158 0.000000 0.019202
#
#
# Mechanical properties :
#
#
# Convention : Reuss Voigt Hill
#
# Bulk Modulus (GPa) = 42.85896 69.91277 56.38587
# Shear Modulus (GPa) = 29.57064 41.06956 35.32010
#
# Velocity S-wave (km/s) = 3.62413 4.27103 3.96081
# Velocity P-wave (km/s) = 6.04557 7.44145 6.77953
#
# Compressibility (1/GPa) = 0.02333234
#
# Stress axis : x y z
#
# Youngs Moduli (GPa) = 103.37444 124.81628 56.48812
#
# Poissons Ratio (x) = 0.49990 -0.05563
# Poissons Ratio (y) = 0.41402 0.16989
# Poissons Ratio (z) = -0.10180 0.37540
#
# Static dielectric constant tensor:
#      x y z
#    x 1.835060 0.000000 -0.061790 
#    y 0.000000 1.865800 0.000000 
#    z -0.061790 0.000000 1.951060 
# 
# From -- ./inp_files/18208.got.cif
#   From: 2010.05.17/outbox.cif.g08.bks.cpg/sg14_10_cif.got.tgz:18208.got - 2010.06.03 17:49:19.
