data_PCOD9239027
_publ_section_title
;
Structure prediction by ZEFSAII (Michael W. Deem and Ramdas Pophale) SiO2 
 PCOD9239027
Probable space group: P 2/C
;
_chemical_formula_sum "Si O2"
_cell_formula_units_Z 28
_cell_length_a 15.000000
_cell_length_b 9.000000
_cell_length_c 21.000000
_cell_angle_alpha 90.000000
_cell_angle_beta 30.000000
_cell_angle_gamma 90.000000
_cell_volume 1417.500000
_symmetry_space_group_name_H-M "P 2/C"
_symmetry_group_IT_number 13
_symmetry_cell_setting 'monoclinic'
loop_
_space_group_symop_operation_xyz
x,y,z
-x,y,1/2-z
-x,-y,-z
x,-y,1/2+z
loop_
_atom_site_type_symbol
_atom_site_label
_atom_site_fract_x
_atom_site_fract_y
_atom_site_fract_z
Si Si1 0.522196 0.678163 0.812016
Si Si2 0.581794 0.980917 0.556731
Si Si3 0.131654 0.377851 0.754194
Si Si4 0.759429 0.498279 0.441984
Si Si5 0.878211 0.192083 0.425207
Si Si6 0.219242 0.033274 0.702493
Si Si7 0.087425 0.602325 0.892078
O O1 0.500000 0.673928 0.750000
O O2 0.432399 0.823179 0.899205
O O3 0.733816 0.682706 0.694725
O O4 0.416899 0.538818 0.909203
O O5 0.695277 0.978661 0.420946
O O6 0.696924 0.092433 0.531458
O O7 0.378729 0.011138 0.656144
O O8 0.253141 0.446424 0.622710
O O9 0.160003 0.204169 0.746765
O O10 0.159470 0.484282 0.796287
O O11 0.924241 0.403414 0.865574
O O12 0.829422 0.328588 0.406721
O O13 0.943973 0.286356 0.447205
O O14 0.050564 0.082152 0.308352
O O15 0.000000 0.500000 0.000000
#
# Coordination Sequence:
#
# PCOD9239027 Si02
#       7
#     4   4   4   4   4   4   4
#     4  12  24  47  69  99 145 186 238 298 350 430
#     4  11  25  41  67 106 140 181 235 285 364 424
#     4  10  22  41  68  96 142 174 237 290 357 423
#     4  10  23  40  69 108 127 189 232 286 359 415
#     4  11  24  43  71 100 144 183 235 294 354 426
#     4  11  23  42  67 105 145 179 229 297 356 427
#     4  11  26  48  69  99 139 191 241 295 363 423
#
# _framework density 19.753086
#
# number of rings (size 3 to 8) (size 9 to 14) (size 15 to 20)
#    0.000    1.143    2.857    3.000   12.000    0.571 
#    2.571    2.143    0.000    0.000    0.000    0.000 
#    0.000    0.000    0.000    0.000    0.000    0.000 
#
# Total GULP energy -156180.377229 kJ/mol
# GULP energy per Si atom -5577.870615 kJ/mol
# Density = 1.970813 g / cm^3
# Si number density = 19.753086 Si / 1000 Ang^3
#
#
#
# Elastic Constant Matrix: (Units=GPa)
#
#
# Indices 1 2 3 4 5 6 
#
# 1 106.4068 54.6976 46.0520 0.0000 4.0930 0.0000
# 2 54.6976 137.7812 38.0634 0.0000 -8.6010 0.0000
# 3 46.0520 38.0634 77.3533 0.0000 -6.3537 0.0000
# 4 0.0000 0.0000 0.0000 36.6049 0.0000 -4.6451
# 5 4.0930 -8.6010 -6.3537 0.0000 35.0508 0.0000
# 6 0.0000 0.0000 0.0000 -4.6451 0.0000 29.8639
#
#
#
# Elastic Compliance Matrix: (Units=1/GPa)
#
#
# Indices 1 2 3 4 5 6 
#
# 1 0.014745 -0.004153 -0.007065 0.000000 -0.004022 0.000000
# 2 -0.004153 0.009631 -0.002064 0.000000 0.002474 0.000000
# 3 -0.007065 -0.002064 0.018450 0.000000 0.003663 0.000000
# 4 0.000000 0.000000 0.000000 0.027869 0.000000 0.004335
# 5 -0.004022 0.002474 0.003663 0.000000 0.030271 0.000000
# 6 0.000000 0.000000 0.000000 0.004335 0.000000 0.034159
#
#
# Mechanical properties :
#
#
# Convention : Reuss Voigt Hill
#
# Bulk Modulus (GPa) = 61.48894 66.57413 64.03154
# Shear Modulus (GPa) = 29.92043 32.48581 31.20312
#
# Velocity S-wave (km/s) = 3.89616 4.05976 3.97880
# Velocity P-wave (km/s) = 7.17192 7.46672 7.32080
#
# Compressibility (1/GPa) = 0.01626309
#
# Stress axis : x y z
#
# Youngs Moduli (GPa) = 67.81909 103.83086 54.19975
#
# Poissons Ratio (x) = 0.43119 0.38294
# Poissons Ratio (y) = 0.28164 0.11184
# Poissons Ratio (z) = 0.47916 0.21426
#
# Static dielectric constant tensor:
#      x y z
#    x 1.763690 0.000000 -0.001070 
#    y 0.000000 1.694670 0.000000 
#    z -0.001070 0.000000 1.718680 
# 
# From -- ./inp_files/79946.got.cif
#   From: 2010.05.17/outbox.ucp.g08.bks.cvg/sg13_40_cif.got.tgz:79946.got - 2010.06.11 12:23:55.
