data_PCOD9239550
_publ_section_title
;
Structure prediction by ZEFSAII (Michael W. Deem and Ramdas Pophale) SiO2 
 PCOD9239550
Probable space group: P 21/C
;
_chemical_formula_sum "Si O2"
_cell_formula_units_Z 28
_cell_length_a 9.363332
_cell_length_b 15.880737
_cell_length_c 15.802250
_cell_angle_alpha 90.000000
_cell_angle_beta 36.909127
_cell_angle_gamma 90.000000
_cell_volume 1411.131360
_symmetry_space_group_name_H-M "P 21/C"
_symmetry_group_IT_number 14
_symmetry_cell_setting 'monoclinic'
loop_
_space_group_symop_operation_xyz
x,y,z
-x,1/2+y,1/2-z
-x,-y,-z
x,1/2-y,1/2+z
loop_
_atom_site_type_symbol
_atom_site_label
_atom_site_fract_x
_atom_site_fract_y
_atom_site_fract_z
Si Si1 0.416419 0.905809 0.707663
Si Si2 0.983011 0.489407 0.344640
Si Si3 0.254297 0.960903 0.356126
Si Si4 0.749146 0.566260 0.301507
Si Si5 0.790974 0.166712 0.487227
Si Si6 0.607496 0.905426 0.443609
Si Si7 0.298566 0.648752 0.439635
O O1 0.571882 0.871818 0.555552
O O2 0.381673 0.844620 0.803137
O O3 0.553262 0.986097 0.681981
O O4 0.166447 0.940810 0.791385
O O5 0.790953 0.534579 0.376170
O O6 0.867533 0.433063 0.471962
O O7 0.131044 0.423704 0.215329
O O8 0.250552 0.868683 0.398056
O O9 0.287336 0.985272 0.242921
O O10 0.000000 0.000000 0.500000
O O11 0.528214 0.627284 0.388129
O O12 0.989048 0.615200 0.157736
O O13 0.557054 0.145487 0.543001
O O14 0.826877 0.266081 0.472432
O O15 0.500000 0.000000 0.500000
#
# Coordination Sequence:
#
# PCOD9239550 Si02
#       7
#     4   4   4   4   4   4   4
#     4  10  19  39  63  88 114 166 208 239 290 384
#     4  11  20  40  66  88 119 164 213 239 300 379
#     4   9  17  33  60  85 112 153 207 243 279 352
#     4  10  21  39  62  87 122 162 206 251 296 368
#     4  11  20  38  60  88 124 158 202 256 303 357
#     4  10  17  35  69  86 105 162 219 235 278 376
#     4  11  26  36  60  94 131 151 194 265 329 332
#
# _framework density 19.842234999999999
#
# number of rings (size 3 to 8) (size 9 to 14) (size 15 to 20)
#    0.000    1.714    5.714    1.714    2.000    0.000 
#    2.571    0.000    9.429    0.000    0.000    0.000 
#    0.000    0.000    0.000    0.000    0.000    0.000 
#
# Total GULP energy -156144.967584 kJ/mol
# GULP energy per Si atom -5576.605985 kJ/mol
# Density = 1.979707 g / cm^3
# Si number density = 19.842235 Si / 1000 Ang^3
#
#
#
# Elastic Constant Matrix: (Units=GPa)
#
#
# Indices 1 2 3 4 5 6 
#
# 1 85.4472 8.0602 0.1649 0.0000 -1.3916 0.0000
# 2 8.0602 55.2207 -1.5300 0.0000 4.6826 0.0000
# 3 0.1649 -1.5300 46.4523 0.0000 4.8212 0.0000
# 4 0.0000 0.0000 0.0000 17.0152 0.0000 -1.9304
# 5 -1.3916 4.6826 4.8212 0.0000 25.2377 0.0000
# 6 0.0000 0.0000 0.0000 -1.9304 0.0000 12.4165
#
#
#
# Elastic Compliance Matrix: (Units=1/GPa)
#
#
# Indices 1 2 3 4 5 6 
#
# 1 0.011893 -0.001830 -0.000210 0.000000 0.001035 0.000000
# 2 -0.001830 0.018724 0.001014 0.000000 -0.003769 0.000000
# 3 -0.000210 0.001014 0.022019 0.000000 -0.004406 0.000000
# 4 0.000000 0.000000 0.000000 0.059826 0.000000 0.009301
# 5 0.001035 -0.003769 -0.004406 0.000000 0.041221 0.000000
# 6 0.000000 0.000000 0.000000 0.009301 0.000000 0.081984
#
#
# Mechanical properties :
#
#
# Convention : Reuss Voigt Hill
#
# Bulk Modulus (GPa) = 19.76853 22.27894 21.02373
# Shear Modulus (GPa) = 19.64025 22.96222 21.30124
#
# Velocity S-wave (km/s) = 3.14955 3.40551 3.28003
# Velocity P-wave (km/s) = 4.81775 5.16873 4.99632
#
# Compressibility (1/GPa) = 0.05058546
#
# Stress axis : x y z
#
# Youngs Moduli (GPa) = 84.08317 53.40773 45.41551
#
# Poissons Ratio (x) = 0.09771 0.00953
# Poissons Ratio (y) = 0.15383 -0.04607
# Poissons Ratio (z) = 0.01765 -0.05417
#
# Static dielectric constant tensor:
#      x y z
#    x 1.715120 0.000000 0.032510 
#    y 0.000000 1.675340 0.000000 
#    z 0.032510 0.000000 1.727800 
# 
# From -- ./inp_files/55910.got.cif
#   From: 2010.05.17/outbox.cif.g08.bks.cpg/sg14_28_cif.got.tgz:55910.got - 2010.06.03 17:49:19.
