data_PCOD9239611
_publ_section_title
;
Structure prediction by ZEFSAII (Michael W. Deem and Ramdas Pophale) SiO2 
 PCOD9239611
Probable space group: P 21/C
;
_chemical_formula_sum "Si O2"
_cell_formula_units_Z 32
_cell_length_a 22.761092
_cell_length_b 9.702280
_cell_length_c 17.880802
_cell_angle_alpha 90.000000
_cell_angle_beta 159.828254
_cell_angle_gamma 90.000000
_cell_volume 1361.650619
_symmetry_space_group_name_H-M "P 21/C"
_symmetry_group_IT_number 14
_symmetry_cell_setting 'monoclinic'
loop_
_space_group_symop_operation_xyz
x,y,z
-x,1/2+y,1/2-z
-x,-y,-z
x,1/2-y,1/2+z
loop_
_atom_site_type_symbol
_atom_site_label
_atom_site_fract_x
_atom_site_fract_y
_atom_site_fract_z
Si Si1 0.703842 0.138985 0.028011
Si Si2 0.236096 0.788268 0.154183
Si Si3 0.372611 0.293565 0.365968
Si Si4 0.644620 0.510057 0.106408
Si Si5 0.782012 0.751370 0.981241
Si Si6 0.488408 0.899986 0.710408
Si Si7 0.936295 0.459240 0.678833
Si Si8 0.831997 0.060977 0.334645
O O1 0.651855 0.288284 0.933638
O O2 0.554177 0.025106 0.839331
O O3 0.865037 0.078542 0.175713
O O4 0.743069 0.148731 0.162449
O O5 0.425737 0.722959 0.379836
O O6 0.221261 0.901109 0.202452
O O7 0.123994 0.657740 0.042638
O O8 0.189622 0.871904 0.025443
O O9 0.295223 0.438466 0.296038
O O10 0.293702 0.166794 0.318851
O O11 0.322655 0.265393 0.220485
O O12 0.500000 0.500000 0.000000
O O13 0.568806 0.467048 0.936761
O O14 0.880830 0.610061 0.114224
O O15 0.913059 0.880597 0.131216
O O16 0.651616 0.803630 0.887790
O O17 0.000000 0.000000 0.500000
#
# Coordination Sequence:
#
# PCOD9239611 Si02
#       8
#     4   4   4   4   4   4   4   4
#     4  11  25  44  60  97 131 170 207 271 330 380
#     4  11  22  44  70  96 120 174 225 268 307 387
#     4  11  21  41  73  93 120 170 228 260 314 391
#     4  10  17  40  69  93 113 157 222 273 301 367
#     4  11  22  43  64  96 125 170 212 269 320 389
#     4  11  23  41  67  92 129 164 218 270 321 381
#     4  11  26  41  67  94 136 169 216 264 330 384
#     4  12  27  42  63  95 142 167 207 273 334 378
#
# _framework density 23.500888
#
# number of rings (size 3 to 8) (size 9 to 14) (size 15 to 20)
#    0.000    1.000    5.000    3.375    8.750    1.000 
#    0.000    1.875    0.000    0.000    0.000    0.000 
#    0.000    0.000    0.000    0.000    0.000    0.000 
#
# Total GULP energy -178965.651612 kJ/mol
# GULP energy per Si atom -5592.676613 kJ/mol
# Density = 2.344740 g / cm^3
# Si number density = 23.500888 Si / 1000 Ang^3
#
#
#
# Elastic Constant Matrix: (Units=GPa)
#
#
# Indices 1 2 3 4 5 6 
#
# 1 32.3940 6.3472 -1.1510 0.0000 -15.5857 0.0000
# 2 6.3472 76.7956 -8.0389 0.0000 0.9468 0.0000
# 3 -1.1510 -8.0389 49.1423 0.0000 -13.4907 0.0000
# 4 0.0000 0.0000 0.0000 38.9434 0.0000 -1.7943
# 5 -15.5857 0.9468 -13.4907 0.0000 23.5183 0.0000
# 6 0.0000 0.0000 0.0000 -1.7943 0.0000 36.4520
#
#
#
# Elastic Compliance Matrix: (Units=1/GPa)
#
#
# Indices 1 2 3 4 5 6 
#
# 1 0.051937 -0.003546 0.012017 0.000000 0.041455 0.000000
# 2 -0.003546 0.013505 0.001581 0.000000 -0.001987 0.000000
# 3 0.012017 0.001581 0.027367 0.000000 0.023599 0.000000
# 4 0.000000 0.000000 0.000000 0.025737 0.000000 0.001267
# 5 0.041455 -0.001987 0.023599 0.000000 0.083609 0.000000
# 6 0.000000 0.000000 0.000000 0.001267 0.000000 0.027496
#
#
# Mechanical properties :
#
#
# Convention : Reuss Voigt Hill
#
# Bulk Modulus (GPa) = 8.85646 16.96074 12.90860
# Shear Modulus (GPa) = 20.22780 30.52772 25.37776
#
# Velocity S-wave (km/s) = 2.93699 3.60808 3.28969
# Velocity P-wave (km/s) = 3.90871 4.95887 4.46477
#
# Compressibility (1/GPa) = 0.11291190
#
# Stress axis : x y z
#
# Youngs Moduli (GPa) = 19.25423 74.04885 36.53970
#
# Poissons Ratio (x) = 0.26256 -0.43909
# Poissons Ratio (y) = 0.06827 -0.05776
# Poissons Ratio (z) = -0.23137 -0.11705
#
# Static dielectric constant tensor:
#      x y z
#    x 1.863360 0.000000 0.024290 
#    y 0.000000 1.923380 0.000000 
#    z 0.024290 0.000000 1.936620 
# 
# From -- ./inp_files/70511.got.cif
#   From: 2010.05.17/outbox.cif.g08.bks.cpg/sg14_36_cif.got.tgz:70511.got - 2010.06.03 17:49:19.
