data_PCOD9239971
_publ_section_title
;
Structure prediction by ZEFSAII (Michael W. Deem and Ramdas Pophale) SiO2 
 PCOD9239971
Probable space group: P 21/C
;
_chemical_formula_sum "Si O2"
_cell_formula_units_Z 32
_cell_length_a 16.294794
_cell_length_b 11.569298
_cell_length_c 19.684073
_cell_angle_alpha 90.000000
_cell_angle_beta 24.941649
_cell_angle_gamma 90.000000
_cell_volume 1564.837862
_symmetry_space_group_name_H-M "P 21/C"
_symmetry_group_IT_number 14
_symmetry_cell_setting 'monoclinic'
loop_
_space_group_symop_operation_xyz
x,y,z
-x,1/2+y,1/2-z
-x,-y,-z
x,1/2-y,1/2+z
loop_
_atom_site_type_symbol
_atom_site_label
_atom_site_fract_x
_atom_site_fract_y
_atom_site_fract_z
Si Si1 0.789278 0.110598 0.998021
Si Si2 0.580605 0.607030 0.601751
Si Si3 0.648540 0.034986 0.253538
Si Si4 0.496435 0.302302 0.192995
Si Si5 0.519322 0.744318 0.032632
Si Si6 0.155662 0.127093 0.792095
Si Si7 0.157921 0.336386 0.871682
Si Si8 0.226048 0.575495 0.777955
O O1 0.698087 0.233396 0.046514
O O2 0.694065 0.012045 0.023384
O O3 0.724221 0.077500 0.123924
O O4 0.021389 0.101986 0.828594
O O5 0.581267 0.672500 0.672605
O O6 0.653511 0.681122 0.483067
O O7 0.353961 0.586040 0.751565
O O8 0.506162 0.926549 0.342681
O O9 0.806117 0.978300 0.186162
O O10 0.565159 0.143278 0.356497
O O11 0.340077 0.218370 0.274183
O O12 0.349380 0.835555 0.138967
O O13 0.639396 0.681496 0.884749
O O14 0.058365 0.231165 0.906784
O O15 0.221467 0.437704 0.771872
O O16 0.994280 0.385612 0.044991
#
# Coordination Sequence:
#
# PCOD9239971 Si02
#       8
#     4   4   4   4   4   4   4   4
#     4  11  19  38  59  83 113 146 197 239 288 331
#     4   9  19  34  58  79 112 152 178 240 288 328
#     4  10  21  36  60  82 108 149 198 236 287 337
#     4  10  18  33  59  85 109 142 190 245 276 337
#     4  10  20  39  55  82 121 151 185 233 296 341
#     4  11  23  35  58  84 118 153 187 237 283 358
#     4  10  19  35  60  91 106 149 202 230 287 327
#     4   9  19  36  60  80 115 147 192 244 270 340
#
# _framework density 20.449403
#
# number of rings (size 3 to 8) (size 9 to 14) (size 15 to 20)
#    0.750    1.250    2.500    2.250    0.000    2.500 
#    2.250    0.000    2.750    0.000    0.000    0.000 
#    0.000    0.000    0.000    0.000    0.000    0.000 
#
# Total GULP energy -178236.782330 kJ/mol
# GULP energy per Si atom -5569.899448 kJ/mol
# Density = 2.040286 g / cm^3
# Si number density = 20.449403 Si / 1000 Ang^3
#
#
#
# Elastic Constant Matrix: (Units=GPa)
#
#
# Indices 1 2 3 4 5 6 
#
# 1 39.9890 4.4554 4.0818 0.0000 -14.2607 0.0000
# 2 4.4554 81.3737 9.5846 0.0000 -14.8493 0.0000
# 3 4.0818 9.5846 40.5527 0.0000 -12.8720 0.0000
# 4 0.0000 0.0000 0.0000 14.0343 0.0000 0.7013
# 5 -14.2607 -14.8493 -12.8720 0.0000 25.5733 0.0000
# 6 0.0000 0.0000 0.0000 0.7013 0.0000 16.2283
#
#
#
# Elastic Compliance Matrix: (Units=1/GPa)
#
#
# Indices 1 2 3 4 5 6 
#
# 1 0.031672 0.001585 0.002780 0.000000 0.019981 0.000000
# 2 0.001585 0.013849 -0.000714 0.000000 0.008566 0.000000
# 3 0.002780 -0.000714 0.029645 0.000000 0.016057 0.000000
# 4 0.000000 0.000000 0.000000 0.071408 0.000000 -0.003086
# 5 0.019981 0.008566 0.016057 0.000000 0.063302 0.000000
# 6 0.000000 0.000000 0.000000 -0.003086 0.000000 0.061754
#
#
# Mechanical properties :
#
#
# Convention : Reuss Voigt Hill
#
# Bulk Modulus (GPa) = 12.12595 22.01766 17.07180
# Shear Modulus (GPa) = 17.13394 20.75342 18.94368
#
# Velocity S-wave (km/s) = 2.89774 3.18915 3.04693
# Velocity P-wave (km/s) = 4.13986 4.93469 4.55465
#
# Compressibility (1/GPa) = 0.08246779
#
# Stress axis : x y z
#
# Youngs Moduli (GPa) = 31.57351 72.20487 33.73258
#
# Poissons Ratio (x) = -0.11442 -0.09377
# Poissons Ratio (y) = -0.05003 0.02408
# Poissons Ratio (z) = -0.08777 0.05154
#
# Static dielectric constant tensor:
#      x y z
#    x 1.716840 0.000000 -0.013350 
#    y 0.000000 1.761590 0.000000 
#    z -0.013350 0.000000 1.758920 
# 
# From -- ./inp_files/60544.got.cif
#   From: 2010.05.17/outbox.cif.g08.bks.cpg/sg14_31_cif.got.tgz:60544.got - 2010.06.03 17:49:19.
