data_PCOD9239468
_publ_section_title
;
Structure prediction by ZEFSAII (Michael W. Deem and Ramdas Pophale) SiO2 
 PCOD9239468
Probable space group: P 21/C
;
_chemical_formula_sum "Si O2"
_cell_formula_units_Z 28
_cell_length_a 9.258890
_cell_length_b 8.783893
_cell_length_c 29.645871
_cell_angle_alpha 90.000000
_cell_angle_beta 25.707530
_cell_angle_gamma 90.000000
_cell_volume 1045.868784
_symmetry_space_group_name_H-M "P 21/C"
_symmetry_group_IT_number 14
_symmetry_cell_setting 'monoclinic'
loop_
_space_group_symop_operation_xyz
x,y,z
-x,1/2+y,1/2-z
-x,-y,-z
x,1/2-y,1/2+z
loop_
_atom_site_type_symbol
_atom_site_label
_atom_site_fract_x
_atom_site_fract_y
_atom_site_fract_z
Si Si1 0.751345 0.358129 0.968366
Si Si2 0.685120 0.455216 0.144671
Si Si3 0.591809 0.543859 0.656873
Si Si4 0.991455 0.328321 0.604740
Si Si5 0.244507 0.784524 0.947268
Si Si6 0.870888 0.318122 0.733599
Si Si7 0.352457 0.670705 0.102345
O O1 0.811409 0.302469 0.900709
O O2 0.100471 0.414438 0.891182
O O3 0.620893 0.235510 0.040746
O O4 0.516529 0.504906 0.044690
O O5 0.738631 0.312860 0.164326
O O6 0.803728 0.370979 0.065740
O O7 0.367526 0.542389 0.214624
O O8 0.778889 0.475319 0.648657
O O9 0.526482 0.392536 0.646719
O O10 0.282178 0.653384 0.736844
O O11 0.889076 0.637828 0.550717
O O12 0.115403 0.332870 0.621405
O O13 0.331223 0.286275 0.482402
O O14 0.856412 0.323854 0.792404
#
# Coordination Sequence:
#
# PCOD9239468 Si02
#       7
#     4   4   4   4   4   4   4
#     4  10  18  35  62  88 112 151 203 241 282 361
#     4  10  19  34  64  90 109 155 207 243 291 345
#     4  10  20  32  56  92 117 146 189 256 297 336
#     4  10  23  37  57  90 123 150 199 250 296 349
#     4  10  17  33  61  91 116 145 196 246 296 347
#     4  12  20  38  63  85 119 156 200 249 292 351
#     4  10  22  36  62  86 116 162 195 236 299 350
#
# _framework density 26.772000999999999
#
# number of rings (size 3 to 8) (size 9 to 14) (size 15 to 20)
#    0.000    1.714    2.857    4.714    0.000    0.000 
#    0.000    2.857   25.143    0.000    0.000    0.000 
#    0.000    0.000    0.000    0.000    0.000    0.000 
#
# Total GULP energy -156104.512628 kJ/mol
# GULP energy per Si atom -5575.161165 kJ/mol
# Density = 2.671107 g / cm^3
# Si number density = 26.772001 Si / 1000 Ang^3
#
#
#
# Elastic Constant Matrix: (Units=GPa)
#
#
# Indices 1 2 3 4 5 6 
#
# 1 191.5783 22.0633 52.8766 0.0000 72.4760 0.0000
# 2 22.0633 69.6059 13.4083 0.0000 13.1592 0.0000
# 3 52.8766 13.4083 75.7289 0.0000 47.0428 0.0000
# 4 0.0000 0.0000 0.0000 10.6863 0.0000 10.3734
# 5 72.4760 13.1592 47.0428 0.0000 57.9808 0.0000
# 6 0.0000 0.0000 0.0000 10.3734 0.0000 8.4833
#
#
#
# Elastic Compliance Matrix: (Units=1/GPa)
#
#
# Indices 1 2 3 4 5 6 
#
# 1 0.010050 -0.000915 0.001652 0.000000 -0.013696 0.000000
# 2 -0.000915 0.015139 -0.001245 0.000000 -0.001282 0.000000
# 3 0.001652 -0.001245 0.026975 0.000000 -0.023669 0.000000
# 4 0.000000 0.000000 0.000000 -0.500410 0.000000 0.611901
# 5 -0.013696 -0.001282 -0.023669 0.000000 0.053862 0.000000
# 6 0.000000 0.000000 0.000000 0.611901 0.000000 -0.630355
#
#
# Mechanical properties :
#
#
# Convention : Reuss Voigt Hill
#
# Bulk Modulus (GPa) = 19.55074 57.06771 38.30923
# Shear Modulus (GPa) = -4.96685 32.00108 13.51712
#
# Velocity S-wave (km/s) = -1.36355 3.46109 2.24943
# Velocity P-wave (km/s) = 2.19989 6.11021 4.59207
#
# Compressibility (1/GPa) = 0.05114896
#
# Stress axis : x y z
#
# Youngs Moduli (GPa) = 99.49791 66.05540 37.07153
#
# Poissons Ratio (x) = 0.06042 -0.06126
# Poissons Ratio (y) = 0.09101 0.04616
# Poissons Ratio (z) = -0.16441 0.08226
#
# Static dielectric constant tensor:
#      x y z
#    x 2.178390 0.000000 -0.046020 
#    y 0.000000 2.173570 0.000000 
#    z -0.046020 0.000000 2.558720 
# 
# From -- ./inp_files/76452.got.cif
#   From: 2010.05.17/outbox.cif.g08.bks.cpg/sg14_39_cif.got.tgz:76452.got - 2010.06.03 17:49:19.
