data_PCOD9239580
_publ_section_title
;
Structure prediction by ZEFSAII (Michael W. Deem and Ramdas Pophale) SiO2 
 PCOD9239580
Probable space group: P 21/C
;
_chemical_formula_sum "Si O2"
_cell_formula_units_Z 32
_cell_length_a 9.872485
_cell_length_b 15.532768
_cell_length_c 12.689643
_cell_angle_alpha 90.000000
_cell_angle_beta 53.335369
_cell_angle_gamma 90.000000
_cell_volume 1560.907987
_symmetry_space_group_name_H-M "P 21/C"
_symmetry_group_IT_number 14
_symmetry_cell_setting 'monoclinic'
loop_
_space_group_symop_operation_xyz
x,y,z
-x,1/2+y,1/2-z
-x,-y,-z
x,1/2-y,1/2+z
loop_
_atom_site_type_symbol
_atom_site_label
_atom_site_fract_x
_atom_site_fract_y
_atom_site_fract_z
Si Si1 0.414609 0.390762 0.619629
Si Si2 0.147461 0.913390 0.744764
Si Si3 0.893691 0.386365 0.962227
Si Si4 0.249270 0.573866 0.422709
Si Si5 0.230379 0.378196 0.495604
Si Si6 0.175372 0.537005 0.795496
Si Si7 0.178269 0.253435 0.835180
Si Si8 0.958867 0.605304 0.715427
O O1 0.604258 0.390909 0.571230
O O2 0.370815 0.367227 0.520384
O O3 0.332901 0.485774 0.674710
O O4 0.312321 0.325394 0.741580
O O5 0.195761 0.875214 0.609029
O O6 0.253014 0.894683 0.800676
O O7 0.145924 0.017032 0.731934
O O8 0.952476 0.886346 0.860584
O O9 0.032911 0.462659 0.880032
O O10 0.002065 0.302319 0.937969
O O11 0.786747 0.417165 0.111701
O O12 0.256429 0.470141 0.426600
O O13 0.071455 0.599057 0.557369
O O14 0.229547 0.302791 0.411407
O O15 0.086774 0.601301 0.754245
O O16 0.150579 0.189915 0.748550
#
# Coordination Sequence:
#
# PCOD9239580 Si02
#       8
#     4   4   4   4   4   4   4   4
#     4  11  23  38  58  92 125 154 198 250 309 353
#     4  10  17  37  60  88 111 153 211 238 277 365
#     4   9  19  33  55  83 119 151 196 243 284 354
#     4  11  20  37  63  88 116 157 201 252 292 359
#     4  11  19  37  62  87 115 153 207 249 290 359
#     4   9  18  35  55  83 113 157 197 232 293 355
#     4  11  21  35  56  93 119 153 195 258 307 337
#     4  10  18  33  61  87 111 152 204 246 289 347
#
# _framework density 20.500888
#
# number of rings (size 3 to 8) (size 9 to 14) (size 15 to 20)
#    0.000    1.750    7.500    1.125    1.750    0.000 
#    0.000    3.125    0.000    0.000    0.000    0.000 
#    0.000    0.000    0.000    0.000    0.000    0.000 
#
# Total GULP energy -178650.076519 kJ/mol
# GULP energy per Si atom -5582.814891 kJ/mol
# Density = 2.045423 g / cm^3
# Si number density = 20.500888 Si / 1000 Ang^3
#
#
#
# Elastic Constant Matrix: (Units=GPa)
#
#
# Indices 1 2 3 4 5 6 
#
# 1 102.1619 23.9322 29.0792 0.0000 38.4725 0.0000
# 2 23.9322 65.3956 22.8813 0.0000 12.1389 0.0000
# 3 29.0792 22.8813 63.2031 0.0000 41.2800 0.0000
# 4 0.0000 0.0000 0.0000 16.2105 0.0000 9.6378
# 5 38.4725 12.1389 41.2800 0.0000 38.5467 0.0000
# 6 0.0000 0.0000 0.0000 9.6378 0.0000 21.3672
#
#
#
# Elastic Compliance Matrix: (Units=1/GPa)
#
#
# Indices 1 2 3 4 5 6 
#
# 1 0.019916 -0.006396 0.016036 0.000000 -0.035037 0.000000
# 2 -0.006396 0.019774 -0.014367 0.000000 0.015542 0.000000
# 3 0.016036 -0.014367 0.070349 0.000000 -0.086817 0.000000
# 4 0.000000 0.000000 0.000000 0.084294 0.000000 -0.038021
# 5 -0.035037 0.015542 -0.086817 0.000000 0.148990 0.000000
# 6 0.000000 0.000000 0.000000 -0.038021 0.000000 0.063950
#
#
# Mechanical properties :
#
#
# Convention : Reuss Voigt Hill
#
# Bulk Modulus (GPa) = 9.94194 42.50511 26.22353
# Shear Modulus (GPa) = 11.10479 25.54940 18.32709
#
# Velocity S-wave (km/s) = 2.32991 3.53407 2.99317
# Velocity P-wave (km/s) = 3.47822 6.11810 4.97640
#
# Compressibility (1/GPa) = 0.10058398
#
# Stress axis : x y z
#
# Youngs Moduli (GPa) = 50.20970 50.57114 14.21492
#
# Poissons Ratio (x) = 0.32344 -0.22794
# Poissons Ratio (y) = 0.32113 0.20423
# Poissons Ratio (z) = -0.80514 0.72658
#
# Static dielectric constant tensor:
#      x y z
#    x 1.738770 0.000000 0.025430 
#    y 0.000000 1.742910 0.000000 
#    z 0.025430 0.000000 1.751810 
# 
# From -- ./inp_files/26042.got.cif
#   From: 2010.05.17/outbox.cif.g08.bks.cpg/sg14_14_cif.got.tgz:26042.got - 2010.06.03 17:49:19.
