data_PCOD9239072
_publ_section_title
;
Structure prediction by ZEFSAII (Michael W. Deem and Ramdas Pophale) SiO2 
 PCOD9239072
Probable space group: P 2/C
;
_chemical_formula_sum "Si O2"
_cell_formula_units_Z 22
_cell_length_a 18.000000
_cell_length_b 9.000000
_cell_length_c 9.000000
_cell_angle_alpha 90.000000
_cell_angle_beta 50.000000
_cell_angle_gamma 90.000000
_cell_volume 1116.892798
_symmetry_space_group_name_H-M "P 2/C"
_symmetry_group_IT_number 13
_symmetry_cell_setting 'monoclinic'
loop_
_space_group_symop_operation_xyz
x,y,z
-x,y,1/2-z
-x,-y,-z
x,-y,1/2+z
loop_
_atom_site_type_symbol
_atom_site_label
_atom_site_fract_x
_atom_site_fract_y
_atom_site_fract_z
Si Si1 0.383939 0.300080 0.874797
Si Si2 0.197231 0.918652 0.677746
Si Si3 0.805943 0.786389 0.485078
Si Si4 0.910900 0.384208 0.609453
Si Si5 0.703185 0.511492 0.755599
Si Si6 0.000000 0.169794 0.250000
O O1 0.500000 0.256106 0.750000
O O2 0.354771 0.384240 0.759009
O O3 0.294562 0.178228 0.008758
O O4 0.361382 0.421865 0.030234
O O5 0.093261 0.899323 0.722134
O O6 0.223303 0.088459 0.599014
O O7 0.177505 0.869907 0.876141
O O8 0.892550 0.696395 0.291402
O O9 0.729713 0.654580 0.618545
O O10 0.808092 0.456029 0.686803
O O11 0.000000 0.500000 0.500000
O O12 0.943999 0.265473 0.445192
#
# Coordination Sequence:
#
# PCOD9239072 Si02
#       6
#     4   4   4   4   4   2
#     4  11  23  44  69  99 136 178 234 285 338 403
#     4  11  26  44  67 100 139 183 225 275 346 406
#     4  11  25  45  67  99 142 178 228 275 338 413
#     4  12  23  40  67  99 139 174 226 278 335 402
#     4  11  22  43  67 101 133 179 229 281 341 398
#     4  12  24  40  64  94 136 180 216 276 332 410
#
# _framework density 19.697503999999999
#
# number of rings (size 3 to 8) (size 9 to 14) (size 15 to 20)
#    0.000    0.727    3.636    4.909    0.000    6.545 
#    0.000    4.545    0.000    0.000    0.000    0.000 
#    0.000    0.000    0.000    0.000    0.000    0.000 
#
# Total GULP energy -122655.398092 kJ/mol
# GULP energy per Si atom -5575.245368 kJ/mol
# Density = 1.965267 g / cm^3
# Si number density = 19.697504 Si / 1000 Ang^3
#
#
#
# Elastic Constant Matrix: (Units=GPa)
#
#
# Indices 1 2 3 4 5 6 
#
# 1 119.3273 34.2778 29.9890 0.0000 -21.8773 0.0000
# 2 34.2778 82.3794 22.9098 0.0000 -0.4917 0.0000
# 3 29.9890 22.9098 106.3238 0.0000 -2.4009 0.0000
# 4 0.0000 0.0000 0.0000 42.6891 0.0000 8.0225
# 5 -21.8773 -0.4917 -2.4009 0.0000 42.2564 0.0000
# 6 0.0000 0.0000 0.0000 8.0225 0.0000 26.1550
#
#
#
# Elastic Compliance Matrix: (Units=1/GPa)
#
#
# Indices 1 2 3 4 5 6 
#
# 1 0.011084 -0.003983 -0.002142 0.000000 0.005571 0.000000
# 2 -0.003983 0.014344 -0.002013 0.000000 -0.002010 0.000000
# 3 -0.002142 -0.002013 0.010431 0.000000 -0.000540 0.000000
# 4 0.000000 0.000000 0.000000 0.024858 0.000000 -0.007625
# 5 0.005571 -0.002010 -0.000540 0.000000 0.026495 0.000000
# 6 0.000000 0.000000 0.000000 -0.007625 0.000000 0.040572
#
#
# Mechanical properties :
#
#
# Convention : Reuss Voigt Hill
#
# Bulk Modulus (GPa) = 51.06452 53.59820 52.33136
# Shear Modulus (GPa) = 33.20312 36.94372 35.07342
#
# Velocity S-wave (km/s) = 4.11012 4.33546 4.22430
# Velocity P-wave (km/s) = 6.96454 7.23404 7.10057
#
# Compressibility (1/GPa) = 0.01958307
#
# Stress axis : x y z
#
# Youngs Moduli (GPa) = 90.21881 69.71545 95.86852
#
# Poissons Ratio (x) = 0.27768 0.20538
# Poissons Ratio (y) = 0.35935 0.19295
# Poissons Ratio (z) = 0.19328 0.14031
#
# Static dielectric constant tensor:
#      x y z
#    x 1.728180 0.000000 0.023000 
#    y 0.000000 1.744990 0.000000 
#    z 0.023000 0.000000 1.724800 
# 
# From -- ./inp_files/21061.got.cif
#   From: 2010.05.17/outbox.ucp.g08.bks.cvg/sg13_11_cif.got.tgz:21061.got - 2010.06.11 12:23:55.
