data_PCOD9239460
_publ_section_title
;
Structure prediction by ZEFSAII (Michael W. Deem and Ramdas Pophale) SiO2 
 PCOD9239460
Probable space group: P 21/C
;
_chemical_formula_sum "Si O2"
_cell_formula_units_Z 32
_cell_length_a 7.513371
_cell_length_b 17.875807
_cell_length_c 11.802589
_cell_angle_alpha 90.000000
_cell_angle_beta 53.686321
_cell_angle_gamma 90.000000
_cell_volume 1277.314930
_symmetry_space_group_name_H-M "P 21/C"
_symmetry_group_IT_number 14
_symmetry_cell_setting 'monoclinic'
loop_
_space_group_symop_operation_xyz
x,y,z
-x,1/2+y,1/2-z
-x,-y,-z
x,1/2-y,1/2+z
loop_
_atom_site_type_symbol
_atom_site_label
_atom_site_fract_x
_atom_site_fract_y
_atom_site_fract_z
Si Si1 0.571603 0.845151 0.426978
Si Si2 0.161706 0.583150 0.990834
Si Si3 0.421592 0.005083 0.201031
Si Si4 0.024786 0.228589 0.954454
Si Si5 0.052854 0.272912 0.695889
Si Si6 0.670051 0.855380 0.639170
Si Si7 0.045314 0.450891 0.702894
Si Si8 0.170624 0.067128 0.860471
O O1 0.340511 0.852381 0.449616
O O2 0.710996 0.769044 0.386682
O O3 0.548941 0.868505 0.566513
O O4 0.722046 0.901619 0.297638
O O5 0.269887 0.529389 0.858778
O O6 0.926014 0.615489 0.040813
O O7 0.113967 0.541773 0.127088
O O8 0.451769 0.092556 0.223581
O O9 0.269167 0.005473 0.149371
O O10 0.635479 0.954368 0.126430
O O11 0.943414 0.247177 0.114737
O O12 0.271879 0.268254 0.860393
O O13 0.941891 0.248329 0.857319
O O14 0.036683 0.139077 0.949950
O O15 0.079861 0.362019 0.686091
O O16 0.942203 0.490648 0.634843
#
# Coordination Sequence:
#
# PCOD9239460 Si02
#       8
#     4   4   4   4   4   4   4   4
#     4   9  19  34  57  87 124 157 204 265 312 361
#     4  10  18  31  59  94 119 157 214 255 316 375
#     4  10  19  33  59  92 127 160 206 267 318 373
#     4  10  21  41  64  88 127 171 212 263 321 378
#     4  10  21  40  66  88 127 172 209 266 321 373
#     4  10  17  33  59  83 122 159 203 258 310 364
#     4  11  20  36  61  91 127 166 216 257 322 384
#     4  10  21  36  58  91 125 166 211 259 318 383
#
# _framework density 25.052554000000001
#
# number of rings (size 3 to 8) (size 9 to 14) (size 15 to 20)
#    0.000    2.000    2.500    3.750    0.000    2.500 
#    0.000    5.625   24.750    0.000    0.000    0.000 
#    0.000    0.000    0.000    0.000    0.000    0.000 
#
# Total GULP energy -178570.986039 kJ/mol
# GULP energy per Si atom -5580.343314 kJ/mol
# Density = 2.499553 g / cm^3
# Si number density = 25.052554 Si / 1000 Ang^3
#
#
#
# Elastic Constant Matrix: (Units=GPa)
#
#
# Indices 1 2 3 4 5 6 
#
# 1 81.0386 44.2228 28.7546 0.0000 23.8543 0.0000
# 2 44.2228 131.9762 21.6213 0.0000 2.0791 0.0000
# 3 28.7546 21.6213 88.4783 0.0000 36.6010 0.0000
# 4 0.0000 0.0000 0.0000 24.6788 0.0000 8.3942
# 5 23.8543 2.0791 36.6010 0.0000 52.0744 0.0000
# 6 0.0000 0.0000 0.0000 8.3942 0.0000 44.7323
#
#
#
# Elastic Compliance Matrix: (Units=1/GPa)
#
#
# Indices 1 2 3 4 5 6 
#
# 1 0.018040 -0.005670 -0.001625 0.000000 -0.006895 0.000000
# 2 -0.005670 0.009756 -0.002051 0.000000 0.003649 0.000000
# 3 -0.001625 -0.002051 0.016905 0.000000 -0.011055 0.000000
# 4 0.000000 0.000000 0.000000 0.043283 0.000000 -0.008122
# 5 -0.006895 0.003649 -0.011055 0.000000 0.029987 0.000000
# 6 0.000000 0.000000 0.000000 -0.008122 0.000000 0.023879
#
#
# Mechanical properties :
#
#
# Convention : Reuss Voigt Hill
#
# Bulk Modulus (GPa) = 38.44827 54.52116 46.48472
# Shear Modulus (GPa) = 29.54884 38.09007 33.81945
#
# Velocity S-wave (km/s) = 3.43807 3.90347 3.67814
# Velocity P-wave (km/s) = 5.58040 6.49046 6.05256
#
# Compressibility (1/GPa) = 0.02600897
#
# Stress axis : x y z
#
# Youngs Moduli (GPa) = 55.43158 102.50546 59.15486
#
# Poissons Ratio (x) = 0.58122 0.09612
# Poissons Ratio (y) = 0.31430 0.12132
# Poissons Ratio (z) = 0.09007 0.21022
#
# Static dielectric constant tensor:
#      x y z
#    x 1.946420 0.000000 0.000750 
#    y 0.000000 2.073360 0.000000 
#    z 0.000750 0.000000 2.105200 
# 
# From -- ./inp_files/26788.got.cif
#   From: 2010.05.17/outbox.cif.g08.bks.cpg/sg14_14_cif.got.tgz:26788.got - 2010.06.03 17:49:19.
