data_PCOD9239535
_publ_section_title
;
Structure prediction by ZEFSAII (Michael W. Deem and Ramdas Pophale) SiO2 
 PCOD9239535
Probable space group: P 21/C
;
_chemical_formula_sum "Si O2"
_cell_formula_units_Z 30
_cell_length_a 15.381553
_cell_length_b 13.643876
_cell_length_c 13.471083
_cell_angle_alpha 90.000000
_cell_angle_beta 154.294906
_cell_angle_gamma 90.000000
_cell_volume 1226.222077
_symmetry_space_group_name_H-M "P 21/C"
_symmetry_group_IT_number 14
_symmetry_cell_setting 'monoclinic'
loop_
_space_group_symop_operation_xyz
x,y,z
-x,1/2+y,1/2-z
-x,-y,-z
x,1/2-y,1/2+z
loop_
_atom_site_type_symbol
_atom_site_label
_atom_site_fract_x
_atom_site_fract_y
_atom_site_fract_z
Si Si1 0.977223 0.652101 0.044607
Si Si2 0.098381 0.441675 0.226014
Si Si3 0.248589 0.669479 0.051433
Si Si4 0.088337 0.335209 0.806833
Si Si5 0.000000 0.000000 0.000000
Si Si6 0.237783 0.496466 0.570610
Si Si7 0.712491 0.331721 0.134446
Si Si8 0.530147 0.830225 0.433651
O O1 0.858021 0.629989 0.821134
O O2 0.848171 0.662855 0.012573
O O3 0.107197 0.553294 0.197692
O O4 0.137493 0.739409 0.199161
O O5 0.234398 0.435824 0.464633
O O6 0.863397 0.421188 0.012481
O O7 0.319857 0.648190 0.014025
O O8 0.060594 0.744200 0.852387
O O9 0.415487 0.733454 0.276296
O O10 0.954890 0.430029 0.643049
O O11 0.254325 0.332144 0.893866
O O12 0.844387 0.940313 0.918549
O O13 0.175491 0.923320 0.203369
O O14 0.421614 0.570283 0.778897
O O15 0.512748 0.322716 0.993688
#
# Coordination Sequence:
#
# PCOD9239535 Si02
#       8
#     4   4   4   4   2   4   4   4
#     4   9  19  34  62  85 112 154 195 238 294 342
#     4  10  17  35  61  85 111 153 198 240 286 348
#     4  10  19  36  60  82 114 154 193 237 291 347
#     4   9  20  38  57  85 117 153 192 240 289 346
#     4  10  18  32  60  84 112 152 188 234 284 356
#     4   9  19  35  59  80 116 152 192 238 290 340
#     4  10  19  35  59  87 111 154 195 233 295 352
#     4  10  20  38  58  84 118 153 191 243 291 349
#
# _framework density 24.465391
#
# number of rings (size 3 to 8) (size 9 to 14) (size 15 to 20)
#    0.000    2.400    2.667    0.800    0.000    0.000 
#    2.400    6.000    0.000    0.000    0.000    0.000 
#    0.000    0.000    0.000    0.000    0.000    0.000 
#
# Total GULP energy -167235.706846 kJ/mol
# GULP energy per Si atom -5574.523562 kJ/mol
# Density = 2.440971 g / cm^3
# Si number density = 24.465391 Si / 1000 Ang^3
#
#
#
# Elastic Constant Matrix: (Units=GPa)
#
#
# Indices 1 2 3 4 5 6 
#
# 1 192.3802 24.2732 46.3507 0.0000 18.9936 0.0000
# 2 24.2732 46.4055 27.4825 0.0000 0.0327 0.0000
# 3 46.3507 27.4825 48.3188 0.0000 5.9543 0.0000
# 4 0.0000 0.0000 0.0000 14.1600 0.0000 -7.9786
# 5 18.9936 0.0327 5.9543 0.0000 10.0393 0.0000
# 6 0.0000 0.0000 0.0000 -7.9786 0.0000 29.1346
#
#
#
# Elastic Compliance Matrix: (Units=1/GPa)
#
#
# Indices 1 2 3 4 5 6 
#
# 1 0.007769 -0.000709 -0.005652 0.000000 -0.011344 0.000000
# 2 -0.000709 0.033888 -0.020225 0.000000 0.013226 0.000000
# 3 -0.005652 -0.020225 0.039157 0.000000 -0.012465 0.000000
# 4 0.000000 0.000000 0.000000 0.083507 0.000000 0.022869
# 5 -0.011344 0.013226 -0.012465 0.000000 0.128421 0.000000
# 6 0.000000 0.000000 0.000000 0.022869 0.000000 0.040586
#
#
# Mechanical properties :
#
#
# Convention : Reuss Voigt Hill
#
# Bulk Modulus (GPa) = 36.17428 53.70192 44.93810
# Shear Modulus (GPa) = 12.63542 23.26665 17.95103
#
# Velocity S-wave (km/s) = 2.27504 3.08718 2.71169
# Velocity P-wave (km/s) = 4.66037 5.89113 5.31152
#
# Compressibility (1/GPa) = 0.02764395
#
# Stress axis : x y z
#
# Youngs Moduli (GPa) = 128.71420 29.50890 25.53849
#
# Poissons Ratio (x) = 0.02092 0.14433
# Poissons Ratio (y) = 0.09123 0.51650
# Poissons Ratio (z) = 0.72744 0.59680
#
# Static dielectric constant tensor:
#      x y z
#    x 2.166960 0.000000 -0.159470 
#    y 0.000000 1.906390 0.000000 
#    z -0.159470 0.000000 1.987190 
# 
# From -- ./inp_files/47435.got.cif
#   From: 2010.05.17/outbox.cif.g08.bks.cpg/sg14_24_cif.got.tgz:47435.got - 2010.06.03 17:49:19.
