data_PCOD9240692
_publ_section_title
;
Structure prediction by ZEFSAII (Michael W. Deem and Ramdas Pophale) SiO2 
 PCOD9240692
Probable space group: P 21/C
;
_chemical_formula_sum "Si O2"
_cell_formula_units_Z 28
_cell_length_a 14.440118
_cell_length_b 5.069465
_cell_length_c 20.506821
_cell_angle_alpha 90.000000
_cell_angle_beta 115.378419
_cell_angle_gamma 90.000000
_cell_volume 1356.306447
_symmetry_space_group_name_H-M "P 21/C"
_symmetry_group_IT_number 14
_symmetry_cell_setting 'monoclinic'
loop_
_space_group_symop_operation_xyz
x,y,z
-x,1/2+y,1/2-z
-x,-y,-z
x,1/2-y,1/2+z
loop_
_atom_site_type_symbol
_atom_site_label
_atom_site_fract_x
_atom_site_fract_y
_atom_site_fract_z
Si Si1 0.937347 0.926636 0.719180
Si Si2 0.573343 0.496810 0.696924
Si Si3 0.011003 0.593101 0.110670
Si Si4 0.897411 0.219211 0.985113
Si Si5 0.237208 0.261020 0.082759
Si Si6 0.545830 0.995680 0.346115
Si Si7 0.206256 0.304166 0.221661
O O1 0.844217 0.886591 0.740330
O O2 0.025215 0.727432 0.772319
O O3 0.930565 0.829775 0.642274
O O4 0.545117 0.206028 0.665813
O O5 0.561910 0.494443 0.772458
O O6 0.689632 0.575759 0.719039
O O7 0.491358 0.712513 0.646546
O O8 0.032644 0.800311 0.059383
O O9 0.118484 0.519807 0.177857
O O10 0.967712 0.328989 0.064049
O O11 0.830090 0.478444 0.947404
O O12 0.818865 0.980239 0.969780
O O13 0.350461 0.357306 0.097624
O O14 0.234883 0.183388 0.159303
#
# Coordination Sequence:
#
# PCOD9240692 Si02
#       7
#     4   4   4   4   4   4   4
#     4  10  20  33  49  69  97 132 162 195 236 282
#     4   9  17  28  45  69  95 123 151 191 246 291
#     4   9  20  34  49  73 103 131 164 198 233 285
#     4  10  20  32  50  72  99 133 164 196 236 280
#     4  10  19  32  50  73  98 128 162 200 242 284
#     4   9  17  29  45  68  96 120 154 198 240 287
#     4   9  19  32  50  73 101 129 158 195 243 292
#
# _framework density 20.644300999999999
#
# number of rings (size 3 to 8) (size 9 to 14) (size 15 to 20)
#    0.000    2.571    0.000    1.714    0.000   16.571 
#    0.000    0.000    0.000    0.000    0.000    6.000 
#    0.000    0.000    0.000    0.000    0.000    0.000 
#
# Total GULP energy -156112.594499 kJ/mol
# GULP energy per Si atom -5575.449804 kJ/mol
# Density = 2.059731 g / cm^3
# Si number density = 20.644301 Si / 1000 Ang^3
#
#
#
# Elastic Constant Matrix: (Units=GPa)
#
#
# Indices 1 2 3 4 5 6 
#
# 1 52.3717 -10.5694 23.9443 0.0000 4.3775 0.0000
# 2 -10.5694 60.7964 0.3212 0.0000 -3.5573 0.0000
# 3 23.9443 0.3212 36.4653 0.0000 -5.2414 0.0000
# 4 0.0000 0.0000 0.0000 15.8922 0.0000 4.5063
# 5 4.3775 -3.5573 -5.2414 0.0000 21.1484 0.0000
# 6 0.0000 0.0000 0.0000 4.5063 0.0000 17.0187
#
#
#
# Elastic Compliance Matrix: (Units=1/GPa)
#
#
# Indices 1 2 3 4 5 6 
#
# 1 0.031082 0.004872 -0.022045 0.000000 -0.011078 0.000000
# 2 0.004872 0.017378 -0.003191 0.000000 0.001124 0.000000
# 3 -0.022045 -0.003191 0.044076 0.000000 0.014950 0.000000
# 4 0.000000 0.000000 0.000000 0.068032 0.000000 -0.018014
# 5 -0.011078 0.001124 0.014950 0.000000 0.053472 0.000000
# 6 0.000000 0.000000 0.000000 -0.018014 0.000000 0.063529
#
#
# Mechanical properties :
#
#
# Convention : Reuss Voigt Hill
#
# Bulk Modulus (GPa) = 19.30168 19.66949 19.48559
# Shear Modulus (GPa) = 14.90023 19.87435 17.38729
#
# Velocity S-wave (km/s) = 2.68947 3.10611 2.90527
# Velocity P-wave (km/s) = 4.36054 4.73417 4.55119
#
# Compressibility (1/GPa) = 0.05180895
#
# Stress axis : x y z
#
# Youngs Moduli (GPa) = 32.17264 57.54422 22.68825
#
# Poissons Ratio (x) = -0.28035 0.50016
# Poissons Ratio (y) = -0.15674 0.07239
# Poissons Ratio (z) = 0.70924 0.18360
#
# Static dielectric constant tensor:
#      x y z
#    x 1.781970 0.000000 -0.002280 
#    y 0.000000 1.774150 0.000000 
#    z -0.002280 0.000000 1.772520 
# 
# From -- ./inp_files/66519.got.cif
#   From: 2010.05.17/outbox.cif.g08.bks.cpg/sg14_34_cif.got.tgz:66519.got - 2010.06.03 17:49:19.
