data_PCOD9240426
_publ_section_title
;
Structure prediction by ZEFSAII (Michael W. Deem and Ramdas Pophale) SiO2 
 PCOD9240426
Probable space group: P 21/C
;
_chemical_formula_sum "Si O2"
_cell_formula_units_Z 32
_cell_length_a 21.892616
_cell_length_b 7.391713
_cell_length_c 22.688538
_cell_angle_alpha 90.000000
_cell_angle_beta 158.249528
_cell_angle_gamma 90.000000
_cell_volume 1360.547690
_symmetry_space_group_name_H-M "P 21/C"
_symmetry_group_IT_number 14
_symmetry_cell_setting 'monoclinic'
loop_
_space_group_symop_operation_xyz
x,y,z
-x,1/2+y,1/2-z
-x,-y,-z
x,1/2-y,1/2+z
loop_
_atom_site_type_symbol
_atom_site_label
_atom_site_fract_x
_atom_site_fract_y
_atom_site_fract_z
Si Si1 0.709209 0.579163 0.169946
Si Si2 0.266770 0.189714 0.106985
Si Si3 0.960478 0.129051 0.098824
Si Si4 0.763860 0.874932 0.304119
Si Si5 0.425895 0.126218 0.134800
Si Si6 0.573498 0.530633 0.933670
Si Si7 0.274649 0.729640 0.017205
Si Si8 0.861561 0.243307 0.882579
O O1 0.667085 0.748116 0.172791
O O2 0.573058 0.506583 0.003283
O O3 0.796137 0.427737 0.288326
O O4 0.849786 0.642912 0.248576
O O5 0.277196 0.345876 0.164291
O O6 0.311287 0.230431 0.080126
O O7 0.407288 0.048233 0.254976
O O8 0.096677 0.080236 0.952722
O O9 0.893307 0.221715 0.098372
O O10 0.869836 0.208982 0.959772
O O11 0.952360 0.799807 0.468385
O O12 0.753789 0.080029 0.275739
O O13 0.604387 0.144086 0.325039
O O14 0.356428 0.922213 0.069985
O O15 0.421935 0.255830 0.075474
O O16 0.714914 0.409545 0.027969
#
# Coordination Sequence:
#
# PCOD9240426 Si02
#       8
#     4   4   4   4   4   4   4   4
#     4  11  22  40  55  84 129 146 182 243 302 334
#     4  10  19  37  62  84 108 151 202 234 275 352
#     4  10  18  38  62  80 110 153 195 239 275 344
#     4  10  20  37  60  90 108 153 202 231 285 347
#     4  10  19  35  60  83 112 146 196 240 276 338
#     4  11  24  38  57  85 123 157 177 248 301 335
#     4  10  20  37  59  86 110 150 203 235 281 347
#     4  10  20  35  63  85 112 151 192 243 280 342
#
# _framework density 23.519939999999998
#
# number of rings (size 3 to 8) (size 9 to 14) (size 15 to 20)
#    0.000    1.750    6.250    0.750    1.750    1.500 
#    4.500    0.625    0.000    0.000    0.000    0.000 
#    0.000    0.000    0.000    0.000    0.000    0.000 
#
# Total GULP energy -178786.283016 kJ/mol
# GULP energy per Si atom -5587.071344 kJ/mol
# Density = 2.346641 g / cm^3
# Si number density = 23.519940 Si / 1000 Ang^3
#
#
#
# Elastic Constant Matrix: (Units=GPa)
#
#
# Indices 1 2 3 4 5 6 
#
# 1 50.7404 13.2435 -1.3494 0.0000 -5.2136 0.0000
# 2 13.2435 114.7197 8.4056 0.0000 -13.1175 0.0000
# 3 -1.3494 8.4056 35.8144 0.0000 -11.9014 0.0000
# 4 0.0000 0.0000 0.0000 16.9046 0.0000 -1.0769
# 5 -5.2136 -13.1175 -11.9014 0.0000 39.6475 0.0000
# 6 0.0000 0.0000 0.0000 -1.0769 0.0000 36.9156
#
#
#
# Elastic Compliance Matrix: (Units=1/GPa)
#
#
# Indices 1 2 3 4 5 6 
#
# 1 0.020620 -0.002240 0.002174 0.000000 0.002623 0.000000
# 2 -0.002240 0.009354 -0.001499 0.000000 0.002350 0.000000
# 3 0.002174 -0.001499 0.031420 0.000000 0.009222 0.000000
# 4 0.000000 0.000000 0.000000 0.059266 0.000000 0.001729
# 5 0.002623 0.002350 0.009222 0.000000 0.029113 0.000000
# 6 0.000000 0.000000 0.000000 0.001729 0.000000 0.027139
#
#
# Mechanical properties :
#
#
# Convention : Reuss Voigt Hill
#
# Bulk Modulus (GPa) = 17.16280 26.87487 22.01883
# Shear Modulus (GPa) = 25.06741 30.75853 27.91297
#
# Velocity S-wave (km/s) = 3.26819 3.62022 3.44870
# Velocity P-wave (km/s) = 4.64267 5.37828 5.02396
#
# Compressibility (1/GPa) = 0.05826556
#
# Stress axis : x y z
#
# Youngs Moduli (GPa) = 48.49632 106.90581 31.82704
#
# Poissons Ratio (x) = 0.23945 -0.06920
# Poissons Ratio (y) = 0.10862 0.04770
# Poissons Ratio (z) = -0.10545 0.16022
#
# Static dielectric constant tensor:
#      x y z
#    x 1.951640 0.000000 0.088800 
#    y 0.000000 1.876190 0.000000 
#    z 0.088800 0.000000 1.916210 
# 
# From -- ./inp_files/69799.got.cif
#   From: 2010.05.17/outbox.cif.g08.bks.cpg/sg14_35_cif.got.tgz:69799.got - 2010.06.03 17:49:19.
