data_PCOD9240185
_publ_section_title
;
Structure prediction by ZEFSAII (Michael W. Deem and Ramdas Pophale) SiO2 
 PCOD9240185
Probable space group: P 21/C
;
_chemical_formula_sum "Si O2"
_cell_formula_units_Z 28
_cell_length_a 11.208063
_cell_length_b 15.760776
_cell_length_c 8.686486
_cell_angle_alpha 90.000000
_cell_angle_beta 59.737672
_cell_angle_gamma 90.000000
_cell_volume 1325.344639
_symmetry_space_group_name_H-M "P 21/C"
_symmetry_group_IT_number 14
_symmetry_cell_setting 'monoclinic'
loop_
_space_group_symop_operation_xyz
x,y,z
-x,1/2+y,1/2-z
-x,-y,-z
x,1/2-y,1/2+z
loop_
_atom_site_type_symbol
_atom_site_label
_atom_site_fract_x
_atom_site_fract_y
_atom_site_fract_z
Si Si1 0.741350 0.208587 0.817489
Si Si2 0.373841 0.638462 0.305111
Si Si3 0.687669 0.849654 0.603333
Si Si4 0.111572 0.455987 0.820642
Si Si5 0.941458 0.201876 0.427334
Si Si6 0.157282 0.004145 0.959465
Si Si7 0.796939 0.687679 0.693299
O O1 0.656905 0.277027 0.773263
O O2 0.841165 0.166099 0.625941
O O3 0.846885 0.257097 0.860908
O O4 0.648031 0.157113 0.998130
O O5 0.533325 0.618517 0.174950
O O6 0.261764 0.567549 0.329372
O O7 0.767454 0.919461 0.652066
O O8 0.696503 0.760457 0.691067
O O9 0.764839 0.830816 0.392791
O O10 0.153960 0.508826 0.645240
O O11 0.035469 0.372702 0.802166
O O12 0.000000 0.500000 0.000000
O O13 0.048923 0.272377 0.420165
O O14 0.212990 0.097917 0.885192
O O15 0.000000 0.000000 0.000000
#
# Coordination Sequence:
#
# PCOD9240185 Si02
#       7
#     4   4   4   4   4   4   4
#     4  10  20  36  60  86 119 158 204 252 308 377
#     4  11  24  41  62  90 126 168 210 261 322 391
#     4  11  24  42  63  89 126 174 216 255 324 399
#     4  11  22  38  61  89 122 160 208 267 320 375
#     4  10  18  35  60  87 114 155 205 256 310 370
#     4  12  24  40  64  96 129 163 213 275 327 378
#     4  11  22  40  65  91 125 166 215 267 321 387
#
# _framework density 21.126581000000002
#
# number of rings (size 3 to 8) (size 9 to 14) (size 15 to 20)
#    0.000    1.143    0.000    9.429    0.000    1.143 
#    0.000    2.857    0.000    0.000    0.000    0.000 
#    0.000    0.000    0.000    0.000    0.000    0.000 
#
# Total GULP energy -156477.669328 kJ/mol
# GULP energy per Si atom -5588.488190 kJ/mol
# Density = 2.107850 g / cm^3
# Si number density = 21.126581 Si / 1000 Ang^3
#
#
#
# Elastic Constant Matrix: (Units=GPa)
#
#
# Indices 1 2 3 4 5 6 
#
# 1 86.2212 21.4146 9.1003 0.0000 -16.0158 0.0000
# 2 21.4146 61.5447 4.3960 0.0000 -8.8864 0.0000
# 3 9.1003 4.3960 69.4345 0.0000 8.8708 0.0000
# 4 0.0000 0.0000 0.0000 9.8035 0.0000 21.9678
# 5 -16.0158 -8.8864 8.8708 0.0000 31.2393 0.0000
# 6 0.0000 0.0000 0.0000 21.9678 0.0000 11.7673
#
#
#
# Elastic Compliance Matrix: (Units=1/GPa)
#
#
# Indices 1 2 3 4 5 6 
#
# 1 0.014058 -0.003725 -0.002482 0.000000 0.006853 0.000000
# 2 -0.003725 0.018139 -0.001116 0.000000 0.003567 0.000000
# 3 -0.002482 -0.001116 0.015566 0.000000 -0.006010 0.000000
# 4 0.000000 0.000000 0.000000 -0.032044 0.000000 0.059821
# 5 0.006853 0.003567 -0.006010 0.000000 0.038246 0.000000
# 6 0.000000 0.000000 0.000000 0.059821 0.000000 -0.026696
#
#
# Mechanical properties :
#
#
# Convention : Reuss Voigt Hill
#
# Bulk Modulus (GPa) = 30.19572 31.89136 31.04354
# Shear Modulus (GPa) = 94.42267 22.71465 58.56866
#
# Velocity S-wave (km/s) = 6.69259 3.28253 5.27095
# Velocity P-wave (km/s) = 8.60493 5.43092 7.19513
#
# Compressibility (1/GPa) = 0.03311728
#
# Stress axis : x y z
#
# Youngs Moduli (GPa) = 71.13364 55.12930 64.24307
#
# Poissons Ratio (x) = 0.20535 0.15946
# Poissons Ratio (y) = 0.26496 0.07169
# Poissons Ratio (z) = 0.17656 0.06152
#
# Static dielectric constant tensor:
#      x y z
#    x 1.730230 0.000000 -0.000780 
#    y 0.000000 1.958080 0.000000 
#    z -0.000780 0.000000 1.769130 
# 
# From -- ./inp_files/9388.got.cif
#   From: 2010.05.17/outbox.cif.g08.bks.cpg/sg14_5_cif.got.tgz:9388.got - 2010.06.03 17:49:19.
