data_PCOD9240977
_publ_section_title
;
Structure prediction by ZEFSAII (Michael W. Deem and Ramdas Pophale) SiO2 
 PCOD9240977
Probable space group: P 21/C
;
_chemical_formula_sum "Si O2"
_cell_formula_units_Z 32
_cell_length_a 22.952828
_cell_length_b 9.704738
_cell_length_c 5.167003
_cell_angle_alpha 90.000000
_cell_angle_beta 101.426610
_cell_angle_gamma 90.000000
_cell_volume 1128.143238
_symmetry_space_group_name_H-M "P 21/C"
_symmetry_group_IT_number 14
_symmetry_cell_setting 'monoclinic'
loop_
_space_group_symop_operation_xyz
x,y,z
-x,1/2+y,1/2-z
-x,-y,-z
x,1/2-y,1/2+z
loop_
_atom_site_type_symbol
_atom_site_label
_atom_site_fract_x
_atom_site_fract_y
_atom_site_fract_z
Si Si1 0.779197 0.651421 0.922041
Si Si2 0.105549 0.187738 0.307606
Si Si3 0.723005 0.347247 0.420856
Si Si4 0.154846 0.659342 0.341570
Si Si5 0.982151 0.082548 0.234112
Si Si6 0.596931 0.347780 0.391077
Si Si7 0.471360 0.348663 0.207236
Si Si8 0.656210 0.651846 0.923166
O O1 0.776977 0.767262 0.150273
O O2 0.845245 0.584992 0.023115
O O3 0.718119 0.571400 0.929597
O O4 0.118567 0.312811 0.517230
O O5 0.034838 0.192261 0.276516
O O6 0.722747 0.229261 0.644647
O O7 0.785234 0.425826 0.532116
O O8 0.659830 0.423845 0.401372
O O9 0.159836 0.718230 0.058196
O O10 0.086825 0.614365 0.322445
O O11 0.000000 0.000000 0.500000
O O12 0.000000 0.000000 0.000000
O O13 0.596980 0.270331 0.666829
O O14 0.534409 0.426632 0.291822
O O15 0.472130 0.260273 0.944498
O O16 0.407399 0.076608 0.660272
O O17 0.656703 0.767516 0.695955
#
# Coordination Sequence:
#
# PCOD9240977 Si02
#       8
#     4   4   4   4   4   4   4   4
#     4   8  14  23  38  57  76 100 138 178 206 240
#     4  10  19  34  53  70  89 120 156 186 218 268
#     4   8  14  23  38  57  76 100 138 178 206 240
#     4  10  19  34  53  70  89 120 156 186 218 268
#     4  12  24  36  50  72  98 120 144 186 234 272
#     4   8  12  18  27  44  68  96 128 162 198 240
#     4   8  12  16  24  38  64  98 126 152 194 246
#     4   8  12  18  27  44  68  96 128 162 198 240
#
# _framework density 28.365190999999999
#
# number of rings (size 3 to 8) (size 9 to 14) (size 15 to 20)
#    0.000    3.000    0.000    2.250    0.000    0.000 
#    0.000    0.000    0.000    0.000    0.000    0.000 
#    0.000    0.000    0.000    2.250    0.000    8.750 
#
# Total GULP energy -178727.296820 kJ/mol
# GULP energy per Si atom -5585.228026 kJ/mol
# Density = 2.830063 g / cm^3
# Si number density = 28.365191 Si / 1000 Ang^3
#
#
#
# Elastic Constant Matrix: (Units=GPa)
#
#
# Indices 1 2 3 4 5 6 
#
# 1 279.3581 32.2781 24.3838 0.0000 50.5882 0.0000
# 2 32.2781 55.5114 43.8540 0.0000 4.7446 0.0000
# 3 24.3838 43.8540 182.0348 0.0000 -23.7418 0.0000
# 4 0.0000 0.0000 0.0000 20.9707 0.0000 2.3260
# 5 50.5882 4.7446 -23.7418 0.0000 74.4788 0.0000
# 6 0.0000 0.0000 0.0000 2.3260 0.0000 27.5635
#
#
#
# Elastic Compliance Matrix: (Units=1/GPa)
#
#
# Indices 1 2 3 4 5 6 
#
# 1 0.004392 -0.001874 -0.000533 0.000000 -0.003034 0.000000
# 2 -0.001874 0.023834 -0.005763 0.000000 -0.002083 0.000000
# 3 -0.000533 -0.005763 0.007354 0.000000 0.003073 0.000000
# 4 0.000000 0.000000 0.000000 0.048136 0.000000 -0.004062
# 5 -0.003034 -0.002083 0.003073 0.000000 0.016599 0.000000
# 6 0.000000 0.000000 0.000000 -0.004062 0.000000 0.036623
#
#
# Mechanical properties :
#
#
# Convention : Reuss Voigt Hill
#
# Bulk Modulus (GPa) = 51.96878 79.77069 65.86973
# Shear Modulus (GPa) = 31.31065 52.36181 41.83623
#
# Velocity S-wave (km/s) = 3.32601 4.30116 3.84463
# Velocity P-wave (km/s) = 5.75421 7.26983 6.55596
#
# Compressibility (1/GPa) = 0.01924232
#
# Stress axis : x y z
#
# Youngs Moduli (GPa) = 227.68875 41.95639 135.98341
#
# Poissons Ratio (x) = 0.07862 0.07242
# Poissons Ratio (y) = 0.42664 0.78361
# Poissons Ratio (z) = 0.12125 0.24178
#
# Static dielectric constant tensor:
#      x y z
#    x 2.531100 0.000000 0.158190 
#    y 0.000000 1.783900 0.000000 
#    z 0.158190 0.000000 2.137460 
# 
# From -- ./inp_files/4491.got.cif
#   From: 2010.05.17/outbox.cif.g08.bks.cpg/sg14_3_cif.got.tgz:4491.got - 2010.06.03 17:49:19.
