data_PCOD9240662
_publ_section_title
;
Structure prediction by ZEFSAII (Michael W. Deem and Ramdas Pophale) SiO2 
 PCOD9240662
Probable space group: P 21/C
;
_chemical_formula_sum "Si O2"
_cell_formula_units_Z 24
_cell_length_a 9.925790
_cell_length_b 22.051311
_cell_length_c 5.511160
_cell_angle_alpha 90.000000
_cell_angle_beta 110.967444
_cell_angle_gamma 90.000000
_cell_volume 1126.390295
_symmetry_space_group_name_H-M "P 21/C"
_symmetry_group_IT_number 14
_symmetry_cell_setting 'monoclinic'
loop_
_space_group_symop_operation_xyz
x,y,z
-x,1/2+y,1/2-z
-x,-y,-z
x,1/2-y,1/2+z
loop_
_atom_site_type_symbol
_atom_site_label
_atom_site_fract_x
_atom_site_fract_y
_atom_site_fract_z
Si Si1 0.206151 0.601879 0.358250
Si Si2 0.537275 0.098992 0.646142
Si Si3 0.592027 0.730339 0.931286
Si Si4 0.648522 0.002374 0.343311
Si Si5 0.947833 0.968672 0.718977
Si Si6 0.264891 0.722015 0.166468
O O1 0.307306 0.619144 0.649008
O O2 0.035930 0.594301 0.284637
O O3 0.236719 0.650990 0.172199
O O4 0.269489 0.536705 0.318802
O O5 0.445602 0.159719 0.553514
O O6 0.454005 0.054181 0.779380
O O7 0.564271 0.055000 0.435672
O O8 0.664768 0.758001 0.217495
O O9 0.437144 0.764890 0.794132
O O10 0.775603 0.973645 0.593043
O O11 0.000000 0.000000 0.500000
O O12 0.000000 0.000000 0.000000
O O13 0.207064 0.751225 0.378827
#
# Coordination Sequence:
#
# PCOD9240662 Si02
#       6
#     4   4   4   4   4   4
#     4  11  20  34  58  78 112 147 183 230 275 329
#     4  11  20  33  57  81 113 142 183 234 276 326
#     4  10  19  33  51  78 105 139 180 227 272 316
#     4  10  22  35  51  86 114 145 182 223 284 334
#     4  10  21  37  55  76 110 144 177 212 271 330
#     4  10  19  31  53  80 104 133 187 232 268 308
#
# _framework density 21.307003000000002
#
# number of rings (size 3 to 8) (size 9 to 14) (size 15 to 20)
#    0.000    1.667    5.000    2.500    0.000    0.000 
#    0.000    0.000    0.000    2.000    0.000    0.000 
#    0.000    0.000    0.000    0.000    0.000    0.000 
#
# Total GULP energy -133735.187595 kJ/mol
# GULP energy per Si atom -5572.299483 kJ/mol
# Density = 2.125851 g / cm^3
# Si number density = 21.307003 Si / 1000 Ang^3
#
#
#
# Elastic Constant Matrix: (Units=GPa)
#
#
# Indices 1 2 3 4 5 6 
#
# 1 30.8446 23.5123 22.4081 0.0000 -2.3578 0.0000
# 2 23.5123 92.8507 11.0379 0.0000 -5.6913 0.0000
# 3 22.4081 11.0379 110.9847 0.0000 -16.0854 0.0000
# 4 0.0000 0.0000 0.0000 21.0574 0.0000 -7.4914
# 5 -2.3578 -5.6913 -16.0854 0.0000 36.5360 0.0000
# 6 0.0000 0.0000 0.0000 -7.4914 0.0000 20.4750
#
#
#
# Elastic Compliance Matrix: (Units=1/GPa)
#
#
# Indices 1 2 3 4 5 6 
#
# 1 0.046984 -0.011012 -0.008759 0.000000 -0.002540 0.000000
# 2 -0.011012 0.013538 0.001153 0.000000 0.001906 0.000000
# 3 -0.008759 0.001153 0.011331 0.000000 0.004603 0.000000
# 4 0.000000 0.000000 0.000000 0.054596 0.000000 0.019975
# 5 -0.002540 0.001906 0.004603 0.000000 0.029530 0.000000
# 6 0.000000 0.000000 0.000000 0.019975 0.000000 0.056149
#
#
# Mechanical properties :
#
#
# Convention : Reuss Voigt Hill
#
# Bulk Modulus (GPa) = 28.88706 38.73295 33.81000
# Shear Modulus (GPa) = 19.16424 27.46178 23.31301
#
# Velocity S-wave (km/s) = 3.00231 3.59397 3.31138
# Velocity P-wave (km/s) = 5.06018 5.95316 5.52474
#
# Compressibility (1/GPa) = 0.03461758
#
# Stress axis : x y z
#
# Youngs Moduli (GPa) = 21.28385 73.86477 88.25215
#
# Poissons Ratio (x) = 0.81340 0.77300
# Poissons Ratio (y) = 0.23438 -0.10177
# Poissons Ratio (z) = 0.18643 -0.08518
#
# Static dielectric constant tensor:
#      x y z
#    x 1.865940 0.000000 -0.044580 
#    y 0.000000 1.795750 0.000000 
#    z -0.044580 0.000000 1.864650 
# 
# From -- ./inp_files/1647.got.cif
#   From: 2010.05.17/outbox.cif.g08.bks.cpg/sg14_1_cif.got.tgz:1647.got - 2010.06.03 17:49:19.
