data_PCOD9240004
_publ_section_title
;
Structure prediction by ZEFSAII (Michael W. Deem and Ramdas Pophale) SiO2 
 PCOD9240004
Probable space group: P 21/C
;
_chemical_formula_sum "Si O2"
_cell_formula_units_Z 28
_cell_length_a 10.597803
_cell_length_b 8.992753
_cell_length_c 15.792880
_cell_angle_alpha 90.000000
_cell_angle_beta 131.693320
_cell_angle_gamma 90.000000
_cell_volume 1123.893464
_symmetry_space_group_name_H-M "P 21/C"
_symmetry_group_IT_number 14
_symmetry_cell_setting 'monoclinic'
loop_
_space_group_symop_operation_xyz
x,y,z
-x,1/2+y,1/2-z
-x,-y,-z
x,1/2-y,1/2+z
loop_
_atom_site_type_symbol
_atom_site_label
_atom_site_fract_x
_atom_site_fract_y
_atom_site_fract_z
Si Si1 0.789681 0.113505 0.831634
Si Si2 0.698985 0.312014 0.977005
Si Si3 0.117440 0.306646 0.551559
Si Si4 0.402578 0.084426 0.657667
Si Si5 0.235477 0.482132 0.437701
Si Si6 0.389248 0.200789 0.460484
Si Si7 0.887880 0.032266 0.698003
O O1 0.857816 0.944090 0.874228
O O2 0.815227 0.135759 0.742380
O O3 0.594577 0.109168 0.773176
O O4 0.917247 0.215930 0.944481
O O5 0.716054 0.136221 0.997739
O O6 0.859493 0.387931 0.095312
O O7 0.645434 0.410979 0.872040
O O8 0.542705 0.346951 0.970904
O O9 0.247730 0.175046 0.630811
O O10 0.173910 0.375557 0.486625
O O11 0.412253 0.147871 0.566634
O O12 0.370469 0.378233 0.451608
O O13 0.079860 0.503112 0.304871
O O14 0.220814 0.118666 0.353346
#
# Coordination Sequence:
#
# PCOD9240004 Si02
#       7
#     4   4   4   4   4   4   4
#     4  10  18  38  59  78 112 147 190 234 281 332
#     4  11  19  33  56  83 112 144 182 232 284 338
#     4   9  22  36  58  83 105 152 194 226 275 343
#     4  10  19  36  60  80 109 147 188 228 283 338
#     4  10  21  32  52  82 117 140 186 236 272 332
#     4  10  18  34  52  82 109 146 186 221 285 336
#     4  10  18  34  55  76 106 155 183 225 286 334
#
# _framework density 24.913395000000001
#
# number of rings (size 3 to 8) (size 9 to 14) (size 15 to 20)
#    0.000    2.000    2.857    2.143    0.000    2.286 
#    0.000    0.000    0.000    8.571    0.000    0.000 
#    0.000    0.000    0.000    0.000    0.000    0.000 
#
# Total GULP energy -156470.072841 kJ/mol
# GULP energy per Si atom -5588.216887 kJ/mol
# Density = 2.485669 g / cm^3
# Si number density = 24.913395 Si / 1000 Ang^3
#
#
#
# Elastic Constant Matrix: (Units=GPa)
#
#
# Indices 1 2 3 4 5 6 
#
# 1 20.9943 11.7511 15.5310 0.0000 14.7763 0.0000
# 2 11.7511 133.5535 56.6148 0.0000 28.8207 0.0000
# 3 15.5310 56.6148 135.5436 0.0000 15.1019 0.0000
# 4 0.0000 0.0000 0.0000 29.3778 0.0000 12.3572
# 5 14.7763 28.8207 15.1019 0.0000 33.7664 0.0000
# 6 0.0000 0.0000 0.0000 12.3572 0.0000 34.8241
#
#
#
# Elastic Compliance Matrix: (Units=1/GPa)
#
#
# Indices 1 2 3 4 5 6 
#
# 1 0.072731 0.003006 -0.006059 0.000000 -0.031684 0.000000
# 2 0.003006 0.010750 -0.003858 0.000000 -0.008766 0.000000
# 3 -0.006059 -0.003858 0.009494 0.000000 0.001698 0.000000
# 4 0.000000 0.000000 0.000000 0.040011 0.000000 -0.014198
# 5 -0.031684 -0.008766 0.001698 0.000000 0.050203 0.000000
# 6 0.000000 0.000000 0.000000 -0.014198 0.000000 0.033754
#
#
# Mechanical properties :
#
#
# Convention : Reuss Voigt Hill
#
# Bulk Modulus (GPa) = 12.63362 50.87615 31.75488
# Shear Modulus (GPa) = 19.44387 33.33995 26.39191
#
# Velocity S-wave (km/s) = 2.79670 3.66216 3.25829
# Velocity P-wave (km/s) = 3.93837 6.19253 5.18932
#
# Compressibility (1/GPa) = 0.07915389
#
# Stress axis : x y z
#
# Youngs Moduli (GPa) = 13.74920 93.02135 105.32706
#
# Poissons Ratio (x) = -0.27966 0.63822
# Poissons Ratio (y) = -0.04134 0.40636
# Poissons Ratio (z) = 0.08331 0.35888
#
# Static dielectric constant tensor:
#      x y z
#    x 2.084940 0.000000 0.007900 
#    y 0.000000 2.005240 0.000000 
#    z 0.007900 0.000000 2.004070 
# 
# From -- ./inp_files/73660.got.cif
#   From: 2010.05.17/outbox.cif.g08.bks.cpg/sg14_37_cif.got.tgz:73660.got - 2010.06.03 17:49:19.
