data_PCOD9240152
_publ_section_title
;
Structure prediction by ZEFSAII (Michael W. Deem and Ramdas Pophale) SiO2 
 PCOD9240152
Probable space group: P 21/C
;
_chemical_formula_sum "Si O2"
_cell_formula_units_Z 28
_cell_length_a 10.518850
_cell_length_b 14.987254
_cell_length_c 11.446622
_cell_angle_alpha 90.000000
_cell_angle_beta 127.207829
_cell_angle_gamma 90.000000
_cell_volume 1437.224837
_symmetry_space_group_name_H-M "P 21/C"
_symmetry_group_IT_number 14
_symmetry_cell_setting 'monoclinic'
loop_
_space_group_symop_operation_xyz
x,y,z
-x,1/2+y,1/2-z
-x,-y,-z
x,1/2-y,1/2+z
loop_
_atom_site_type_symbol
_atom_site_label
_atom_site_fract_x
_atom_site_fract_y
_atom_site_fract_z
Si Si1 0.015985 0.102308 0.648170
Si Si2 0.815314 0.530284 0.381718
Si Si3 0.440143 0.532113 0.593949
Si Si4 0.247272 0.544620 0.177223
Si Si5 0.020176 0.300727 0.593114
Si Si6 0.822528 0.360437 0.259930
Si Si7 0.734423 0.314962 0.608099
O O1 0.072006 0.198521 0.632821
O O2 0.854733 0.075480 0.489716
O O3 0.966938 0.113128 0.754412
O O4 0.141934 0.026303 0.690775
O O5 0.713532 0.520543 0.442862
O O6 0.836525 0.629005 0.342728
O O7 0.744914 0.452633 0.259341
O O8 0.000000 0.500000 0.500000
O O9 0.500000 0.500000 0.500000
O O10 0.587218 0.504924 0.757716
O O11 0.387881 0.634938 0.547028
O O12 0.271819 0.628585 0.276266
O O13 0.902540 0.312573 0.416439
O O14 0.908358 0.322255 0.643026
O O15 0.715947 0.288519 0.131534
#
# Coordination Sequence:
#
# PCOD9240152 Si02
#       7
#     4   4   4   4   4   4   4
#     4  10  21  36  56  86 115 160 190 242 298 348
#     4  10  19  36  61  86 112 153 202 242 285 352
#     4  10  21  35  59  87 116 153 196 245 292 347
#     4  10  21  37  55  82 122 153 192 239 298 354
#     4  10  19  34  58  87 111 151 207 239 282 352
#     4  10  19  32  61  83 114 147 203 235 286 350
#     4  10  18  35  57  85 112 152 196 238 289 345
#
# _framework density 19.481988000000001
#
# number of rings (size 3 to 8) (size 9 to 14) (size 15 to 20)
#    0.000    2.000    4.286    0.857    6.000    0.000 
#    0.000    6.429    0.000    0.000    0.000    0.000 
#    0.000    0.000    0.000    0.000    0.000    0.000 
#
# Total GULP energy -156009.366555 kJ/mol
# GULP energy per Si atom -5571.763091 kJ/mol
# Density = 1.943765 g / cm^3
# Si number density = 19.481988 Si / 1000 Ang^3
#
#
#
# Elastic Constant Matrix: (Units=GPa)
#
#
# Indices 1 2 3 4 5 6 
#
# 1 85.6647 26.0179 18.8811 0.0000 -2.7958 0.0000
# 2 26.0179 127.9236 15.6463 0.0000 3.7626 0.0000
# 3 18.8811 15.6463 33.3795 0.0000 6.7807 0.0000
# 4 0.0000 0.0000 0.0000 29.0310 0.0000 -3.6605
# 5 -2.7958 3.7626 6.7807 0.0000 25.2082 0.0000
# 6 0.0000 0.0000 0.0000 -3.6605 0.0000 20.9771
#
#
#
# Elastic Compliance Matrix: (Units=1/GPa)
#
#
# Indices 1 2 3 4 5 6 
#
# 1 0.014155 -0.002034 -0.007863 0.000000 0.003989 0.000000
# 2 -0.002034 0.008586 -0.002716 0.000000 -0.000777 0.000000
# 3 -0.007863 -0.002716 0.037842 0.000000 -0.010646 0.000000
# 4 0.000000 0.000000 0.000000 0.035221 0.000000 0.006146
# 5 0.003989 -0.000777 -0.010646 0.000000 0.043092 0.000000
# 6 0.000000 0.000000 0.000000 0.006146 0.000000 0.048743
#
#
# Mechanical properties :
#
#
# Convention : Reuss Voigt Hill
#
# Bulk Modulus (GPa) = 28.28431 40.89537 34.58984
# Shear Modulus (GPa) = 22.25674 27.47143 24.86408
#
# Velocity S-wave (km/s) = 3.38365 3.75920 3.57635
# Velocity P-wave (km/s) = 5.46032 6.31498 5.90314
#
# Compressibility (1/GPa) = 0.03535529
#
# Stress axis : x y z
#
# Youngs Moduli (GPa) = 70.64847 116.46898 26.42563
#
# Poissons Ratio (x) = 0.23695 0.20779
# Poissons Ratio (y) = 0.14373 0.07177
# Poissons Ratio (z) = 0.55552 0.31634
#
# Static dielectric constant tensor:
#      x y z
#    x 1.679680 0.000000 -0.000990 
#    y 0.000000 1.725310 0.000000 
#    z -0.000990 0.000000 1.721770 
# 
# From -- ./inp_files/25599.got.cif
#   From: 2010.05.17/outbox.cif.g08.bks.cpg/sg14_13_cif.got.tgz:25599.got - 2010.06.03 17:49:19.
