data_PCOD9240095
_publ_section_title
;
Structure prediction by ZEFSAII (Michael W. Deem and Ramdas Pophale) SiO2 
 PCOD9240095
Probable space group: P 21/C
;
_chemical_formula_sum "Si O2"
_cell_formula_units_Z 32
_cell_length_a 9.020027
_cell_length_b 14.714053
_cell_length_c 11.692071
_cell_angle_alpha 90.000000
_cell_angle_beta 55.963762
_cell_angle_gamma 90.000000
_cell_volume 1285.939128
_symmetry_space_group_name_H-M "P 21/C"
_symmetry_group_IT_number 14
_symmetry_cell_setting 'monoclinic'
loop_
_space_group_symop_operation_xyz
x,y,z
-x,1/2+y,1/2-z
-x,-y,-z
x,1/2-y,1/2+z
loop_
_atom_site_type_symbol
_atom_site_label
_atom_site_fract_x
_atom_site_fract_y
_atom_site_fract_z
Si Si1 0.398989 0.889623 0.708714
Si Si2 0.079905 0.189105 0.385988
Si Si3 0.592029 0.362320 0.420237
Si Si4 0.723851 0.987757 0.036987
Si Si5 0.741291 0.138300 0.619861
Si Si6 0.779102 0.552659 0.988777
Si Si7 0.954266 0.430083 0.736991
Si Si8 0.441214 0.257374 0.177722
O O1 0.571045 0.922879 0.564061
O O2 0.221648 0.869566 0.712378
O O3 0.476885 0.812723 0.761525
O O4 0.323839 0.971249 0.820313
O O5 0.137119 0.135516 0.476331
O O6 0.230525 0.261530 0.291089
O O7 0.874258 0.209692 0.501213
O O8 0.075504 0.120578 0.279982
O O9 0.428093 0.416652 0.433724
O O10 0.693209 0.428363 0.463365
O O11 0.726446 0.342420 0.259571
O O12 0.498268 0.282422 0.531103
O O13 0.918545 0.947685 0.925706
O O14 0.546439 0.151328 0.651333
O O15 0.794900 0.035869 0.565256
O O16 0.879036 0.520798 0.831468
#
# Coordination Sequence:
#
# PCOD9240095 Si02
#       8
#     4   4   4   4   4   4   4   4
#     4  10  21  36  56  88 124 150 198 259 303 349
#     4  10  21  40  63  87 119 163 209 242 303 375
#     4  10  19  37  61  83 116 160 198 248 301 368
#     4  10  18  34  60  88 114 153 206 247 303 361
#     4  11  21  37  62  91 116 157 207 254 296 365
#     4  10  20  37  62  88 118 157 205 253 300 366
#     4  11  19  32  59  90 118 151 194 256 306 346
#     4  10  23  41  57  86 121 161 198 243 308 367
#
# _framework density 24.884536000000001
#
# number of rings (size 3 to 8) (size 9 to 14) (size 15 to 20)
#    0.000    1.750    2.500    3.750    0.000    2.000 
#    2.250    2.500    0.000    1.500    0.000    0.000 
#    0.000    0.000    0.000    0.000    0.000    0.000 
#
# Total GULP energy -179024.730333 kJ/mol
# GULP energy per Si atom -5594.522823 kJ/mol
# Density = 2.482790 g / cm^3
# Si number density = 24.884536 Si / 1000 Ang^3
#
#
#
# Elastic Constant Matrix: (Units=GPa)
#
#
# Indices 1 2 3 4 5 6 
#
# 1 74.0600 2.3754 11.4154 0.0000 -20.1640 0.0000
# 2 2.3754 24.1562 11.3730 0.0000 -3.6054 0.0000
# 3 11.4154 11.3730 96.4963 0.0000 -19.8905 0.0000
# 4 0.0000 0.0000 0.0000 12.1804 0.0000 -7.7274
# 5 -20.1640 -3.6054 -19.8905 0.0000 49.2879 0.0000
# 6 0.0000 0.0000 0.0000 -7.7274 0.0000 22.6398
#
#
#
# Elastic Compliance Matrix: (Units=1/GPa)
#
#
# Indices 1 2 3 4 5 6 
#
# 1 0.015226 -0.000356 -0.000524 0.000000 0.005991 0.000000
# 2 -0.000356 0.043905 -0.004909 0.000000 0.001085 0.000000
# 3 -0.000524 -0.004909 0.011873 0.000000 0.004218 0.000000
# 4 0.000000 0.000000 0.000000 0.104790 0.000000 0.035767
# 5 0.005991 0.001085 0.004218 0.000000 0.024522 0.000000
# 6 0.000000 0.000000 0.000000 0.035767 0.000000 0.056378
#
#
# Mechanical properties :
#
#
# Convention : Reuss Voigt Hill
#
# Bulk Modulus (GPa) = 16.82767 27.22668 22.02717
# Shear Modulus (GPa) = 17.35622 28.12486 22.74054
#
# Velocity S-wave (km/s) = 2.64383 3.36551 3.02626
# Velocity P-wave (km/s) = 4.01208 5.10560 4.59151
#
# Compressibility (1/GPa) = 0.05942594
#
# Stress axis : x y z
#
# Youngs Moduli (GPa) = 65.67685 22.77624 84.22396
#
# Poissons Ratio (x) = 0.00811 0.04415
# Poissons Ratio (y) = 0.02339 0.41345
# Poissons Ratio (z) = 0.03443 0.11181
#
# Static dielectric constant tensor:
#      x y z
#    x 1.995380 0.000000 0.007660 
#    y 0.000000 1.978290 0.000000 
#    z 0.007660 0.000000 1.971540 
# 
# From -- ./inp_files/26645.got.cif
#   From: 2010.05.17/outbox.cif.g08.bks.cpg/sg14_14_cif.got.tgz:26645.got - 2010.06.03 17:49:19.
