data_PCOD9240457
_publ_section_title
;
Structure prediction by ZEFSAII (Michael W. Deem and Ramdas Pophale) SiO2 
 PCOD9240457
Probable space group: P 21/C
;
_chemical_formula_sum "Si O2"
_cell_formula_units_Z 32
_cell_length_a 9.491861
_cell_length_b 19.367904
_cell_length_c 12.239722
_cell_angle_alpha 90.000000
_cell_angle_beta 34.247183
_cell_angle_gamma 90.000000
_cell_volume 1266.286791
_symmetry_space_group_name_H-M "P 21/C"
_symmetry_group_IT_number 14
_symmetry_cell_setting 'monoclinic'
loop_
_space_group_symop_operation_xyz
x,y,z
-x,1/2+y,1/2-z
-x,-y,-z
x,1/2-y,1/2+z
loop_
_atom_site_type_symbol
_atom_site_label
_atom_site_fract_x
_atom_site_fract_y
_atom_site_fract_z
Si Si1 0.137554 0.377586 0.013428
Si Si2 0.086084 0.620377 0.145410
Si Si3 0.217933 0.252212 0.097260
Si Si4 0.113699 0.154479 0.880898
Si Si5 0.632593 0.356759 0.591860
Si Si6 0.565090 0.577907 0.960770
Si Si7 0.570861 0.210892 0.706553
Si Si8 0.784979 0.024227 0.826510
O O1 0.081151 0.299904 0.091579
O O2 0.341615 0.376408 0.787231
O O3 0.310674 0.403270 0.004434
O O4 0.916930 0.432362 0.145377
O O5 0.322004 0.618948 0.076555
O O6 0.890731 0.677612 0.307823
O O7 0.956526 0.544604 0.230357
O O8 0.215548 0.654177 0.952548
O O9 0.502518 0.242371 0.869225
O O10 0.174774 0.295385 0.237161
O O11 0.231114 0.083885 0.765661
O O12 0.297601 0.179871 0.855306
O O13 0.819651 0.143508 0.077045
O O14 0.621152 0.273317 0.587943
O O15 0.762202 0.412291 0.429552
O O16 0.500000 0.500000 0.000000
O O17 0.500000 0.000000 0.000000
#
# Coordination Sequence:
#
# PCOD9240457 Si02
#       8
#     4   4   4   4   4   4   4   4
#     4  10  22  43  65  94 126 171 216 263 329 393
#     4  11  22  40  63  96 132 161 219 276 323 388
#     4  10  21  42  64  97 131 165 217 265 325 399
#     4  10  20  39  65  95 129 167 212 271 328 380
#     4  11  22  43  65  91 133 170 220 265 324 402
#     4  10  18  38  65  89 127 162 201 270 323 379
#     4  10  23  39  67  97 131 170 216 274 332 388
#     4  12  26  43  65  88 133 179 216 267 330 396
#
# _framework density 25.270737
#
# number of rings (size 3 to 8) (size 9 to 14) (size 15 to 20)
#    0.000    1.500    5.000    0.000    3.500    1.500 
#    2.250    2.500    0.000    0.000    0.000    0.000 
#    0.000    0.000    0.000    0.000    0.000    0.000 
#
# Total GULP energy -178338.526094 kJ/mol
# GULP energy per Si atom -5573.078940 kJ/mol
# Density = 2.521322 g / cm^3
# Si number density = 25.270737 Si / 1000 Ang^3
#
#
#
# Elastic Constant Matrix: (Units=GPa)
#
#
# Indices 1 2 3 4 5 6 
#
# 1 26.2665 11.4172 37.2662 0.0000 -13.0068 0.0000
# 2 11.4172 154.3299 70.4982 0.0000 -8.2853 0.0000
# 3 37.2662 70.4982 156.3345 0.0000 -19.5743 0.0000
# 4 0.0000 0.0000 0.0000 61.7279 0.0000 -13.2714
# 5 -13.0068 -8.2853 -19.5743 0.0000 38.6419 0.0000
# 6 0.0000 0.0000 0.0000 -13.2714 0.0000 22.5407
#
#
#
# Elastic Compliance Matrix: (Units=1/GPa)
#
#
# Indices 1 2 3 4 5 6 
#
# 1 0.065639 0.002819 -0.015029 0.000000 0.015085 0.000000
# 2 0.002819 0.008282 -0.004341 0.000000 0.000526 0.000000
# 3 -0.015029 -0.004341 0.011944 0.000000 0.000061 0.000000
# 4 0.000000 0.000000 0.000000 0.018548 0.000000 0.010921
# 5 0.015085 0.000526 0.000061 0.000000 0.031100 0.000000
# 6 0.000000 0.000000 0.000000 0.010921 0.000000 0.050794
#
#
# Mechanical properties :
#
#
# Convention : Reuss Voigt Hill
#
# Bulk Modulus (GPa) = 18.95241 63.92156 41.43699
# Shear Modulus (GPa) = 21.09725 39.09871 30.09798
#
# Velocity S-wave (km/s) = 2.89251 3.93771 3.45486
# Velocity P-wave (km/s) = 4.32105 6.78407 5.68749
#
# Compressibility (1/GPa) = 0.05276373
#
# Stress axis : x y z
#
# Youngs Moduli (GPa) = 15.23482 120.73948 83.72155
#
# Poissons Ratio (x) = -0.34041 1.25828
# Poissons Ratio (y) = -0.04295 0.36344
# Poissons Ratio (z) = 0.22897 0.52414
#
# Static dielectric constant tensor:
#      x y z
#    x 2.145230 0.000000 -0.004450 
#    y 0.000000 2.022540 0.000000 
#    z -0.004450 0.000000 2.191660 
# 
# From -- ./inp_files/45424.got.cif
#   From: 2010.05.17/outbox.cif.g08.bks.cpg/sg14_23_cif.got.tgz:45424.got - 2010.06.03 17:49:19.
