data_PCOD9240143
_publ_section_title
;
Structure prediction by ZEFSAII (Michael W. Deem and Ramdas Pophale) SiO2 
 PCOD9240143
Probable space group: P 21/C
;
_chemical_formula_sum "Si O2"
_cell_formula_units_Z 28
_cell_length_a 8.090702
_cell_length_b 16.930494
_cell_length_c 14.317720
_cell_angle_alpha 90.000000
_cell_angle_beta 37.642415
_cell_angle_gamma 90.000000
_cell_volume 1197.788202
_symmetry_space_group_name_H-M "P 21/C"
_symmetry_group_IT_number 14
_symmetry_cell_setting 'monoclinic'
loop_
_space_group_symop_operation_xyz
x,y,z
-x,1/2+y,1/2-z
-x,-y,-z
x,1/2-y,1/2+z
loop_
_atom_site_type_symbol
_atom_site_label
_atom_site_fract_x
_atom_site_fract_y
_atom_site_fract_z
Si Si1 0.738635 0.553270 0.519925
Si Si2 0.097803 0.120406 0.472185
Si Si3 0.989616 0.203492 0.025202
Si Si4 0.459359 0.179617 0.156886
Si Si5 0.221914 0.577175 0.631037
Si Si6 0.440158 0.974324 0.335208
Si Si7 0.733863 0.839328 0.300470
O O1 0.898466 0.634624 0.459795
O O2 0.434225 0.563789 0.616812
O O3 0.880191 0.500761 0.376976
O O4 0.677821 0.517413 0.650327
O O5 0.065714 0.209036 0.524306
O O6 0.200582 0.139821 0.320340
O O7 0.815253 0.074399 0.592581
O O8 0.319103 0.059772 0.414680
O O9 0.670557 0.201299 0.145072
O O10 0.131875 0.183326 0.861159
O O11 0.600518 0.116266 0.029585
O O12 0.414203 0.257440 0.114496
O O13 0.972723 0.634241 0.761529
O O14 0.548588 0.915346 0.365765
#
# Coordination Sequence:
#
# PCOD9240143 Si02
#       7
#     4   4   4   4   4   4   4
#     4  10  21  38  57  84 111 147 185 233 270 334
#     4  10  19  32  55  85 109 139 174 235 280 319
#     4   9  19  33  56  82 108 137 189 232 269 320
#     4  10  18  35  56  83 108 142 183 228 277 329
#     4  10  21  37  58  79 114 150 185 221 282 332
#     4  10  19  34  58  81 110 141 184 228 280 322
#     4   9  19  33  56  81 106 143 186 230 266 327
#
# _framework density 23.376418999999999
#
# number of rings (size 3 to 8) (size 9 to 14) (size 15 to 20)
#    0.000    2.286    2.857    0.000    2.000    1.714 
#    2.571    0.000    0.000    5.143    0.000    0.000 
#    0.000    0.000    0.000    0.000    0.000    0.000 
#
# Total GULP energy -156316.313307 kJ/mol
# GULP energy per Si atom -5582.725475 kJ/mol
# Density = 2.332321 g / cm^3
# Si number density = 23.376419 Si / 1000 Ang^3
#
#
#
# Elastic Constant Matrix: (Units=GPa)
#
#
# Indices 1 2 3 4 5 6 
#
# 1 28.1444 25.5810 1.8341 0.0000 -4.9899 0.0000
# 2 25.5810 139.5363 25.3686 0.0000 -10.8248 0.0000
# 3 1.8341 25.3686 57.9601 0.0000 -6.4594 0.0000
# 4 0.0000 0.0000 0.0000 22.3534 0.0000 -12.0901
# 5 -4.9899 -10.8248 -6.4594 0.0000 22.9827 0.0000
# 6 0.0000 0.0000 0.0000 -12.0901 0.0000 20.6517
#
#
#
# Elastic Compliance Matrix: (Units=1/GPa)
#
#
# Indices 1 2 3 4 5 6 
#
# 1 0.043816 -0.008047 0.002863 0.000000 0.006528 0.000000
# 2 -0.008047 0.009442 -0.003693 0.000000 0.001662 0.000000
# 3 0.002863 -0.003693 0.019258 0.000000 0.004295 0.000000
# 4 0.000000 0.000000 0.000000 0.065464 0.000000 0.038325
# 5 0.006528 0.001662 0.004295 0.000000 0.046918 0.000000
# 6 0.000000 0.000000 0.000000 0.038325 0.000000 0.070859
#
#
# Mechanical properties :
#
#
# Convention : Reuss Voigt Hill
#
# Bulk Modulus (GPa) = 18.26077 36.80090 27.53083
# Shear Modulus (GPa) = 17.13714 24.72136 20.92925
#
# Velocity S-wave (km/s) = 2.71051 3.25550 2.99543
# Velocity P-wave (km/s) = 4.19814 5.46882 4.87506
#
# Compressibility (1/GPa) = 0.05476219
#
# Stress axis : x y z
#
# Youngs Moduli (GPa) = 22.82283 105.90828 51.92752
#
# Poissons Ratio (x) = 0.85222 -0.14867
# Poissons Ratio (y) = 0.18365 0.19176
# Poissons Ratio (z) = -0.06534 0.39110
#
# Static dielectric constant tensor:
#      x y z
#    x 1.915230 0.000000 -0.017030 
#    y 0.000000 1.920840 0.000000 
#    z -0.017030 0.000000 1.918370 
# 
# From -- ./inp_files/25828.got.cif
#   From: 2010.05.17/outbox.cif.g08.bks.cpg/sg14_13_cif.got.tgz:25828.got - 2010.06.03 17:49:19.
