data_PCOD9240613
_publ_section_title
;
Structure prediction by ZEFSAII (Michael W. Deem and Ramdas Pophale) SiO2 
 PCOD9240613
Probable space group: P 21/C
;
_chemical_formula_sum "Si O2"
_cell_formula_units_Z 30
_cell_length_a 19.878924
_cell_length_b 5.050840
_cell_length_c 27.435601
_cell_angle_alpha 90.000000
_cell_angle_beta 33.824924
_cell_angle_gamma 90.000000
_cell_volume 1533.411349
_symmetry_space_group_name_H-M "P 21/C"
_symmetry_group_IT_number 14
_symmetry_cell_setting 'monoclinic'
loop_
_space_group_symop_operation_xyz
x,y,z
-x,1/2+y,1/2-z
-x,-y,-z
x,1/2-y,1/2+z
loop_
_atom_site_type_symbol
_atom_site_label
_atom_site_fract_x
_atom_site_fract_y
_atom_site_fract_z
Si Si1 0.351180 0.297673 0.441616
Si Si2 0.384830 0.418108 0.712170
Si Si3 0.413619 0.116662 0.301109
Si Si4 0.135897 0.512677 0.203792
Si Si5 0.482219 0.554233 0.932488
Si Si6 0.139555 0.491113 0.632364
Si Si7 0.500000 0.500000 0.500000
Si Si8 0.319372 0.689802 0.658999
O O1 0.479919 0.453768 0.365525
O O2 0.238959 0.453388 0.530790
O O3 0.339392 0.195902 0.393604
O O4 0.375822 0.057724 0.464070
O O5 0.342516 0.395674 0.792898
O O6 0.412124 0.141787 0.668637
O O7 0.306075 0.590514 0.722008
O O8 0.482728 0.840543 0.268263
O O9 0.150996 0.234851 0.167144
O O10 0.225737 0.611641 0.192343
O O11 0.997309 0.528684 0.305369
O O12 0.149807 0.731196 0.153268
O O13 0.539264 0.308867 0.929608
O O14 0.450698 0.799952 0.984448
O O15 0.356245 0.439757 0.604126
#
# Coordination Sequence:
#
# PCOD9240613 Si02
#       8
#     4   4   4   4   4   4   2   4
#     4  10  20  33  55  75 110 139 180 221 266 316
#     4   9  20  33  49  80 108 134 177 211 275 323
#     4  10  19  34  53  78 110 141 171 218 272 320
#     4  10  23  39  54  75 108 142 186 220 261 308
#     4  10  19  31  45  78 104 141 167 212 262 328
#     4  10  23  38  55  78 102 144 185 224 256 310
#     4  10  20  28  44  76 106 132 178 200 266 314
#     4  10  21  31  50  71 106 144 168 220 263 325
#
# _framework density 19.564219999999999
#
# number of rings (size 3 to 8) (size 9 to 14) (size 15 to 20)
#    0.000    2.133    1.333    1.200   11.200    0.000 
#    0.000    0.000    0.000    0.800    0.000    0.933 
#    0.000    0.000    0.000    0.000    0.000    0.000 
#
# Total GULP energy -167043.839761 kJ/mol
# GULP energy per Si atom -5568.127992 kJ/mol
# Density = 1.951969 g / cm^3
# Si number density = 19.564220 Si / 1000 Ang^3
#
#
#
# Elastic Constant Matrix: (Units=GPa)
#
#
# Indices 1 2 3 4 5 6 
#
# 1 94.7674 8.0066 41.5628 0.0000 18.7952 0.0000
# 2 8.0066 67.3474 4.1343 0.0000 -3.1096 0.0000
# 3 41.5628 4.1343 72.7240 0.0000 8.2409 0.0000
# 4 0.0000 0.0000 0.0000 18.4599 0.0000 1.9663
# 5 18.7952 -3.1096 8.2409 0.0000 30.1700 0.0000
# 6 0.0000 0.0000 0.0000 1.9663 0.0000 24.5124
#
#
#
# Elastic Compliance Matrix: (Units=1/GPa)
#
#
# Indices 1 2 3 4 5 6 
#
# 1 0.015770 -0.001743 -0.008028 0.000000 -0.007811 0.000000
# 2 -0.001743 0.015191 -0.000173 0.000000 0.002699 0.000000
# 3 -0.008028 -0.000173 0.018352 0.000000 -0.000029 0.000000
# 4 0.000000 0.000000 0.000000 0.054638 0.000000 -0.004383
# 5 -0.007811 0.002699 -0.000029 0.000000 0.038298 0.000000
# 6 0.000000 0.000000 0.000000 -0.004383 0.000000 0.041147
#
#
# Mechanical properties :
#
#
# Convention : Reuss Voigt Hill
#
# Bulk Modulus (GPa) = 33.98630 38.02737 36.00683
# Shear Modulus (GPa) = 23.46403 26.70414 25.08409
#
# Velocity S-wave (km/s) = 3.46690 3.69853 3.58458
# Velocity P-wave (km/s) = 5.78232 6.14152 5.96462
#
# Compressibility (1/GPa) = 0.02942362
#
# Stress axis : x y z
#
# Youngs Moduli (GPa) = 63.41342 65.82934 54.48958
#
# Poissons Ratio (x) = 0.11471 0.43746
# Poissons Ratio (y) = 0.11050 0.00945
# Poissons Ratio (z) = 0.50911 0.01142
#
# Static dielectric constant tensor:
#      x y z
#    x 0.905470 0.000000 -0.968720 
#    y 0.000000 -0.052560 0.000000 
#    z -0.968720 0.000000 0.590460 
# 
# From -- ./inp_files/74461.got.cif
#   From: 2010.05.17/outbox.cif.g08.bks.cpg/sg14_38_cif.got.tgz:74461.got - 2010.06.03 17:49:19.
