data_PCOD9240009
_publ_section_title
;
Structure prediction by ZEFSAII (Michael W. Deem and Ramdas Pophale) SiO2 
 PCOD9240009
Probable space group: P 21/C
;
_chemical_formula_sum "Si O2"
_cell_formula_units_Z 32
_cell_length_a 16.279844
_cell_length_b 21.505428
_cell_length_c 5.067424
_cell_angle_alpha 90.000000
_cell_angle_beta 81.744390
_cell_angle_gamma 90.000000
_cell_volume 1755.745820
_symmetry_space_group_name_H-M "P 21/C"
_symmetry_group_IT_number 14
_symmetry_cell_setting 'monoclinic'
loop_
_space_group_symop_operation_xyz
x,y,z
-x,1/2+y,1/2-z
-x,-y,-z
x,1/2-y,1/2+z
loop_
_atom_site_type_symbol
_atom_site_label
_atom_site_fract_x
_atom_site_fract_y
_atom_site_fract_z
Si Si1 0.363865 0.903092 0.761871
Si Si2 0.980970 0.912790 0.303800
Si Si3 0.978690 0.707216 0.096823
Si Si4 0.526896 0.959508 0.736948
Si Si5 0.741194 0.211465 0.991129
Si Si6 0.130278 0.522721 0.056480
Si Si7 0.688376 0.018647 0.717176
Si Si8 0.105291 0.644882 0.348580
O O1 0.464122 0.901787 0.750748
O O2 0.323150 0.839159 0.870497
O O3 0.339758 0.928306 0.482590
O O4 0.328563 0.954084 0.985499
O O5 0.945427 0.860342 0.519789
O O6 0.058908 0.949641 0.396937
O O7 0.911964 0.964435 0.277662
O O8 0.022384 0.876275 0.041942
O O9 0.959251 0.745551 0.369432
O O10 0.074394 0.686746 0.117551
O O11 0.500000 0.000000 0.500000
O O12 0.626611 0.960113 0.698183
O O13 0.500000 0.000000 0.000000
O O14 0.732004 0.270200 0.191498
O O15 0.831598 0.182162 0.001712
O O16 0.147596 0.581362 0.236193
O O17 0.215154 0.505442 0.873854
#
# Coordination Sequence:
#
# PCOD9240009 Si02
#       8
#     4   4   4   4   4   4   4   4
#     4  10  19  35  51  76 109 138 168 212 259 309
#     4  10  22  36  52  78 104 147 180 225 274 328
#     4  11  21  36  54  71  94 130 181 227 265 309
#     4   8  16  29  53  76  99 128 163 198 253 312
#     4  12  25  33  50  77 108 143 183 212 253 319
#     4  10  21  34  53  79 109 143 177 225 278 323
#     4  10  18  34  54  78 102 138 170 214 266 315
#     4  11  21  35  53  70 107 143 183 217 265 316
#
# _framework density 18.225873
#
# number of rings (size 3 to 8) (size 9 to 14) (size 15 to 20)
#    0.000    1.750    2.500    2.625    3.500    0.000 
#    0.000    0.000    0.000    0.000    0.000    1.750 
#    0.000    0.000    0.000    0.000    0.000    0.000 
#
# Total GULP energy -178313.429807 kJ/mol
# GULP energy per Si atom -5572.294681 kJ/mol
# Density = 1.818439 g / cm^3
# Si number density = 18.225873 Si / 1000 Ang^3
#
#
#
# Elastic Constant Matrix: (Units=GPa)
#
#
# Indices 1 2 3 4 5 6 
#
# 1 46.2755 20.8839 1.2567 0.0000 -14.0619 0.0000
# 2 20.8839 46.8877 1.8429 0.0000 -8.8618 0.0000
# 3 1.2567 1.8429 74.6322 0.0000 7.2366 0.0000
# 4 0.0000 0.0000 0.0000 23.7962 0.0000 -4.3459
# 5 -14.0619 -8.8618 7.2366 0.0000 25.5128 0.0000
# 6 0.0000 0.0000 0.0000 -4.3459 0.0000 25.2567
#
#
#
# Elastic Compliance Matrix: (Units=1/GPa)
#
#
# Indices 1 2 3 4 5 6 
#
# 1 0.030772 -0.011083 -0.001559 0.000000 0.013553 0.000000
# 2 -0.011083 0.026955 -0.000817 0.000000 0.003486 0.000000
# 3 -0.001559 -0.000817 0.013940 0.000000 -0.005097 0.000000
# 4 0.000000 0.000000 0.000000 0.043387 0.000000 0.007465
# 5 0.013553 0.003486 -0.005097 0.000000 0.049323 0.000000
# 6 0.000000 0.000000 0.000000 0.007465 0.000000 0.040878
#
#
# Mechanical properties :
#
#
# Convention : Reuss Voigt Hill
#
# Bulk Modulus (GPa) = 22.34676 23.97360 23.16018
# Shear Modulus (GPa) = 20.23566 24.50059 22.36813
#
# Velocity S-wave (km/s) = 3.33569 3.67041 3.50705
# Velocity P-wave (km/s) = 5.20801 5.58075 5.39760
#
# Compressibility (1/GPa) = 0.04474921
#
# Stress axis : x y z
#
# Youngs Moduli (GPa) = 32.49684 37.09889 71.73775
#
# Poissons Ratio (x) = 0.41118 0.11181
# Poissons Ratio (y) = 0.36017 0.05861
# Poissons Ratio (z) = 0.05065 0.03031
#
# Static dielectric constant tensor:
#      x y z
#    x 1.660680 0.000000 0.004860 
#    y 0.000000 1.664600 0.000000 
#    z 0.004860 0.000000 1.685810 
# 
# From -- ./inp_files/3960.got.cif
#   From: 2010.05.17/outbox.cif.g08.bks.cpg/sg14_2_cif.got.tgz:3960.got - 2010.06.03 17:49:19.
