data_PCOD9240351
_publ_section_title
;
Structure prediction by ZEFSAII (Michael W. Deem and Ramdas Pophale) SiO2 
 PCOD9240351
Probable space group: P 21/C
;
_chemical_formula_sum "Si O2"
_cell_formula_units_Z 30
_cell_length_a 7.999309
_cell_length_b 34.611956
_cell_length_c 5.036893
_cell_angle_alpha 90.000000
_cell_angle_beta 102.960880
_cell_angle_gamma 90.000000
_cell_volume 1359.044338
_symmetry_space_group_name_H-M "P 21/C"
_symmetry_group_IT_number 14
_symmetry_cell_setting 'monoclinic'
loop_
_space_group_symop_operation_xyz
x,y,z
-x,1/2+y,1/2-z
-x,-y,-z
x,1/2-y,1/2+z
loop_
_atom_site_type_symbol
_atom_site_label
_atom_site_fract_x
_atom_site_fract_y
_atom_site_fract_z
Si Si1 0.360672 0.435773 0.582134
Si Si2 0.056023 0.145320 0.545006
Si Si3 0.991823 0.938120 0.346513
Si Si4 0.500000 0.500000 0.500000
Si Si5 0.711190 0.854043 0.869388
Si Si6 0.764924 0.995711 0.571520
Si Si7 0.538638 0.726133 0.160572
Si Si8 0.125199 0.774093 0.528407
O O1 0.167541 0.433400 0.409541
O O2 0.493350 0.451773 0.417206
O O3 0.394325 0.394045 0.711771
O O4 0.360966 0.477206 0.748202
O O5 0.957368 0.105131 0.559935
O O6 0.129147 0.144287 0.274297
O O7 0.948690 0.183816 0.550398
O O8 0.217680 0.146608 0.805213
O O9 0.136727 0.966661 0.294168
O O10 0.902012 0.961798 0.556532
O O11 0.327455 0.505638 0.235512
O O12 0.610756 0.815285 0.765554
O O13 0.593172 0.758590 0.392783
O O14 0.331862 0.723972 0.094101
O O15 0.069400 0.742965 0.289956
#
# Coordination Sequence:
#
# PCOD9240351 Si02
#       8
#     4   4   4   2   4   4   4   4
#     4  10  20  37  57  81 118 155 195 249 296 345
#     4  11  22  39  60  93 120 151 202 250 297 352
#     4   9  20  34  58  82 110 154 194 239 297 354
#     4  10  22  34  54  84 112 154 198 246 294 352
#     4  11  23  38  64  89 124 155 200 252 298 355
#     4  10  18  37  57  79 115 152 196 242 296 353
#     4  10  22  41  62  88 122 162 200 239 302 367
#     4  10  22  40  62  85 122 157 192 243 298 357
#
# _framework density 22.074337
#
# number of rings (size 3 to 8) (size 9 to 14) (size 15 to 20)
#    0.000    1.867    1.333    2.400    0.000    4.267 
#    0.000    0.000    8.800    0.000    0.000    0.000 
#    0.000    0.000    0.000    0.000    0.000    0.000 
#
# Total GULP energy -167105.960991 kJ/mol
# GULP energy per Si atom -5570.198700 kJ/mol
# Density = 2.202409 g / cm^3
# Si number density = 22.074337 Si / 1000 Ang^3
#
#
#
# Elastic Constant Matrix: (Units=GPa)
#
#
# Indices 1 2 3 4 5 6 
#
# 1 28.2858 37.3741 2.3300 0.0000 -3.0041 0.0000
# 2 37.3741 196.6746 16.7971 0.0000 24.3457 0.0000
# 3 2.3300 16.7971 58.0117 0.0000 6.9530 0.0000
# 4 0.0000 0.0000 0.0000 28.6586 0.0000 0.7587
# 5 -3.0041 24.3457 6.9530 0.0000 19.5310 0.0000
# 6 0.0000 0.0000 0.0000 0.7587 0.0000 33.5661
#
#
#
# Elastic Compliance Matrix: (Units=1/GPa)
#
#
# Indices 1 2 3 4 5 6 
#
# 1 0.056743 -0.013958 -0.001430 0.000000 0.026636 0.000000
# 2 -0.013958 0.009489 -0.000535 0.000000 -0.013785 0.000000
# 3 -0.001430 -0.000535 0.018172 0.000000 -0.006023 0.000000
# 4 0.000000 0.000000 0.000000 0.034914 0.000000 -0.000789
# 5 0.026636 -0.013785 -0.006023 0.000000 0.074625 0.000000
# 6 0.000000 0.000000 0.000000 -0.000789 0.000000 0.029810
#
#
# Mechanical properties :
#
#
# Convention : Reuss Voigt Hill
#
# Bulk Modulus (GPa) = 19.02641 43.99717 31.51179
# Shear Modulus (GPa) = 18.30714 31.44918 24.87816
#
# Velocity S-wave (km/s) = 2.88295 3.77861 3.36075
# Velocity P-wave (km/s) = 4.44070 6.24594 5.41902
#
# Compressibility (1/GPa) = 0.05255853
#
# Stress axis : x y z
#
# Youngs Moduli (GPa) = 17.62341 105.38530 55.02969
#
# Poissons Ratio (x) = 1.47095 0.07870
# Poissons Ratio (y) = 0.24598 0.02942
# Poissons Ratio (z) = 0.02520 0.05635
#
# Static dielectric constant tensor:
#      x y z
#    x 2.414510 0.000000 -0.435480 
#    y 0.000000 1.908550 0.000000 
#    z -0.435480 0.000000 2.157850 
# 
# From -- ./inp_files/2105.got.cif
#   From: 2010.05.17/outbox.cif.g08.bks.cpg/sg14_2_cif.got.tgz:2105.got - 2010.06.03 17:49:19.
