data_PCOD9240220
_publ_section_title
;
Structure prediction by ZEFSAII (Michael W. Deem and Ramdas Pophale) SiO2 
 PCOD9240220
Probable space group: P 21/C
;
_chemical_formula_sum "Si O2"
_cell_formula_units_Z 28
_cell_length_a 8.120176
_cell_length_b 16.117328
_cell_length_c 9.228530
_cell_angle_alpha 90.000000
_cell_angle_beta 99.394578
_cell_angle_gamma 90.000000
_cell_volume 1191.589516
_symmetry_space_group_name_H-M "P 21/C"
_symmetry_group_IT_number 14
_symmetry_cell_setting 'monoclinic'
loop_
_space_group_symop_operation_xyz
x,y,z
-x,1/2+y,1/2-z
-x,-y,-z
x,1/2-y,1/2+z
loop_
_atom_site_type_symbol
_atom_site_label
_atom_site_fract_x
_atom_site_fract_y
_atom_site_fract_z
Si Si1 0.683524 0.166261 0.938827
Si Si2 0.865636 0.212530 0.237201
Si Si3 0.212248 0.147042 0.727975
Si Si4 0.339590 0.250685 0.984916
Si Si5 0.081932 0.862712 0.472287
Si Si6 0.465257 0.913376 0.574295
Si Si7 0.507933 0.479382 0.334579
O O1 0.745257 0.236153 0.832586
O O2 0.508300 0.198017 0.980772
O O3 0.666988 0.081727 0.845609
O O4 0.790730 0.154798 0.100101
O O5 0.931953 0.284124 0.140317
O O6 0.967813 0.160166 0.370005
O O7 0.201132 0.194789 0.881506
O O8 0.278064 0.222627 0.634500
O O9 0.358794 0.080227 0.765190
O O10 0.068029 0.091251 0.629733
O O11 0.405210 0.340669 0.940698
O O12 0.273578 0.890476 0.508263
O O13 0.500000 0.000000 0.500000
O O14 0.494869 0.937067 0.744229
O O15 0.500000 0.500000 0.500000
#
# Coordination Sequence:
#
# PCOD9240220 Si02
#       7
#     4   4   4   4   4   4   4
#     4  10  19  36  63  90 115 155 220 260 295 364
#     4  10  18  35  63  92 111 158 207 264 303 361
#     4  11  25  42  62  96 127 163 211 271 321 379
#     4  11  22  40  67  91 125 164 219 263 311 376
#     4  11  23  38  65  91 129 161 208 264 327 372
#     4  12  23  41  65  93 127 173 212 258 319 391
#     4  11  24  37  60  90 125 165 210 257 315 378
#
# _framework density 23.498024999999998
#
# number of rings (size 3 to 8) (size 9 to 14) (size 15 to 20)
#    0.000    1.143    4.286    4.286    4.000    0.571 
#    0.000    0.000    0.000    1.714    0.000    0.000 
#    0.000    0.000    0.000    0.000    0.000    0.000 
#
# Total GULP energy -155950.655980 kJ/mol
# GULP energy per Si atom -5569.666285 kJ/mol
# Density = 2.344454 g / cm^3
# Si number density = 23.498025 Si / 1000 Ang^3
#
#
#
# Elastic Constant Matrix: (Units=GPa)
#
#
# Indices 1 2 3 4 5 6 
#
# 1 22.2202 -5.9895 27.0327 0.0000 0.8476 0.0000
# 2 -5.9895 47.3003 8.3487 0.0000 2.2458 0.0000
# 3 27.0327 8.3487 125.7022 0.0000 21.7711 0.0000
# 4 0.0000 0.0000 0.0000 49.7885 0.0000 1.0179
# 5 0.8476 2.2458 21.7711 0.0000 33.6346 0.0000
# 6 0.0000 0.0000 0.0000 1.0179 0.0000 17.4757
#
#
#
# Elastic Compliance Matrix: (Units=1/GPa)
#
#
# Indices 1 2 3 4 5 6 
#
# 1 0.068253 0.011222 -0.016889 0.000000 0.008463 0.000000
# 2 0.011222 0.023247 -0.004099 0.000000 0.000818 0.000000
# 3 -0.016889 -0.004099 0.013221 0.000000 -0.007858 0.000000
# 4 0.000000 0.000000 0.000000 0.020109 0.000000 -0.001171
# 5 0.008463 0.000818 -0.007858 0.000000 0.034550 0.000000
# 6 0.000000 0.000000 0.000000 -0.001171 0.000000 0.057290
#
#
# Mechanical properties :
#
#
# Convention : Reuss Voigt Hill
#
# Bulk Modulus (GPa) = 11.73870 28.22295 19.98082
# Shear Modulus (GPa) = 18.89656 31.23516 25.06586
#
# Velocity S-wave (km/s) = 2.83888 3.64987 3.26961
# Velocity P-wave (km/s) = 3.96889 5.45884 4.77237
#
# Compressibility (1/GPa) = 0.08518833
#
# Stress axis : x y z
#
# Youngs Moduli (GPa) = 14.65138 43.01599 75.63948
#
# Poissons Ratio (x) = -0.48272 1.27748
# Poissons Ratio (y) = -0.16442 0.31005
# Poissons Ratio (z) = 0.24745 0.17632
#
# Static dielectric constant tensor:
#      x y z
#    x 2.232850 0.000000 0.117270 
#    y 0.000000 2.040550 0.000000 
#    z 0.117270 0.000000 1.990390 
# 
# From -- ./inp_files/9523.got.cif
#   From: 2010.05.17/outbox.cif.g08.bks.cpg/sg14_5_cif.got.tgz:9523.got - 2010.06.03 17:49:19.
