data_PCOD9240929
_publ_section_title
;
Structure prediction by ZEFSAII (Michael W. Deem and Ramdas Pophale) SiO2 
 PCOD9240929
Probable space group: P 21/C
;
_chemical_formula_sum "Si O2"
_cell_formula_units_Z 32
_cell_length_a 17.137266
_cell_length_b 11.349126
_cell_length_c 17.928692
_cell_angle_alpha 90.000000
_cell_angle_beta 28.526811
_cell_angle_gamma 90.000000
_cell_volume 1665.288744
_symmetry_space_group_name_H-M "P 21/C"
_symmetry_group_IT_number 14
_symmetry_cell_setting 'monoclinic'
loop_
_space_group_symop_operation_xyz
x,y,z
-x,1/2+y,1/2-z
-x,-y,-z
x,1/2-y,1/2+z
loop_
_atom_site_type_symbol
_atom_site_label
_atom_site_fract_x
_atom_site_fract_y
_atom_site_fract_z
Si Si1 0.156885 0.923676 0.247958
Si Si2 0.792873 0.377028 0.541759
Si Si3 0.559195 0.944989 0.055204
Si Si4 0.817385 0.470527 0.978544
Si Si5 0.445036 0.354328 0.754250
Si Si6 0.755495 0.858181 0.036591
Si Si7 0.759261 0.180763 0.675881
Si Si8 0.909216 0.239817 0.308694
O O1 0.129149 0.874424 0.353626
O O2 0.196093 0.813110 0.161832
O O3 0.995142 0.976890 0.346617
O O4 0.303376 0.017233 0.119198
O O5 0.616565 0.344921 0.653062
O O6 0.803244 0.517801 0.534090
O O7 0.798513 0.312555 0.616727
O O8 0.918408 0.319230 0.376436
O O9 0.652758 0.894317 0.049200
O O10 0.425256 0.849624 0.143351
O O11 0.473065 0.065338 0.157478
O O12 0.828300 0.382888 0.900370
O O13 0.679504 0.569071 0.090468
O O14 0.777463 0.391493 0.084187
O O15 0.358038 0.228367 0.819364
O O16 0.917034 0.790546 0.873580
#
# Coordination Sequence:
#
# PCOD9240929 Si02
#       8
#     4   4   4   4   4   4   4   4
#     4  12  20  35  56  85 112 146 183 227 281 329
#     4  10  21  36  54  84 111 144 183 225 279 332
#     4  10  20  35  55  85 110 145 185 230 275 320
#     4  10  21  35  55  84 108 143 185 234 271 322
#     4  10  19  33  59  81 107 143 186 227 275 313
#     4  11  19  34  57  81 110 140 190 231 269 319
#     4  10  22  36  54  80 118 149 177 224 283 334
#     4  11  20  34  57  82 110 137 187 234 269 318
#
# _framework density 19.215886000000001
#
# number of rings (size 3 to 8) (size 9 to 14) (size 15 to 20)
#    0.000    1.500    6.250    0.750    1.750    0.000 
#    0.000    0.625    0.000    3.000    0.000    0.000 
#    0.000    0.000    0.000    0.000    0.000    0.000 
#
# Total GULP energy -178474.110313 kJ/mol
# GULP energy per Si atom -5577.315947 kJ/mol
# Density = 1.917215 g / cm^3
# Si number density = 19.215886 Si / 1000 Ang^3
#
#
#
# Elastic Constant Matrix: (Units=GPa)
#
#
# Indices 1 2 3 4 5 6 
#
# 1 16.2427 -0.3746 -3.1785 0.0000 3.3327 0.0000
# 2 -0.3746 88.1180 24.5680 0.0000 -9.8999 0.0000
# 3 -3.1785 24.5680 76.7770 0.0000 -14.0483 0.0000
# 4 0.0000 0.0000 0.0000 15.9001 0.0000 -7.4495
# 5 3.3327 -9.8999 -14.0483 0.0000 11.1311 0.0000
# 6 0.0000 0.0000 0.0000 -7.4495 0.0000 10.3728
#
#
#
# Elastic Compliance Matrix: (Units=1/GPa)
#
#
# Indices 1 2 3 4 5 6 
#
# 1 0.065992 -0.002043 -0.000731 0.000000 -0.022498 0.000000
# 2 -0.002043 0.013077 -0.002638 0.000000 0.008912 0.000000
# 3 -0.000731 -0.002638 0.017488 0.000000 0.019943 0.000000
# 4 0.000000 0.000000 0.000000 0.094786 0.000000 0.068073
# 5 -0.022498 0.008912 0.019943 0.000000 0.129670 0.000000
# 6 0.000000 0.000000 0.000000 0.068073 0.000000 0.145294
#
#
# Mechanical properties :
#
#
# Convention : Reuss Voigt Hill
#
# Bulk Modulus (GPa) = 11.66427 24.79639 18.23033
# Shear Modulus (GPa) = 9.88713 18.15566 14.02140
#
# Velocity S-wave (km/s) = 2.27078 3.07714 2.70418
# Velocity P-wave (km/s) = 3.59980 5.05541 4.38838
#
# Compressibility (1/GPa) = 0.08573191
#
# Stress axis : x y z
#
# Youngs Moduli (GPa) = 15.15337 76.47259 57.18269
#
# Poissons Ratio (x) = 0.15626 0.04178
# Poissons Ratio (y) = 0.03096 0.15086
# Poissons Ratio (z) = 0.01107 0.20175
#
# Static dielectric constant tensor:
#      x y z
#    x 1.660670 0.000000 0.000320 
#    y 0.000000 1.717500 0.000000 
#    z 0.000320 0.000000 1.730840 
# 
# From -- ./inp_files/55418.got.cif
#   From: 2010.05.17/outbox.cif.g08.bks.cpg/sg14_28_cif.got.tgz:55418.got - 2010.06.03 17:49:19.
