data_PCOD9240607
_publ_section_title
;
Structure prediction by ZEFSAII (Michael W. Deem and Ramdas Pophale) SiO2 
 PCOD9240607
Probable space group: P 21/C
;
_chemical_formula_sum "Si O2"
_cell_formula_units_Z 32
_cell_length_a 9.157233
_cell_length_b 7.914686
_cell_length_c 18.244082
_cell_angle_alpha 90.000000
_cell_angle_beta 87.972317
_cell_angle_gamma 90.000000
_cell_volume 1321.441527
_symmetry_space_group_name_H-M "P 21/C"
_symmetry_group_IT_number 14
_symmetry_cell_setting 'monoclinic'
loop_
_space_group_symop_operation_xyz
x,y,z
-x,1/2+y,1/2-z
-x,-y,-z
x,1/2-y,1/2+z
loop_
_atom_site_type_symbol
_atom_site_label
_atom_site_fract_x
_atom_site_fract_y
_atom_site_fract_z
Si Si1 0.735352 0.249890 0.350571
Si Si2 0.902463 0.339791 0.143314
Si Si3 0.390515 0.608121 0.780684
Si Si4 0.307768 0.239113 0.200343
Si Si5 0.332626 0.560538 0.009883
Si Si6 0.334963 0.940716 0.013662
Si Si7 0.021196 0.307309 0.779267
Si Si8 0.840353 0.747466 0.958547
O O1 0.651504 0.245439 0.276505
O O2 0.673157 0.398865 0.400501
O O3 0.904324 0.287420 0.331709
O O4 0.712329 0.092623 0.404001
O O5 0.729554 0.376348 0.153178
O O6 0.962075 0.511573 0.181978
O O7 0.944328 0.191515 0.200562
O O8 0.993627 0.296675 0.068234
O O9 0.553848 0.639321 0.801730
O O10 0.361455 0.437622 0.735588
O O11 0.175100 0.279708 0.258869
O O12 0.241290 0.237482 0.119475
O O13 0.316507 0.752836 0.981068
O O14 0.226482 0.405903 0.992015
O O15 0.500000 0.500000 0.000000
O O16 0.210183 0.079384 0.000216
O O17 0.500000 0.000000 0.000000
#
# Coordination Sequence:
#
# PCOD9240607 Si02
#       8
#     4   4   4   4   4   4   4   4
#     4   9  18  33  49  72 105 125 164 212 241 294
#     4   9  18  29  48  69  98 130 166 204 245 299
#     4  10  20  33  45  75 106 136 169 197 244 309
#     4  10  21  31  48  73 106 138 166 198 245 307
#     4  10  19  30  52  78  98 128 168 209 261 294
#     4  10  19  31  50  78 102 123 168 216 252 295
#     4   9  17  30  46  71  96 130 167 202 247 297
#     4  11  18  35  52  74 103 136 161 213 254 285
#
# _framework density 24.215979000000001
#
# number of rings (size 3 to 8) (size 9 to 14) (size 15 to 20)
#    0.750    1.500    3.750    0.000    3.500    1.000 
#    0.000    0.000    0.000    0.000    0.000   10.500 
#    0.000    0.000    0.000    0.000    0.000    0.000 
#
# Total GULP energy -178302.092103 kJ/mol
# GULP energy per Si atom -5571.940378 kJ/mol
# Density = 2.416086 g / cm^3
# Si number density = 24.215979 Si / 1000 Ang^3
#
#
#
# Elastic Constant Matrix: (Units=GPa)
#
#
# Indices 1 2 3 4 5 6 
#
# 1 142.3915 50.6646 25.8438 0.0000 -34.4123 0.0000
# 2 50.6646 134.2056 35.1083 0.0000 -24.5193 0.0000
# 3 25.8438 35.1083 45.4657 0.0000 -19.7694 0.0000
# 4 0.0000 0.0000 0.0000 32.3429 0.0000 -17.0591
# 5 -34.4123 -24.5193 -19.7694 0.0000 38.4138 0.0000
# 6 0.0000 0.0000 0.0000 -17.0591 0.0000 25.1819
#
#
#
# Elastic Compliance Matrix: (Units=1/GPa)
#
#
# Indices 1 2 3 4 5 6 
#
# 1 0.009580 -0.002162 -0.000830 0.000000 0.006775 0.000000
# 2 -0.002162 0.010082 -0.005927 0.000000 0.001449 0.000000
# 3 -0.000830 -0.005927 0.032304 0.000000 0.012098 0.000000
# 4 0.000000 0.000000 0.000000 0.048108 0.000000 0.032590
# 5 0.006775 0.001449 0.012098 0.000000 0.039252 0.000000
# 6 0.000000 0.000000 0.000000 0.032590 0.000000 0.061789
#
#
# Mechanical properties :
#
#
# Convention : Reuss Voigt Hill
#
# Bulk Modulus (GPa) = 29.30109 60.58844 44.94477
# Shear Modulus (GPa) = 21.70800 33.21746 27.46273
#
# Velocity S-wave (km/s) = 2.99730 3.70769 3.37126
# Velocity P-wave (km/s) = 4.90964 6.58814 5.80983
#
# Compressibility (1/GPa) = 0.03412842
#
# Stress axis : x y z
#
# Youngs Moduli (GPa) = 104.38327 99.18194 30.95616
#
# Poissons Ratio (x) = 0.21439 0.02571
# Poissons Ratio (y) = 0.22563 0.18347
# Poissons Ratio (z) = 0.08669 0.58784
#
# Static dielectric constant tensor:
#      x y z
#    x 1.963140 0.000000 0.032890 
#    y 0.000000 1.988820 0.000000 
#    z 0.032890 0.000000 1.969960 
# 
# From -- ./inp_files/71938.got.cif
#   From: 2010.05.17/outbox.cif.g08.bks.cpg/sg14_36_cif.got.tgz:71938.got - 2010.06.03 17:49:19.
