data_PCOD9240240
_publ_section_title
;
Structure prediction by ZEFSAII (Michael W. Deem and Ramdas Pophale) SiO2 
 PCOD9240240
Probable space group: P 21/C
;
_chemical_formula_sum "Si O2"
_cell_formula_units_Z 28
_cell_length_a 7.360125
_cell_length_b 10.689204
_cell_length_c 13.652182
_cell_angle_alpha 90.000000
_cell_angle_beta 112.325474
_cell_angle_gamma 90.000000
_cell_volume 993.558788
_symmetry_space_group_name_H-M "P 21/C"
_symmetry_group_IT_number 14
_symmetry_cell_setting 'monoclinic'
loop_
_space_group_symop_operation_xyz
x,y,z
-x,1/2+y,1/2-z
-x,-y,-z
x,1/2-y,1/2+z
loop_
_atom_site_type_symbol
_atom_site_label
_atom_site_fract_x
_atom_site_fract_y
_atom_site_fract_z
Si Si1 0.092963 0.374672 0.085264
Si Si2 0.576500 0.822715 0.484939
Si Si3 0.691318 0.414985 0.233227
Si Si4 0.400381 0.289653 0.305292
Si Si5 0.310619 0.430619 0.586826
Si Si6 0.878564 0.344589 0.549876
Si Si7 0.881860 0.998930 0.227842
O O1 0.220279 0.378992 0.014608
O O2 0.225567 0.287182 0.187740
O O3 0.887450 0.303301 0.034634
O O4 0.098080 0.499785 0.150977
O O5 0.414014 0.901352 0.392552
O O6 0.582196 0.805741 0.602190
O O7 0.570279 0.680133 0.439671
O O8 0.596036 0.305815 0.280591
O O9 0.634285 0.534792 0.289594
O O10 0.924851 0.423369 0.269815
O O11 0.313637 0.419860 0.335287
O O12 0.284904 0.564857 0.527895
O O13 0.082463 0.385116 0.539911
O O14 0.882499 0.375701 0.665991
#
# Coordination Sequence:
#
# PCOD9240240 Si02
#       7
#     4   4   4   4   4   4   4
#     4   8  18  31  54  78 102 141 168 216 264 303
#     4  10  18  36  54  76 109 141 170 217 267 306
#     4  10  21  33  50  83 109 131 179 217 258 314
#     4   9  19  36  51  76 108 139 170 214 263 311
#     4   9  17  30  54  80 104 135 174 219 262 308
#     4   9  15  30  57  79 101 136 175 218 265 303
#     4   9  18  36  51  77 108 134 172 221 256 313
#
# _framework density 28.181522000000001
#
# number of rings (size 3 to 8) (size 9 to 14) (size 15 to 20)
#    0.857    2.000    1.429    0.000    2.000    1.714 
#    2.571    0.000    0.000   16.286    0.000    0.000 
#    0.000    0.000    0.000    0.000    0.000    0.000 
#
# Total GULP energy -156341.911154 kJ/mol
# GULP energy per Si atom -5583.639684 kJ/mol
# Density = 2.811738 g / cm^3
# Si number density = 28.181522 Si / 1000 Ang^3
#
#
#
# Elastic Constant Matrix: (Units=GPa)
#
#
# Indices 1 2 3 4 5 6 
#
# 1 150.0768 34.6912 41.7560 0.0000 -2.3495 0.0000
# 2 34.6912 50.3818 46.4309 0.0000 0.8252 0.0000
# 3 41.7560 46.4309 139.5698 0.0000 -7.5743 0.0000
# 4 0.0000 0.0000 0.0000 54.9693 0.0000 -2.2189
# 5 -2.3495 0.8252 -7.5743 0.0000 45.7962 0.0000
# 6 0.0000 0.0000 0.0000 -2.2189 0.0000 35.3556
#
#
#
# Elastic Compliance Matrix: (Units=1/GPa)
#
#
# Indices 1 2 3 4 5 6 
#
# 1 0.007993 -0.004794 -0.000776 0.000000 0.000368 0.000000
# 2 -0.004794 0.031703 -0.009240 0.000000 -0.002345 0.000000
# 3 -0.000776 -0.009240 0.010573 0.000000 0.001875 0.000000
# 4 0.000000 0.000000 0.000000 0.018238 0.000000 0.001145
# 5 0.000368 -0.002345 0.001875 0.000000 0.022207 0.000000
# 6 0.000000 0.000000 0.000000 0.001145 0.000000 0.028356
#
#
# Mechanical properties :
#
#
# Convention : Reuss Voigt Hill
#
# Bulk Modulus (GPa) = 48.43039 65.08716 56.75878
# Shear Modulus (GPa) = 32.13903 41.70092 36.91997
#
# Velocity S-wave (km/s) = 3.38069 3.85089 3.62343
# Velocity P-wave (km/s) = 5.69747 6.55121 6.13920
#
# Compressibility (1/GPa) = 0.02064819
#
# Stress axis : x y z
#
# Youngs Moduli (GPa) = 125.10473 31.54261 94.58306
#
# Poissons Ratio (x) = 0.15123 0.07344
# Poissons Ratio (y) = 0.59980 0.87391
# Poissons Ratio (z) = 0.09714 0.29144
#
# Static dielectric constant tensor:
#      x y z
#    x 2.173620 0.000000 -0.004080 
#    y 0.000000 2.335720 0.000000 
#    z -0.004080 0.000000 2.245960 
# 
# From -- ./inp_files/41029.got.cif
#   From: 2010.05.17/outbox.cif.g08.bks.cpg/sg14_21_cif.got.tgz:41029.got - 2010.06.03 17:49:19.
