data_PCOD9240872
_publ_section_title
;
Structure prediction by ZEFSAII (Michael W. Deem and Ramdas Pophale) SiO2 
 PCOD9240872
Probable space group: P 21/C
;
_chemical_formula_sum "Si O2"
_cell_formula_units_Z 32
_cell_length_a 9.378060
_cell_length_b 19.283075
_cell_length_c 9.745918
_cell_angle_alpha 90.000000
_cell_angle_beta 41.125115
_cell_angle_gamma 90.000000
_cell_volume 1159.160366
_symmetry_space_group_name_H-M "P 21/C"
_symmetry_group_IT_number 14
_symmetry_cell_setting 'monoclinic'
loop_
_space_group_symop_operation_xyz
x,y,z
-x,1/2+y,1/2-z
-x,-y,-z
x,1/2-y,1/2+z
loop_
_atom_site_type_symbol
_atom_site_label
_atom_site_fract_x
_atom_site_fract_y
_atom_site_fract_z
Si Si1 0.695386 0.129706 0.827085
Si Si2 0.065217 0.506187 0.791013
Si Si3 0.220923 0.866965 0.771091
Si Si4 0.253700 0.019996 0.719587
Si Si5 0.106786 0.140301 0.323774
Si Si6 0.418258 0.194871 0.290329
Si Si7 0.981931 0.256844 0.213562
Si Si8 0.535381 0.643379 0.788510
O O1 0.727491 0.055579 0.875271
O O2 0.763317 0.196383 0.870971
O O3 0.526541 0.131917 0.825364
O O4 0.921096 0.131860 0.571966
O O5 0.103897 0.425902 0.728312
O O6 0.878817 0.532572 0.824474
O O7 0.000000 0.500000 0.000000
O O8 0.398952 0.837076 0.746931
O O9 0.051174 0.804027 0.876306
O O10 0.333424 0.869264 0.538323
O O11 0.168158 0.946965 0.847303
O O12 0.287069 0.088793 0.786384
O O13 0.500000 0.000000 0.500000
O O14 0.347496 0.146733 0.214051
O O15 0.039073 0.211568 0.303619
O O16 0.429547 0.274371 0.233515
O O17 0.196293 0.197804 0.539835
#
# Coordination Sequence:
#
# PCOD9240872 Si02
#       8
#     4   4   4   4   4   4   4   4
#     4  10  21  34  58  85 115 149 193 242 291 340
#     4  10  19  33  55  86 111 148 193 242 292 335
#     4  11  21  40  61  84 117 154 195 240 292 339
#     4  10  21  33  59  85 116 146 194 248 288 332
#     4  10  20  36  57  82 114 150 194 240 287 346
#     4  11  25  35  60  88 119 153 194 239 294 354
#     4  11  21  40  58  84 119 157 190 238 298 351
#     4  11  22  39  57  91 117 149 197 248 286 342
#
# _framework density 27.606186999999998
#
# number of rings (size 3 to 8) (size 9 to 14) (size 15 to 20)
#    0.000    1.500    3.750    3.000   14.000    0.000 
#    0.000    0.625    0.000    0.750    0.000    0.000 
#    0.000    0.000    0.000    0.000    0.000    0.000 
#
# Total GULP energy -179067.757585 kJ/mol
# GULP energy per Si atom -5595.867425 kJ/mol
# Density = 2.754335 g / cm^3
# Si number density = 27.606187 Si / 1000 Ang^3
#
#
#
# Elastic Constant Matrix: (Units=GPa)
#
#
# Indices 1 2 3 4 5 6 
#
# 1 150.9197 54.6465 20.9088 0.0000 9.0083 0.0000
# 2 54.6465 155.7965 15.9980 0.0000 1.8180 0.0000
# 3 20.9088 15.9980 42.7316 0.0000 18.4627 0.0000
# 4 0.0000 0.0000 0.0000 32.5279 0.0000 -6.1692
# 5 9.0083 1.8180 18.4627 0.0000 29.9798 0.0000
# 6 0.0000 0.0000 0.0000 -6.1692 0.0000 64.3511
#
#
#
# Elastic Compliance Matrix: (Units=1/GPa)
#
#
# Indices 1 2 3 4 5 6 
#
# 1 0.007940 -0.002501 -0.002703 0.000000 -0.000570 0.000000
# 2 -0.002501 0.007516 -0.002341 0.000000 0.001737 0.000000
# 3 -0.002703 -0.002341 0.034320 0.000000 -0.020182 0.000000
# 4 0.000000 0.000000 0.000000 0.031312 0.000000 0.003002
# 5 -0.000570 0.001737 -0.020182 0.000000 0.045850 0.000000
# 6 0.000000 0.000000 0.000000 0.003002 0.000000 0.015828
#
#
# Mechanical properties :
#
#
# Convention : Reuss Voigt Hill
#
# Bulk Modulus (GPa) = 28.82849 59.17271 44.00060
# Shear Modulus (GPa) = 29.51291 42.56473 36.03882
#
# Velocity S-wave (km/s) = 3.27321 3.93091 3.61704
# Velocity P-wave (km/s) = 4.97500 6.48720 5.78076
#
# Compressibility (1/GPa) = 0.03468791
#
# Stress axis : x y z
#
# Youngs Moduli (GPa) = 125.94452 133.05135 29.13717
#
# Poissons Ratio (x) = 0.33274 0.07875
# Poissons Ratio (y) = 0.31497 0.06820
# Poissons Ratio (z) = 0.34038 0.31144
#
# Static dielectric constant tensor:
#      x y z
#    x 2.199340 0.000000 -0.022800 
#    y 0.000000 2.646170 0.000000 
#    z -0.022800 0.000000 2.390750 
# 
# From -- ./inp_files/26245.got.cif
#   From: 2010.05.17/outbox.cif.g08.bks.cpg/sg14_14_cif.got.tgz:26245.got - 2010.06.03 17:49:19.
