data_PCOD9240775
_publ_section_title
;
Structure prediction by ZEFSAII (Michael W. Deem and Ramdas Pophale) SiO2 
 PCOD9240775
Probable space group: P 21/C
;
_chemical_formula_sum "Si O2"
_cell_formula_units_Z 32
_cell_length_a 17.505076
_cell_length_b 16.899033
_cell_length_c 9.343520
_cell_angle_alpha 90.000000
_cell_angle_beta 37.553723
_cell_angle_gamma 90.000000
_cell_volume 1684.665484
_symmetry_space_group_name_H-M "P 21/C"
_symmetry_group_IT_number 14
_symmetry_cell_setting 'monoclinic'
loop_
_space_group_symop_operation_xyz
x,y,z
-x,1/2+y,1/2-z
-x,-y,-z
x,1/2-y,1/2+z
loop_
_atom_site_type_symbol
_atom_site_label
_atom_site_fract_x
_atom_site_fract_y
_atom_site_fract_z
Si Si1 0.366251 0.568044 0.130868
Si Si2 0.171804 0.800445 0.883001
Si Si3 0.602230 0.184900 0.892796
Si Si4 0.558668 0.761018 0.118205
Si Si5 0.630664 0.605811 0.837286
Si Si6 0.056820 0.825264 0.353100
Si Si7 0.218496 0.378527 0.650171
Si Si8 0.719842 0.057888 0.908935
O O1 0.261095 0.624108 0.218943
O O2 0.359563 0.477052 0.093743
O O3 0.339678 0.567936 0.343182
O O4 0.510691 0.595132 0.908073
O O5 0.271206 0.736424 0.796045
O O6 0.100707 0.757580 0.859266
O O7 0.078053 0.821189 0.151241
O O8 0.541218 0.190524 0.828376
O O9 0.634440 0.100962 0.917173
O O10 0.507033 0.230438 0.140383
O O11 0.599395 0.681137 0.976828
O O12 0.680514 0.814179 0.952142
O O13 0.755934 0.615368 0.558229
O O14 0.152377 0.891781 0.270242
O O15 0.918220 0.849947 0.603453
O O16 0.250941 0.466140 0.660140
#
# Coordination Sequence:
#
# PCOD9240775 Si02
#       8
#     4   4   4   4   4   4   4   4
#     4   9  16  33  58  83 108 141 193 221 281 333
#     4  10  19  36  59  85 104 147 189 242 267 321
#     4  11  20  36  59  86 113 140 188 230 288 330
#     4  12  21  35  57  84 118 144 178 233 282 344
#     4  10  19  32  56  84 111 147 177 230 273 348
#     4  10  22  36  60  80 112 148 197 233 269 328
#     4  11  23  35  56  83 114 153 186 223 288 333
#     4   9  19  37  57  82 108 147 193 238 266 330
#
# _framework density 18.994869999999999
#
# number of rings (size 3 to 8) (size 9 to 14) (size 15 to 20)
#    0.000    1.750    3.750    1.875    1.750    0.500 
#    0.000    0.000    5.500    0.750    0.000    0.000 
#    0.000    0.000    0.000    0.000    0.000    0.000 
#
# Total GULP energy -178586.978235 kJ/mol
# GULP energy per Si atom -5580.843070 kJ/mol
# Density = 1.895164 g / cm^3
# Si number density = 18.994870 Si / 1000 Ang^3
#
#
#
# Elastic Constant Matrix: (Units=GPa)
#
#
# Indices 1 2 3 4 5 6 
#
# 1 31.6616 22.6982 8.7137 0.0000 -3.9875 0.0000
# 2 22.6982 126.7610 28.7587 0.0000 -7.8788 0.0000
# 3 8.7137 28.7587 116.6656 0.0000 -8.2047 0.0000
# 4 0.0000 0.0000 0.0000 23.2021 0.0000 -0.0647
# 5 -3.9875 -7.8788 -8.2047 0.0000 18.9448 0.0000
# 6 0.0000 0.0000 0.0000 -0.0647 0.0000 20.3473
#
#
#
# Elastic Compliance Matrix: (Units=1/GPa)
#
#
# Indices 1 2 3 4 5 6 
#
# 1 0.036803 -0.006084 -0.000910 0.000000 0.004822 0.000000
# 2 -0.006084 0.009494 -0.001752 0.000000 0.001909 0.000000
# 3 -0.000910 -0.001752 0.009290 0.000000 0.003103 0.000000
# 4 0.000000 0.000000 0.000000 0.043100 0.000000 0.000137
# 5 0.004822 0.001909 0.003103 0.000000 0.055938 0.000000
# 6 0.000000 0.000000 0.000000 0.000137 0.000000 0.049147
#
#
# Mechanical properties :
#
#
# Convention : Reuss Voigt Hill
#
# Bulk Modulus (GPa) = 26.24952 43.93658 35.09305
# Shear Modulus (GPa) = 21.37100 26.82668 24.09884
#
# Velocity S-wave (km/s) = 3.35788 3.76215 3.56575
# Velocity P-wave (km/s) = 5.37430 6.48480 5.95549
#
# Compressibility (1/GPa) = 0.03809593
#
# Stress axis : x y z
#
# Youngs Moduli (GPa) = 27.17143 105.32556 107.64822
#
# Poissons Ratio (x) = 0.64080 0.09796
# Poissons Ratio (y) = 0.16531 0.18857
# Poissons Ratio (z) = 0.02473 0.18450
#
# Static dielectric constant tensor:
#      x y z
#    x 1.657430 0.000000 0.022590 
#    y 0.000000 1.687540 0.000000 
#    z 0.022590 0.000000 1.658500 
# 
# From -- ./inp_files/35386.got.cif
#   From: 2010.05.17/outbox.cif.g08.bks.cpg/sg14_18_cif.got.tgz:35386.got - 2010.06.03 17:49:19.
