data_PCOD9240913
_publ_section_title
;
Structure prediction by ZEFSAII (Michael W. Deem and Ramdas Pophale) SiO2 
 PCOD9240913
Probable space group: P 21/C
;
_chemical_formula_sum "Si O2"
_cell_formula_units_Z 24
_cell_length_a 14.765540
_cell_length_b 10.260971
_cell_length_c 12.380649
_cell_angle_alpha 90.000000
_cell_angle_beta 151.938795
_cell_angle_gamma 90.000000
_cell_volume 882.392670
_symmetry_space_group_name_H-M "P 21/C"
_symmetry_group_IT_number 14
_symmetry_cell_setting 'monoclinic'
loop_
_space_group_symop_operation_xyz
x,y,z
-x,1/2+y,1/2-z
-x,-y,-z
x,1/2-y,1/2+z
loop_
_atom_site_type_symbol
_atom_site_label
_atom_site_fract_x
_atom_site_fract_y
_atom_site_fract_z
Si Si1 0.620116 0.019710 0.748701
Si Si2 0.820511 0.386772 0.036514
Si Si3 0.507738 0.314488 0.554344
Si Si4 0.244050 0.876333 0.894874
Si Si5 0.951219 0.811849 0.429622
Si Si6 0.800459 0.059895 0.732233
O O1 0.560993 0.169136 0.654673
O O2 0.766867 0.978784 0.808411
O O3 0.429476 0.932980 0.540102
O O4 0.699928 0.023490 0.952966
O O5 0.787861 0.257902 0.074473
O O6 0.869227 0.487395 0.185083
O O7 0.978216 0.345595 0.115726
O O8 0.627551 0.406612 0.763152
O O9 0.599860 0.350883 0.535287
O O10 0.278105 0.320215 0.308292
O O11 0.046267 0.901496 0.622837
O O12 0.068663 0.677596 0.582736
#
# Coordination Sequence:
#
# PCOD9240913 Si02
#       6
#     4   4   4   4   4   4
#     4  10  19  34  54  77 107 136 166 213 264 303
#     4   9  17  35  52  77 103 137 173 209 253 306
#     4  10  19  33  58  78 101 134 178 214 251 302
#     4   9  17  35  52  77 103 137 173 209 253 306
#     4  10  19  33  58  78 101 134 178 214 251 302
#     4  10  19  34  54  77 107 136 166 213 264 303
#
# _framework density 27.198775999999999
#
# number of rings (size 3 to 8) (size 9 to 14) (size 15 to 20)
#    0.000    2.333    6.667    0.000    0.000    6.000 
#    0.000    3.333    0.000    2.000    0.000    0.000 
#    0.000    0.000    0.000    0.000    0.000    0.000 
#
# Total GULP energy -133927.115090 kJ/mol
# GULP energy per Si atom -5580.296462 kJ/mol
# Density = 2.713687 g / cm^3
# Si number density = 27.198776 Si / 1000 Ang^3
#
#
#
# Elastic Constant Matrix: (Units=GPa)
#
#
# Indices 1 2 3 4 5 6 
#
# 1 218.8901 25.4188 136.5644 0.0000 -22.2330 0.0000
# 2 25.4188 66.3656 44.5159 0.0000 8.8278 0.0000
# 3 136.5644 44.5159 260.0303 0.0000 -3.6318 0.0000
# 4 0.0000 0.0000 0.0000 46.2042 0.0000 1.4365
# 5 -22.2330 8.8278 -3.6318 0.0000 56.2607 0.0000
# 6 0.0000 0.0000 0.0000 1.4365 0.0000 25.1491
#
#
#
# Elastic Compliance Matrix: (Units=1/GPa)
#
#
# Indices 1 2 3 4 5 6 
#
# 1 0.007179 -0.000685 -0.003615 0.000000 0.002711 0.000000
# 2 -0.000685 0.017561 -0.002691 0.000000 -0.003200 0.000000
# 3 -0.003615 -0.002691 0.006197 0.000000 -0.000606 0.000000
# 4 0.000000 0.000000 0.000000 0.021682 0.000000 -0.001238
# 5 0.002711 -0.003200 -0.000606 0.000000 0.019309 0.000000
# 6 0.000000 0.000000 0.000000 -0.001238 0.000000 0.039834
#
#
# Mechanical properties :
#
#
# Convention : Reuss Voigt Hill
#
# Bulk Modulus (GPa) = 58.98450 106.47603 82.73027
# Shear Modulus (GPa) = 38.05319 48.10859 43.08089
#
# Velocity S-wave (km/s) = 3.74448 4.21025 3.98418
# Velocity P-wave (km/s) = 6.35833 7.92889 7.18664
#
# Compressibility (1/GPa) = 0.01695361
#
# Stress axis : x y z
#
# Youngs Moduli (GPa) = 139.29756 56.94315 161.38057
#
# Poissons Ratio (x) = 0.03903 0.58340
# Poissons Ratio (y) = 0.09547 0.43430
# Poissons Ratio (z) = 0.50357 0.15324
#
# Static dielectric constant tensor:
#      x y z
#    x 2.220930 0.000000 -0.042490 
#    y 0.000000 2.332180 0.000000 
#    z -0.042490 0.000000 2.177570 
# 
# From -- ./inp_files/32656.got.cif
#   From: 2010.05.17/outbox.cif.g08.bks.cpg/sg14_17_cif.got.tgz:32656.got - 2010.06.03 17:49:19.
