data_PCOD9240904
_publ_section_title
;
Structure prediction by ZEFSAII (Michael W. Deem and Ramdas Pophale) SiO2 
 PCOD9240904
Probable space group: P 21/C
;
_chemical_formula_sum "Si O2"
_cell_formula_units_Z 28
_cell_length_a 16.112738
_cell_length_b 10.896439
_cell_length_c 8.555305
_cell_angle_alpha 90.000000
_cell_angle_beta 72.164125
_cell_angle_gamma 90.000000
_cell_volume 1429.874780
_symmetry_space_group_name_H-M "P 21/C"
_symmetry_group_IT_number 14
_symmetry_cell_setting 'monoclinic'
loop_
_space_group_symop_operation_xyz
x,y,z
-x,1/2+y,1/2-z
-x,-y,-z
x,1/2-y,1/2+z
loop_
_atom_site_type_symbol
_atom_site_label
_atom_site_fract_x
_atom_site_fract_y
_atom_site_fract_z
Si Si1 0.120260 0.592664 0.791827
Si Si2 0.953689 0.231164 0.917285
Si Si3 0.753226 0.686596 0.539033
Si Si4 0.573758 0.871955 0.300922
Si Si5 0.276478 0.076124 0.280284
Si Si6 0.540344 0.895702 0.690390
Si Si7 0.054986 0.378350 0.624805
O O1 0.125208 0.691489 0.649222
O O2 0.211451 0.535300 0.789319
O O3 0.060574 0.491528 0.739950
O O4 0.074150 0.652131 0.966079
O O5 0.032175 0.265149 0.754386
O O6 0.984150 0.132605 0.028601
O O7 0.674800 0.637462 0.691699
O O8 0.726289 0.652570 0.379121
O O9 0.759357 0.831318 0.567489
O O10 0.849448 0.632614 0.505515
O O11 0.561497 0.878191 0.494458
O O12 0.530222 0.743274 0.264865
O O13 0.533107 0.998612 0.256341
O O14 0.374807 0.049378 0.271533
#
# Coordination Sequence:
#
# PCOD9240904 Si02
#       7
#     4   4   4   4   4   4   4
#     4  10  21  37  53  77 110 147 184 228 276 326
#     4  10  21  36  54  78 109 143 186 230 276 329
#     4  10  19  33  57  86 110 140 181 228 273 327
#     4  10  21  38  61  88 118 148 187 231 283 338
#     4  10  20  36  58  83 112 142 182 228 279 328
#     4  10  21  38  60  88 116 150 188 231 281 341
#     4  10  19  34  56  80 107 142 183 227 277 324
#
# _framework density 19.582134
#
# number of rings (size 3 to 8) (size 9 to 14) (size 15 to 20)
#    0.000    2.000    0.000    6.000    0.000    3.429 
#    0.000   17.143    0.000    0.000    0.000    0.000 
#    0.000    0.000    0.000    0.000    0.000    0.000 
#
# Total GULP energy -156017.669900 kJ/mol
# GULP energy per Si atom -5572.059639 kJ/mol
# Density = 1.953756 g / cm^3
# Si number density = 19.582134 Si / 1000 Ang^3
#
#
#
# Elastic Constant Matrix: (Units=GPa)
#
#
# Indices 1 2 3 4 5 6 
#
# 1 89.2897 44.6517 44.4855 0.0000 4.8897 0.0000
# 2 44.6517 85.5896 33.0065 0.0000 -12.5757 0.0000
# 3 44.4855 33.0065 50.5194 0.0000 1.1466 0.0000
# 4 0.0000 0.0000 0.0000 18.3785 0.0000 -2.9015
# 5 4.8897 -12.5757 1.1466 0.0000 22.9509 0.0000
# 6 0.0000 0.0000 0.0000 -2.9015 0.0000 40.2212
#
#
#
# Elastic Compliance Matrix: (Units=1/GPa)
#
#
# Indices 1 2 3 4 5 6 
#
# 1 0.022829 -0.007238 -0.015191 0.000000 -0.008071 0.000000
# 2 -0.007238 0.020063 -0.007027 0.000000 0.012886 0.000000
# 3 -0.015191 -0.007027 0.037819 0.000000 -0.002504 0.000000
# 4 0.000000 0.000000 0.000000 0.055038 0.000000 0.003970
# 5 -0.008071 0.012886 -0.002504 0.000000 0.052477 0.000000
# 6 0.000000 0.000000 0.000000 0.003970 0.000000 0.025149
#
#
# Mechanical properties :
#
#
# Convention : Reuss Voigt Hill
#
# Bulk Modulus (GPa) = 45.87220 52.18733 49.02977
# Shear Modulus (GPa) = 17.88579 23.19379 20.53979
#
# Velocity S-wave (km/s) = 3.02548 3.44530 3.24219
# Velocity P-wave (km/s) = 5.97337 6.52189 6.25365
#
# Compressibility (1/GPa) = 0.02179969
#
# Stress axis : x y z
#
# Youngs Moduli (GPa) = 43.80403 49.84351 26.44200
#
# Poissons Ratio (x) = 0.36074 0.40167
# Poissons Ratio (y) = 0.31703 0.18581
# Poissons Ratio (z) = 0.66541 0.35026
#
# Static dielectric constant tensor:
#      x y z
#    x 1.688850 0.000000 0.011910 
#    y 0.000000 1.763940 0.000000 
#    z 0.011910 0.000000 1.687460 
# 
# From -- ./inp_files/15512.got.cif
#   From: 2010.05.17/outbox.cif.g08.bks.cpg/sg14_8_cif.got.tgz:15512.got - 2010.06.03 17:49:19.
