data_PCOD9240368
_publ_section_title
;
Structure prediction by ZEFSAII (Michael W. Deem and Ramdas Pophale) SiO2 
 PCOD9240368
Probable space group: P 21/C
;
_chemical_formula_sum "Si O2"
_cell_formula_units_Z 28
_cell_length_a 10.809717
_cell_length_b 12.735382
_cell_length_c 14.667892
_cell_angle_alpha 90.000000
_cell_angle_beta 41.704116
_cell_angle_gamma 90.000000
_cell_volume 1343.386799
_symmetry_space_group_name_H-M "P 21/C"
_symmetry_group_IT_number 14
_symmetry_cell_setting 'monoclinic'
loop_
_space_group_symop_operation_xyz
x,y,z
-x,1/2+y,1/2-z
-x,-y,-z
x,1/2-y,1/2+z
loop_
_atom_site_type_symbol
_atom_site_label
_atom_site_fract_x
_atom_site_fract_y
_atom_site_fract_z
Si Si1 0.005011 0.161605 0.978820
Si Si2 0.789673 0.871071 0.619234
Si Si3 0.435929 0.871569 0.595062
Si Si4 0.576998 0.236268 0.226533
Si Si5 0.004594 0.999128 0.638137
Si Si6 0.024997 0.967934 0.833669
Si Si7 0.601181 0.088582 0.577180
O O1 0.120644 0.264305 0.895329
O O2 0.786377 0.193076 0.097423
O O3 0.064282 0.114675 0.045578
O O4 0.041801 0.072667 0.884182
O O5 0.573008 0.846551 0.729294
O O6 0.840396 0.962512 0.662118
O O7 0.899939 0.900375 0.464230
O O8 0.452856 0.770483 0.648647
O O9 0.226799 0.916317 0.707118
O O10 0.481123 0.851126 0.465268
O O11 0.543500 0.969501 0.582640
O O12 0.542881 0.348577 0.198878
O O13 0.950843 0.999034 0.774214
O O14 0.175400 0.915916 0.538814
#
# Coordination Sequence:
#
# PCOD9240368 Si02
#       7
#     4   4   4   4   4   4   4
#     4  10  21  39  59  88 115 153 194 240 290 336
#     4  11  22  38  59  87 118 156 192 236 297 342
#     4   9  19  35  61  84 108 154 194 227 284 342
#     4  11  21  37  61  87 117 148 194 244 284 344
#     4  10  21  39  59  85 117 154 190 238 294 348
#     4   9  20  39  60  83 117 149 192 242 285 343
#     4  10  18  37  60  83 113 150 193 235 276 347
#
# _framework density 20.842841
#
# number of rings (size 3 to 8) (size 9 to 14) (size 15 to 20)
#    0.000    2.000    2.857    0.857    0.000    1.143 
#    5.143    0.714    0.000    0.000    0.000    0.000 
#    0.000    0.000    0.000    0.000    0.000    0.000 
#
# Total GULP energy -155891.138504 kJ/mol
# GULP energy per Si atom -5567.540661 kJ/mol
# Density = 2.079540 g / cm^3
# Si number density = 20.842841 Si / 1000 Ang^3
#
#
#
# Elastic Constant Matrix: (Units=GPa)
#
#
# Indices 1 2 3 4 5 6 
#
# 1 65.5043 4.2296 10.7374 0.0000 2.7491 0.0000
# 2 4.2296 42.0809 3.8099 0.0000 13.7923 0.0000
# 3 10.7374 3.8099 35.7102 0.0000 13.5248 0.0000
# 4 0.0000 0.0000 0.0000 26.3739 0.0000 10.3706
# 5 2.7491 13.7923 13.5248 0.0000 24.4040 0.0000
# 6 0.0000 0.0000 0.0000 10.3706 0.0000 11.4968
#
#
#
# Elastic Compliance Matrix: (Units=1/GPa)
#
#
# Indices 1 2 3 4 5 6 
#
# 1 0.016200 -0.001885 -0.005546 0.000000 0.002314 0.000000
# 2 -0.001885 0.029836 0.004670 0.000000 -0.019238 0.000000
# 3 -0.005546 0.004670 0.037888 0.000000 -0.023012 0.000000
# 4 0.000000 0.000000 0.000000 0.058758 0.000000 -0.053002
# 5 0.002314 -0.019238 -0.023012 0.000000 0.064342 0.000000
# 6 0.000000 0.000000 0.000000 -0.053002 0.000000 0.134792
#
#
# Mechanical properties :
#
#
# Convention : Reuss Voigt Hill
#
# Bulk Modulus (GPa) = 12.75491 20.09433 16.42462
# Shear Modulus (GPa) = 13.38789 20.75616 17.07202
#
# Velocity S-wave (km/s) = 2.53716 3.15912 2.86507
# Velocity P-wave (km/s) = 3.83612 4.79255 4.34075
#
# Compressibility (1/GPa) = 0.07840118
#
# Stress axis : x y z
#
# Youngs Moduli (GPa) = 61.72881 33.51693 26.39336
#
# Poissons Ratio (x) = 0.06316 0.14639
# Poissons Ratio (y) = 0.11633 -0.12324
# Poissons Ratio (z) = 0.34237 -0.15651
#
# Static dielectric constant tensor:
#      x y z
#    x 1.798740 0.000000 0.020840 
#    y 0.000000 1.747550 0.000000 
#    z 0.020840 0.000000 1.789690 
# 
# From -- ./inp_files/44321.got.cif
#   From: 2010.05.17/outbox.cif.g08.bks.cpg/sg14_23_cif.got.tgz:44321.got - 2010.06.03 17:49:19.
