data_PCOD9240747
_publ_section_title
;
Structure prediction by ZEFSAII (Michael W. Deem and Ramdas Pophale) SiO2 
 PCOD9240747
Probable space group: P 21/C
;
_chemical_formula_sum "Si O2"
_cell_formula_units_Z 32
_cell_length_a 11.167729
_cell_length_b 16.349108
_cell_length_c 9.221740
_cell_angle_alpha 90.000000
_cell_angle_beta 90.954171
_cell_angle_gamma 90.000000
_cell_volume 1683.494017
_symmetry_space_group_name_H-M "P 21/C"
_symmetry_group_IT_number 14
_symmetry_cell_setting 'monoclinic'
loop_
_space_group_symop_operation_xyz
x,y,z
-x,1/2+y,1/2-z
-x,-y,-z
x,1/2-y,1/2+z
loop_
_atom_site_type_symbol
_atom_site_label
_atom_site_fract_x
_atom_site_fract_y
_atom_site_fract_z
Si Si1 0.897102 0.822925 0.246147
Si Si2 0.719607 0.915004 0.603581
Si Si3 0.180217 0.995681 0.656170
Si Si4 0.247487 0.255899 0.522565
Si Si5 0.092797 0.888149 0.073906
Si Si6 0.406040 0.095276 0.119529
Si Si7 0.044964 0.435210 0.717580
Si Si8 0.675026 0.438798 0.563046
O O1 0.864214 0.914899 0.292624
O O2 0.866441 0.765769 0.379842
O O3 0.029471 0.823810 0.179747
O O4 0.802888 0.797723 0.121764
O O5 0.755652 0.987669 0.494958
O O6 0.695298 0.831881 0.515053
O O7 0.614457 0.931788 0.714654
O O8 0.838005 0.899283 0.704762
O O9 0.266996 0.959506 0.780325
O O10 0.058668 0.942875 0.662779
O O11 0.339931 0.318469 0.596000
O O12 0.081224 0.975429 0.156179
O O13 0.229585 0.884273 0.024223
O O14 0.012263 0.893704 0.925979
O O15 0.544481 0.099360 0.079537
O O16 0.344028 0.025246 0.020155
#
# Coordination Sequence:
#
# PCOD9240747 Si02
#       8
#     4   4   4   4   4   4   4   4
#     4  10  19  32  54  79 109 138 177 226 284 324
#     4  11  20  32  55  83 114 142 177 233 279 328
#     4   9  19  32  53  85 111 137 175 235 287 324
#     4  11  21  34  53  81 110 143 184 225 269 339
#     4   9  17  31  55  80 110 140 178 228 270 333
#     4  11  21  35  56  80 105 151 196 222 270 319
#     4   9  16  30  53  85 114 135 170 225 290 330
#     4  10  20  36  57  76 108 149 191 231 266 332
#
# _framework density 19.008085999999999
#
# number of rings (size 3 to 8) (size 9 to 14) (size 15 to 20)
#    0.000    2.000    3.750    1.875    0.000    0.500 
#    0.000    0.000    2.750    0.000    0.000    0.000 
#    0.000    0.000    0.000    0.000    0.000    0.000 
#
# Total GULP energy -178446.536168 kJ/mol
# GULP energy per Si atom -5576.454255 kJ/mol
# Density = 1.896482 g / cm^3
# Si number density = 19.008086 Si / 1000 Ang^3
#
#
#
# Elastic Constant Matrix: (Units=GPa)
#
#
# Indices 1 2 3 4 5 6 
#
# 1 75.4310 13.5063 15.3580 0.0000 -19.0545 0.0000
# 2 13.5063 35.9130 2.7613 0.0000 -4.2475 0.0000
# 3 15.3580 2.7613 64.3745 0.0000 -20.6403 0.0000
# 4 0.0000 0.0000 0.0000 15.0050 0.0000 -0.3536
# 5 -19.0545 -4.2475 -20.6403 0.0000 25.6325 0.0000
# 6 0.0000 0.0000 0.0000 -0.3536 0.0000 21.7981
#
#
#
# Elastic Compliance Matrix: (Units=1/GPa)
#
#
# Indices 1 2 3 4 5 6 
#
# 1 0.017175 -0.005050 -0.000075 0.000000 0.011870 0.000000
# 2 -0.005050 0.029894 0.000414 0.000000 0.001533 0.000000
# 3 -0.000075 0.000414 0.020946 0.000000 0.016880 0.000000
# 4 0.000000 0.000000 0.000000 0.066670 0.000000 0.001082
# 5 0.011870 0.001533 0.016880 0.000000 0.061683 0.000000
# 6 0.000000 0.000000 0.000000 0.001082 0.000000 0.045893
#
#
# Mechanical properties :
#
#
# Convention : Reuss Voigt Hill
#
# Bulk Modulus (GPa) = 17.06656 26.55218 21.80937
# Shear Modulus (GPa) = 18.43566 22.09334 20.26450
#
# Velocity S-wave (km/s) = 3.11768 3.41297 3.26866
# Velocity P-wave (km/s) = 4.68593 5.43418 5.07387
#
# Compressibility (1/GPa) = 0.05859410
#
# Stress axis : x y z
#
# Youngs Moduli (GPa) = 58.22383 33.45198 47.74113
#
# Poissons Ratio (x) = 0.16892 0.00358
# Poissons Ratio (y) = 0.29400 -0.01977
# Poissons Ratio (z) = 0.00436 -0.01385
#
# Static dielectric constant tensor:
#      x y z
#    x 1.656130 0.000000 -0.038020 
#    y 0.000000 1.682950 0.000000 
#    z -0.038020 0.000000 1.696790 
# 
# From -- ./inp_files/13744.got.cif
#   From: 2010.05.17/outbox.cif.g08.bks.cpg/sg14_7_cif.got.tgz:13744.got - 2010.06.03 17:49:19.
