data_PCOD9240235
_publ_section_title
;
Structure prediction by ZEFSAII (Michael W. Deem and Ramdas Pophale) SiO2 
 PCOD9240235
Probable space group: P 21/C
;
_chemical_formula_sum "Si O2"
_cell_formula_units_Z 20
_cell_length_a 10.914034
_cell_length_b 15.356858
_cell_length_c 5.242203
_cell_angle_alpha 90.000000
_cell_angle_beta 94.273985
_cell_angle_gamma 90.000000
_cell_volume 876.177472
_symmetry_space_group_name_H-M "P 21/C"
_symmetry_group_IT_number 14
_symmetry_cell_setting 'monoclinic'
loop_
_space_group_symop_operation_xyz
x,y,z
-x,1/2+y,1/2-z
-x,-y,-z
x,1/2-y,1/2+z
loop_
_atom_site_type_symbol
_atom_site_label
_atom_site_fract_x
_atom_site_fract_y
_atom_site_fract_z
Si Si1 0.748228 0.117264 0.495453
Si Si2 0.223526 0.194069 0.358056
Si Si3 0.500938 0.808941 0.670042
Si Si4 0.103229 0.721879 0.315246
Si Si5 0.920510 0.979349 0.737351
O O1 0.607197 0.121916 0.397613
O O2 0.800794 0.040588 0.675398
O O3 0.835293 0.132062 0.257900
O O4 0.784225 0.208293 0.639823
O O5 0.217591 0.229537 0.645708
O O6 0.361232 0.155534 0.340205
O O7 0.965675 0.265331 0.432766
O O8 0.489112 0.734911 0.447006
O O9 0.875586 0.619919 0.217086
O O10 0.000000 0.000000 0.500000
O O11 0.000000 0.000000 0.000000
#
# Coordination Sequence:
#
# PCOD9240235 Si02
#       5
#     4   4   4   4   4
#     4  10  20  37  63  95 131 151 220 259 337 356
#     4  10  23  48  67  94 134 177 213 258 343 407
#     4  10  18  35  68  98 130 165 207 264 328 407
#     4   8  16  30  54  88 120 150 186 248 316 368
#     4  12  29  46  64  96 132 174 231 279 309 376
#
# _framework density 22.826423999999999
#
# number of rings (size 3 to 8) (size 9 to 14) (size 15 to 20)
#    1.200    0.800    2.000    1.200    2.800    0.800 
#   10.800    0.000    0.000    9.600    0.000    0.000 
#    0.000    0.000    0.000    0.000    0.000    0.000 
#
# Total GULP energy -111582.238854 kJ/mol
# GULP energy per Si atom -5579.111943 kJ/mol
# Density = 2.277447 g / cm^3
# Si number density = 22.826424 Si / 1000 Ang^3
#
#
#
# Elastic Constant Matrix: (Units=GPa)
#
#
# Indices 1 2 3 4 5 6 
#
# 1 120.2697 21.6562 26.3696 0.0000 26.0771 0.0000
# 2 21.6562 81.9290 26.7522 0.0000 8.9202 0.0000
# 3 26.3696 26.7522 158.2939 0.0000 0.8178 0.0000
# 4 0.0000 0.0000 0.0000 30.3212 0.0000 13.2615
# 5 26.0771 8.9202 0.8178 0.0000 34.4389 0.0000
# 6 0.0000 0.0000 0.0000 13.2615 0.0000 40.8948
#
#
#
# Elastic Compliance Matrix: (Units=1/GPa)
#
#
# Indices 1 2 3 4 5 6 
#
# 1 0.010544 -0.001485 -0.001466 0.000000 -0.007564 0.000000
# 2 -0.001485 0.013513 -0.002024 0.000000 -0.002328 0.000000
# 3 -0.001466 -0.002024 0.006896 0.000000 0.001471 0.000000
# 4 0.000000 0.000000 0.000000 0.038431 0.000000 -0.012463
# 5 -0.007564 -0.002328 0.001471 0.000000 0.035333 0.000000
# 6 0.000000 0.000000 0.000000 -0.012463 0.000000 0.028494
#
#
# Mechanical properties :
#
#
# Convention : Reuss Voigt Hill
#
# Bulk Modulus (GPa) = 47.61535 56.67205 52.14370
# Shear Modulus (GPa) = 33.29752 40.17862 36.73807
#
# Velocity S-wave (km/s) = 3.82347 4.20000 4.01615
# Velocity P-wave (km/s) = 6.35586 6.95710 6.66327
#
# Compressibility (1/GPa) = 0.02100163
#
# Stress axis : x y z
#
# Youngs Moduli (GPa) = 94.84449 74.00527 145.00808
#
# Poissons Ratio (x) = 0.10987 0.21265
# Poissons Ratio (y) = 0.14080 0.29354
# Poissons Ratio (z) = 0.13908 0.14981
#
# Static dielectric constant tensor:
#      x y z
#    x 1.913770 0.000000 0.013070 
#    y 0.000000 1.878160 0.000000 
#    z 0.013070 0.000000 1.945140 
# 
# From -- ./inp_files/2574.got.cif
#   From: 2010.05.17/outbox.cif.g08.bks.cpg/sg14_2_cif.got.tgz:2574.got - 2010.06.03 17:49:19.
