data_PCOD9240733
_publ_section_title
;
Structure prediction by ZEFSAII (Michael W. Deem and Ramdas Pophale) SiO2 
 PCOD9240733
Probable space group: P 21/C
;
_chemical_formula_sum "Si O2"
_cell_formula_units_Z 24
_cell_length_a 7.886306
_cell_length_b 9.149929
_cell_length_c 15.333269
_cell_angle_alpha 90.000000
_cell_angle_beta 121.539874
_cell_angle_gamma 90.000000
_cell_volume 942.988795
_symmetry_space_group_name_H-M "P 21/C"
_symmetry_group_IT_number 14
_symmetry_cell_setting 'monoclinic'
loop_
_space_group_symop_operation_xyz
x,y,z
-x,1/2+y,1/2-z
-x,-y,-z
x,1/2-y,1/2+z
loop_
_atom_site_type_symbol
_atom_site_label
_atom_site_fract_x
_atom_site_fract_y
_atom_site_fract_z
Si Si1 0.025289 0.560196 0.357205
Si Si2 0.006230 0.203835 0.959344
Si Si3 0.710203 0.540946 0.967159
Si Si4 0.597596 0.609149 0.243121
Si Si5 0.358963 0.762757 0.439205
Si Si6 0.435875 0.879496 0.140031
O O1 0.978010 0.638922 0.438251
O O2 0.805478 0.553033 0.257627
O O3 0.100003 0.402083 0.410477
O O4 0.185561 0.661474 0.351663
O O5 0.772413 0.183863 0.878796
O O6 0.089402 0.365840 0.985156
O O7 0.589034 0.456946 0.859209
O O8 0.735666 0.410561 0.044114
O O9 0.550784 0.669189 0.946176
O O10 0.599596 0.782316 0.232209
O O11 0.566237 0.545981 0.331340
O O12 0.433837 0.659253 0.538742
#
# Coordination Sequence:
#
# PCOD9240733 Si02
#       6
#     4   4   4   4   4   4
#     4   9  18  34  53  76 103 134 172 215 257 306
#     4   9  18  33  55  77 102 136 175 209 253 316
#     4  10  20  35  54  78 106 137 174 215 256 307
#     4  10  19  32  53  80 106 131 174 226 257 292
#     4   9  20  36  53  74 105 140 172 204 259 320
#     4   9  19  34  54  78 104 138 175 213 256 305
#
# _framework density 25.450994000000001
#
# number of rings (size 3 to 8) (size 9 to 14) (size 15 to 20)
#    0.000    2.667    0.000    2.000    0.000    8.000 
#    0.000   10.000    0.000    6.000    0.000    0.000 
#    0.000    0.000    0.000    0.000    0.000    0.000 
#
# Total GULP energy -133902.834621 kJ/mol
# GULP energy per Si atom -5579.284776 kJ/mol
# Density = 2.539307 g / cm^3
# Si number density = 25.450994 Si / 1000 Ang^3
#
#
#
# Elastic Constant Matrix: (Units=GPa)
#
#
# Indices 1 2 3 4 5 6 
#
# 1 27.9134 10.6682 -5.5726 0.0000 10.6987 0.0000
# 2 10.6682 98.4750 14.1625 0.0000 5.4303 0.0000
# 3 -5.5726 14.1625 35.6913 0.0000 16.8558 0.0000
# 4 0.0000 0.0000 0.0000 34.3743 0.0000 16.4976
# 5 10.6987 5.4303 16.8558 0.0000 22.1024 0.0000
# 6 0.0000 0.0000 0.0000 16.4976 0.0000 56.8256
#
#
#
# Elastic Compliance Matrix: (Units=1/GPa)
#
#
# Indices 1 2 3 4 5 6 
#
# 1 0.081007 -0.012286 0.054101 0.000000 -0.077452 0.000000
# 2 -0.012286 0.012646 -0.012937 0.000000 0.012706 0.000000
# 3 0.054101 -0.012937 0.081997 0.000000 -0.085542 0.000000
# 4 0.000000 0.000000 0.000000 0.033801 0.000000 -0.009813
# 5 -0.077452 0.012706 -0.085542 0.000000 0.144849 0.000000
# 6 0.000000 0.000000 0.000000 -0.009813 0.000000 0.020447
#
#
# Mechanical properties :
#
#
# Convention : Reuss Voigt Hill
#
# Bulk Modulus (GPa) = 4.28437 22.28845 13.28641
# Shear Modulus (GPa) = 12.66493 32.18191 22.42342
#
# Velocity S-wave (km/s) = 2.23316 3.55979 2.97146
# Velocity P-wave (km/s) = 2.88728 5.06681 4.12365
#
# Compressibility (1/GPa) = 0.23340631
#
# Stress axis : x y z
#
# Youngs Moduli (GPa) = 12.34461 79.07834 12.19563
#
# Poissons Ratio (x) = 0.97152 -0.65979
# Poissons Ratio (y) = 0.15166 0.15777
# Poissons Ratio (z) = -0.66785 1.02300
#
# Static dielectric constant tensor:
#      x y z
#    x 2.061660 0.000000 0.029740 
#    y 0.000000 2.075760 0.000000 
#    z 0.029740 0.000000 2.101200 
# 
# From -- ./inp_files/46345.got.cif
#   From: 2010.05.17/outbox.cif.g08.bks.cpg/sg14_24_cif.got.tgz:46345.got - 2010.06.03 17:49:19.
