data_PCOD9240407
_publ_section_title
;
Structure prediction by ZEFSAII (Michael W. Deem and Ramdas Pophale) SiO2 
 PCOD9240407
Probable space group: P 21/C
;
_chemical_formula_sum "Si O2"
_cell_formula_units_Z 28
_cell_length_a 5.349687
_cell_length_b 17.420654
_cell_length_c 12.731844
_cell_angle_alpha 90.000000
_cell_angle_beta 108.923562
_cell_angle_gamma 90.000000
_cell_volume 1122.414504
_symmetry_space_group_name_H-M "P 21/C"
_symmetry_group_IT_number 14
_symmetry_cell_setting 'monoclinic'
loop_
_space_group_symop_operation_xyz
x,y,z
-x,1/2+y,1/2-z
-x,-y,-z
x,1/2-y,1/2+z
loop_
_atom_site_type_symbol
_atom_site_label
_atom_site_fract_x
_atom_site_fract_y
_atom_site_fract_z
Si Si1 0.373517 0.191025 0.833173
Si Si2 0.655921 0.067900 0.218365
Si Si3 0.892582 0.006670 0.848541
Si Si4 0.033056 0.659219 0.539402
Si Si5 0.718742 0.386397 0.123798
Si Si6 0.777355 0.931305 0.375077
Si Si7 0.074759 0.717308 0.311715
O O1 0.687946 0.196550 0.883989
O O2 0.304422 0.125706 0.735418
O O3 0.225159 0.170839 0.922780
O O4 0.208882 0.265581 0.777944
O O5 0.753123 0.154747 0.225942
O O6 0.345065 0.052542 0.164021
O O7 0.737764 0.017283 0.330211
O O8 0.830356 0.028142 0.150216
O O9 0.911742 0.068818 0.942746
O O10 0.798521 0.059237 0.734333
O O11 0.011434 0.689931 0.420164
O O12 0.418403 0.406146 0.060531
O O13 0.768820 0.297976 0.158272
O O14 0.922898 0.410630 0.063162
#
# Coordination Sequence:
#
# PCOD9240407 Si02
#       7
#     4   4   4   4   4   4   4
#     4  11  21  42  57  80 125 155 204 242 278 364
#     4  10  20  33  55  89 119 153 186 237 296 361
#     4  10  18  38  56  78 124 169 177 226 301 372
#     4  12  22  38  63  82 122 166 193 233 307 345
#     4   9  17  33  55  73 110 153 198 222 264 344
#     4   9  15  34  57  69 108 167 176 217 291 344
#     4  11  25  36  61  97 117 152 206 250 288 346
#
# _framework density 24.94622
#
# number of rings (size 3 to 8) (size 9 to 14) (size 15 to 20)
#    0.000    1.714    7.143    0.000    0.000    9.143 
#    0.000    0.000    0.000    0.000    0.000   38.000 
#    0.000    0.000    0.000    0.000    0.000    0.000 
#
# Total GULP energy -156638.401896 kJ/mol
# GULP energy per Si atom -5594.228639 kJ/mol
# Density = 2.488944 g / cm^3
# Si number density = 24.946220 Si / 1000 Ang^3
#
#
#
# Elastic Constant Matrix: (Units=GPa)
#
#
# Indices 1 2 3 4 5 6 
#
# 1 180.5688 48.9579 -9.0207 0.0000 -15.4218 0.0000
# 2 48.9579 193.9949 -47.4091 0.0000 -4.8212 0.0000
# 3 -9.0207 -47.4091 102.2109 0.0000 2.3356 0.0000
# 4 0.0000 0.0000 0.0000 22.8332 0.0000 -2.9191
# 5 -15.4218 -4.8212 2.3356 0.0000 12.9684 0.0000
# 6 0.0000 0.0000 0.0000 -2.9191 0.0000 45.8536
#
#
#
# Elastic Compliance Matrix: (Units=1/GPa)
#
#
# Indices 1 2 3 4 5 6 
#
# 1 0.006565 -0.001551 -0.000306 0.000000 0.007286 0.000000
# 2 -0.001551 0.006217 0.002747 0.000000 -0.000028 0.000000
# 3 -0.000306 0.002747 0.011061 0.000000 -0.001335 0.000000
# 4 0.000000 0.000000 0.000000 0.044155 0.000000 0.002811
# 5 0.007286 -0.000028 -0.001335 0.000000 0.086005 0.000000
# 6 0.000000 0.000000 0.000000 0.002811 0.000000 0.021987
#
#
# Mechanical properties :
#
#
# Convention : Reuss Voigt Hill
#
# Bulk Modulus (GPa) = 39.02510 51.31454 45.16982
# Shear Modulus (GPa) = 27.35943 48.61416 37.98679
#
# Velocity S-wave (km/s) = 3.31529 4.41926 3.90647
# Velocity P-wave (km/s) = 5.50750 6.83042 6.20432
#
# Compressibility (1/GPa) = 0.02562453
#
# Stress axis : x y z
#
# Youngs Moduli (GPa) = 152.31166 160.85336 90.40372
#
# Poissons Ratio (x) = 0.24943 0.02769
# Poissons Ratio (y) = 0.23619 -0.24837
# Poissons Ratio (z) = 0.04666 -0.44192
#
# Static dielectric constant tensor:
#      x y z
#    x 2.036820 0.000000 0.018890 
#    y 0.000000 2.004660 0.000000 
#    z 0.018890 0.000000 2.014600 
# 
# From -- ./inp_files/37582.got.cif
#   From: 2010.05.17/outbox.cif.g08.bks.cpg/sg14_19_cif.got.tgz:37582.got - 2010.06.03 17:49:19.
