data_PCOD9240015
_publ_section_title
;
Structure prediction by ZEFSAII (Michael W. Deem and Ramdas Pophale) SiO2 
 PCOD9240015
Probable space group: P 21/C
;
_chemical_formula_sum "Si O2"
_cell_formula_units_Z 32
_cell_length_a 9.469563
_cell_length_b 7.917943
_cell_length_c 22.877599
_cell_angle_alpha 90.000000
_cell_angle_beta 55.377525
_cell_angle_gamma 90.000000
_cell_volume 1411.584794
_symmetry_space_group_name_H-M "P 21/C"
_symmetry_group_IT_number 14
_symmetry_cell_setting 'monoclinic'
loop_
_space_group_symop_operation_xyz
x,y,z
-x,1/2+y,1/2-z
-x,-y,-z
x,1/2-y,1/2+z
loop_
_atom_site_type_symbol
_atom_site_label
_atom_site_fract_x
_atom_site_fract_y
_atom_site_fract_z
Si Si1 0.542727 0.334377 0.527938
Si Si2 0.291035 0.461109 0.322092
Si Si3 0.837073 0.380545 0.750791
Si Si4 0.694721 0.052512 0.725797
Si Si5 0.779901 0.595591 0.328276
Si Si6 0.135000 0.847350 0.960861
Si Si7 0.217674 0.716531 0.114252
Si Si8 0.085326 0.350713 0.906976
O O1 0.500000 0.500000 0.500000
O O2 0.375300 0.304204 0.605686
O O3 0.705270 0.365484 0.532092
O O4 0.611040 0.201321 0.464696
O O5 0.194450 0.461643 0.283050
O O6 0.492695 0.469762 0.263877
O O7 0.218440 0.615678 0.378341
O O8 0.233026 0.293139 0.369549
O O9 0.787085 0.404590 0.829252
O O10 0.035006 0.326504 0.703684
O O11 0.726177 0.234936 0.746700
O O12 0.747989 0.930321 0.767125
O O13 0.810775 0.011888 0.641882
O O14 0.786403 0.406695 0.356690
O O15 0.022801 0.684420 0.007824
O O16 0.000000 0.000000 0.000000
O O17 0.058778 0.686510 0.108580
#
# Coordination Sequence:
#
# PCOD9240015 Si02
#       8
#     4   4   4   4   4   4   4   4
#     4   9  17  31  55  82 111 137 187 244 275 308
#     4  11  21  38  57  85 113 148 190 234 282 337
#     4  11  22  35  57  85 114 150 186 227 288 345
#     4  11  22  36  54  85 117 148 186 230 285 347
#     4  10  18  34  55  81 112 146 186 234 274 331
#     4   9  19  33  55  84 110 145 189 234 282 327
#     4   9  18  33  55  84 105 142 188 233 274 319
#     4  10  19  36  59  79 113 146 185 235 279 323
#
# _framework density 22.669557000000001
#
# number of rings (size 3 to 8) (size 9 to 14) (size 15 to 20)
#    0.000    2.000    3.750    0.750    1.750    0.000 
#    0.000    0.625    0.000    4.500    0.000    0.000 
#    0.000    0.000    0.000    0.000    0.000    0.000 
#
# Total GULP energy -178554.916064 kJ/mol
# GULP energy per Si atom -5579.841127 kJ/mol
# Density = 2.261796 g / cm^3
# Si number density = 22.669557 Si / 1000 Ang^3
#
#
#
# Elastic Constant Matrix: (Units=GPa)
#
#
# Indices 1 2 3 4 5 6 
#
# 1 95.6530 -2.0606 33.2736 0.0000 -25.1134 0.0000
# 2 -2.0606 44.5791 -6.2820 0.0000 -4.0505 0.0000
# 3 33.2736 -6.2820 99.7605 0.0000 -8.2219 0.0000
# 4 0.0000 0.0000 0.0000 18.7586 0.0000 -3.1216
# 5 -25.1134 -4.0505 -8.2219 0.0000 36.6426 0.0000
# 6 0.0000 0.0000 0.0000 -3.1216 0.0000 15.8045
#
#
#
# Elastic Compliance Matrix: (Units=1/GPa)
#
#
# Indices 1 2 3 4 5 6 
#
# 1 0.014193 0.000914 -0.003939 0.000000 0.008944 0.000000
# 2 0.000914 0.022993 0.001431 0.000000 0.003489 0.000000
# 3 -0.003939 0.001431 0.011430 0.000000 0.000023 0.000000
# 4 0.000000 0.000000 0.000000 0.055120 0.000000 0.010887
# 5 0.008944 0.003489 0.000023 0.000000 0.033811 0.000000
# 6 0.000000 0.000000 0.000000 0.010887 0.000000 0.065423
#
#
# Mechanical properties :
#
#
# Convention : Reuss Voigt Hill
#
# Bulk Modulus (GPa) = 22.01387 32.20605 27.10996
# Shear Modulus (GPa) = 22.59357 28.57860 25.58608
#
# Velocity S-wave (km/s) = 3.16040 3.55443 3.36319
# Velocity P-wave (km/s) = 4.80097 5.57520 5.20251
#
# Compressibility (1/GPa) = 0.04542591
#
# Stress axis : x y z
#
# Youngs Moduli (GPa) = 70.45899 43.49169 87.49046
#
# Poissons Ratio (x) = -0.03974 0.34463
# Poissons Ratio (y) = -0.06437 -0.12517
# Poissons Ratio (z) = 0.27754 -0.06222
#
# Static dielectric constant tensor:
#      x y z
#    x 1.756460 0.000000 0.028400 
#    y 0.000000 1.936620 0.000000 
#    z 0.028400 0.000000 1.863050 
# 
# From -- ./inp_files/64852.got.cif
#   From: 2010.05.17/outbox.cif.g08.bks.cpg/sg14_33_cif.got.tgz:64852.got - 2010.06.03 17:49:19.
