data_PCOD9240646
_publ_section_title
;
Structure prediction by ZEFSAII (Michael W. Deem and Ramdas Pophale) SiO2 
 PCOD9240646
Probable space group: P 21/C
;
_chemical_formula_sum "Si O2"
_cell_formula_units_Z 28
_cell_length_a 21.066333
_cell_length_b 15.079209
_cell_length_c 23.373630
_cell_angle_alpha 90.000000
_cell_angle_beta 11.675674
_cell_angle_gamma 90.000000
_cell_volume 1502.598963
_symmetry_space_group_name_H-M "P 21/C"
_symmetry_group_IT_number 14
_symmetry_cell_setting 'monoclinic'
loop_
_space_group_symop_operation_xyz
x,y,z
-x,1/2+y,1/2-z
-x,-y,-z
x,1/2-y,1/2+z
loop_
_atom_site_type_symbol
_atom_site_label
_atom_site_fract_x
_atom_site_fract_y
_atom_site_fract_z
Si Si1 0.168187 0.549522 0.725145
Si Si2 0.549928 0.862169 0.563416
Si Si3 0.803425 0.057737 0.218352
Si Si4 0.612355 0.869601 0.914680
Si Si5 0.156340 0.526512 0.499035
Si Si6 0.709547 0.319393 0.184968
Si Si7 0.509405 0.996731 0.176669
O O1 0.228539 0.465812 0.714360
O O2 0.396548 0.624772 0.549042
O O3 0.277397 0.522747 0.565528
O O4 0.795448 0.560791 0.054093
O O5 0.328013 0.860220 0.702111
O O6 0.410092 0.933481 0.731336
O O7 0.501359 0.767809 0.635933
O O8 0.889238 0.898313 0.245581
O O9 0.500000 0.000000 0.500000
O O10 0.000000 0.000000 0.000000
O O11 0.997723 0.057005 0.105652
O O12 0.914116 0.805102 0.648822
O O13 0.384035 0.854518 0.169588
O O14 0.308508 0.502851 0.424803
O O15 0.613039 0.396599 0.226127
#
# Coordination Sequence:
#
# PCOD9240646 Si02
#       7
#     4   4   4   4   4   4   4
#     4   9  17  30  49  73  99 131 173 207 238 306
#     4  10  19  33  53  77 101 130 177 220 262 296
#     4   8  16  30  50  72  91 119 168 214 247 290
#     4   9  17  30  49  73 100 131 168 212 248 287
#     4  10  19  33  53  74  98 138 174 215 253 309
#     4  10  19  31  51  78 103 134 171 215 263 308
#     4  10  19  31  51  75 102 139 175 202 255 320
#
# _framework density 18.634381000000001
#
# number of rings (size 3 to 8) (size 9 to 14) (size 15 to 20)
#    0.000    2.571    0.000    2.571    0.000    3.429 
#    0.000    0.000    9.429    0.000    3.714    0.000 
#    0.000    0.000    0.000    0.000    0.000    0.000 
#
# Total GULP energy -155883.012588 kJ/mol
# GULP energy per Si atom -5567.250450 kJ/mol
# Density = 1.859197 g / cm^3
# Si number density = 18.634381 Si / 1000 Ang^3
#
#
#
# Elastic Constant Matrix: (Units=GPa)
#
#
# Indices 1 2 3 4 5 6 
#
# 1 102.1636 10.3431 22.2419 0.0000 -28.6588 0.0000
# 2 10.3431 27.8337 -1.6589 0.0000 -11.3811 0.0000
# 3 22.2419 -1.6589 81.2040 0.0000 4.7185 0.0000
# 4 0.0000 0.0000 0.0000 16.0287 0.0000 1.0043
# 5 -28.6588 -11.3811 4.7185 0.0000 34.6983 0.0000
# 6 0.0000 0.0000 0.0000 1.0043 0.0000 13.2784
#
#
#
# Elastic Compliance Matrix: (Units=1/GPa)
#
#
# Indices 1 2 3 4 5 6 
#
# 1 0.014291 -0.000581 -0.004638 0.000000 0.012244 0.000000
# 2 -0.000581 0.041517 0.000246 0.000000 0.013105 0.000000
# 3 -0.004638 0.000246 0.013918 0.000000 -0.005643 0.000000
# 4 0.000000 0.000000 0.000000 0.062685 0.000000 -0.004741
# 5 0.012244 0.013105 -0.005643 0.000000 0.043998 0.000000
# 6 0.000000 0.000000 0.000000 -0.004741 0.000000 0.075669
#
#
# Mechanical properties :
#
#
# Convention : Reuss Voigt Hill
#
# Bulk Modulus (GPa) = 16.72785 30.33926 23.53356
# Shear Modulus (GPa) = 17.73364 24.81944 21.27654
#
# Velocity S-wave (km/s) = 3.08825 3.65350 3.38270
# Velocity P-wave (km/s) = 4.65969 5.84073 5.28332
#
# Compressibility (1/GPa) = 0.05978053
#
# Stress axis : x y z
#
# Youngs Moduli (GPa) = 69.97230 24.08679 71.85025
#
# Poissons Ratio (x) = 0.01398 0.33322
# Poissons Ratio (y) = 0.04062 -0.01765
# Poissons Ratio (z) = 0.32451 -0.00592
#
# Static dielectric constant tensor:
#      x y z
#    x 1.643180 0.000000 -0.023800 
#    y 0.000000 1.700020 0.000000 
#    z -0.023800 0.000000 1.669980 
# 
# From -- ./inp_files/53174.got.cif
#   From: 2010.05.17/outbox.cif.g08.bks.cpg/sg14_27_cif.got.tgz:53174.got - 2010.06.03 17:49:19.
