data_PCOD9240577
_publ_section_title
;
Structure prediction by ZEFSAII (Michael W. Deem and Ramdas Pophale) SiO2 
 PCOD9240577
Probable space group: P 21/C
;
_chemical_formula_sum "Si O2"
_cell_formula_units_Z 24
_cell_length_a 13.602256
_cell_length_b 5.067901
_cell_length_c 26.970549
_cell_angle_alpha 90.000000
_cell_angle_beta 41.747232
_cell_angle_gamma 90.000000
_cell_volume 1237.948000
_symmetry_space_group_name_H-M "P 21/C"
_symmetry_group_IT_number 14
_symmetry_cell_setting 'monoclinic'
loop_
_space_group_symop_operation_xyz
x,y,z
-x,1/2+y,1/2-z
-x,-y,-z
x,1/2-y,1/2+z
loop_
_atom_site_type_symbol
_atom_site_label
_atom_site_fract_x
_atom_site_fract_y
_atom_site_fract_z
Si Si1 0.876860 0.709289 0.525150
Si Si2 0.772197 0.044379 0.971963
Si Si3 0.336601 0.458673 0.041687
Si Si4 0.141944 0.966950 0.375027
Si Si5 0.102739 0.005224 0.717529
Si Si6 0.124765 0.470835 0.320653
O O1 0.770421 0.543139 0.529978
O O2 0.000000 0.500000 0.500000
O O3 0.971091 0.912237 0.455484
O O4 0.803197 0.882489 0.596197
O O5 0.709090 0.329099 0.982837
O O6 0.945455 0.021034 0.891607
O O7 0.685824 0.830983 0.971948
O O8 0.224655 0.501778 0.129295
O O9 0.500000 0.500000 0.000000
O O10 0.188487 0.684096 0.335839
O O11 0.161079 0.177005 0.324308
O O12 0.166078 0.967087 0.748917
O O13 0.018636 0.282940 0.747461
#
# Coordination Sequence:
#
# PCOD9240577 Si02
#       6
#     4   4   4   4   4   4
#     4  10  19  29  52  83 121 144 178 232 310 344
#     4  11  21  35  58  81 119 154 189 240 291 343
#     4  12  25  41  56  83 122 160 198 237 286 348
#     4  10  19  29  46  81 121 141 171 232 295 353
#     4  12  22  36  59  85 110 154 200 244 289 338
#     4  11  19  32  53  80 116 142 186 231 293 332
#
# _framework density 19.386921000000001
#
# number of rings (size 3 to 8) (size 9 to 14) (size 15 to 20)
#    0.000    1.000    6.667    3.500    2.333    0.000 
#    0.000    0.000    0.000    0.000    0.000    4.667 
#    0.000    0.000    0.000    0.000    0.000    0.000 
#
# Total GULP energy -133939.754404 kJ/mol
# GULP energy per Si atom -5580.823100 kJ/mol
# Density = 1.934280 g / cm^3
# Si number density = 19.386921 Si / 1000 Ang^3
#
#
#
# Elastic Constant Matrix: (Units=GPa)
#
#
# Indices 1 2 3 4 5 6 
#
# 1 45.0800 -4.7937 22.8121 0.0000 6.0970 0.0000
# 2 -4.7937 61.5046 -6.0415 0.0000 7.2096 0.0000
# 3 22.8121 -6.0415 32.8066 0.0000 22.7990 0.0000
# 4 0.0000 0.0000 0.0000 20.0524 0.0000 19.5425
# 5 6.0970 7.2096 22.7990 0.0000 29.8989 0.0000
# 6 0.0000 0.0000 0.0000 19.5425 0.0000 26.2220
#
#
#
# Elastic Compliance Matrix: (Units=1/GPa)
#
#
# Indices 1 2 3 4 5 6 
#
# 1 0.046739 -0.006697 -0.060059 0.000000 0.037881 0.000000
# 2 -0.006697 0.020517 0.023239 0.000000 -0.021302 0.000000
# 3 -0.060059 0.023239 0.152968 0.000000 -0.110000 0.000000
# 4 0.000000 0.000000 0.000000 0.182219 0.000000 -0.135802
# 5 0.037881 -0.021302 -0.110000 0.000000 0.114737 0.000000
# 6 0.000000 0.000000 0.000000 -0.135802 0.000000 0.139345
#
#
# Mechanical properties :
#
#
# Convention : Reuss Voigt Hill
#
# Bulk Modulus (GPa) = 7.50806 18.14946 12.82876
# Shear Modulus (GPa) = 6.34553 23.72894 15.03723
#
# Velocity S-wave (km/s) = 1.81113 3.50232 2.78805
# Velocity P-wave (km/s) = 2.87311 5.07316 4.12261
#
# Compressibility (1/GPa) = 0.13319017
#
# Stress axis : x y z
#
# Youngs Moduli (GPa) = 21.39524 48.74068 6.53731
#
# Poissons Ratio (x) = 0.32642 0.39262
# Poissons Ratio (y) = 0.14328 -0.15192
# Poissons Ratio (z) = 1.28498 -1.13268
#
# Static dielectric constant tensor:
#      x y z
#    x 1.678530 0.000000 0.049470 
#    y 0.000000 1.702400 0.000000 
#    z 0.049470 0.000000 1.665290 
# 
# From -- ./inp_files/72615.got.cif
#   From: 2010.05.17/outbox.cif.g08.bks.cpg/sg14_37_cif.got.tgz:72615.got - 2010.06.03 17:49:19.
