data_PCOD9240108
_publ_section_title
;
Structure prediction by ZEFSAII (Michael W. Deem and Ramdas Pophale) SiO2 
 PCOD9240108
Probable space group: P 21/C
;
_chemical_formula_sum "Si O2"
_cell_formula_units_Z 32
_cell_length_a 13.203026
_cell_length_b 9.371237
_cell_length_c 22.386092
_cell_angle_alpha 90.000000
_cell_angle_beta 32.168970
_cell_angle_gamma 90.000000
_cell_volume 1474.692083
_symmetry_space_group_name_H-M "P 21/C"
_symmetry_group_IT_number 14
_symmetry_cell_setting 'monoclinic'
loop_
_space_group_symop_operation_xyz
x,y,z
-x,1/2+y,1/2-z
-x,-y,-z
x,1/2-y,1/2+z
loop_
_atom_site_type_symbol
_atom_site_label
_atom_site_fract_x
_atom_site_fract_y
_atom_site_fract_z
Si Si1 0.796329 0.716828 0.137891
Si Si2 0.066875 0.983789 0.897312
Si Si3 0.360350 0.763936 0.214920
Si Si4 0.008073 0.099122 0.347783
Si Si5 0.620590 0.319143 0.164469
Si Si6 0.762138 0.139137 0.994857
Si Si7 0.606384 0.977961 0.885080
Si Si8 0.252286 0.106613 0.462511
O O1 0.825278 0.865497 0.158827
O O2 0.897055 0.610437 0.133020
O O3 0.570967 0.726832 0.242679
O O4 0.856388 0.685425 0.038874
O O5 0.887211 0.998147 0.942607
O O6 0.207658 0.860221 0.805239
O O7 0.000000 0.000000 0.000000
O O8 0.353666 0.853390 0.279616
O O9 0.335155 0.871055 0.173322
O O10 0.573043 0.701387 0.102741
O O11 0.870973 0.235465 0.404585
O O12 0.190105 0.100244 0.213895
O O13 0.882485 0.956035 0.418362
O O14 0.646236 0.465387 0.116230
O O15 0.761289 0.210567 0.061484
O O16 0.552718 0.102598 0.076055
O O17 0.500000 0.000000 0.000000
#
# Coordination Sequence:
#
# PCOD9240108 Si02
#       8
#     4   4   4   4   4   4   4   4
#     4  10  19  32  57  89 143 174 203 266 343 418
#     4  11  22  35  58 106 142 177 212 272 352 422
#     4  11  24  37  64  98 145 180 222 284 345 419
#     4  10  22  41  68  89 127 176 233 283 343 407
#     4  10  18  34  61  96 138 176 209 268 353 417
#     4  10  23  42  68  94 135 177 225 284 348 413
#     4  12  28  50  67  93 132 190 239 288 340 403
#     4  10  21  34  59 102 131 175 218 268 343 429
#
# _framework density 21.699445000000001
#
# number of rings (size 3 to 8) (size 9 to 14) (size 15 to 20)
#    0.000    1.500    3.750    1.125    7.000    0.000 
#    4.500    0.000    0.000    6.000    0.000    0.000 
#    0.000    0.000    0.000    0.000    0.000    0.000 
#
# Total GULP energy -178310.226513 kJ/mol
# GULP energy per Si atom -5572.194579 kJ/mol
# Density = 2.165006 g / cm^3
# Si number density = 21.699445 Si / 1000 Ang^3
#
#
#
# Elastic Constant Matrix: (Units=GPa)
#
#
# Indices 1 2 3 4 5 6 
#
# 1 12.6271 13.0263 16.0958 0.0000 0.5504 0.0000
# 2 13.0263 70.0391 29.5180 0.0000 -9.3013 0.0000
# 3 16.0958 29.5180 130.1527 0.0000 -6.3795 0.0000
# 4 0.0000 0.0000 0.0000 36.6634 0.0000 -11.5674
# 5 0.5504 -9.3013 -6.3795 0.0000 30.0166 0.0000
# 6 0.0000 0.0000 0.0000 -11.5674 0.0000 17.2140
#
#
#
# Elastic Compliance Matrix: (Units=1/GPa)
#
#
# Indices 1 2 3 4 5 6 
#
# 1 0.110730 -0.017585 -0.010178 0.000000 -0.009643 0.000000
# 2 -0.017585 0.019115 -0.001874 0.000000 0.005847 0.000000
# 3 -0.010178 -0.001874 0.009446 0.000000 0.001614 0.000000
# 4 0.000000 0.000000 0.000000 0.034614 0.000000 0.023260
# 5 -0.009643 0.005847 0.001614 0.000000 0.035647 0.000000
# 6 0.000000 0.000000 0.000000 0.023260 0.000000 0.073722
#
#
# Mechanical properties :
#
#
# Convention : Reuss Voigt Hill
#
# Bulk Modulus (GPa) = 12.49744 36.67769 24.58756
# Shear Modulus (GPa) = 13.54207 27.05739 20.29973
#
# Velocity S-wave (km/s) = 2.50086 3.53500 3.06190
# Velocity P-wave (km/s) = 3.75645 5.79663 4.88425
#
# Compressibility (1/GPa) = 0.08001641
#
# Stress axis : x y z
#
# Youngs Moduli (GPa) = 9.03096 52.31611 105.86423
#
# Poissons Ratio (x) = 0.91999 1.07751
# Poissons Ratio (y) = 0.15881 0.19836
# Poissons Ratio (z) = 0.09192 0.09803
#
# Static dielectric constant tensor:
#      x y z
#    x 1.828350 0.000000 -0.049720 
#    y 0.000000 1.555340 0.000000 
#    z -0.049720 0.000000 1.882410 
# 
# From -- ./inp_files/73825.got.cif
#   From: 2010.05.17/outbox.cif.g08.bks.cpg/sg14_37_cif.got.tgz:73825.got - 2010.06.03 17:49:19.
