data_PCOD9240029
_publ_section_title
;
Structure prediction by ZEFSAII (Michael W. Deem and Ramdas Pophale) SiO2 
 PCOD9240029
Probable space group: P 21/C
;
_chemical_formula_sum "Si O2"
_cell_formula_units_Z 32
_cell_length_a 8.084430
_cell_length_b 19.891034
_cell_length_c 13.684118
_cell_angle_alpha 90.000000
_cell_angle_beta 39.911006
_cell_angle_gamma 90.000000
_cell_volume 1411.841326
_symmetry_space_group_name_H-M "P 21/C"
_symmetry_group_IT_number 14
_symmetry_cell_setting 'monoclinic'
loop_
_space_group_symop_operation_xyz
x,y,z
-x,1/2+y,1/2-z
-x,-y,-z
x,1/2-y,1/2+z
loop_
_atom_site_type_symbol
_atom_site_label
_atom_site_fract_x
_atom_site_fract_y
_atom_site_fract_z
Si Si1 0.334227 0.469223 0.444001
Si Si2 0.592773 0.113419 0.490554
Si Si3 0.925581 0.249964 0.171939
Si Si4 0.360656 0.601091 0.533529
Si Si5 0.358513 0.002999 0.370339
Si Si6 0.472966 0.258196 0.533501
Si Si7 0.164307 0.604821 0.321253
Si Si8 0.935234 0.891431 0.395248
O O1 0.277618 0.546115 0.494149
O O2 0.404762 0.431655 0.512644
O O3 0.573235 0.466501 0.262025
O O4 0.082360 0.431892 0.523513
O O5 0.557061 0.189145 0.548534
O O6 0.818070 0.108599 0.306791
O O7 0.332706 0.108036 0.544008
O O8 0.615427 0.053358 0.557116
O O9 0.001777 0.319478 0.084222
O O10 0.661575 0.259226 0.352910
O O11 0.868921 0.183038 0.136135
O O12 0.176170 0.240685 0.130649
O O13 0.449887 0.672133 0.450608
O O14 0.138657 0.604645 0.715265
O O15 0.590838 0.058404 0.266903
O O16 0.111531 0.049454 0.505967
#
# Coordination Sequence:
#
# PCOD9240029 Si02
#       8
#     4   4   4   4   4   4   4   4
#     4  11  22  33  53  81 110 151 183 234 282 336
#     4   9  18  33  59  82 104 144 186 235 284 334
#     4   9  17  31  57  85 106 146 193 230 279 333
#     4  10  20  36  55  74 107 151 193 224 279 344
#     4  11  21  34  53  86 117 142 185 242 285 331
#     4   9  17  33  57  82 104 142 194 237 273 344
#     4  10  18  34  56  82 109 145 187 228 278 344
#     4   9  18  34  56  79 108 144 185 229 275 341
#
# _framework density 22.665434000000001
#
# number of rings (size 3 to 8) (size 9 to 14) (size 15 to 20)
#    0.000    2.250    1.250    4.125    0.000    0.500 
#    0.000    1.250    0.000    0.000    0.000    0.000 
#    0.000    0.000    0.000    0.000    0.000    0.000 
#
# Total GULP energy -178299.728430 kJ/mol
# GULP energy per Si atom -5571.866513 kJ/mol
# Density = 2.261385 g / cm^3
# Si number density = 22.665434 Si / 1000 Ang^3
#
#
#
# Elastic Constant Matrix: (Units=GPa)
#
#
# Indices 1 2 3 4 5 6 
#
# 1 22.0105 23.4675 9.5990 0.0000 -2.4490 0.0000
# 2 23.4675 162.1118 25.7838 0.0000 15.7764 0.0000
# 3 9.5990 25.7838 69.7486 0.0000 -20.2768 0.0000
# 4 0.0000 0.0000 0.0000 30.3746 0.0000 -13.9706
# 5 -2.4490 15.7764 -20.2768 0.0000 32.5246 0.0000
# 6 0.0000 0.0000 0.0000 -13.9706 0.0000 0.1681
#
#
#
# Elastic Compliance Matrix: (Units=1/GPa)
#
#
# Indices 1 2 3 4 5 6 
#
# 1 0.056262 -0.008347 -0.002746 0.000000 0.006573 0.000000
# 2 -0.008347 0.008800 -0.004309 0.000000 -0.007584 0.000000
# 3 -0.002746 -0.004309 0.020587 0.000000 0.014718 0.000000
# 4 0.000000 0.000000 0.000000 -0.000884 0.000000 -0.073501
# 5 0.006573 -0.007584 0.014718 0.000000 0.044095 0.000000
# 6 0.000000 0.000000 0.000000 -0.073501 0.000000 -0.159804
#
#
# Mechanical properties :
#
#
# Convention : Reuss Voigt Hill
#
# Bulk Modulus (GPa) = 18.23369 41.28570 29.75970
# Shear Modulus (GPa) = 275.59891 25.61484 150.60687
#
# Velocity S-wave (km/s) = 11.03895 3.36538 8.16040
# Velocity P-wave (km/s) = 13.05910 5.77546 10.09693
#
# Compressibility (1/GPa) = 0.05484353
#
# Stress axis : x y z
#
# Youngs Moduli (GPa) = 17.77404 113.63176 48.57508
#
# Poissons Ratio (x) = 0.94854 0.13339
# Poissons Ratio (y) = 0.14837 0.20931
# Poissons Ratio (z) = 0.04881 0.48965
#
# Static dielectric constant tensor:
#      x y z
#    x 1.838440 0.000000 -0.015280 
#    y 0.000000 1.944070 0.000000 
#    z -0.015280 0.000000 1.855190 
# 
# From -- ./inp_files/58108.got.cif
#   From: 2010.05.17/outbox.cif.g08.bks.cpg/sg14_30_cif.got.tgz:58108.got - 2010.06.03 17:49:19.
