data_PCOD9240833
_publ_section_title
;
Structure prediction by ZEFSAII (Michael W. Deem and Ramdas Pophale) SiO2 
 PCOD9240833
Probable space group: P 21/C
;
_chemical_formula_sum "Si O2"
_cell_formula_units_Z 24
_cell_length_a 13.582367
_cell_length_b 17.855348
_cell_length_c 8.408069
_cell_angle_alpha 90.000000
_cell_angle_beta 147.987226
_cell_angle_gamma 90.000000
_cell_volume 1080.947669
_symmetry_space_group_name_H-M "P 21/C"
_symmetry_group_IT_number 14
_symmetry_cell_setting 'monoclinic'
loop_
_space_group_symop_operation_xyz
x,y,z
-x,1/2+y,1/2-z
-x,-y,-z
x,1/2-y,1/2+z
loop_
_atom_site_type_symbol
_atom_site_label
_atom_site_fract_x
_atom_site_fract_y
_atom_site_fract_z
Si Si1 0.909199 0.664198 0.381591
Si Si2 0.887081 0.263895 0.622289
Si Si3 0.211168 0.864672 0.721751
Si Si4 0.918902 0.961485 0.150303
Si Si5 0.585028 0.512299 0.406637
Si Si6 0.257791 0.064330 0.564052
O O1 0.932060 0.587961 0.510795
O O2 0.926637 0.728728 0.539207
O O3 0.064471 0.690062 0.468949
O O4 0.741934 0.641025 0.035306
O O5 0.798060 0.316107 0.631927
O O6 0.769897 0.192367 0.400174
O O7 0.021229 0.910443 0.424431
O O8 0.355042 0.930524 0.945397
O O9 0.708489 0.974884 0.919916
O O10 0.047375 0.034419 0.305002
O O11 0.653558 0.567867 0.639026
O O12 0.364419 0.501320 0.110040
#
# Coordination Sequence:
#
# PCOD9240833 Si02
#       6
#     4   4   4   4   4   4
#     4  10  19  33  53  78 104 137 177 214 258 310
#     4   9  18  32  54  75 101 141 178 212 253 307
#     4   9  17  32  52  76 103 137 175 211 258 309
#     4  10  19  33  56  80 104 135 170 216 267 309
#     4  10  20  34  54  80 109 137 169 215 265 310
#     4  10  20  34  54  81 108 135 171 214 264 312
#
# _framework density 22.202739000000001
#
# number of rings (size 3 to 8) (size 9 to 14) (size 15 to 20)
#    0.000    2.333    0.000    4.500    0.000    0.667 
#    0.000    1.667    0.000   14.000    0.000    0.000 
#    0.000    0.000    0.000    0.000    0.000    0.000 
#
# Total GULP energy -133603.599367 kJ/mol
# GULP energy per Si atom -5566.816640 kJ/mol
# Density = 2.215221 g / cm^3
# Si number density = 22.202739 Si / 1000 Ang^3
#
#
#
# Elastic Constant Matrix: (Units=GPa)
#
#
# Indices 1 2 3 4 5 6 
#
# 1 101.1185 21.7379 21.8564 0.0000 -16.6232 0.0000
# 2 21.7379 61.9381 13.3353 0.0000 -18.1383 0.0000
# 3 21.8564 13.3353 25.1398 0.0000 -10.4121 0.0000
# 4 0.0000 0.0000 0.0000 38.7679 0.0000 -13.6457
# 5 -16.6232 -18.1383 -10.4121 0.0000 27.7229 0.0000
# 6 0.0000 0.0000 0.0000 -13.6457 0.0000 36.4408
#
#
#
# Elastic Compliance Matrix: (Units=1/GPa)
#
#
# Indices 1 2 3 4 5 6 
#
# 1 0.012674 -0.001599 -0.008830 0.000000 0.003237 0.000000
# 2 -0.001599 0.021006 -0.005279 0.000000 0.010802 0.000000
# 3 -0.008830 -0.005279 0.055221 0.000000 0.011992 0.000000
# 4 0.000000 0.000000 0.000000 0.029711 0.000000 0.011125
# 5 0.003237 0.010802 0.011992 0.000000 0.049584 0.000000
# 6 0.000000 0.000000 0.000000 0.011125 0.000000 0.031608
#
#
# Mechanical properties :
#
#
# Convention : Reuss Voigt Hill
#
# Bulk Modulus (GPa) = 17.39546 33.56173 25.47859
# Shear Modulus (GPa) = 19.96971 29.33744 24.65358
#
# Velocity S-wave (km/s) = 3.00230 3.63897 3.33586
# Velocity P-wave (km/s) = 4.45760 5.72757 5.13202
#
# Compressibility (1/GPa) = 0.05748627
#
# Stress axis : x y z
#
# Youngs Moduli (GPa) = 78.90303 47.60482 18.10918
#
# Poissons Ratio (x) = 0.07612 0.15990
# Poissons Ratio (y) = 0.12617 0.09559
# Poissons Ratio (z) = 0.69669 0.25128
#
# Static dielectric constant tensor:
#      x y z
#    x 1.867280 0.000000 0.021900 
#    y 0.000000 1.844820 0.000000 
#    z 0.021900 0.000000 1.945070 
# 
# From -- ./inp_files/9056.got.cif
#   From: 2010.05.17/outbox.cif.g08.bks.cpg/sg14_5_cif.got.tgz:9056.got - 2010.06.03 17:49:19.
