data_PCOD9240895
_publ_section_title
;
Structure prediction by ZEFSAII (Michael W. Deem and Ramdas Pophale) SiO2 
 PCOD9240895
Probable space group: P 21/C
;
_chemical_formula_sum "Si O2"
_cell_formula_units_Z 28
_cell_length_a 20.389185
_cell_length_b 6.335017
_cell_length_c 16.943822
_cell_angle_alpha 90.000000
_cell_angle_beta 137.793122
_cell_angle_gamma 90.000000
_cell_volume 1470.297372
_symmetry_space_group_name_H-M "P 21/C"
_symmetry_group_IT_number 14
_symmetry_cell_setting 'monoclinic'
loop_
_space_group_symop_operation_xyz
x,y,z
-x,1/2+y,1/2-z
-x,-y,-z
x,1/2-y,1/2+z
loop_
_atom_site_type_symbol
_atom_site_label
_atom_site_fract_x
_atom_site_fract_y
_atom_site_fract_z
Si Si1 0.129845 0.048191 0.171487
Si Si2 0.956881 0.185725 0.514654
Si Si3 0.415958 0.025371 0.080484
Si Si4 0.785597 0.581803 0.850670
Si Si5 0.280293 0.716928 0.339897
Si Si6 0.601683 0.742481 0.278336
Si Si7 0.453840 0.869109 0.388232
O O1 0.174759 0.191111 0.141428
O O2 0.046307 0.193712 0.138280
O O3 0.213375 0.924042 0.295207
O O4 0.079629 0.858756 0.079679
O O5 0.861754 0.068769 0.466219
O O6 0.000000 0.000000 0.500000
O O7 0.369971 0.163086 0.109594
O O8 0.471001 0.188836 0.071506
O O9 0.503231 0.881306 0.193034
O O10 0.339211 0.878817 0.965927
O O11 0.774947 0.470016 0.755328
O O12 0.686360 0.626279 0.809744
O O13 0.357232 0.775670 0.340402
O O14 0.575305 0.532700 0.205478
O O15 0.500000 0.000000 0.500000
#
# Coordination Sequence:
#
# PCOD9240895 Si02
#       7
#     4   4   4   4   4   4   4
#     4   9  17  31  54  85 120 139 180 249 303 345
#     4   8  16  31  53  85 121 135 179 244 304 349
#     4  12  25  38  52  80 123 164 205 250 291 354
#     4  10  19  33  56  84 117 148 197 240 293 371
#     4  11  21  33  56  83 114 153 205 244 296 354
#     4  12  23  38  54  79 121 166 203 244 301 350
#     4  12  22  36  58  77 112 165 203 246 293 344
#
# _framework density 19.043768
#
# number of rings (size 3 to 8) (size 9 to 14) (size 15 to 20)
#    0.000    1.429    5.714    1.286    0.000    0.000 
#    0.000    0.000    0.000    0.000    0.000    0.000 
#  132.857    0.000    0.000    0.000    0.000    0.286 
#
# Total GULP energy -155907.925387 kJ/mol
# GULP energy per Si atom -5568.140192 kJ/mol
# Density = 1.900042 g / cm^3
# Si number density = 19.043768 Si / 1000 Ang^3
#
#
#
# Elastic Constant Matrix: (Units=GPa)
#
#
# Indices 1 2 3 4 5 6 
#
# 1 41.4810 27.6471 46.8367 0.0000 8.1274 0.0000
# 2 27.6471 110.9111 48.3723 0.0000 10.3129 0.0000
# 3 46.8367 48.3723 75.2076 0.0000 16.6934 0.0000
# 4 0.0000 0.0000 0.0000 53.7199 0.0000 19.2542
# 5 8.1274 10.3129 16.6934 0.0000 24.2468 0.0000
# 6 0.0000 0.0000 0.0000 19.2542 0.0000 28.0162
#
#
#
# Elastic Compliance Matrix: (Units=1/GPa)
#
#
# Indices 1 2 3 4 5 6 
#
# 1 0.083457 0.002640 -0.055730 0.000000 0.009272 0.000000
# 2 0.002640 0.012616 -0.009882 0.000000 0.000552 0.000000
# 3 -0.055730 -0.009882 0.058169 0.000000 -0.017165 0.000000
# 4 0.000000 0.000000 0.000000 0.024699 0.000000 -0.016974
# 5 0.009272 0.000552 -0.017165 0.000000 0.049717 0.000000
# 6 0.000000 0.000000 0.000000 -0.016974 0.000000 0.047359
#
#
# Mechanical properties :
#
#
# Convention : Reuss Voigt Hill
#
# Bulk Modulus (GPa) = 35.33654 52.59022 43.96338
# Shear Modulus (GPa) = 12.15379 28.17949 20.16664
#
# Velocity S-wave (km/s) = 2.52901 3.85089 3.25770
# Velocity P-wave (km/s) = 5.20803 6.88824 6.10620
#
# Compressibility (1/GPa) = 0.02829932
#
# Stress axis : x y z
#
# Youngs Moduli (GPa) = 11.98226 79.26170 17.19124
#
# Poissons Ratio (x) = -0.20929 0.95807
# Poissons Ratio (y) = -0.03164 0.16988
# Poissons Ratio (z) = 0.66778 0.78323
#
# Static dielectric constant tensor:
#      x y z
#    x 1.632800 0.000000 0.067760 
#    y 0.000000 1.663010 0.000000 
#    z 0.067760 0.000000 1.779570 
# 
# From -- ./inp_files/60964.got.cif
#   From: 2010.05.17/outbox.cif.g08.bks.cpg/sg14_31_cif.got.tgz:60964.got - 2010.06.03 17:49:19.
