data_PCOD9240624
_publ_section_title
;
Structure prediction by ZEFSAII (Michael W. Deem and Ramdas Pophale) SiO2 
 PCOD9240624
Probable space group: P 21/C
;
_chemical_formula_sum "Si O2"
_cell_formula_units_Z 32
_cell_length_a 12.617396
_cell_length_b 17.609460
_cell_length_c 23.474259
_cell_angle_alpha 90.000000
_cell_angle_beta 21.528449
_cell_angle_gamma 90.000000
_cell_volume 1913.947989
_symmetry_space_group_name_H-M "P 21/C"
_symmetry_group_IT_number 14
_symmetry_cell_setting 'monoclinic'
loop_
_space_group_symop_operation_xyz
x,y,z
-x,1/2+y,1/2-z
-x,-y,-z
x,1/2-y,1/2+z
loop_
_atom_site_type_symbol
_atom_site_label
_atom_site_fract_x
_atom_site_fract_y
_atom_site_fract_z
Si Si1 0.842249 0.823559 0.949028
Si Si2 0.168737 0.886212 0.892572
Si Si3 0.169112 0.945373 0.495480
Si Si4 0.156643 0.512403 0.737362
Si Si5 0.831255 0.886214 0.561312
Si Si6 0.156653 0.012405 0.105989
Si Si7 0.842263 0.323562 0.208719
Si Si8 0.169106 0.054626 0.835412
O O1 0.892765 0.900145 0.887645
O O2 0.981373 0.839017 0.941383
O O3 0.999994 0.750000 0.845323
O O4 0.499993 0.811524 0.124635
O O5 0.499998 0.859763 0.730327
O O6 0.174559 0.971720 0.863399
O O7 0.017054 0.892677 0.029594
O O8 0.500003 0.919774 0.335223
O O9 0.982952 0.892677 0.546643
O O10 0.174567 0.028277 0.462035
O O11 0.019380 0.960052 0.630902
O O12 0.499998 0.497726 0.572670
O O13 0.079202 0.499998 0.710398
O O14 0.107228 0.599854 0.780411
O O15 0.018616 0.839020 0.422759
O O16 0.980623 0.960054 0.150281
#
# Coordination Sequence:
#
# PCOD9240624 Si02
#       8
#     4   4   4   4   4   4   4   4
#     4  10  19  31  48  70  96 124 156 197 245 295
#     4   9  16  27  44  66  92 120 149 184 230 281
#     4   9  16  26  43  68  94 118 148 189 234 278
#     4   9  18  32  49  69  94 127 167 206 242 285
#     4   9  16  27  44  66  92 120 149 184 230 281
#     4   9  18  32  49  69  94 127 167 206 242 285
#     4  10  19  31  48  70  96 124 156 197 245 295
#     4   9  16  26  43  68  94 118 148 189 234 278
#
# _framework density 16.719367999999999
#
# number of rings (size 3 to 8) (size 9 to 14) (size 15 to 20)
#    0.000    2.750    0.000    2.250    0.000    7.500 
#    0.000    0.000    0.000    1.500    0.000    7.000 
#    0.000    0.000    0.000    0.000    0.000    0.000 
#
# Total GULP energy -178348.898824 kJ/mol
# GULP energy per Si atom -5573.403088 kJ/mol
# Density = 1.668131 g / cm^3
# Si number density = 16.719368 Si / 1000 Ang^3
#
#
#
# Elastic Constant Matrix: (Units=GPa)
#
#
# Indices 1 2 3 4 5 6 
#
# 1 140.3618 28.6921 76.4188 0.0000 3.7241 0.0000
# 2 28.6921 37.3798 36.4362 0.0000 -2.2929 0.0000
# 3 76.4188 36.4362 117.5371 0.0000 3.0333 0.0000
# 4 0.0000 0.0000 0.0000 20.2077 0.0000 -3.3404
# 5 3.7241 -2.2929 3.0333 0.0000 25.8854 0.0000
# 6 0.0000 0.0000 0.0000 -3.3404 0.0000 8.9279
#
#
#
# Elastic Compliance Matrix: (Units=1/GPa)
#
#
# Indices 1 2 3 4 5 6 
#
# 1 0.011174 -0.002272 -0.006533 0.000000 -0.001043 0.000000
# 2 -0.002272 0.039403 -0.010869 0.000000 0.005091 0.000000
# 3 -0.006533 -0.010869 0.016175 0.000000 -0.001918 0.000000
# 4 0.000000 0.000000 0.000000 0.052748 0.000000 0.019736
# 5 -0.001043 0.005091 -0.001918 0.000000 0.039458 0.000000
# 6 0.000000 0.000000 0.000000 0.019736 0.000000 0.119393
#
#
# Mechanical properties :
#
#
# Convention : Reuss Voigt Hill
#
# Bulk Modulus (GPa) = 36.49317 64.26365 50.37841
# Shear Modulus (GPa) = 15.29828 21.25296 18.27562
#
# Velocity S-wave (km/s) = 3.02818 3.56920 3.30976
# Velocity P-wave (km/s) = 5.83959 7.45021 6.69352
#
# Compressibility (1/GPa) = 0.02740239
#
# Stress axis : x y z
#
# Youngs Moduli (GPa) = 89.49591 25.37851 61.82501
#
# Poissons Ratio (x) = 0.05766 0.40393
# Poissons Ratio (y) = 0.20335 0.67198
# Poissons Ratio (z) = 0.58472 0.27584
#
# Static dielectric constant tensor:
#      x y z
#    x 1.542420 0.000000 -0.005920 
#    y 0.000000 1.579930 0.000000 
#    z -0.005920 0.000000 1.562320 
# 
# From -- ./inp_files/73367.got.cif
#   From: 2010.05.17/outbox.cif.g08.bks.cpg/sg14_37_cif.got.tgz:73367.got - 2010.06.03 17:49:19.
