data_PCOD9240785
_publ_section_title
;
Structure prediction by ZEFSAII (Michael W. Deem and Ramdas Pophale) SiO2 
 PCOD9240785
Probable space group: P 21/C
;
_chemical_formula_sum "Si O2"
_cell_formula_units_Z 28
_cell_length_a 13.985036
_cell_length_b 8.326650
_cell_length_c 18.039631
_cell_angle_alpha 90.000000
_cell_angle_beta 138.558562
_cell_angle_gamma 90.000000
_cell_volume 1390.349145
_symmetry_space_group_name_H-M "P 21/C"
_symmetry_group_IT_number 14
_symmetry_cell_setting 'monoclinic'
loop_
_space_group_symop_operation_xyz
x,y,z
-x,1/2+y,1/2-z
-x,-y,-z
x,1/2-y,1/2+z
loop_
_atom_site_type_symbol
_atom_site_label
_atom_site_fract_x
_atom_site_fract_y
_atom_site_fract_z
Si Si1 0.652859 0.026116 0.173460
Si Si2 0.066565 0.117515 0.599833
Si Si3 0.540672 0.308482 0.744476
Si Si4 0.791429 0.309616 0.492651
Si Si5 0.433792 0.008274 0.318682
Si Si6 0.836946 0.937064 0.908643
Si Si7 0.572148 0.240994 0.998623
O O1 0.570810 0.053873 0.203172
O O2 0.817834 0.977147 0.282948
O O3 0.565570 0.878025 0.087665
O O4 0.633907 0.189957 0.114672
O O5 0.152820 0.250522 0.602747
O O6 0.943766 0.215019 0.575286
O O7 0.000000 0.000000 0.500000
O O8 0.445327 0.363360 0.757645
O O9 0.492657 0.151299 0.671183
O O10 0.692985 0.271873 0.872128
O O11 0.793801 0.493188 0.464274
O O12 0.702279 0.296332 0.516632
O O13 0.261163 0.985955 0.214522
O O14 0.508927 0.088374 0.432912
O O15 0.000000 0.000000 0.000000
#
# Coordination Sequence:
#
# PCOD9240785 Si02
#       7
#     4   4   4   4   4   4   4
#     4  11  21  37  57  86 121 158 194 238 301 364
#     4  11  20  34  59  86 112 146 197 247 290 343
#     4  10  19  32  58  85 114 146 199 254 286 351
#     4   9  19  37  56  85 114 148 197 249 292 347
#     4  10  19  34  57  86 117 149 196 249 298 346
#     4   9  18  31  54  81 108 146 188 239 291 337
#     4  10  22  38  58  83 121 160 192 238 301 361
#
# _framework density 20.138826999999999
#
# number of rings (size 3 to 8) (size 9 to 14) (size 15 to 20)
#    0.000    2.000    2.857    2.571    0.000    0.571 
#    0.000    1.429    0.000    1.714    0.000    0.000 
#    0.000    0.000    0.000    0.000    0.000    0.000 
#
# Total GULP energy -155867.947909 kJ/mol
# GULP energy per Si atom -5566.712425 kJ/mol
# Density = 2.009299 g / cm^3
# Si number density = 20.138827 Si / 1000 Ang^3
#
#
#
# Elastic Constant Matrix: (Units=GPa)
#
#
# Indices 1 2 3 4 5 6 
#
# 1 71.2492 -0.3207 36.2047 0.0000 0.7220 0.0000
# 2 -0.3207 39.9705 25.6650 0.0000 -6.2155 0.0000
# 3 36.2047 25.6650 97.3068 0.0000 2.8794 0.0000
# 4 0.0000 0.0000 0.0000 41.3577 0.0000 -2.3663
# 5 0.7220 -6.2155 2.8794 0.0000 28.1222 0.0000
# 6 0.0000 0.0000 0.0000 -2.3663 0.0000 29.3584
#
#
#
# Elastic Compliance Matrix: (Units=1/GPa)
#
#
# Indices 1 2 3 4 5 6 
#
# 1 0.018307 0.005793 -0.008389 0.000000 0.001669 0.000000
# 2 0.005793 0.033613 -0.011271 0.000000 0.008434 0.000000
# 3 -0.008389 -0.011271 0.016488 0.000000 -0.003964 0.000000
# 4 0.000000 0.000000 0.000000 0.024291 0.000000 0.001958
# 5 0.001669 0.008434 -0.003964 0.000000 0.037786 0.000000
# 6 0.000000 0.000000 0.000000 0.001958 0.000000 0.034220
#
#
# Mechanical properties :
#
#
# Convention : Reuss Voigt Hill
#
# Bulk Modulus (GPa) = 24.58489 36.84718 30.71603
# Shear Modulus (GPa) = 24.27223 29.56616 26.91919
#
# Velocity S-wave (km/s) = 3.47543 3.83576 3.66003
# Velocity P-wave (km/s) = 5.32344 6.16066 5.75729
#
# Compressibility (1/GPa) = 0.04067539
#
# Stress axis : x y z
#
# Youngs Moduli (GPa) = 54.62368 29.75015 60.65054
#
# Poissons Ratio (x) = -0.17234 0.50878
# Poissons Ratio (y) = -0.31643 0.68356
# Poissons Ratio (z) = 0.45822 0.33530
#
# Static dielectric constant tensor:
#      x y z
#    x 1.806480 0.000000 0.079880 
#    y 0.000000 1.791630 0.000000 
#    z 0.079880 0.000000 1.803280 
# 
# From -- ./inp_files/59042.got.cif
#   From: 2010.05.17/outbox.cif.g08.bks.cpg/sg14_30_cif.got.tgz:59042.got - 2010.06.03 17:49:19.
