data_PCOD9240442
_publ_section_title
;
Structure prediction by ZEFSAII (Michael W. Deem and Ramdas Pophale) SiO2 
 PCOD9240442
Probable space group: P 21/C
;
_chemical_formula_sum "Si O2"
_cell_formula_units_Z 28
_cell_length_a 22.207975
_cell_length_b 8.168409
_cell_length_c 15.655984
_cell_angle_alpha 90.000000
_cell_angle_beta 151.552424
_cell_angle_gamma 90.000000
_cell_volume 1352.873055
_symmetry_space_group_name_H-M "P 21/C"
_symmetry_group_IT_number 14
_symmetry_cell_setting 'monoclinic'
loop_
_space_group_symop_operation_xyz
x,y,z
-x,1/2+y,1/2-z
-x,-y,-z
x,1/2-y,1/2+z
loop_
_atom_site_type_symbol
_atom_site_label
_atom_site_fract_x
_atom_site_fract_y
_atom_site_fract_z
Si Si1 0.217409 0.330450 0.376188
Si Si2 0.832500 0.347467 0.478757
Si Si3 0.935924 0.636740 0.978377
Si Si4 0.371545 0.627639 0.645137
Si Si5 0.120218 0.619132 0.655187
Si Si6 0.020316 0.557367 0.810724
Si Si7 0.647433 0.000894 0.450611
O O1 0.177751 0.306063 0.226176
O O2 0.293048 0.501687 0.485040
O O3 0.086423 0.352274 0.264600
O O4 0.291367 0.172462 0.506922
O O5 0.698625 0.394881 0.351223
O O6 0.844301 0.312478 0.393747
O O7 0.939710 0.479856 0.634979
O O8 0.876294 0.188048 0.585272
O O9 0.000000 0.500000 0.000000
O O10 0.057593 0.751679 0.139966
O O11 0.909107 0.571427 0.039099
O O12 0.512858 0.558076 0.818429
O O13 0.371784 0.822940 0.621945
O O14 0.000000 0.500000 0.500000
O O15 0.247422 0.546525 0.849216
#
# Coordination Sequence:
#
# PCOD9240442 Si02
#       7
#     4   4   4   4   4   4   4
#     4  10  20  41  65  95 124 166 223 263 320 392
#     4  11  24  38  59 100 132 166 214 269 331 380
#     4  10  18  38  62  93 123 164 206 261 325 385
#     4  11  26  42  67  94 129 179 219 270 318 389
#     4  12  23  38  67  97 126 170 214 263 335 389
#     4  10  22  36  61  94 139 156 206 277 327 384
#     4  12  23  43  71  88 129 176 226 261 323 393
#
# _framework density 20.696695999999999
#
# number of rings (size 3 to 8) (size 9 to 14) (size 15 to 20)
#    0.000    1.143    5.714    2.571    6.000    0.571 
#    0.000    0.000    0.000    1.714    0.000    0.000 
#    0.000    0.000    0.000    0.000    0.000    0.000 
#
# Total GULP energy -155869.845134 kJ/mol
# GULP energy per Si atom -5566.780183 kJ/mol
# Density = 2.064959 g / cm^3
# Si number density = 20.696696 Si / 1000 Ang^3
#
#
#
# Elastic Constant Matrix: (Units=GPa)
#
#
# Indices 1 2 3 4 5 6 
#
# 1 60.2526 14.8598 25.5030 0.0000 6.7934 0.0000
# 2 14.8598 100.3343 22.9923 0.0000 12.8952 0.0000
# 3 25.5030 22.9923 85.4696 0.0000 29.7825 0.0000
# 4 0.0000 0.0000 0.0000 42.0670 0.0000 7.7445
# 5 6.7934 12.8952 29.7825 0.0000 21.0487 0.0000
# 6 0.0000 0.0000 0.0000 7.7445 0.0000 20.3106
#
#
#
# Elastic Compliance Matrix: (Units=1/GPa)
#
#
# Indices 1 2 3 4 5 6 
#
# 1 0.019471 -0.001897 -0.006933 0.000000 0.004688 0.000000
# 2 -0.001897 0.011065 -0.000516 0.000000 -0.005436 0.000000
# 3 -0.006933 -0.000516 0.025678 0.000000 -0.033779 0.000000
# 4 0.000000 0.000000 0.000000 0.025566 0.000000 -0.009748
# 5 0.004688 -0.005436 -0.033779 0.000000 0.097121 0.000000
# 6 0.000000 0.000000 0.000000 -0.009748 0.000000 0.052952
#
#
# Mechanical properties :
#
#
# Convention : Reuss Voigt Hill
#
# Bulk Modulus (GPa) = 26.65211 41.41852 34.03531
# Shear Modulus (GPa) = 19.00755 28.86535 23.93645
#
# Velocity S-wave (km/s) = 3.03378 3.73860 3.40448
# Velocity P-wave (km/s) = 5.01768 6.22027 5.65106
#
# Compressibility (1/GPa) = 0.03752048
#
# Stress axis : x y z
#
# Youngs Moduli (GPa) = 51.35932 90.37824 38.94353
#
# Poissons Ratio (x) = 0.17149 0.26999
# Poissons Ratio (y) = 0.09745 0.02010
# Poissons Ratio (z) = 0.35607 0.04665
#
# Static dielectric constant tensor:
#      x y z
#    x 1.723560 0.000000 -0.035300 
#    y 0.000000 1.812580 0.000000 
#    z -0.035300 0.000000 1.732350 
# 
# From -- ./inp_files/50125.got.cif
#   From: 2010.05.17/outbox.cif.g08.bks.cpg/sg14_26_cif.got.tgz:50125.got - 2010.06.03 17:49:19.
