data_PCOD9240596
_publ_section_title
;
Structure prediction by ZEFSAII (Michael W. Deem and Ramdas Pophale) SiO2 
 PCOD9240596
Probable space group: P 21/C
;
_chemical_formula_sum "Si O2"
_cell_formula_units_Z 24
_cell_length_a 24.501554
_cell_length_b 5.349713
_cell_length_c 17.360012
_cell_angle_alpha 90.000000
_cell_angle_beta 156.620028
_cell_angle_gamma 90.000000
_cell_volume 902.974354
_symmetry_space_group_name_H-M "P 21/C"
_symmetry_group_IT_number 14
_symmetry_cell_setting 'monoclinic'
loop_
_space_group_symop_operation_xyz
x,y,z
-x,1/2+y,1/2-z
-x,-y,-z
x,1/2-y,1/2+z
loop_
_atom_site_type_symbol
_atom_site_label
_atom_site_fract_x
_atom_site_fract_y
_atom_site_fract_z
Si Si1 0.442335 0.286069 0.321191
Si Si2 0.044687 0.020609 0.908415
Si Si3 0.579263 0.227392 0.657975
Si Si4 0.691396 0.163506 0.044698
Si Si5 0.731454 0.832381 0.677743
Si Si6 0.116660 0.482857 0.321229
O O1 0.558510 0.288640 0.541141
O O2 0.350445 0.531958 0.213814
O O3 0.528857 0.320641 0.355760
O O4 0.365552 0.042197 0.250660
O O5 0.089342 0.014360 0.876872
O O6 0.953503 0.770790 0.801070
O O7 0.960328 0.274118 0.810863
O O8 0.170529 0.053688 0.130172
O O9 0.426610 0.199795 0.497979
O O10 0.733308 0.449754 0.115402
O O11 0.730550 0.039222 0.014291
O O12 0.762770 0.951214 0.191760
#
# Coordination Sequence:
#
# PCOD9240596 Si02
#       6
#     4   4   4   4   4   4
#     4   8  14  25  41  64  92 116 141 178 224 271
#     4  10  21  35  48  65  93 128 159 189 235 288
#     4   8  14  25  41  64  92 116 141 178 224 271
#     4  10  19  30  48  73  94 118 156 197 233 270
#     4  10  19  30  48  73  94 118 156 197 233 270
#     4  10  21  35  48  65  93 128 159 189 235 288
#
# _framework density 26.578828999999999
#
# number of rings (size 3 to 8) (size 9 to 14) (size 15 to 20)
#    0.000    2.667    0.000    2.000    0.000    4.000 
#    0.000    0.000    0.000    0.000    0.000   30.333 
#    0.000    0.000    0.000    0.000    0.000    0.000 
#
# Total GULP energy -133979.041295 kJ/mol
# GULP energy per Si atom -5582.460054 kJ/mol
# Density = 2.651833 g / cm^3
# Si number density = 26.578829 Si / 1000 Ang^3
#
#
#
# Elastic Constant Matrix: (Units=GPa)
#
#
# Indices 1 2 3 4 5 6 
#
# 1 81.8100 24.1599 5.4345 0.0000 8.2471 0.0000
# 2 24.1599 244.7157 23.0960 0.0000 10.3824 0.0000
# 3 5.4345 23.0960 47.1390 0.0000 2.5898 0.0000
# 4 0.0000 0.0000 0.0000 -9.2993 0.0000 8.3047
# 5 8.2471 10.3824 2.5898 0.0000 27.0148 0.0000
# 6 0.0000 0.0000 0.0000 8.3047 0.0000 44.6723
#
#
#
# Elastic Compliance Matrix: (Units=1/GPa)
#
#
# Indices 1 2 3 4 5 6 
#
# 1 0.012937 -0.001056 -0.000783 0.000000 -0.003468 0.000000
# 2 -0.001056 0.004428 -0.001983 0.000000 -0.001189 0.000000
# 3 -0.000783 -0.001983 0.022338 0.000000 -0.001140 0.000000
# 4 0.000000 0.000000 0.000000 -0.092224 0.000000 0.017145
# 5 -0.003468 -0.001189 -0.001140 0.000000 0.038642 0.000000
# 6 0.000000 0.000000 0.000000 0.017145 0.000000 0.019198
#
#
# Mechanical properties :
#
#
# Convention : Reuss Voigt Hill
#
# Bulk Modulus (GPa) = 31.19229 53.22729 42.20979
# Shear Modulus (GPa) = 211.41635 33.87585 122.64610
#
# Velocity S-wave (km/s) = 8.92837 3.57395 6.80033
# Velocity P-wave (km/s) = 10.86504 6.09102 8.80765
#
# Compressibility (1/GPa) = 0.03205920
#
# Stress axis : x y z
#
# Youngs Moduli (GPa) = 77.29748 225.82476 44.76641
#
# Poissons Ratio (x) = 0.23850 0.03507
# Poissons Ratio (y) = 0.08164 0.08875
# Poissons Ratio (z) = 0.06056 0.44770
#
# Static dielectric constant tensor:
#      x y z
#    x 2.166510 0.000000 -0.046790 
#    y 0.000000 2.250220 0.000000 
#    z -0.046790 0.000000 2.151110 
# 
# From -- ./inp_files/45710.got.cif
#   From: 2010.05.17/outbox.cif.g08.bks.cpg/sg14_23_cif.got.tgz:45710.got - 2010.06.03 17:49:19.
