data_PCOD9240966
_publ_section_title
;
Structure prediction by ZEFSAII (Michael W. Deem and Ramdas Pophale) SiO2 
 PCOD9240966
Probable space group: P 21/C
;
_chemical_formula_sum "Si O2"
_cell_formula_units_Z 32
_cell_length_a 5.276675
_cell_length_b 26.137847
_cell_length_c 13.048855
_cell_angle_alpha 90.000000
_cell_angle_beta 76.657942
_cell_angle_gamma 90.000000
_cell_volume 1751.135496
_symmetry_space_group_name_H-M "P 21/C"
_symmetry_group_IT_number 14
_symmetry_cell_setting 'monoclinic'
loop_
_space_group_symop_operation_xyz
x,y,z
-x,1/2+y,1/2-z
-x,-y,-z
x,1/2-y,1/2+z
loop_
_atom_site_type_symbol
_atom_site_label
_atom_site_fract_x
_atom_site_fract_y
_atom_site_fract_z
Si Si1 0.099604 0.843210 0.661116
Si Si2 0.252674 0.758672 0.789749
Si Si3 0.489080 0.373160 0.250737
Si Si4 0.537157 0.203164 0.552035
Si Si5 0.811133 0.040432 0.384754
Si Si6 0.954653 0.323942 0.319988
Si Si7 0.680618 0.476382 0.133651
Si Si8 0.242457 0.262812 0.895734
O O1 0.164954 0.814146 0.760538
O O2 0.291692 0.822978 0.553187
O O3 0.115433 0.903623 0.662328
O O4 0.833997 0.816970 0.648186
O O5 0.041697 0.715500 0.777620
O O6 0.500977 0.746279 0.691763
O O7 0.337530 0.749831 0.896792
O O8 0.686477 0.353635 0.321335
O O9 0.576794 0.429572 0.210463
O O10 0.187650 0.364517 0.306186
O O11 0.508630 0.338817 0.144469
O O12 0.302144 0.226014 0.507632
O O13 0.751336 0.043524 0.512426
O O14 0.551113 0.017415 0.358649
O O15 0.056378 0.002518 0.349673
O O16 0.024852 0.280923 0.398601
#
# Coordination Sequence:
#
# PCOD9240966 Si02
#       8
#     4   4   4   4   4   4   4   4
#     4  10  21  32  53  74 109 149 176 210 269 304
#     4   9  20  36  47  78 102 143 178 221 243 326
#     4  11  20  33  54  72 101 144 176 215 259 301
#     4  10  20  31  52  74 105 144 178 205 261 315
#     4  10  21  34  48  72 107 137 177 222 252 310
#     4  10  19  34  50  71 103 130 175 221 255 300
#     4  10  21  34  49  74 102 136 186 220 251 306
#     4  10  20  32  51  77 105 140 178 213 259 316
#
# _framework density 18.273857
#
# number of rings (size 3 to 8) (size 9 to 14) (size 15 to 20)
#    0.000    2.000    3.750    0.750    7.000    1.000 
#    0.000    0.000    0.000    0.000    0.000    0.000 
#    0.000    6.000    0.000    0.000    0.000    0.000 
#
# Total GULP energy -178152.828777 kJ/mol
# GULP energy per Si atom -5567.275899 kJ/mol
# Density = 1.823226 g / cm^3
# Si number density = 18.273857 Si / 1000 Ang^3
#
#
#
# Elastic Constant Matrix: (Units=GPa)
#
#
# Indices 1 2 3 4 5 6 
#
# 1 89.4311 23.8443 10.3227 0.0000 15.8114 0.0000
# 2 23.8443 99.9416 10.1265 0.0000 10.1693 0.0000
# 3 10.3227 10.1265 29.9770 0.0000 12.4352 0.0000
# 4 0.0000 0.0000 0.0000 20.5146 0.0000 -10.1744
# 5 15.8114 10.1693 12.4352 0.0000 22.3882 0.0000
# 6 0.0000 0.0000 0.0000 -10.1744 0.0000 23.3703
#
#
#
# Elastic Compliance Matrix: (Units=1/GPa)
#
#
# Indices 1 2 3 4 5 6 
#
# 1 0.013275 -0.002300 -0.000440 0.000000 -0.008087 0.000000
# 2 -0.002300 0.010986 -0.001979 0.000000 -0.002267 0.000000
# 3 -0.000440 -0.001979 0.043760 0.000000 -0.023096 0.000000
# 4 0.000000 0.000000 0.000000 0.062169 0.000000 0.027066
# 5 -0.008087 -0.002267 -0.023096 0.000000 0.064235 0.000000
# 6 0.000000 0.000000 0.000000 0.027066 0.000000 0.054572
#
#
# Mechanical properties :
#
#
# Convention : Reuss Voigt Hill
#
# Bulk Modulus (GPa) = 17.06974 34.21517 25.64246
# Shear Modulus (GPa) = 17.98802 24.92506 21.45654
#
# Velocity S-wave (km/s) = 3.14085 3.69721 3.43033
# Velocity P-wave (km/s) = 4.74496 6.08194 5.45457
#
# Compressibility (1/GPa) = 0.05858321
#
# Stress axis : x y z
#
# Youngs Moduli (GPa) = 75.32683 91.02747 22.85213
#
# Poissons Ratio (x) = 0.20935 0.01006
# Poissons Ratio (y) = 0.17324 0.04522
# Poissons Ratio (z) = 0.03315 0.18013
#
# Static dielectric constant tensor:
#      x y z
#    x 1.734560 0.000000 -0.019750 
#    y 0.000000 1.629930 0.000000 
#    z -0.019750 0.000000 1.621190 
# 
# From -- ./inp_files/38160.got.cif
#   From: 2010.05.17/outbox.cif.g08.bks.cpg/sg14_20_cif.got.tgz:38160.got - 2010.06.03 17:49:19.
