data_PCOD9240793
_publ_section_title
;
Structure prediction by ZEFSAII (Michael W. Deem and Ramdas Pophale) SiO2 
 PCOD9240793
Probable space group: P 21/C
;
_chemical_formula_sum "Si O2"
_cell_formula_units_Z 24
_cell_length_a 9.368888
_cell_length_b 10.645549
_cell_length_c 12.427916
_cell_angle_alpha 90.000000
_cell_angle_beta 131.076881
_cell_angle_gamma 90.000000
_cell_volume 934.387502
_symmetry_space_group_name_H-M "P 21/C"
_symmetry_group_IT_number 14
_symmetry_cell_setting 'monoclinic'
loop_
_space_group_symop_operation_xyz
x,y,z
-x,1/2+y,1/2-z
-x,-y,-z
x,1/2-y,1/2+z
loop_
_atom_site_type_symbol
_atom_site_label
_atom_site_fract_x
_atom_site_fract_y
_atom_site_fract_z
Si Si1 0.212816 0.130866 0.549435
Si Si2 0.342285 0.713779 0.744503
Si Si3 0.667194 0.074897 0.959960
Si Si4 0.267122 0.993059 0.788068
Si Si5 0.843793 0.892109 0.906918
Si Si6 0.276187 0.489821 0.863560
O O1 0.435841 0.171624 0.652057
O O2 0.109579 0.264095 0.509874
O O3 0.178862 0.046697 0.427653
O O4 0.172389 0.059861 0.640382
O O5 0.279450 0.691632 0.588592
O O6 0.312971 0.853347 0.769605
O O7 0.244228 0.619771 0.782557
O O8 0.801000 0.033588 0.124099
O O9 0.453956 0.082170 0.897601
O O10 0.666353 0.958825 0.876800
O O11 0.781532 0.882968 0.752153
O O12 0.000000 0.000000 0.000000
O O13 0.500000 0.500000 0.000000
#
# Coordination Sequence:
#
# PCOD9240793 Si02
#       6
#     4   4   4   4   4   4
#     4  10  21  34  63  94 128 169 223 265 337 396
#     4   9  18  33  58  95 134 157 209 282 337 382
#     4   9  20  35  55  91 126 169 212 267 333 381
#     4  10  19  32  61  95 123 160 215 282 330 383
#     4  11  23  42  63  90 134 179 219 265 331 402
#     4   9  21  38  65  97 127 171 219 282 336 382
#
# _framework density 25.685278
#
# number of rings (size 3 to 8) (size 9 to 14) (size 15 to 20)
#    0.000    2.333    1.667    1.000    4.667    2.667 
#    0.000    3.333    0.000    5.000    0.000    0.000 
#    0.000    0.000    0.000    0.000    0.000    0.000 
#
# Total GULP energy -133969.523776 kJ/mol
# GULP energy per Si atom -5582.063491 kJ/mol
# Density = 2.562682 g / cm^3
# Si number density = 25.685278 Si / 1000 Ang^3
#
#
#
# Elastic Constant Matrix: (Units=GPa)
#
#
# Indices 1 2 3 4 5 6 
#
# 1 70.8262 34.1931 35.1966 0.0000 -20.7263 0.0000
# 2 34.1931 125.4911 32.2388 0.0000 -17.0116 0.0000
# 3 35.1966 32.2388 146.4906 0.0000 -31.0536 0.0000
# 4 0.0000 0.0000 0.0000 27.8498 0.0000 -1.8759
# 5 -20.7263 -17.0116 -31.0536 0.0000 49.6134 0.0000
# 6 0.0000 0.0000 0.0000 -1.8759 0.0000 36.2212
#
#
#
# Elastic Compliance Matrix: (Units=1/GPa)
#
#
# Indices 1 2 3 4 5 6 
#
# 1 0.018658 -0.003750 -0.002626 0.000000 0.004865 0.000000
# 2 -0.003750 0.009375 -0.000937 0.000000 0.001061 0.000000
# 3 -0.002626 -0.000937 0.008489 0.000000 0.003895 0.000000
# 4 0.000000 0.000000 0.000000 0.036033 0.000000 0.001866
# 5 0.004865 0.001061 0.003895 0.000000 0.024990 0.000000
# 6 0.000000 0.000000 0.000000 0.001866 0.000000 0.027705
#
#
# Mechanical properties :
#
#
# Convention : Reuss Voigt Hill
#
# Bulk Modulus (GPa) = 45.67068 60.67386 53.17227
# Shear Modulus (GPa) = 33.97308 38.81551 36.39430
#
# Velocity S-wave (km/s) = 3.64080 3.89163 3.76830
# Velocity P-wave (km/s) = 5.95763 6.62317 6.29919
#
# Compressibility (1/GPa) = 0.02189589
#
# Stress axis : x y z
#
# Youngs Moduli (GPa) = 53.59590 106.66606 117.79440
#
# Poissons Ratio (x) = 0.39996 0.30938
# Poissons Ratio (y) = 0.20097 0.11041
# Poissons Ratio (z) = 0.14077 0.09998
#
# Static dielectric constant tensor:
#      x y z
#    x 2.276940 0.000000 0.121800 
#    y 0.000000 1.974430 0.000000 
#    z 0.121800 0.000000 2.111510 
# 
# From -- ./inp_files/28711.got.cif
#   From: 2010.05.17/outbox.cif.g08.bks.cpg/sg14_15_cif.got.tgz:28711.got - 2010.06.03 17:49:19.
