data_PCOD9240131
_publ_section_title
;
Structure prediction by ZEFSAII (Michael W. Deem and Ramdas Pophale) SiO2 
 PCOD9240131
Probable space group: P 21/C
;
_chemical_formula_sum "Si O2"
_cell_formula_units_Z 24
_cell_length_a 10.125889
_cell_length_b 13.086836
_cell_length_c 9.357994
_cell_angle_alpha 90.000000
_cell_angle_beta 134.751029
_cell_angle_gamma 90.000000
_cell_volume 880.672789
_symmetry_space_group_name_H-M "P 21/C"
_symmetry_group_IT_number 14
_symmetry_cell_setting 'monoclinic'
loop_
_space_group_symop_operation_xyz
x,y,z
-x,1/2+y,1/2-z
-x,-y,-z
x,1/2-y,1/2+z
loop_
_atom_site_type_symbol
_atom_site_label
_atom_site_fract_x
_atom_site_fract_y
_atom_site_fract_z
Si Si1 0.664996 0.538039 0.411621
Si Si2 0.479041 0.658059 0.526131
Si Si3 0.132326 0.821255 0.571201
Si Si4 0.314745 0.971162 0.478264
Si Si5 0.023438 0.632016 0.588433
Si Si6 0.796262 0.821044 0.478596
O O1 0.605410 0.619246 0.489847
O O2 0.604679 0.434679 0.444955
O O3 0.529640 0.548083 0.172200
O O4 0.874169 0.545420 0.515201
O O5 0.296184 0.702914 0.311510
O O6 0.619437 0.711660 0.745211
O O7 0.220205 0.901202 0.530797
O O8 0.059749 0.705763 0.479902
O O9 0.949634 0.875720 0.494965
O O10 0.218472 0.916571 0.274530
O O11 0.268389 0.091327 0.462351
O O12 0.920202 0.721286 0.605928
#
# Coordination Sequence:
#
# PCOD9240131 Si02
#       6
#     4   4   4   4   4   4
#     4   9  18  30  51  77 102 132 162 217 263 300
#     4   9  16  32  52  73 101 131 171 211 262 300
#     4   9  19  29  52  76 101 135 163 216 259 302
#     4  10  18  35  49  73 107 134 169 213 257 306
#     4  10  21  28  49  80 107 134 168 211 258 308
#     4   9  19  29  52  77 103 132 168 212 258 300
#
# _framework density 27.25189
#
# number of rings (size 3 to 8) (size 9 to 14) (size 15 to 20)
#    1.000    1.667    0.000    3.500    2.333    0.000 
#    0.000    0.000    0.000    1.000    0.000    4.667 
#    0.000    0.000    0.000    0.000    0.000    0.000 
#
# Total GULP energy -133776.301239 kJ/mol
# GULP energy per Si atom -5574.012552 kJ/mol
# Density = 2.718986 g / cm^3
# Si number density = 27.251890 Si / 1000 Ang^3
#
#
#
# Elastic Constant Matrix: (Units=GPa)
#
#
# Indices 1 2 3 4 5 6 
#
# 1 73.3306 28.2451 25.5238 0.0000 12.9649 0.0000
# 2 28.2451 83.6116 42.9815 0.0000 -11.3084 0.0000
# 3 25.5238 42.9815 68.0039 0.0000 -15.3339 0.0000
# 4 0.0000 0.0000 0.0000 200.0222 0.0000 -80.2228
# 5 12.9649 -11.3084 -15.3339 0.0000 33.6170 0.0000
# 6 0.0000 0.0000 0.0000 -80.2228 0.0000 70.9198
#
#
#
# Elastic Compliance Matrix: (Units=1/GPa)
#
#
# Indices 1 2 3 4 5 6 
#
# 1 0.020376 -0.004742 -0.007559 0.000000 -0.012901 0.000000
# 2 -0.004742 0.018847 -0.009241 0.000000 0.003954 0.000000
# 3 -0.007559 -0.009241 0.026015 0.000000 0.011673 0.000000
# 4 0.000000 0.000000 0.000000 0.009151 0.000000 0.010352
# 5 -0.012901 0.003954 0.011673 0.000000 0.041377 0.000000
# 6 0.000000 0.000000 0.000000 0.010352 0.000000 0.025810
#
#
# Mechanical properties :
#
#
# Convention : Reuss Voigt Hill
#
# Bulk Modulus (GPa) = 45.14046 46.49408 45.81727
# Shear Modulus (GPa) = 26.03557 69.45818 47.74687
#
# Velocity S-wave (km/s) = 3.09426 5.05399 4.19030
# Velocity P-wave (km/s) = 5.41904 7.15227 6.34512
#
# Compressibility (1/GPa) = 0.02215308
#
# Stress axis : x y z
#
# Youngs Moduli (GPa) = 49.07840 53.05859 38.43920
#
# Poissons Ratio (x) = 0.25161 0.29058
# Poissons Ratio (y) = 0.23273 0.35521
# Poissons Ratio (z) = 0.37101 0.49031
#
# Static dielectric constant tensor:
#      x y z
#    x 2.178490 0.000000 -0.089700 
#    y 0.000000 2.215450 0.000000 
#    z -0.089700 0.000000 2.171340 
# 
# From -- ./inp_files/47255.got.cif
#   From: 2010.05.17/outbox.cif.g08.bks.cpg/sg14_24_cif.got.tgz:47255.got - 2010.06.03 17:49:19.
