data_PCOD9240939
_publ_section_title
;
Structure prediction by ZEFSAII (Michael W. Deem and Ramdas Pophale) SiO2 
 PCOD9240939
Probable space group: P 21/C
;
_chemical_formula_sum "Si O2"
_cell_formula_units_Z 24
_cell_length_a 8.057803
_cell_length_b 9.441791
_cell_length_c 14.341483
_cell_angle_alpha 90.000000
_cell_angle_beta 65.282184
_cell_angle_gamma 90.000000
_cell_volume 991.132673
_symmetry_space_group_name_H-M "P 21/C"
_symmetry_group_IT_number 14
_symmetry_cell_setting 'monoclinic'
loop_
_space_group_symop_operation_xyz
x,y,z
-x,1/2+y,1/2-z
-x,-y,-z
x,1/2-y,1/2+z
loop_
_atom_site_type_symbol
_atom_site_label
_atom_site_fract_x
_atom_site_fract_y
_atom_site_fract_z
Si Si1 0.281082 0.637744 0.079471
Si Si2 0.296991 0.966209 0.775031
Si Si3 0.373697 0.584160 0.458814
Si Si4 0.899986 0.874186 0.909880
Si Si5 0.185200 0.091216 0.463082
Si Si6 0.152592 0.289160 0.783989
O O1 0.360408 0.604530 0.163294
O O2 0.374046 0.755731 0.993452
O O3 0.290009 0.495431 0.016932
O O4 0.068224 0.690203 0.146239
O O5 0.114766 0.879517 0.844618
O O6 0.227949 0.128090 0.773420
O O7 0.413039 0.949757 0.841992
O O8 0.500000 0.500000 0.500000
O O9 0.174753 0.517657 0.528311
O O10 0.849690 0.746602 0.989007
O O11 0.816374 0.846073 0.827242
O O12 0.244074 0.116266 0.343239
O O13 0.000000 0.000000 0.500000
#
# Coordination Sequence:
#
# PCOD9240939 Si02
#       6
#     4   4   4   4   4   4
#     4  10  22  38  62  98 127 159 212 263 314 380
#     4  11  20  39  68  92 124 166 211 273 319 359
#     4  12  26  44  61  91 133 176 210 251 318 389
#     4  11  21  37  65  94 124 162 211 264 318 374
#     4  10  19  33  59  96 125 152 202 266 322 368
#     4  10  19  34  66  98 121 159 209 270 321 363
#
# _framework density 24.214721000000001
#
# number of rings (size 3 to 8) (size 9 to 14) (size 15 to 20)
#    0.000    1.333    5.000    2.500    0.000    1.333 
#    3.000    0.833    0.000    0.000    0.000    0.000 
#    0.000    0.000    0.000    0.000    0.000    0.000 
#
# Total GULP energy -134259.938406 kJ/mol
# GULP energy per Si atom -5594.164100 kJ/mol
# Density = 2.415961 g / cm^3
# Si number density = 24.214721 Si / 1000 Ang^3
#
#
#
# Elastic Constant Matrix: (Units=GPa)
#
#
# Indices 1 2 3 4 5 6 
#
# 1 65.6782 -6.7113 39.7940 0.0000 18.7477 0.0000
# 2 -6.7113 100.9183 48.2993 0.0000 8.6987 0.0000
# 3 39.7940 48.2993 205.0903 0.0000 42.2879 0.0000
# 4 0.0000 0.0000 0.0000 43.0150 0.0000 14.2715
# 5 18.7477 8.6987 42.2879 0.0000 51.6101 0.0000
# 6 0.0000 0.0000 0.0000 14.2715 0.0000 7.1245
#
#
#
# Elastic Compliance Matrix: (Units=1/GPa)
#
#
# Indices 1 2 3 4 5 6 
#
# 1 0.019016 0.003351 -0.003536 0.000000 -0.004576 0.000000
# 2 0.003351 0.011763 -0.003322 0.000000 -0.000478 0.000000
# 3 -0.003536 -0.003322 0.007176 0.000000 -0.004036 0.000000
# 4 0.000000 0.000000 0.000000 0.069315 0.000000 -0.138848
# 5 -0.004576 -0.000478 -0.004036 0.000000 0.024426 0.000000
# 6 0.000000 0.000000 0.000000 -0.138848 0.000000 0.418493
#
#
# Mechanical properties :
#
#
# Convention : Reuss Voigt Hill
#
# Bulk Modulus (GPa) = 32.31713 59.38343 45.85028
# Shear Modulus (GPa) = 8.81032 39.70357 24.25695
#
# Velocity S-wave (km/s) = 1.90953 4.05365 3.16847
# Velocity P-wave (km/s) = 4.27046 6.81809 5.68872
#
# Compressibility (1/GPa) = 0.03094334
#
# Stress axis : x y z
#
# Youngs Moduli (GPa) = 52.58594 85.01303 139.34594
#
# Poissons Ratio (x) = -0.28489 0.49266
# Poissons Ratio (y) = -0.17622 0.46289
# Poissons Ratio (z) = 0.18592 0.28240
#
# Static dielectric constant tensor:
#      x y z
#    x 2.004470 0.000000 0.006530 
#    y 0.000000 2.229000 0.000000 
#    z 0.006530 0.000000 1.898770 
# 
# From -- ./inp_files/39004.got.cif
#   From: 2010.05.17/outbox.cif.g08.bks.cpg/sg14_20_cif.got.tgz:39004.got - 2010.06.03 17:49:19.
