data_PCOD9240963
_publ_section_title
;
Structure prediction by ZEFSAII (Michael W. Deem and Ramdas Pophale) SiO2 
 PCOD9240963
Probable space group: P 21/C
;
_chemical_formula_sum "Si O2"
_cell_formula_units_Z 32
_cell_length_a 9.515585
_cell_length_b 5.622295
_cell_length_c 22.934923
_cell_angle_alpha 90.000000
_cell_angle_beta 83.465013
_cell_angle_gamma 90.000000
_cell_volume 1219.032803
_symmetry_space_group_name_H-M "P 21/C"
_symmetry_group_IT_number 14
_symmetry_cell_setting 'monoclinic'
loop_
_space_group_symop_operation_xyz
x,y,z
-x,1/2+y,1/2-z
-x,-y,-z
x,1/2-y,1/2+z
loop_
_atom_site_type_symbol
_atom_site_label
_atom_site_fract_x
_atom_site_fract_y
_atom_site_fract_z
Si Si1 0.360062 0.229190 0.148834
Si Si2 0.111305 0.960825 0.548751
Si Si3 0.636162 0.772055 0.209567
Si Si4 0.681062 0.218993 0.325698
Si Si5 0.332708 0.616398 0.396381
Si Si6 0.166261 0.034449 0.008591
Si Si7 0.061762 0.847943 0.767444
Si Si8 0.869742 0.458866 0.138310
O O1 0.382131 0.255525 0.219524
O O2 0.298415 0.485971 0.136229
O O3 0.505023 0.190717 0.107029
O O4 0.284286 0.975698 0.149640
O O5 0.202682 0.724411 0.533733
O O6 0.179147 0.225721 0.545473
O O7 0.000000 0.000000 0.500000
O O8 0.001794 0.902912 0.606569
O O9 0.481876 0.716157 0.188839
O O10 0.763690 0.594122 0.186631
O O11 0.674399 0.000381 0.167867
O O12 0.784640 0.177732 0.267466
O O13 0.266480 0.440960 0.446973
O O14 0.235137 0.848799 0.403943
O O15 0.000000 0.000000 0.000000
O O16 0.059797 0.769674 0.834090
O O17 0.982351 0.618939 0.742249
#
# Coordination Sequence:
#
# PCOD9240963 Si02
#       8
#     4   4   4   4   4   4   4   4
#     4  11  21  33  53  86 116 147 194 233 306 373
#     4  10  20  34  54  83 119 155 195 240 307 377
#     4  11  21  33  56  91 116 154 193 246 318 376
#     4  11  21  39  56  79 117 152 192 258 290 349
#     4  11  22  31  57  86 127 159 187 231 323 372
#     4  10  19  34  47  79 123 156 181 236 285 391
#     4  12  28  45  58  83 123 177 224 244 276 358
#     4  12  22  37  63  85 123 168 196 254 311 362
#
# _framework density 26.250319999999999
#
# number of rings (size 3 to 8) (size 9 to 14) (size 15 to 20)
#    0.000    1.000    5.000    5.250    1.750    0.000 
#    0.000    0.000    0.000    0.000    0.000    0.000 
#    0.000   66.000    0.000    0.000    0.000    0.000 
#
# Total GULP energy -178819.304262 kJ/mol
# GULP energy per Si atom -5588.103258 kJ/mol
# Density = 2.619057 g / cm^3
# Si number density = 26.250320 Si / 1000 Ang^3
#
#
#
# Elastic Constant Matrix: (Units=GPa)
#
#
# Indices 1 2 3 4 5 6 
#
# 1 50.4555 28.9282 39.7966 0.0000 -23.1354 0.0000
# 2 28.9282 195.6860 35.0438 0.0000 -2.5100 0.0000
# 3 39.7966 35.0438 103.5775 0.0000 -35.6993 0.0000
# 4 0.0000 0.0000 0.0000 47.5497 0.0000 -5.0879
# 5 -23.1354 -2.5100 -35.6993 0.0000 38.2985 0.0000
# 6 0.0000 0.0000 0.0000 -5.0879 0.0000 46.3682
#
#
#
# Elastic Compliance Matrix: (Units=1/GPa)
#
#
# Indices 1 2 3 4 5 6 
#
# 1 0.033597 -0.003527 -0.007072 0.000000 0.013472 0.000000
# 2 -0.003527 0.005916 -0.001838 0.000000 -0.003456 0.000000
# 3 -0.007072 -0.001838 0.016913 0.000000 0.011373 0.000000
# 4 0.000000 0.000000 0.000000 0.021280 0.000000 0.002335
# 5 0.013472 -0.003456 0.011373 0.000000 0.044624 0.000000
# 6 0.000000 0.000000 0.000000 0.002335 0.000000 0.021823
#
#
# Mechanical properties :
#
#
# Convention : Reuss Voigt Hill
#
# Bulk Modulus (GPa) = 31.69234 61.91733 46.80484
# Shear Modulus (GPa) = 27.84806 42.83997 35.34402
#
# Velocity S-wave (km/s) = 3.26063 4.04416 3.67334
# Velocity P-wave (km/s) = 5.12591 6.74132 5.98834
#
# Compressibility (1/GPa) = 0.03155336
#
# Stress axis : x y z
#
# Youngs Moduli (GPa) = 29.76432 169.02079 59.12485
#
# Poissons Ratio (x) = 0.59621 0.41812
# Poissons Ratio (y) = 0.10499 0.10865
# Poissons Ratio (z) = 0.21049 0.31059
#
# Static dielectric constant tensor:
#      x y z
#    x 2.125820 0.000000 0.095190 
#    y 0.000000 2.166120 0.000000 
#    z 0.095190 0.000000 2.085370 
# 
# From -- ./inp_files/79772.got.cif
#   From: 2010.05.17/outbox.cif.g08.bks.cpg/sg14_40_cif.got.tgz:79772.got - 2010.06.03 17:49:19.
