data_PCOD9240102
_publ_section_title
;
Structure prediction by ZEFSAII (Michael W. Deem and Ramdas Pophale) SiO2 
 PCOD9240102
Probable space group: P 21/C
;
_chemical_formula_sum "Si O2"
_cell_formula_units_Z 28
_cell_length_a 9.643664
_cell_length_b 10.346191
_cell_length_c 19.915266
_cell_angle_alpha 90.000000
_cell_angle_beta 44.235767
_cell_angle_gamma 90.000000
_cell_volume 1386.190529
_symmetry_space_group_name_H-M "P 21/C"
_symmetry_group_IT_number 14
_symmetry_cell_setting 'monoclinic'
loop_
_space_group_symop_operation_xyz
x,y,z
-x,1/2+y,1/2-z
-x,-y,-z
x,1/2-y,1/2+z
loop_
_atom_site_type_symbol
_atom_site_label
_atom_site_fract_x
_atom_site_fract_y
_atom_site_fract_z
Si Si1 0.321208 0.629830 0.692683
Si Si2 0.269269 0.778932 0.059621
Si Si3 0.633059 0.873222 0.461211
Si Si4 0.091734 0.623981 0.318330
Si Si5 0.958464 0.596250 0.575899
Si Si6 0.746792 0.786217 0.039405
Si Si7 0.981899 0.460014 0.806131
O O1 0.264714 0.653089 0.633986
O O2 0.247410 0.758603 0.757606
O O3 0.557416 0.620577 0.613965
O O4 0.195192 0.505592 0.757989
O O5 0.132011 0.650546 0.113090
O O6 0.162576 0.862910 0.040633
O O7 0.499952 0.737468 0.972335
O O8 0.657281 0.837807 0.531568
O O9 0.844161 0.911077 0.357312
O O10 0.500000 0.000000 0.500000
O O11 0.162931 0.489822 0.328072
O O12 0.017186 0.590873 0.269929
O O13 0.907681 0.668646 0.428342
O O14 0.850353 0.715489 0.576097
O O15 0.000000 0.500000 0.500000
#
# Coordination Sequence:
#
# PCOD9240102 Si02
#       7
#     4   4   4   4   4   4   4
#     4  10  19  36  60  87 110 148 202 243 287 335
#     4   9  19  36  59  86 111 155 197 237 295 343
#     4   9  18  36  62  85 113 147 194 246 289 337
#     4  10  20  37  61  82 119 153 187 245 291 339
#     4  10  21  40  56  80 123 160 190 234 295 353
#     4  10  21  37  58  84 116 157 192 232 296 354
#     4  10  18  34  61  87 112 142 196 256 284 331
#
# _framework density 20.199242000000002
#
# number of rings (size 3 to 8) (size 9 to 14) (size 15 to 20)
#    0.000    2.286    2.857    0.857    0.000    0.571 
#    5.143    5.714    0.000    0.000    0.000    0.000 
#    0.000    0.000    0.000    0.000    0.000    0.000 
#
# Total GULP energy -155903.297357 kJ/mol
# GULP energy per Si atom -5567.974906 kJ/mol
# Density = 2.015327 g / cm^3
# Si number density = 20.199242 Si / 1000 Ang^3
#
#
#
# Elastic Constant Matrix: (Units=GPa)
#
#
# Indices 1 2 3 4 5 6 
#
# 1 77.6503 9.8429 11.9682 0.0000 2.7946 0.0000
# 2 9.8429 38.2102 1.2568 0.0000 9.8594 0.0000
# 3 11.9682 1.2568 69.8324 0.0000 -12.0643 0.0000
# 4 0.0000 0.0000 0.0000 23.1818 0.0000 3.7957
# 5 2.7946 9.8594 -12.0643 0.0000 21.5380 0.0000
# 6 0.0000 0.0000 0.0000 3.7957 0.0000 38.2450
#
#
#
# Elastic Compliance Matrix: (Units=1/GPa)
#
#
# Indices 1 2 3 4 5 6 
#
# 1 0.013727 -0.002960 -0.002627 0.000000 -0.001898 0.000000
# 2 -0.002960 0.030971 -0.002694 0.000000 -0.015302 0.000000
# 3 -0.002627 -0.002694 0.016707 0.000000 0.010932 0.000000
# 4 0.000000 0.000000 0.000000 0.043850 0.000000 -0.004352
# 5 -0.001898 -0.015302 0.010932 0.000000 0.059804 0.000000
# 6 0.000000 0.000000 0.000000 -0.004352 0.000000 0.026579
#
#
# Mechanical properties :
#
#
# Convention : Reuss Voigt Hill
#
# Bulk Modulus (GPa) = 22.29996 25.75876 24.02936
# Shear Modulus (GPa) = 22.40675 27.43463 24.92069
#
# Velocity S-wave (km/s) = 3.33421 3.68938 3.51628
# Velocity P-wave (km/s) = 5.08788 5.56136 5.32988
#
# Compressibility (1/GPa) = 0.04484312
#
# Stress axis : x y z
#
# Youngs Moduli (GPa) = 72.85096 32.28873 59.85363
#
# Poissons Ratio (x) = 0.09557 0.15724
# Poissons Ratio (y) = 0.21563 0.16123
# Poissons Ratio (z) = 0.19139 0.08698
#
# Static dielectric constant tensor:
#      x y z
#    x 1.746110 0.000000 -0.046160 
#    y 0.000000 1.834030 0.000000 
#    z -0.046160 0.000000 1.744040 
# 
# From -- ./inp_files/52004.got.cif
#   From: 2010.05.17/outbox.cif.g08.bks.cpg/sg14_27_cif.got.tgz:52004.got - 2010.06.03 17:49:19.
