data_PCOD9240129
_publ_section_title
;
Structure prediction by ZEFSAII (Michael W. Deem and Ramdas Pophale) SiO2 
 PCOD9240129
Probable space group: P 21/C
;
_chemical_formula_sum "Si O2"
_cell_formula_units_Z 32
_cell_length_a 12.556408
_cell_length_b 11.189820
_cell_length_c 18.348034
_cell_angle_alpha 90.000000
_cell_angle_beta 148.358995
_cell_angle_gamma 90.000000
_cell_volume 1352.391633
_symmetry_space_group_name_H-M "P 21/C"
_symmetry_group_IT_number 14
_symmetry_cell_setting 'monoclinic'
loop_
_space_group_symop_operation_xyz
x,y,z
-x,1/2+y,1/2-z
-x,-y,-z
x,1/2-y,1/2+z
loop_
_atom_site_type_symbol
_atom_site_label
_atom_site_fract_x
_atom_site_fract_y
_atom_site_fract_z
Si Si1 0.772678 0.700819 0.143568
Si Si2 0.935804 0.385694 0.417113
Si Si3 0.820955 0.542343 0.689684
Si Si4 0.311444 0.249653 0.071459
Si Si5 0.304525 0.770200 0.610701
Si Si6 0.097814 0.487619 0.978615
Si Si7 0.231946 0.927514 0.333689
Si Si8 0.731078 0.314949 0.564156
O O1 0.739492 0.826942 0.166876
O O2 0.694797 0.565216 0.112488
O O3 0.019474 0.686021 0.292546
O O4 0.690410 0.736593 0.016033
O O5 0.855383 0.293047 0.429640
O O6 0.780319 0.410554 0.260699
O O7 0.000000 0.500000 0.500000
O O8 0.128942 0.334159 0.488700
O O9 0.681618 0.443340 0.570163
O O10 0.007727 0.568850 0.741981
O O11 0.922385 0.473293 0.816742
O O12 0.508472 0.205197 0.227569
O O13 0.254927 0.380550 0.067780
O O14 0.348925 0.692922 0.564925
O O15 0.212715 0.891393 0.525949
O O16 0.000000 0.500000 0.000000
O O17 0.324539 0.805723 0.423153
#
# Coordination Sequence:
#
# PCOD9240129 Si02
#       8
#     4   4   4   4   4   4   4   4
#     4  10  18  36  66  93 121 180 221 259 331 408
#     4  12  25  43  67 104 139 173 226 287 338 401
#     4  10  18  34  69  91 121 180 226 257 333 405
#     4  12  25  43  69 101 135 178 221 278 344 403
#     4  12  27  41  70 102 136 174 223 283 342 396
#     4  12  23  42  69  96 134 178 227 274 334 406
#     4  10  18  36  67  89 125 179 221 264 332 405
#     4  10  18  38  64  91 124 180 221 260 329 407
#
# _framework density 23.661784999999998
#
# number of rings (size 3 to 8) (size 9 to 14) (size 15 to 20)
#    0.000    1.000    8.750    1.500    1.750    0.000 
#    0.000    0.625    5.500    1.500    0.000    0.000 
#    0.000    0.000    0.000    0.000    0.000    0.000 
#
# Total GULP energy -178888.065579 kJ/mol
# GULP energy per Si atom -5590.252049 kJ/mol
# Density = 2.360793 g / cm^3
# Si number density = 23.661785 Si / 1000 Ang^3
#
#
#
# Elastic Constant Matrix: (Units=GPa)
#
#
# Indices 1 2 3 4 5 6 
#
# 1 63.0420 27.4075 3.7225 0.0000 -25.8973 0.0000
# 2 27.4075 144.5152 -10.0718 0.0000 -2.9196 0.0000
# 3 3.7225 -10.0718 64.7101 0.0000 -17.9268 0.0000
# 4 0.0000 0.0000 0.0000 39.6873 0.0000 -9.3598
# 5 -25.8973 -2.9196 -17.9268 0.0000 42.3453 0.0000
# 6 0.0000 0.0000 0.0000 -9.3598 0.0000 25.4392
#
#
#
# Elastic Compliance Matrix: (Units=1/GPa)
#
#
# Indices 1 2 3 4 5 6 
#
# 1 0.023715 -0.004037 0.002207 0.000000 0.015159 0.000000
# 2 -0.004037 0.007726 0.001018 0.000000 -0.001506 0.000000
# 3 0.002207 0.001018 0.017988 0.000000 0.009035 0.000000
# 4 0.000000 0.000000 0.000000 0.027591 0.000000 0.010152
# 5 0.015159 -0.001506 0.009035 0.000000 0.036608 0.000000
# 6 0.000000 0.000000 0.000000 0.010152 0.000000 0.043044
#
#
# Mechanical properties :
#
#
# Convention : Reuss Voigt Hill
#
# Bulk Modulus (GPa) = 20.91920 34.93151 27.92536
# Shear Modulus (GPa) = 28.69742 38.24165 33.46953
#
# Velocity S-wave (km/s) = 3.48633 4.02453 3.76506
# Velocity P-wave (km/s) = 5.00661 6.03247 5.54332
#
# Compressibility (1/GPa) = 0.04780297
#
# Stress axis : x y z
#
# Youngs Moduli (GPa) = 42.16785 129.43480 55.59269
#
# Poissons Ratio (x) = 0.52259 -0.12269
# Poissons Ratio (y) = 0.17025 -0.05657
# Poissons Ratio (z) = -0.09306 -0.13171
#
# Static dielectric constant tensor:
#      x y z
#    x 1.926770 0.000000 0.093950 
#    y 0.000000 1.931270 0.000000 
#    z 0.093950 0.000000 1.885880 
# 
# From -- ./inp_files/59497.got.cif
#   From: 2010.05.17/outbox.cif.g08.bks.cpg/sg14_30_cif.got.tgz:59497.got - 2010.06.03 17:49:19.
