data_PCOD9240121
_publ_section_title
;
Structure prediction by ZEFSAII (Michael W. Deem and Ramdas Pophale) SiO2 
 PCOD9240121
Probable space group: P 21/C
;
_chemical_formula_sum "Si O2"
_cell_formula_units_Z 28
_cell_length_a 15.891112
_cell_length_b 7.730409
_cell_length_c 8.730347
_cell_angle_alpha 90.000000
_cell_angle_beta 99.112989
_cell_angle_gamma 90.000000
_cell_volume 1058.940798
_symmetry_space_group_name_H-M "P 21/C"
_symmetry_group_IT_number 14
_symmetry_cell_setting 'monoclinic'
loop_
_space_group_symop_operation_xyz
x,y,z
-x,1/2+y,1/2-z
-x,-y,-z
x,1/2-y,1/2+z
loop_
_atom_site_type_symbol
_atom_site_label
_atom_site_fract_x
_atom_site_fract_y
_atom_site_fract_z
Si Si1 0.011115 0.658536 0.883631
Si Si2 0.244012 0.514682 0.327805
Si Si3 0.574020 0.092824 0.122965
Si Si4 0.812889 0.471856 0.033521
Si Si5 0.678113 0.634312 0.199100
Si Si6 0.431001 0.319827 0.114999
Si Si7 0.898990 0.854608 0.052610
O O1 0.111603 0.651031 0.884326
O O2 0.954665 0.627368 0.720329
O O3 0.000000 0.500000 0.000000
O O4 0.968573 0.831324 0.939570
O O5 0.329885 0.609229 0.407298
O O6 0.269265 0.313691 0.301512
O O7 0.175089 0.494984 0.444734
O O8 0.213718 0.576695 0.149064
O O9 0.584476 0.978783 0.278231
O O10 0.529067 0.270192 0.152708
O O11 0.500000 0.000000 0.000000
O O12 0.739608 0.491535 0.141735
O O13 0.851099 0.667761 0.030950
O O14 0.632092 0.663198 0.348254
O O15 0.597500 0.641853 0.063041
#
# Coordination Sequence:
#
# PCOD9240121 Si02
#       7
#     4   4   4   4   4   4   4
#     4  10  20  37  62  88 125 154 204 267 314 382
#     4  10  18  34  64  84 118 162 212 261 313 374
#     4  11  22  40  62  97 133 167 222 277 323 383
#     4  10  19  36  62  91 118 160 207 262 311 380
#     4  10  19  35  63  91 115 166 223 260 316 385
#     4  11  21  39  66  91 130 173 221 272 328 384
#     4  10  19  35  62  88 117 158 203 253 322 380
#
# _framework density 26.441517000000001
#
# number of rings (size 3 to 8) (size 9 to 14) (size 15 to 20)
#    0.000    1.714    8.571    0.000    0.000    0.571 
#    0.000    2.857    9.429    0.000    0.000    0.000 
#    0.000    0.000    0.000    0.000    0.000    0.000 
#
# Total GULP energy -156447.838445 kJ/mol
# GULP energy per Si atom -5587.422802 kJ/mol
# Density = 2.638133 g / cm^3
# Si number density = 26.441517 Si / 1000 Ang^3
#
#
#
# Elastic Constant Matrix: (Units=GPa)
#
#
# Indices 1 2 3 4 5 6 
#
# 1 184.6257 47.4367 6.7970 0.0000 2.7828 0.0000
# 2 47.4367 68.2725 3.1439 0.0000 -8.1782 0.0000
# 3 6.7970 3.1439 66.7497 0.0000 11.4547 0.0000
# 4 0.0000 0.0000 0.0000 18.8596 0.0000 9.1905
# 5 2.7828 -8.1782 11.4547 0.0000 38.7162 0.0000
# 6 0.0000 0.0000 0.0000 9.1905 0.0000 27.2708
#
#
#
# Elastic Compliance Matrix: (Units=1/GPa)
#
#
# Indices 1 2 3 4 5 6 
#
# 1 0.006680 -0.004803 -0.000208 0.000000 -0.001433 0.000000
# 2 -0.004803 0.018593 -0.001180 0.000000 0.004622 0.000000
# 3 -0.000208 -0.001180 0.015906 0.000000 -0.004940 0.000000
# 4 0.000000 0.000000 0.000000 0.063443 0.000000 -0.021381
# 5 -0.001433 0.004622 -0.004940 0.000000 0.028370 0.000000
# 6 0.000000 0.000000 0.000000 -0.021381 0.000000 0.043875
#
#
# Mechanical properties :
#
#
# Convention : Reuss Voigt Hill
#
# Bulk Modulus (GPa) = 34.72687 48.26700 41.49694
# Shear Modulus (GPa) = 25.14508 34.45399 29.79954
#
# Velocity S-wave (km/s) = 3.08713 3.61366 3.36072
# Velocity P-wave (km/s) = 5.08617 5.97539 5.54862
#
# Compressibility (1/GPa) = 0.02879615
#
# Stress axis : x y z
#
# Youngs Moduli (GPa) = 149.70618 53.78510 62.86989
#
# Poissons Ratio (x) = 0.25834 0.01308
# Poissons Ratio (y) = 0.71908 0.07417
# Poissons Ratio (z) = 0.03114 0.06345
#
# Static dielectric constant tensor:
#      x y z
#    x 2.212200 0.000000 -0.044880 
#    y 0.000000 2.183320 0.000000 
#    z -0.044880 0.000000 2.000320 
# 
# From -- ./inp_files/15590.got.cif
#   From: 2010.05.17/outbox.cif.g08.bks.cpg/sg14_8_cif.got.tgz:15590.got - 2010.06.03 17:49:19.
