data_PCOD9240888
_publ_section_title
;
Structure prediction by ZEFSAII (Michael W. Deem and Ramdas Pophale) SiO2 
 PCOD9240888
Probable space group: P 21/C
;
_chemical_formula_sum "Si O2"
_cell_formula_units_Z 24
_cell_length_a 11.745717
_cell_length_b 18.770365
_cell_length_c 5.323081
_cell_angle_alpha 90.000000
_cell_angle_beta 80.578338
_cell_angle_gamma 90.000000
_cell_volume 1157.755807
_symmetry_space_group_name_H-M "P 21/C"
_symmetry_group_IT_number 14
_symmetry_cell_setting 'monoclinic'
loop_
_space_group_symop_operation_xyz
x,y,z
-x,1/2+y,1/2-z
-x,-y,-z
x,1/2-y,1/2+z
loop_
_atom_site_type_symbol
_atom_site_label
_atom_site_fract_x
_atom_site_fract_y
_atom_site_fract_z
Si Si1 0.739147 0.085001 0.534972
Si Si2 0.726802 0.583404 0.050417
Si Si3 0.581804 0.712442 0.202813
Si Si4 0.326405 0.771719 0.315275
Si Si5 0.123810 0.585086 0.513454
Si Si6 0.868282 0.913285 0.001023
O O1 0.647701 0.144934 0.651160
O O2 0.786028 0.103329 0.240873
O O3 0.704688 0.001961 0.558467
O O4 0.836772 0.096826 0.714155
O O5 0.785036 0.604193 0.764724
O O6 0.615057 0.631306 0.140574
O O7 0.813331 0.601401 0.249380
O O8 0.627161 0.740875 0.452765
O O9 0.444666 0.726858 0.260258
O O10 0.261659 0.742357 0.580830
O O11 0.119947 0.499097 0.493390
O O12 0.997408 0.615151 0.497652
#
# Coordination Sequence:
#
# PCOD9240888 Si02
#       6
#     4   4   4   4   4   4
#     4  10  19  33  56  82 107 140 184 224 259 316
#     4  10  19  33  56  82 107 140 184 224 259 316
#     4  10  21  38  56  76 105 145 181 219 279 328
#     4  10  21  38  56  76 105 145 181 219 279 328
#     4   9  17  30  52  83 113 139 173 222 272 313
#     4   9  17  30  52  83 113 139 173 222 272 313
#
# _framework density 20.729759000000001
#
# number of rings (size 3 to 8) (size 9 to 14) (size 15 to 20)
#    0.000    2.333    0.000    3.000    0.000    4.000 
#    0.000    6.667    0.000   20.000    0.000    0.000 
#    0.000    0.000    0.000    0.000    0.000    0.000 
#
# Total GULP energy -133707.978554 kJ/mol
# GULP energy per Si atom -5571.165773 kJ/mol
# Density = 2.068258 g / cm^3
# Si number density = 20.729759 Si / 1000 Ang^3
#
#
#
# Elastic Constant Matrix: (Units=GPa)
#
#
# Indices 1 2 3 4 5 6 
#
# 1 34.0694 10.0960 -4.7472 0.0000 -0.8616 0.0000
# 2 10.0960 64.7244 7.5031 0.0000 -5.4498 0.0000
# 3 -4.7472 7.5031 120.4579 0.0000 26.9095 0.0000
# 4 0.0000 0.0000 0.0000 29.2515 0.0000 -2.4299
# 5 -0.8616 -5.4498 26.9095 0.0000 21.2555 0.0000
# 6 0.0000 0.0000 0.0000 -2.4299 0.0000 3.6586
#
#
#
# Elastic Compliance Matrix: (Units=1/GPa)
#
#
# Indices 1 2 3 4 5 6 
#
# 1 0.031176 -0.005365 0.002214 0.000000 -0.002915 0.000000
# 2 -0.005365 0.017337 -0.003117 0.000000 0.008174 0.000000
# 3 0.002214 -0.003117 0.012189 0.000000 -0.016141 0.000000
# 4 0.000000 0.000000 0.000000 0.036182 0.000000 0.024030
# 5 -0.002915 0.008174 -0.016141 0.000000 0.069458 0.000000
# 6 0.000000 0.000000 0.000000 0.024030 0.000000 0.289285
#
#
# Mechanical properties :
#
#
# Convention : Reuss Voigt Hill
#
# Bulk Modulus (GPa) = 20.76202 27.21726 23.98964
# Shear Modulus (GPa) = 10.32590 24.59312 17.45951
#
# Velocity S-wave (km/s) = 2.23428 3.44811 2.90529
# Velocity P-wave (km/s) = 4.08575 5.38615 4.78037
#
# Compressibility (1/GPa) = 0.04816487
#
# Stress axis : x y z
#
# Youngs Moduli (GPa) = 32.07547 57.68127 82.04272
#
# Poissons Ratio (x) = 0.30947 -0.18164
# Poissons Ratio (y) = 0.17209 0.25576
# Poissons Ratio (z) = -0.07101 0.17981
#
# Static dielectric constant tensor:
#      x y z
#    x 1.765270 0.000000 0.038580 
#    y 0.000000 1.773030 0.000000 
#    z 0.038580 0.000000 1.837320 
# 
# From -- ./inp_files/2676.got.cif
#   From: 2010.05.17/outbox.cif.g08.bks.cpg/sg14_2_cif.got.tgz:2676.got - 2010.06.03 17:49:19.
