data_PCOD9240781
_publ_section_title
;
Structure prediction by ZEFSAII (Michael W. Deem and Ramdas Pophale) SiO2 
 PCOD9240781
Probable space group: P 21/C
;
_chemical_formula_sum "Si O2"
_cell_formula_units_Z 26
_cell_length_a 21.426229
_cell_length_b 4.848260
_cell_length_c 20.580971
_cell_angle_alpha 90.000000
_cell_angle_beta 29.511530
_cell_angle_gamma 90.000000
_cell_volume 1053.151290
_symmetry_space_group_name_H-M "P 21/C"
_symmetry_group_IT_number 14
_symmetry_cell_setting 'monoclinic'
loop_
_space_group_symop_operation_xyz
x,y,z
-x,1/2+y,1/2-z
-x,-y,-z
x,1/2-y,1/2+z
loop_
_atom_site_type_symbol
_atom_site_label
_atom_site_fract_x
_atom_site_fract_y
_atom_site_fract_z
Si Si1 0.888893 0.240690 0.664100
Si Si2 0.314461 0.060740 0.707383
Si Si3 0.500000 0.000000 0.000000
Si Si4 0.117579 0.657644 0.579252
Si Si5 0.159977 0.428368 0.927110
Si Si6 0.671660 0.565285 0.427568
Si Si7 0.830641 0.651765 0.883258
O O1 0.822309 0.523420 0.705521
O O2 0.032071 0.246642 0.556855
O O3 0.871208 0.076603 0.613063
O O4 0.797119 0.106168 0.800030
O O5 0.392134 0.779894 0.633428
O O6 0.274081 0.217603 0.809383
O O7 0.372135 0.284023 0.603188
O O8 0.545428 0.110413 0.034736
O O9 0.158606 0.352539 0.563801
O O10 0.964068 0.683409 0.723501
O O11 0.167259 0.821727 0.471499
O O12 0.171198 0.842898 0.589923
O O13 0.710151 0.767161 0.449107
#
# Coordination Sequence:
#
# PCOD9240781 Si02
#       7
#     4   4   2   4   4   4   4
#     4  10  19  32  57  83 111 154 179 253 311 358
#     4   9  20  34  56  82 114 149 188 249 305 355
#     4   8  20  38  52  86 112 146 202 244 300 356
#     4  10  22  35  55  82 117 159 193 232 296 365
#     4  10  20  34  50  87 118 142 199 237 308 372
#     4   9  19  36  54  83 112 140 201 240 295 355
#     4  10  21  36  55  81 116 158 192 239 287 361
#
# _framework density 24.687811
#
# number of rings (size 3 to 8) (size 9 to 14) (size 15 to 20)
#    0.923    1.538    1.538    0.462    4.308    1.846 
#    0.000    0.000    0.000    1.846    0.000    0.000 
#    0.000    0.000    0.000    0.000    0.000    0.000 
#
# Total GULP energy -144840.099210 kJ/mol
# GULP energy per Si atom -5570.773047 kJ/mol
# Density = 2.463162 g / cm^3
# Si number density = 24.687811 Si / 1000 Ang^3
#
#
#
# Elastic Constant Matrix: (Units=GPa)
#
#
# Indices 1 2 3 4 5 6 
#
# 1 103.1524 20.0348 27.6818 0.0000 -12.3107 0.0000
# 2 20.0348 101.8023 29.8699 0.0000 8.3648 0.0000
# 3 27.6818 29.8699 110.4868 0.0000 -14.2983 0.0000
# 4 0.0000 0.0000 0.0000 37.4893 0.0000 8.2503
# 5 -12.3107 8.3648 -14.2983 0.0000 36.0676 0.0000
# 6 0.0000 0.0000 0.0000 8.2503 0.0000 37.2328
#
#
#
# Elastic Compliance Matrix: (Units=1/GPa)
#
#
# Indices 1 2 3 4 5 6 
#
# 1 0.010960 -0.001922 -0.001776 0.000000 0.003483 0.000000
# 2 -0.001922 0.011528 -0.003232 0.000000 -0.004611 0.000000
# 3 -0.001776 -0.003232 0.010950 0.000000 0.004484 0.000000
# 4 0.000000 0.000000 0.000000 0.028042 0.000000 -0.006214
# 5 0.003483 -0.004611 0.004484 0.000000 0.031762 0.000000
# 6 0.000000 0.000000 0.000000 -0.006214 0.000000 0.028235
#
#
# Mechanical properties :
#
#
# Convention : Reuss Voigt Hill
#
# Bulk Modulus (GPa) = 51.07520 52.29051 51.68286
# Shear Modulus (GPa) = 35.24566 38.01492 36.63029
#
# Velocity S-wave (km/s) = 3.78253 3.92832 3.85611
# Velocity P-wave (km/s) = 6.30952 6.46547 6.38797
#
# Compressibility (1/GPa) = 0.01957897
#
# Stress axis : x y z
#
# Youngs Moduli (GPa) = 91.24207 86.74272 91.32628
#
# Poissons Ratio (x) = 0.16673 0.16216
# Poissons Ratio (y) = 0.17538 0.29515
# Poissons Ratio (z) = 0.16201 0.28034
#
# Static dielectric constant tensor:
#      x y z
#    x 2.012940 0.000000 0.124320 
#    y 0.000000 2.904620 0.000000 
#    z 0.124320 0.000000 3.135820 
# 
# From -- ./inp_files/74479.got.cif
#   From: 2010.05.17/outbox.cif.g08.bks.cpg/sg14_38_cif.got.tgz:74479.got - 2010.06.03 17:49:19.
