data_PCOD9240534
_publ_section_title
;
Structure prediction by ZEFSAII (Michael W. Deem and Ramdas Pophale) SiO2 
 PCOD9240534
Probable space group: P 21/C
;
_chemical_formula_sum "Si O2"
_cell_formula_units_Z 26
_cell_length_a 20.325910
_cell_length_b 7.358548
_cell_length_c 13.346744
_cell_angle_alpha 90.000000
_cell_angle_beta 27.216354
_cell_angle_gamma 90.000000
_cell_volume 912.993794
_symmetry_space_group_name_H-M "P 21/C"
_symmetry_group_IT_number 14
_symmetry_cell_setting 'monoclinic'
loop_
_space_group_symop_operation_xyz
x,y,z
-x,1/2+y,1/2-z
-x,-y,-z
x,1/2-y,1/2+z
loop_
_atom_site_type_symbol
_atom_site_label
_atom_site_fract_x
_atom_site_fract_y
_atom_site_fract_z
Si Si1 0.724411 0.076320 0.750466
Si Si2 0.000000 0.000000 0.000000
Si Si3 0.690390 0.739382 0.652537
Si Si4 0.014239 0.045862 0.247138
Si Si5 0.282625 0.252461 0.611210
Si Si6 0.424184 0.665165 0.182872
Si Si7 0.839166 0.285891 0.834789
O O1 0.669513 0.912993 0.750138
O O2 0.880779 0.113287 0.492530
O O3 0.727517 0.970492 0.851805
O O4 0.380097 0.760941 0.137627
O O5 0.129301 0.160940 0.838844
O O6 0.133206 0.835518 0.816239
O O7 0.669743 0.788014 0.565507
O O8 0.619177 0.543737 0.763559
O O9 0.858971 0.689207 0.435146
O O10 0.083533 0.881592 0.215170
O O11 0.943799 0.037432 0.229546
O O12 0.414205 0.180750 0.498645
O O13 0.320309 0.768357 0.405747
#
# Coordination Sequence:
#
# PCOD9240534 Si02
#       7
#     4   2   4   4   4   4   4
#     4  11  23  48  73 105 154 197 258 324 381 468
#     4  12  24  42  72 116 146 196 264 328 378 466
#     4  11  25  43  76 106 148 201 247 315 399 455
#     4  10  18  41  65  98 134 183 243 299 378 448
#     4  12  26  46  75 111 155 204 261 326 392 478
#     4  10  26  47  71 109 147 205 256 316 394 466
#     4  10  21  40  69  97 140 190 245 313 376 450
#
# _framework density 28.477739
#
# number of rings (size 3 to 8) (size 9 to 14) (size 15 to 20)
#    0.000    1.231    3.077    2.308    4.308    1.231 
#    0.000    1.538    0.000    0.000    0.000    0.000 
#    0.000    0.000    0.000    0.000    0.000    0.000 
#
# Total GULP energy -145242.953152 kJ/mol
# GULP energy per Si atom -5586.267429 kJ/mol
# Density = 2.841292 g / cm^3
# Si number density = 28.477739 Si / 1000 Ang^3
#
#
#
# Elastic Constant Matrix: (Units=GPa)
#
#
# Indices 1 2 3 4 5 6 
#
# 1 96.1122 12.9704 21.8270 0.0000 -5.0043 0.0000
# 2 12.9704 135.9102 40.0327 0.0000 2.3291 0.0000
# 3 21.8270 40.0327 114.7251 0.0000 -22.2511 0.0000
# 4 0.0000 0.0000 0.0000 55.6618 0.0000 4.4095
# 5 -5.0043 2.3291 -22.2511 0.0000 52.5937 0.0000
# 6 0.0000 0.0000 0.0000 4.4095 0.0000 50.0921
#
#
#
# Elastic Compliance Matrix: (Units=1/GPa)
#
#
# Indices 1 2 3 4 5 6 
#
# 1 0.010906 -0.000502 -0.001846 0.000000 0.000279 0.000000
# 2 -0.000502 0.008368 -0.003165 0.000000 -0.001758 0.000000
# 3 -0.001846 -0.003165 0.011074 0.000000 0.004650 0.000000
# 4 0.000000 0.000000 0.000000 0.018092 0.000000 -0.001593
# 5 0.000279 -0.001758 0.004650 0.000000 0.021085 0.000000
# 6 0.000000 0.000000 0.000000 -0.001593 0.000000 0.020103
#
#
# Mechanical properties :
#
#
# Convention : Reuss Voigt Hill
#
# Bulk Modulus (GPa) = 51.75406 55.15639 53.45523
# Shear Modulus (GPa) = 46.68742 49.79737 48.24239
#
# Velocity S-wave (km/s) = 4.05339 4.18621 4.12034
# Velocity P-wave (km/s) = 6.33400 6.54035 6.43800
#
# Compressibility (1/GPa) = 0.01932215
#
# Stress axis : x y z
#
# Youngs Moduli (GPa) = 91.69334 119.49995 90.30168
#
# Poissons Ratio (x) = 0.05998 0.16666
# Poissons Ratio (y) = 0.04602 0.28584
# Poissons Ratio (z) = 0.16923 0.37827
#
# Static dielectric constant tensor:
#      x y z
#    x 1.463530 0.000000 -0.452510 
#    y 0.000000 2.307940 0.000000 
#    z -0.452510 0.000000 1.934250 
# 
# From -- ./inp_files/62229.got.cif
#   From: 2010.05.17/outbox.cif.g08.bks.cpg/sg14_32_cif.got.tgz:62229.got - 2010.06.03 17:49:19.
