data_PCOD9240342
_publ_section_title
;
Structure prediction by ZEFSAII (Michael W. Deem and Ramdas Pophale) SiO2 
 PCOD9240342
Probable space group: P 21/C
;
_chemical_formula_sum "Si O2"
_cell_formula_units_Z 28
_cell_length_a 7.621342
_cell_length_b 6.797469
_cell_length_c 24.872767
_cell_angle_alpha 90.000000
_cell_angle_beta 121.037036
_cell_angle_gamma 90.000000
_cell_volume 1104.077555
_symmetry_space_group_name_H-M "P 21/C"
_symmetry_group_IT_number 14
_symmetry_cell_setting 'monoclinic'
loop_
_space_group_symop_operation_xyz
x,y,z
-x,1/2+y,1/2-z
-x,-y,-z
x,1/2-y,1/2+z
loop_
_atom_site_type_symbol
_atom_site_label
_atom_site_fract_x
_atom_site_fract_y
_atom_site_fract_z
Si Si1 0.506404 0.551250 0.870029
Si Si2 0.173939 0.130856 0.070904
Si Si3 0.252096 0.017447 0.743491
Si Si4 0.231097 0.795194 0.457078
Si Si5 0.121060 0.779441 0.822572
Si Si6 0.662095 0.794277 0.504762
Si Si7 0.679265 0.198292 0.831364
O O1 0.657372 0.725711 0.873910
O O2 0.270238 0.603398 0.825658
O O3 0.560601 0.569735 0.941293
O O4 0.570680 0.350573 0.854425
O O5 0.239661 0.130002 0.018150
O O6 0.956689 0.237962 0.035423
O O7 0.181022 0.938180 0.108707
O O8 0.181907 0.951844 0.792019
O O9 0.215610 0.832920 0.697587
O O10 0.491007 0.072799 0.777195
O O11 0.109603 0.205060 0.709887
O O12 0.190139 0.684706 0.394282
O O13 0.464184 0.732287 0.506985
O O14 0.206987 0.035065 0.446259
#
# Coordination Sequence:
#
# PCOD9240342 Si02
#       7
#     4   4   4   4   4   4   4
#     4   9  20  42  62  93 126 159 209 270 314 390
#     4  10  21  39  66  93 126 166 208 265 322 383
#     4  12  26  39  65  90 131 176 222 273 324 386
#     4  10  18  36  69  90 127 170 207 261 325 393
#     4  11  23  41  61  92 125 171 217 266 322 380
#     4   8  19  38  65  97 124 167 209 255 336 385
#     4  12  24  42  63  93 127 169 218 266 323 384
#
# _framework density 25.360537000000001
#
# number of rings (size 3 to 8) (size 9 to 14) (size 15 to 20)
#    0.857    0.857    1.429    3.000    4.000    0.000 
#    2.571    0.714    0.000    5.143    0.000    0.000 
#    0.000    0.000    0.000    0.000    0.000    0.000 
#
# Total GULP energy -156287.649516 kJ/mol
# GULP energy per Si atom -5581.701768 kJ/mol
# Density = 2.530282 g / cm^3
# Si number density = 25.360537 Si / 1000 Ang^3
#
#
#
# Elastic Constant Matrix: (Units=GPa)
#
#
# Indices 1 2 3 4 5 6 
#
# 1 106.1391 7.5949 3.0286 0.0000 4.0144 0.0000
# 2 7.5949 58.8775 3.9952 0.0000 2.9413 0.0000
# 3 3.0286 3.9952 41.3637 0.0000 10.9121 0.0000
# 4 0.0000 0.0000 0.0000 34.1339 0.0000 -1.4904
# 5 4.0144 2.9413 10.9121 0.0000 29.1948 0.0000
# 6 0.0000 0.0000 0.0000 -1.4904 0.0000 43.7174
#
#
#
# Elastic Compliance Matrix: (Units=1/GPa)
#
#
# Indices 1 2 3 4 5 6 
#
# 1 0.009554 -0.001158 -0.000302 0.000000 -0.001084 0.000000
# 2 -0.001158 0.017276 -0.001294 0.000000 -0.001098 0.000000
# 3 -0.000302 -0.001294 0.026933 0.000000 -0.009895 0.000000
# 4 0.000000 0.000000 0.000000 0.029340 0.000000 0.001000
# 5 -0.001084 -0.001098 -0.009895 0.000000 0.038211 0.000000
# 6 0.000000 0.000000 0.000000 0.001000 0.000000 0.022908
#
#
# Mechanical properties :
#
#
# Convention : Reuss Voigt Hill
#
# Bulk Modulus (GPa) = 20.72275 26.17973 23.45124
# Shear Modulus (GPa) = 30.15392 34.19331 32.17361
#
# Velocity S-wave (km/s) = 3.45194 3.67589 3.56567
# Velocity P-wave (km/s) = 4.90682 5.32556 5.12047
#
# Compressibility (1/GPa) = 0.04825614
#
# Stress axis : x y z
#
# Youngs Moduli (GPa) = 104.66746 57.88229 37.12883
#
# Poissons Ratio (x) = 0.06702 0.01120
# Poissons Ratio (y) = 0.12118 0.04806
# Poissons Ratio (z) = 0.03157 0.07492
#
# Static dielectric constant tensor:
#      x y z
#    x 2.058710 0.000000 0.024670 
#    y 0.000000 2.086460 0.000000 
#    z 0.024670 0.000000 2.031250 
# 
# From -- ./inp_files/79297.got.cif
#   From: 2010.05.17/outbox.cif.g08.bks.cpg/sg14_40_cif.got.tgz:79297.got - 2010.06.03 17:49:19.
