data_PCOD9240113
_publ_section_title
;
Structure prediction by ZEFSAII (Michael W. Deem and Ramdas Pophale) SiO2 
 PCOD9240113
Probable space group: P 21/C
;
_chemical_formula_sum "Si O2"
_cell_formula_units_Z 18
_cell_length_a 15.391525
_cell_length_b 9.127249
_cell_length_c 10.973622
_cell_angle_alpha 90.000000
_cell_angle_beta 25.046741
_cell_angle_gamma 90.000000
_cell_volume 652.647648
_symmetry_space_group_name_H-M "P 21/C"
_symmetry_group_IT_number 14
_symmetry_cell_setting 'monoclinic'
loop_
_space_group_symop_operation_xyz
x,y,z
-x,1/2+y,1/2-z
-x,-y,-z
x,1/2-y,1/2+z
loop_
_atom_site_type_symbol
_atom_site_label
_atom_site_fract_x
_atom_site_fract_y
_atom_site_fract_z
Si Si1 0.411620 0.188798 0.926828
Si Si2 0.027912 0.735492 0.273028
Si Si3 0.106139 0.437875 0.247266
Si Si4 0.000000 0.000000 0.500000
Si Si5 0.542287 0.839008 0.398080
O O1 0.534158 0.166990 0.644445
O O2 0.299983 0.343651 0.037690
O O3 0.517099 0.220529 0.923131
O O4 0.231942 0.068509 0.171826
O O5 0.139352 0.579379 0.121361
O O6 0.049180 0.831371 0.125208
O O7 0.787556 0.688607 0.576774
O O8 0.051122 0.847413 0.355528
O O9 0.000000 0.500000 0.500000
O O10 0.500000 0.000000 0.500000
#
# Coordination Sequence:
#
# PCOD9240113 Si02
#       5
#     4   4   4   2   4
#     4  10  22  40  66  98 127 171 219 282 335 396
#     4  10  21  34  61  94 128 164 206 267 334 391
#     4  11  19  35  57  93 127 157 208 266 344 382
#     4  10  18  34  62  96 128 154 208 278 348 390
#     4  10  21  41  62  86 133 174 218 260 316 393
#
# _framework density 27.579965000000001
#
# number of rings (size 3 to 8) (size 9 to 14) (size 15 to 20)
#    0.000    1.778    4.444    2.667    0.000    0.000 
#    0.000    7.778    0.000    2.667    0.000    0.000 
#    0.000    0.000    0.000    0.000    0.000    0.000 
#
# Total GULP energy -100287.010935 kJ/mol
# GULP energy per Si atom -5571.500608 kJ/mol
# Density = 2.751719 g / cm^3
# Si number density = 27.579965 Si / 1000 Ang^3
#
#
#
# Elastic Constant Matrix: (Units=GPa)
#
#
# Indices 1 2 3 4 5 6 
#
# 1 97.3676 43.2919 50.7202 0.0000 19.5076 0.0000
# 2 43.2919 148.0186 41.4107 0.0000 -4.5205 0.0000
# 3 50.7202 41.4107 97.8070 0.0000 16.7034 0.0000
# 4 0.0000 0.0000 0.0000 55.4585 0.0000 0.2600
# 5 19.5076 -4.5205 16.7034 0.0000 58.2272 0.0000
# 6 0.0000 0.0000 0.0000 0.2600 0.0000 61.8899
#
#
#
# Elastic Compliance Matrix: (Units=1/GPa)
#
#
# Indices 1 2 3 4 5 6 
#
# 1 0.015525 -0.002920 -0.006191 0.000000 -0.003652 0.000000
# 2 -0.002920 0.008358 -0.002421 0.000000 0.002322 0.000000
# 3 -0.006191 -0.002421 0.014866 0.000000 -0.002378 0.000000
# 4 0.000000 0.000000 0.000000 0.018032 0.000000 -0.000076
# 5 -0.003652 0.002322 -0.002378 0.000000 0.019260 0.000000
# 6 0.000000 0.000000 0.000000 -0.000076 0.000000 0.016158
#
#
# Mechanical properties :
#
#
# Convention : Reuss Voigt Hill
#
# Bulk Modulus (GPa) = 63.75448 68.22653 65.99051
# Shear Modulus (GPa) = 41.49636 48.96647 45.23142
#
# Velocity S-wave (km/s) = 3.88310 4.21816 4.05410
# Velocity P-wave (km/s) = 6.57808 6.96529 6.77445
#
# Compressibility (1/GPa) = 0.01568517
#
# Stress axis : x y z
#
# Youngs Moduli (GPa) = 64.41019 119.64242 67.26825
#
# Poissons Ratio (x) = 0.34940 0.41645
# Poissons Ratio (y) = 0.18810 0.16285
# Poissons Ratio (z) = 0.39876 0.28964
#
# Static dielectric constant tensor:
#      x y z
#    x 2.354120 0.000000 0.011130 
#    y 0.000000 2.274290 0.000000 
#    z 0.011130 0.000000 2.220510 
# 
# From -- ./inp_files/33506.got.cif
#   From: 2010.05.17/outbox.cif.g08.bks.cpg/sg14_17_cif.got.tgz:33506.got - 2010.06.03 17:49:19.
