data_PCOD9240794
_publ_section_title
;
Structure prediction by ZEFSAII (Michael W. Deem and Ramdas Pophale) SiO2 
 PCOD9240794
Probable space group: P 21/C
;
_chemical_formula_sum "Si O2"
_cell_formula_units_Z 28
_cell_length_a 5.251718
_cell_length_b 30.968173
_cell_length_c 10.676011
_cell_angle_alpha 90.000000
_cell_angle_beta 120.980273
_cell_angle_gamma 90.000000
_cell_volume 1488.611606
_symmetry_space_group_name_H-M "P 21/C"
_symmetry_group_IT_number 14
_symmetry_cell_setting 'monoclinic'
loop_
_space_group_symop_operation_xyz
x,y,z
-x,1/2+y,1/2-z
-x,-y,-z
x,1/2-y,1/2+z
loop_
_atom_site_type_symbol
_atom_site_label
_atom_site_fract_x
_atom_site_fract_y
_atom_site_fract_z
Si Si1 0.092791 0.449051 0.532007
Si Si2 0.868734 0.725777 0.014472
Si Si3 0.693710 0.035282 0.126518
Si Si4 0.984848 0.100612 0.745765
Si Si5 0.160066 0.513465 0.914061
Si Si6 0.458109 0.248086 0.812233
Si Si7 0.450285 0.344068 0.213556
O O1 0.440916 0.446329 0.654266
O O2 0.000000 0.500000 0.500000
O O3 0.851837 0.432172 0.570530
O O4 0.063956 0.424339 0.394137
O O5 0.736586 0.754266 0.864391
O O6 0.757452 0.678162 0.945101
O O7 0.223525 0.728789 0.109485
O O8 0.723609 0.739976 0.109128
O O9 0.963750 0.011801 0.262255
O O10 0.500000 0.000000 0.000000
O O11 0.736273 0.135345 0.720718
O O12 0.264123 0.122100 0.747935
O O13 0.860735 0.063874 0.622466
O O14 0.500000 0.500000 0.000000
O O15 0.000000 0.500000 0.000000
O O16 0.527744 0.196723 0.821522
#
# Coordination Sequence:
#
# PCOD9240794 Si02
#       7
#     4   4   4   4   4   4   4
#     4  10  19  32  62  83 107 154 216 244 301 336
#     4  10  20  38  65  97 125 157 209 241 298 387
#     4  10  19  36  57  84 104 147 223 245 297 347
#     4  12  21  40  59  92 125 159 202 277 290 369
#     4  12  25  37  60  88 118 165 213 258 299 375
#     4  10  20  38  65  97 122 164 202 249 289 397
#     4  10  24  35  66  95 123 157 209 238 327 359
#
# _framework density 18.809473000000001
#
# number of rings (size 3 to 8) (size 9 to 14) (size 15 to 20)
#    0.857    0.571    2.857    5.143    4.000    0.000 
#    0.000    0.000    0.000   34.286    0.000    0.000 
#    0.000    0.000    0.000    0.000    0.000    0.000 
#
# Total GULP energy -155925.585919 kJ/mol
# GULP energy per Si atom -5568.770926 kJ/mol
# Density = 1.876666 g / cm^3
# Si number density = 18.809473 Si / 1000 Ang^3
#
#
#
# Elastic Constant Matrix: (Units=GPa)
#
#
# Indices 1 2 3 4 5 6 
#
# 1 131.2050 -12.3504 33.7870 0.0000 -7.7757 0.0000
# 2 -12.3504 29.4238 -11.4355 0.0000 -6.5370 0.0000
# 3 33.7870 -11.4355 53.7681 0.0000 -5.5386 0.0000
# 4 0.0000 0.0000 0.0000 31.1995 0.0000 0.7667
# 5 -7.7757 -6.5370 -5.5386 0.0000 39.3409 0.0000
# 6 0.0000 0.0000 0.0000 0.7667 0.0000 35.7467
#
#
#
# Elastic Compliance Matrix: (Units=1/GPa)
#
#
# Indices 1 2 3 4 5 6 
#
# 1 0.009253 0.002188 -0.005199 0.000000 0.001460 0.000000
# 2 0.002188 0.039800 0.007931 0.000000 0.008162 0.000000
# 3 -0.005199 0.007931 0.023929 0.000000 0.003659 0.000000
# 4 0.000000 0.000000 0.000000 0.032069 0.000000 -0.000688
# 5 0.001460 0.008162 0.003659 0.000000 0.027579 0.000000
# 6 0.000000 0.000000 0.000000 -0.000688 0.000000 0.027989
#
#
# Mechanical properties :
#
#
# Convention : Reuss Voigt Hill
#
# Bulk Modulus (GPa) = 12.07410 26.04434 19.05922
# Shear Modulus (GPa) = 28.02910 34.88381 31.45646
#
# Velocity S-wave (km/s) = 3.86445 4.31116 4.09390
# Velocity P-wave (km/s) = 5.13274 6.21755 5.70101
#
# Compressibility (1/GPa) = 0.08282192
#
# Stress axis : x y z
#
# Youngs Moduli (GPa) = 108.07464 25.12551 41.79073
#
# Poissons Ratio (x) = -0.05497 0.21725
# Poissons Ratio (y) = -0.23645 -0.33143
# Poissons Ratio (z) = 0.56184 -0.19926
#
# Static dielectric constant tensor:
#      x y z
#    x 1.739470 0.000000 -0.058620 
#    y 0.000000 1.672070 0.000000 
#    z -0.058620 0.000000 1.725770 
# 
# From -- ./inp_files/22330.got.cif
#   From: 2010.05.17/outbox.cif.g08.bks.cpg/sg14_12_cif.got.tgz:22330.got - 2010.06.03 17:49:19.
