data_PCOD9240093
_publ_section_title
;
Structure prediction by ZEFSAII (Michael W. Deem and Ramdas Pophale) SiO2 
 PCOD9240093
Probable space group: P 21/C
;
_chemical_formula_sum "Si O2"
_cell_formula_units_Z 24
_cell_length_a 9.049132
_cell_length_b 7.365247
_cell_length_c 13.913761
_cell_angle_alpha 90.000000
_cell_angle_beta 68.552120
_cell_angle_gamma 90.000000
_cell_volume 863.121813
_symmetry_space_group_name_H-M "P 21/C"
_symmetry_group_IT_number 14
_symmetry_cell_setting 'monoclinic'
loop_
_space_group_symop_operation_xyz
x,y,z
-x,1/2+y,1/2-z
-x,-y,-z
x,1/2-y,1/2+z
loop_
_atom_site_type_symbol
_atom_site_label
_atom_site_fract_x
_atom_site_fract_y
_atom_site_fract_z
Si Si1 0.474130 0.619495 0.908986
Si Si2 0.135917 0.326957 0.878770
Si Si3 0.785594 0.171906 0.404393
Si Si4 0.716123 0.482432 0.734875
Si Si5 0.711116 0.959397 0.838717
Si Si6 0.016446 0.158875 0.076730
O O1 0.529802 0.497327 0.805150
O O2 0.567358 0.812667 0.881017
O O3 0.500000 0.500000 0.000000
O O4 0.289265 0.656037 0.972008
O O5 0.216464 0.462160 0.785210
O O6 0.968526 0.279523 0.867723
O O7 0.252157 0.154430 0.839325
O O8 0.084989 0.332143 0.002441
O O9 0.775180 0.004207 0.332425
O O10 0.682588 0.334294 0.379633
O O11 0.842594 0.338836 0.665497
O O12 0.850850 0.893300 0.877364
O O13 0.000000 0.000000 0.000000
#
# Coordination Sequence:
#
# PCOD9240093 Si02
#       6
#     4   4   4   4   4   4
#     4   9  21  35  58  81 116 160 191 227 302 355
#     4  10  19  34  60  85 116 152 195 239 293 348
#     4  11  17  33  58  86 114 152 191 240 291 349
#     4   9  18  34  56  79 116 152 186 234 291 342
#     4  11  20  35  62  86 115 151 199 243 289 348
#     4  10  18  34  60  86 113 153 192 242 297 338
#
# _framework density 27.806038999999998
#
# number of rings (size 3 to 8) (size 9 to 14) (size 15 to 20)
#    0.000    2.000    5.000    0.500    0.000    0.000 
#    0.000    0.833   22.000    0.000    0.000    0.000 
#    0.000    0.000    0.000    0.000    0.000    0.000 
#
# Total GULP energy -133824.353468 kJ/mol
# GULP energy per Si atom -5576.014728 kJ/mol
# Density = 2.774275 g / cm^3
# Si number density = 27.806039 Si / 1000 Ang^3
#
#
#
# Elastic Constant Matrix: (Units=GPa)
#
#
# Indices 1 2 3 4 5 6 
#
# 1 73.7464 21.9289 37.3553 0.0000 -4.6971 0.0000
# 2 21.9289 101.8046 19.2900 0.0000 -17.0773 0.0000
# 3 37.3553 19.2900 241.7755 0.0000 -47.2357 0.0000
# 4 0.0000 0.0000 0.0000 21.4392 0.0000 -2.3565
# 5 -4.6971 -17.0773 -47.2357 0.0000 42.6686 0.0000
# 6 0.0000 0.0000 0.0000 -2.3565 0.0000 23.5240
#
#
#
# Elastic Compliance Matrix: (Units=1/GPa)
#
#
# Indices 1 2 3 4 5 6 
#
# 1 0.015731 -0.003310 -0.002663 0.000000 -0.002541 0.000000
# 2 -0.003310 0.011226 0.000539 0.000000 0.004725 0.000000
# 3 -0.002663 0.000539 0.005728 0.000000 0.006264 0.000000
# 4 0.000000 0.000000 0.000000 0.047163 0.000000 0.004725
# 5 -0.002541 0.004725 0.006264 0.000000 0.031982 0.000000
# 6 0.000000 0.000000 0.000000 0.004725 0.000000 0.042983
#
#
# Mechanical properties :
#
#
# Convention : Reuss Voigt Hill
#
# Bulk Modulus (GPa) = 45.83461 63.83055 54.83258
# Shear Modulus (GPa) = 28.90921 40.10982 34.50951
#
# Velocity S-wave (km/s) = 3.22790 3.80213 3.52672
# Velocity P-wave (km/s) = 5.51470 6.50234 6.02878
#
# Compressibility (1/GPa) = 0.02181757
#
# Stress axis : x y z
#
# Youngs Moduli (GPa) = 63.56748 89.07645 174.57207
#
# Poissons Ratio (x) = 0.29486 0.46487
# Poissons Ratio (y) = 0.21042 -0.09409
# Poissons Ratio (z) = 0.16927 -0.04801
#
# Static dielectric constant tensor:
#      x y z
#    x 2.178670 0.000000 -0.042460 
#    y 0.000000 2.425310 0.000000 
#    z -0.042460 0.000000 2.193800 
# 
# From -- ./inp_files/56964.got.cif
#   From: 2010.05.17/outbox.cif.g08.bks.cpg/sg14_29_cif.got.tgz:56964.got - 2010.06.03 17:49:19.
