data_PCOD9240415
_publ_section_title
;
Structure prediction by ZEFSAII (Michael W. Deem and Ramdas Pophale) SiO2 
 PCOD9240415
Probable space group: P 21/C
;
_chemical_formula_sum "Si O2"
_cell_formula_units_Z 28
_cell_length_a 7.251809
_cell_length_b 14.172204
_cell_length_c 13.238725
_cell_angle_alpha 90.000000
_cell_angle_beta 116.729968
_cell_angle_gamma 90.000000
_cell_volume 1215.199638
_symmetry_space_group_name_H-M "P 21/C"
_symmetry_group_IT_number 14
_symmetry_cell_setting 'monoclinic'
loop_
_space_group_symop_operation_xyz
x,y,z
-x,1/2+y,1/2-z
-x,-y,-z
x,1/2-y,1/2+z
loop_
_atom_site_type_symbol
_atom_site_label
_atom_site_fract_x
_atom_site_fract_y
_atom_site_fract_z
Si Si1 0.994537 0.756617 0.819001
Si Si2 0.174831 0.851937 0.529526
Si Si3 0.736030 0.524795 0.076206
Si Si4 0.351785 0.080874 0.011817
Si Si5 0.631765 0.780876 0.594398
Si Si6 0.995060 0.561221 0.706882
Si Si7 0.725288 0.094709 0.221790
O O1 0.154442 0.840014 0.830981
O O2 0.761512 0.778440 0.729758
O O3 0.043814 0.666633 0.757295
O O4 0.018968 0.721179 0.939165
O O5 0.398429 0.812536 0.550871
O O6 0.198034 0.866517 0.653149
O O7 0.146429 0.952814 0.467639
O O8 0.747859 0.636156 0.061012
O O9 0.808871 0.499728 0.208259
O O10 0.500000 0.500000 0.000000
O O11 0.367534 0.179594 0.956600
O O12 0.110646 0.056569 0.929992
O O13 0.478446 0.096520 0.146432
O O14 0.500000 0.000000 0.000000
O O15 0.813994 0.510927 0.728650
#
# Coordination Sequence:
#
# PCOD9240415 Si02
#       7
#     4   4   4   4   4   4   4
#     4  10  20  37  60  84 119 157 198 249 306 356
#     4  10  22  37  59  92 119 152 208 254 296 368
#     4   9  18  33  59  83 117 157 196 248 304 349
#     4   9  19  35  61  82 114 161 199 239 302 359
#     4  10  18  38  60  83 120 164 192 251 311 353
#     4   9  19  36  60  85 114 158 203 242 301 361
#     4  11  20  39  63  87 120 159 201 252 303 367
#
# _framework density 23.041481000000001
#
# number of rings (size 3 to 8) (size 9 to 14) (size 15 to 20)
#    0.000    2.286    2.857    0.000    0.000    2.286 
#    5.143    2.857    0.000    4.286    0.000    0.000 
#    0.000    0.000    0.000    0.000    0.000    0.000 
#
# Total GULP energy -155969.758429 kJ/mol
# GULP energy per Si atom -5570.348515 kJ/mol
# Density = 2.298904 g / cm^3
# Si number density = 23.041481 Si / 1000 Ang^3
#
#
#
# Elastic Constant Matrix: (Units=GPa)
#
#
# Indices 1 2 3 4 5 6 
#
# 1 26.7894 9.8463 37.3386 0.0000 23.1619 0.0000
# 2 9.8463 130.9357 19.8363 0.0000 -0.5194 0.0000
# 3 37.3386 19.8363 160.0932 0.0000 45.7470 0.0000
# 4 0.0000 0.0000 0.0000 31.9713 0.0000 8.2416
# 5 23.1619 -0.5194 45.7470 0.0000 47.8568 0.0000
# 6 0.0000 0.0000 0.0000 8.2416 0.0000 19.2851
#
#
#
# Elastic Compliance Matrix: (Units=1/GPa)
#
#
# Indices 1 2 3 4 5 6 
#
# 1 0.075990 -0.004440 -0.009149 0.000000 -0.028080 0.000000
# 2 -0.004440 0.008110 -0.000837 0.000000 0.003037 0.000000
# 3 -0.009149 -0.000837 0.009935 0.000000 -0.005078 0.000000
# 4 0.000000 0.000000 0.000000 0.035150 0.000000 -0.015022
# 5 -0.028080 0.003037 -0.005078 0.000000 0.039373 0.000000
# 6 0.000000 0.000000 0.000000 -0.015022 0.000000 0.058273
#
#
# Mechanical properties :
#
#
# Convention : Reuss Voigt Hill
#
# Bulk Modulus (GPa) = 15.34147 50.20674 32.77411
# Shear Modulus (GPa) = 18.02378 36.54244 27.28311
#
# Velocity S-wave (km/s) = 2.79988 3.98671 3.44479
# Velocity P-wave (km/s) = 4.13824 6.55964 5.48424
#
# Compressibility (1/GPa) = 0.06518282
#
# Stress axis : x y z
#
# Youngs Moduli (GPa) = 13.15969 123.30315 100.65414
#
# Poissons Ratio (x) = 0.54743 0.92088
# Poissons Ratio (y) = 0.05843 0.08427
# Poissons Ratio (z) = 0.12040 0.10324
#
# Static dielectric constant tensor:
#      x y z
#    x 1.878460 0.000000 0.015290 
#    y 0.000000 1.907750 0.000000 
#    z 0.015290 0.000000 1.945460 
# 
# From -- ./inp_files/25352.got.cif
#   From: 2010.05.17/outbox.cif.g08.bks.cpg/sg14_13_cif.got.tgz:25352.got - 2010.06.03 17:49:19.
