data_PCOD9240762
_publ_section_title
;
Structure prediction by ZEFSAII (Michael W. Deem and Ramdas Pophale) SiO2 
 PCOD9240762
Probable space group: P 21/C
;
_chemical_formula_sum "Si O2"
_cell_formula_units_Z 28
_cell_length_a 18.829372
_cell_length_b 12.047246
_cell_length_c 7.838639
_cell_angle_alpha 90.000000
_cell_angle_beta 45.434701
_cell_angle_gamma 90.000000
_cell_volume 1266.833045
_symmetry_space_group_name_H-M "P 21/C"
_symmetry_group_IT_number 14
_symmetry_cell_setting 'monoclinic'
loop_
_space_group_symop_operation_xyz
x,y,z
-x,1/2+y,1/2-z
-x,-y,-z
x,1/2-y,1/2+z
loop_
_atom_site_type_symbol
_atom_site_label
_atom_site_fract_x
_atom_site_fract_y
_atom_site_fract_z
Si Si1 0.545208 0.702059 0.884067
Si Si2 0.420248 0.623468 0.791846
Si Si3 0.132009 0.880595 0.279495
Si Si4 0.960301 0.551479 0.845748
Si Si5 0.875289 0.944160 0.137671
Si Si6 0.652122 0.614650 0.027249
Si Si7 0.788893 0.168209 0.202832
O O1 0.502364 0.628832 0.803366
O O2 0.637158 0.776805 0.666021
O O3 0.463391 0.795824 0.074457
O O4 0.580340 0.632262 0.986278
O O5 0.386453 0.497021 0.812111
O O6 0.320245 0.676443 0.037438
O O7 0.123245 0.994222 0.398086
O O8 0.155390 0.783403 0.370211
O O9 0.211138 0.873945 0.991952
O O10 0.027879 0.870960 0.350726
O O11 0.916432 0.601247 0.746757
O O12 0.038259 0.454602 0.649572
O O13 0.767195 0.895849 0.277762
O O14 0.848693 0.075130 0.208053
#
# Coordination Sequence:
#
# PCOD9240762 Si02
#       7
#     4   4   4   4   4   4   4
#     4  10  21  37  58  86 115 150 190 226 291 355
#     4  10  20  37  60  85 114 149 190 241 288 333
#     4  10  19  33  52  82 111 139 181 232 283 334
#     4   9  19  36  56  78 110 147 185 232 287 337
#     4   9  19  38  57  77 109 147 185 233 282 328
#     4  10  21  39  58  83 117 149 189 237 281 342
#     4  10  19  32  55  82 108 142 187 235 278 332
#
# _framework density 22.102359
#
# number of rings (size 3 to 8) (size 9 to 14) (size 15 to 20)
#    0.000    2.286    0.000    2.571    0.000    1.143 
#    0.000   22.857    0.000    0.000    0.000    0.000 
#    0.000    0.000    0.000    0.000    0.000    0.000 
#
# Total GULP energy -156188.385614 kJ/mol
# GULP energy per Si atom -5578.156629 kJ/mol
# Density = 2.205205 g / cm^3
# Si number density = 22.102359 Si / 1000 Ang^3
#
#
#
# Elastic Constant Matrix: (Units=GPa)
#
#
# Indices 1 2 3 4 5 6 
#
# 1 35.1447 2.4710 -0.3662 0.0000 1.6183 0.0000
# 2 2.4710 35.2101 7.2259 0.0000 -10.6388 0.0000
# 3 -0.3662 7.2259 72.2543 0.0000 -6.4178 0.0000
# 4 0.0000 0.0000 0.0000 19.2877 0.0000 -0.2893
# 5 1.6183 -10.6388 -6.4178 0.0000 26.8038 0.0000
# 6 0.0000 0.0000 0.0000 -0.2893 0.0000 20.5098
#
#
#
# Elastic Compliance Matrix: (Units=1/GPa)
#
#
# Indices 1 2 3 4 5 6 
#
# 1 0.028792 -0.002921 0.000185 0.000000 -0.002853 0.000000
# 2 -0.002921 0.032893 -0.002175 0.000000 0.012711 0.000000
# 3 0.000185 -0.002175 0.014285 0.000000 0.002546 0.000000
# 4 0.000000 0.000000 0.000000 0.051857 0.000000 0.000732
# 5 -0.002853 0.012711 0.002546 0.000000 0.043135 0.000000
# 6 0.000000 0.000000 0.000000 0.000732 0.000000 0.048768
#
#
# Mechanical properties :
#
#
# Convention : Reuss Voigt Hill
#
# Bulk Modulus (GPa) = 15.11774 17.91892 16.51833
# Shear Modulus (GPa) = 19.87266 22.20549 21.03908
#
# Velocity S-wave (km/s) = 3.00178 3.17309 3.08862
# Velocity P-wave (km/s) = 4.34385 4.64214 4.49547
#
# Compressibility (1/GPa) = 0.06614746
#
# Stress axis : x y z
#
# Youngs Moduli (GPa) = 34.73129 30.40160 70.00547
#
# Poissons Ratio (x) = 0.08879 -0.01292
# Poissons Ratio (y) = 0.10144 0.15228
# Poissons Ratio (z) = -0.00641 0.06613
#
# Static dielectric constant tensor:
#      x y z
#    x 1.810980 0.000000 0.006470 
#    y 0.000000 1.823470 0.000000 
#    z 0.006470 0.000000 1.843410 
# 
# From -- ./inp_files/15588.got.cif
#   From: 2010.05.17/outbox.cif.g08.bks.cpg/sg14_8_cif.got.tgz:15588.got - 2010.06.03 17:49:19.
