data_PCOD9240770
_publ_section_title
;
Structure prediction by ZEFSAII (Michael W. Deem and Ramdas Pophale) SiO2 
 PCOD9240770
Probable space group: P 21/C
;
_chemical_formula_sum "Si O2"
_cell_formula_units_Z 32
_cell_length_a 9.401955
_cell_length_b 13.027706
_cell_length_c 13.763815
_cell_angle_alpha 90.000000
_cell_angle_beta 65.792015
_cell_angle_gamma 90.000000
_cell_volume 1537.622664
_symmetry_space_group_name_H-M "P 21/C"
_symmetry_group_IT_number 14
_symmetry_cell_setting 'monoclinic'
loop_
_space_group_symop_operation_xyz
x,y,z
-x,1/2+y,1/2-z
-x,-y,-z
x,1/2-y,1/2+z
loop_
_atom_site_type_symbol
_atom_site_label
_atom_site_fract_x
_atom_site_fract_y
_atom_site_fract_z
Si Si1 0.783523 0.040989 0.951082
Si Si2 0.823992 0.245309 0.506728
Si Si3 0.713763 0.463318 0.259480
Si Si4 0.060973 0.342893 0.593293
Si Si5 0.635467 0.242580 0.229911
Si Si6 0.946484 0.638288 0.176001
Si Si7 0.627293 0.016219 0.200945
Si Si8 0.282713 0.298497 0.362509
O O1 0.831455 0.158996 0.932151
O O2 0.695658 0.009573 0.878148
O O3 0.932565 0.966613 0.920418
O O4 0.676600 0.033434 0.075191
O O5 0.658799 0.238048 0.606987
O O6 0.932181 0.283483 0.566789
O O7 0.893883 0.150119 0.429344
O O8 0.725360 0.340616 0.248074
O O9 0.866530 0.526958 0.187305
O O10 0.559081 0.498657 0.245483
O O11 0.045137 0.330190 0.712875
O O12 0.219754 0.313227 0.490554
O O13 0.673664 0.122654 0.240189
O O14 0.458018 0.258066 0.311748
O O15 0.830117 0.719331 0.158485
O O16 0.710889 0.907610 0.196754
#
# Coordination Sequence:
#
# PCOD9240770 Si02
#       8
#     4   4   4   4   4   4   4   4
#     4   9  18  32  54  83 105 140 190 240 269 313
#     4  10  21  34  54  80 116 147 181 231 276 332
#     4  10  19  32  56  82 112 146 186 222 278 338
#     4   9  19  35  57  79 107 147 187 232 274 320
#     4  10  20  34  55  82 114 143 180 235 273 327
#     4  10  20  36  57  80 113 149 188 221 278 339
#     4   9  17  33  56  81 108 142 182 239 282 309
#     4   9  18  36  57  82 106 142 185 235 277 324
#
# _framework density 20.811349
#
# number of rings (size 3 to 8) (size 9 to 14) (size 15 to 20)
#    0.000    2.500    1.250    0.750    1.750    2.500 
#    0.000    0.000    0.000    3.750    0.000    0.000 
#    0.000    0.000    0.000    0.000    0.000    0.000 
#
# Total GULP energy -178156.401188 kJ/mol
# GULP energy per Si atom -5567.387537 kJ/mol
# Density = 2.076398 g / cm^3
# Si number density = 20.811349 Si / 1000 Ang^3
#
#
#
# Elastic Constant Matrix: (Units=GPa)
#
#
# Indices 1 2 3 4 5 6 
#
# 1 22.6589 -2.4905 8.3025 0.0000 3.6980 0.0000
# 2 -2.4905 64.2693 -9.6875 0.0000 11.1289 0.0000
# 3 8.3025 -9.6875 46.3981 0.0000 -0.0346 0.0000
# 4 0.0000 0.0000 0.0000 28.5641 0.0000 -3.1540
# 5 3.6980 11.1289 -0.0346 0.0000 30.0811 0.0000
# 6 0.0000 0.0000 0.0000 -3.1540 0.0000 23.6360
#
#
#
# Elastic Compliance Matrix: (Units=1/GPa)
#
#
# Indices 1 2 3 4 5 6 
#
# 1 0.048451 0.001772 -0.008305 0.000000 -0.006622 0.000000
# 2 0.001772 0.017266 0.003283 0.000000 -0.006602 0.000000
# 3 -0.008305 0.003283 0.023724 0.000000 -0.000166 0.000000
# 4 0.000000 0.000000 0.000000 0.035532 0.000000 0.004741
# 5 -0.006622 -0.006602 -0.000166 0.000000 0.036500 0.000000
# 6 0.000000 0.000000 0.000000 0.004741 0.000000 0.042941
#
#
# Mechanical properties :
#
#
# Convention : Reuss Voigt Hill
#
# Bulk Modulus (GPa) = 12.05655 13.95282 13.00468
# Shear Modulus (GPa) = 20.95896 25.60304 23.28100
#
# Velocity S-wave (km/s) = 3.17692 3.51129 3.34828
# Velocity P-wave (km/s) = 4.38895 4.81226 4.60547
#
# Compressibility (1/GPa) = 0.08294247
#
# Stress axis : x y z
#
# Youngs Moduli (GPa) = 20.63927 57.91649 42.15138
#
# Poissons Ratio (x) = -0.10265 0.35006
# Poissons Ratio (y) = -0.03658 -0.13838
# Poissons Ratio (z) = 0.17141 -0.19014
#
# Static dielectric constant tensor:
#      x y z
#    x 1.795560 0.000000 -0.042310 
#    y 0.000000 1.814130 0.000000 
#    z -0.042310 0.000000 1.770030 
# 
# From -- ./inp_files/44375.got.cif
#   From: 2010.05.17/outbox.cif.g08.bks.cpg/sg14_23_cif.got.tgz:44375.got - 2010.06.03 17:49:19.
