data_PCOD9240706
_publ_section_title
;
Structure prediction by ZEFSAII (Michael W. Deem and Ramdas Pophale) SiO2 
 PCOD9240706
Probable space group: P 21/C
;
_chemical_formula_sum "Si O2"
_cell_formula_units_Z 28
_cell_length_a 14.461608
_cell_length_b 14.729235
_cell_length_c 10.365621
_cell_angle_alpha 90.000000
_cell_angle_beta 150.393952
_cell_angle_gamma 90.000000
_cell_volume 1090.808791
_symmetry_space_group_name_H-M "P 21/C"
_symmetry_group_IT_number 14
_symmetry_cell_setting 'monoclinic'
loop_
_space_group_symop_operation_xyz
x,y,z
-x,1/2+y,1/2-z
-x,-y,-z
x,1/2-y,1/2+z
loop_
_atom_site_type_symbol
_atom_site_label
_atom_site_fract_x
_atom_site_fract_y
_atom_site_fract_z
Si Si1 0.608814 0.352160 0.927255
Si Si2 0.906810 0.561962 0.495222
Si Si3 0.171765 0.224881 0.227701
Si Si4 0.656094 0.553211 0.986816
Si Si5 0.638875 0.444105 0.576572
Si Si6 0.175870 0.090546 0.834561
Si Si7 0.594516 0.256543 0.657655
O O1 0.701342 0.449251 0.002333
O O2 0.385331 0.374610 0.634775
O O3 0.654478 0.273376 0.878792
O O4 0.647719 0.322573 0.121649
O O5 0.951238 0.667437 0.521455
O O6 0.919029 0.544022 0.658419
O O7 0.000000 0.500000 0.500000
O O8 0.689133 0.553722 0.180915
O O9 0.222960 0.145162 0.395063
O O10 0.085732 0.315626 0.179131
O O11 0.367120 0.251975 0.395117
O O12 0.459254 0.570644 0.681899
O O13 0.500000 0.500000 0.500000
O O14 0.799985 0.515977 0.745742
O O15 0.659448 0.348153 0.666573
#
# Coordination Sequence:
#
# PCOD9240706 Si02
#       7
#     4   4   4   4   4   4   4
#     4  10  19  32  51  88 122 154 188 234 311 366
#     4  10  22  38  60  80 112 158 209 251 284 331
#     4   9  19  31  56  83 110 145 197 236 277 347
#     4   9  20  32  54  83 115 150 184 242 292 355
#     4  11  18  30  55  92 123 147 176 235 304 364
#     4  10  19  33  57  91 112 145 193 237 299 357
#     4  11  19  31  52  90 124 153 185 229 299 379
#
# _framework density 25.669025999999999
#
# number of rings (size 3 to 8) (size 9 to 14) (size 15 to 20)
#    0.857    1.143    5.714    1.714    0.000    6.286 
#    0.000    0.000    6.286    0.857    0.000    0.000 
#    0.000    0.000    0.000    0.000    0.000    0.000 
#
# Total GULP energy -155983.029563 kJ/mol
# GULP energy per Si atom -5570.822484 kJ/mol
# Density = 2.561060 g / cm^3
# Si number density = 25.669026 Si / 1000 Ang^3
#
#
#
# Elastic Constant Matrix: (Units=GPa)
#
#
# Indices 1 2 3 4 5 6 
#
# 1 143.1228 65.5694 28.9316 0.0000 -6.1290 0.0000
# 2 65.5694 156.1449 12.6739 0.0000 7.5340 0.0000
# 3 28.9316 12.6739 57.5204 0.0000 4.9700 0.0000
# 4 0.0000 0.0000 0.0000 22.6541 0.0000 -19.7399
# 5 -6.1290 7.5340 4.9700 0.0000 23.7622 0.0000
# 6 0.0000 0.0000 0.0000 -19.7399 0.0000 36.1904
#
#
#
# Elastic Compliance Matrix: (Units=1/GPa)
#
#
# Indices 1 2 3 4 5 6 
#
# 1 0.009964 -0.004048 -0.004535 0.000000 0.004802 0.000000
# 2 -0.004048 0.008242 0.000546 0.000000 -0.003771 0.000000
# 3 -0.004535 0.000546 0.020024 0.000000 -0.005531 0.000000
# 4 0.000000 0.000000 0.000000 0.084125 0.000000 0.045886
# 5 0.004802 -0.003771 -0.005531 0.000000 0.045675 0.000000
# 6 0.000000 0.000000 0.000000 0.045886 0.000000 0.052660
#
#
# Mechanical properties :
#
#
# Convention : Reuss Voigt Hill
#
# Bulk Modulus (GPa) = 45.13441 63.45978 54.29709
# Shear Modulus (GPa) = 20.47948 33.16222 26.82085
#
# Velocity S-wave (km/s) = 2.82765 3.59822 3.23595
# Velocity P-wave (km/s) = 5.31810 6.48374 5.92963
#
# Compressibility (1/GPa) = 0.02215604
#
# Stress axis : x y z
#
# Youngs Moduli (GPa) = 100.36525 121.33462 49.94128
#
# Poissons Ratio (x) = 0.49112 0.22646
# Poissons Ratio (y) = 0.40624 -0.02726
# Poissons Ratio (z) = 0.45511 -0.06622
#
# Static dielectric constant tensor:
#      x y z
#    x 2.054630 0.000000 0.103470 
#    y 0.000000 2.088570 0.000000 
#    z 0.103470 0.000000 2.259430 
# 
# From -- ./inp_files/32620.got.cif
#   From: 2010.05.17/outbox.cif.g08.bks.cpg/sg14_17_cif.got.tgz:32620.got - 2010.06.03 17:49:19.
