data_PCOD9240200
_publ_section_title
;
Structure prediction by ZEFSAII (Michael W. Deem and Ramdas Pophale) SiO2 
 PCOD9240200
Probable space group: P 21/C
;
_chemical_formula_sum "Si O2"
_cell_formula_units_Z 32
_cell_length_a 11.611475
_cell_length_b 18.953279
_cell_length_c 7.530538
_cell_angle_alpha 90.000000
_cell_angle_beta 111.878013
_cell_angle_gamma 90.000000
_cell_volume 1537.928158
_symmetry_space_group_name_H-M "P 21/C"
_symmetry_group_IT_number 14
_symmetry_cell_setting 'monoclinic'
loop_
_space_group_symop_operation_xyz
x,y,z
-x,1/2+y,1/2-z
-x,-y,-z
x,1/2-y,1/2+z
loop_
_atom_site_type_symbol
_atom_site_label
_atom_site_fract_x
_atom_site_fract_y
_atom_site_fract_z
Si Si1 0.290067 0.341249 0.875400
Si Si2 0.854899 0.591726 0.659507
Si Si3 0.019329 0.875850 0.573362
Si Si4 0.155794 0.256018 0.501687
Si Si5 0.516379 0.083584 0.553401
Si Si6 0.391182 0.465167 0.322214
Si Si7 0.900127 0.959517 0.792499
Si Si8 0.238155 0.575220 0.987317
O O1 0.195919 0.296522 0.701523
O O2 0.218823 0.414698 0.847233
O O3 0.277472 0.292770 0.039258
O O4 0.425354 0.363869 0.894022
O O5 0.930265 0.580889 0.884810
O O6 0.868127 0.675477 0.633102
O O7 0.711752 0.572646 0.614817
O O8 0.899309 0.551354 0.505188
O O9 0.958145 0.798679 0.560965
O O10 0.011332 0.920099 0.752199
O O11 0.153926 0.874665 0.561297
O O12 0.461272 0.085477 0.721021
O O13 0.655806 0.103416 0.584116
O O14 0.500000 0.000000 0.500000
O O15 0.500000 0.500000 0.500000
O O16 0.312936 0.523823 0.166236
O O17 0.859921 0.034987 0.696036
#
# Coordination Sequence:
#
# PCOD9240200 Si02
#       8
#     4   4   4   4   4   4   4   4
#     4  10  18  35  61  86 121 153 209 260 311 363
#     4  11  22  38  66  94 122 173 213 273 316 384
#     4  11  22  42  59  92 130 165 216 260 321 380
#     4  10  21  35  62  91 114 162 219 266 299 377
#     4  10  20  37  60  92 128 165 205 258 328 382
#     4  11  22  37  62  99 133 163 216 264 330 391
#     4  10  20  36  61  96 123 160 212 263 321 384
#     4  11  22  39  62  89 137 174 193 272 334 380
#
# _framework density 20.807213000000001
#
# number of rings (size 3 to 8) (size 9 to 14) (size 15 to 20)
#    0.000    1.500    5.000    1.875    5.250    0.500 
#    2.250    0.000    2.750    0.000    0.000    0.000 
#    0.000    0.000    0.000    0.000    0.000    0.000 
#
# Total GULP energy -178224.623304 kJ/mol
# GULP energy per Si atom -5569.519478 kJ/mol
# Density = 2.075985 g / cm^3
# Si number density = 20.807213 Si / 1000 Ang^3
#
#
#
# Elastic Constant Matrix: (Units=GPa)
#
#
# Indices 1 2 3 4 5 6 
#
# 1 159.9995 37.7117 29.0934 0.0000 -15.3382 0.0000
# 2 37.7117 62.8227 19.4322 0.0000 -3.1765 0.0000
# 3 29.0934 19.4322 82.5120 0.0000 -10.9325 0.0000
# 4 0.0000 0.0000 0.0000 23.6130 0.0000 -4.9216
# 5 -15.3382 -3.1765 -10.9325 0.0000 32.1316 0.0000
# 6 0.0000 0.0000 0.0000 -4.9216 0.0000 36.0871
#
#
#
# Elastic Compliance Matrix: (Units=1/GPa)
#
#
# Indices 1 2 3 4 5 6 
#
# 1 0.007732 -0.004068 -0.001396 0.000000 0.002814 0.000000
# 2 -0.004068 0.019312 -0.003265 0.000000 -0.001144 0.000000
# 3 -0.001396 -0.003265 0.013875 0.000000 0.003732 0.000000
# 4 0.000000 0.000000 0.000000 0.043589 0.000000 0.005945
# 5 0.002814 -0.001144 0.003732 0.000000 0.033622 0.000000
# 6 0.000000 0.000000 0.000000 0.005945 0.000000 0.028521
#
#
# Mechanical properties :
#
#
# Convention : Reuss Voigt Hill
#
# Bulk Modulus (GPa) = 42.62218 53.08986 47.85602
# Shear Modulus (GPa) = 29.08181 32.97281 31.02731
#
# Velocity S-wave (km/s) = 3.74261 3.98512 3.86577
# Velocity P-wave (km/s) = 6.26139 6.83707 6.55555
#
# Compressibility (1/GPa) = 0.02346196
#
# Stress axis : x y z
#
# Youngs Moduli (GPa) = 129.32784 51.78194 72.07212
#
# Poissons Ratio (x) = 0.21063 0.10058
# Poissons Ratio (y) = 0.52606 0.23534
# Poissons Ratio (z) = 0.18049 0.16909
#
# Static dielectric constant tensor:
#      x y z
#    x 1.814840 0.000000 -0.089060 
#    y 0.000000 1.836970 0.000000 
#    z -0.089060 0.000000 1.953310 
# 
# From -- ./inp_files/14031.got.cif
#   From: 2010.05.17/outbox.cif.g08.bks.cpg/sg14_8_cif.got.tgz:14031.got - 2010.06.03 17:49:19.
