data_PCOD9240827
_publ_section_title
;
Structure prediction by ZEFSAII (Michael W. Deem and Ramdas Pophale) SiO2 
 PCOD9240827
Probable space group: P 21/C
;
_chemical_formula_sum "Si O2"
_cell_formula_units_Z 28
_cell_length_a 14.969161
_cell_length_b 9.710245
_cell_length_c 23.023129
_cell_angle_alpha 90.000000
_cell_angle_beta 159.301035
_cell_angle_gamma 90.000000
_cell_volume 1182.850188
_symmetry_space_group_name_H-M "P 21/C"
_symmetry_group_IT_number 14
_symmetry_cell_setting 'monoclinic'
loop_
_space_group_symop_operation_xyz
x,y,z
-x,1/2+y,1/2-z
-x,-y,-z
x,1/2-y,1/2+z
loop_
_atom_site_type_symbol
_atom_site_label
_atom_site_fract_x
_atom_site_fract_y
_atom_site_fract_z
Si Si1 0.964500 0.751942 0.753263
Si Si2 0.988629 0.107688 0.940678
Si Si3 0.454586 0.254168 0.251263
Si Si4 0.726278 0.022862 0.993001
Si Si5 0.306806 0.939883 0.521294
Si Si6 0.476892 0.229285 0.628983
Si Si7 0.447106 0.846225 0.488068
O O1 0.662973 0.765715 0.582817
O O2 0.100138 0.894533 0.856083
O O3 0.046200 0.636041 0.850144
O O4 0.489722 0.631827 0.083868
O O5 0.731621 0.167403 0.759338
O O6 0.156589 0.234401 0.065044
O O7 0.110847 0.030458 0.961379
O O8 0.000000 0.000000 0.000000
O O9 0.537795 0.369535 0.347260
O O10 0.534081 0.273377 0.233019
O O11 0.576113 0.110076 0.347255
O O12 0.596860 0.881582 0.935281
O O13 0.282172 0.103578 0.499814
O O14 0.150455 0.795669 0.311841
O O15 0.500000 0.000000 0.500000
#
# Coordination Sequence:
#
# PCOD9240827 Si02
#       7
#     4   4   4   4   4   4   4
#     4   9  22  43  70  96 127 166 211 266 337 401
#     4  11  19  30  56  74 120 176 219 259 314 370
#     4  10  19  33  52  86 121 174 214 266 302 381
#     4  10  21  35  53  85 126 158 219 268 322 378
#     4   9  20  37  64  88 132 172 219 259 332 383
#     4  11  19  34  51  90 123 171 220 259 312 372
#     4  10  22  46  76  98 127 169 215 269 343 402
#
# _framework density 23.671637
#
# number of rings (size 3 to 8) (size 9 to 14) (size 15 to 20)
#    0.857    1.143    2.857    1.714    0.000    0.571 
#    7.714    0.714    0.000    0.000    0.000    0.000 
#    0.000    0.000    0.000    0.000    0.000    0.000 
#
# Total GULP energy -155970.117292 kJ/mol
# GULP energy per Si atom -5570.361332 kJ/mol
# Density = 2.361776 g / cm^3
# Si number density = 23.671637 Si / 1000 Ang^3
#
#
#
# Elastic Constant Matrix: (Units=GPa)
#
#
# Indices 1 2 3 4 5 6 
#
# 1 100.0326 27.2186 13.3360 0.0000 5.4275 0.0000
# 2 27.2186 109.9274 33.0040 0.0000 9.3172 0.0000
# 3 13.3360 33.0040 104.3447 0.0000 22.1352 0.0000
# 4 0.0000 0.0000 0.0000 40.1666 0.0000 -3.0765
# 5 5.4275 9.3172 22.1352 0.0000 26.5413 0.0000
# 6 0.0000 0.0000 0.0000 -3.0765 0.0000 35.5874
#
#
#
# Elastic Compliance Matrix: (Units=1/GPa)
#
#
# Indices 1 2 3 4 5 6 
#
# 1 0.010774 -0.002467 -0.000380 0.000000 -0.001020 0.000000
# 2 -0.002467 0.010641 -0.002873 0.000000 -0.000835 0.000000
# 3 -0.000380 -0.002873 0.012527 0.000000 -0.009361 0.000000
# 4 0.000000 0.000000 0.000000 0.025062 0.000000 0.002167
# 5 -0.001020 -0.000835 -0.009361 0.000000 0.045985 0.000000
# 6 0.000000 0.000000 0.000000 0.002167 0.000000 0.028287
#
#
# Mechanical properties :
#
#
# Convention : Reuss Voigt Hill
#
# Bulk Modulus (GPa) = 44.44343 51.26910 47.85626
# Shear Modulus (GPa) = 32.84746 36.50880 34.67813
#
# Velocity S-wave (km/s) = 3.72913 3.93148 3.83164
# Velocity P-wave (km/s) = 6.11209 6.50493 6.31157
#
# Compressibility (1/GPa) = 0.02250052
#
# Stress axis : x y z
#
# Youngs Moduli (GPa) = 92.81542 93.97420 79.82858
#
# Poissons Ratio (x) = 0.23184 0.03036
# Poissons Ratio (y) = 0.22898 0.22938
# Poissons Ratio (z) = 0.03530 0.27003
#
# Static dielectric constant tensor:
#      x y z
#    x 2.006010 0.000000 0.057190 
#    y 0.000000 2.004860 0.000000 
#    z 0.057190 0.000000 2.095910 
# 
# From -- ./inp_files/80374.got.cif
#   From: 2010.05.17/outbox.cif.g08.bks.cpg/sg14_41_cif.got.tgz:80374.got - 2010.06.03 17:49:19.
