data_PCOD9240125
_publ_section_title
;
Structure prediction by ZEFSAII (Michael W. Deem and Ramdas Pophale) SiO2 
 PCOD9240125
Probable space group: P 21/C
;
_chemical_formula_sum "Si O2"
_cell_formula_units_Z 26
_cell_length_a 15.673359
_cell_length_b 9.457998
_cell_length_c 20.859070
_cell_angle_alpha 90.000000
_cell_angle_beta 161.898367
_cell_angle_gamma 90.000000
_cell_volume 960.732350
_symmetry_space_group_name_H-M "P 21/C"
_symmetry_group_IT_number 14
_symmetry_cell_setting 'monoclinic'
loop_
_space_group_symop_operation_xyz
x,y,z
-x,1/2+y,1/2-z
-x,-y,-z
x,1/2-y,1/2+z
loop_
_atom_site_type_symbol
_atom_site_label
_atom_site_fract_x
_atom_site_fract_y
_atom_site_fract_z
Si Si1 0.877237 0.402048 0.802896
Si Si2 0.438302 0.330539 0.136638
Si Si3 0.516729 0.914720 0.606226
Si Si4 0.720451 0.689608 0.668836
Si Si5 0.892490 0.582928 0.653939
Si Si6 0.000000 0.500000 0.000000
Si Si7 0.443270 0.648035 0.640370
O O1 0.854384 0.569948 0.811891
O O2 0.597996 0.356640 0.569349
O O3 0.138147 0.395835 0.944177
O O4 0.881530 0.346541 0.877901
O O5 0.623016 0.335013 0.332121
O O6 0.549757 0.430407 0.159652
O O7 0.316962 0.177844 0.035365
O O8 0.712659 0.844456 0.692714
O O9 0.519463 0.799832 0.665501
O O10 0.206482 0.908773 0.357694
O O11 0.860257 0.649164 0.702020
O O12 0.791022 0.423738 0.570095
O O13 0.300256 0.457037 0.182162
#
# Coordination Sequence:
#
# PCOD9240125 Si02
#       7
#     4   4   4   4   4   2   4
#     4  10  18  36  60  92 115 167 218 261 291 372
#     4  11  24  39  62  96 131 167 204 270 328 375
#     4  12  23  41  65  97 132 168 218 265 319 383
#     4  11  20  37  62  90 126 166 216 254 312 370
#     4  12  23  41  65  97 132 168 218 265 319 383
#     4  10  18  34  66  94 120 150 228 270 300 362
#     4  11  23  41  67  95 126 170 220 268 317 375
#
# _framework density 27.062688000000001
#
# number of rings (size 3 to 8) (size 9 to 14) (size 15 to 20)
#    0.000    0.923    6.154    2.769    0.000    0.615 
#    0.000    0.000    0.000    2.769    0.000    0.000 
#    0.000    0.000    0.000    0.000    0.000    0.000 
#
# Total GULP energy -144984.472266 kJ/mol
# GULP energy per Si atom -5576.325856 kJ/mol
# Density = 2.700109 g / cm^3
# Si number density = 27.062688 Si / 1000 Ang^3
#
#
#
# Elastic Constant Matrix: (Units=GPa)
#
#
# Indices 1 2 3 4 5 6 
#
# 1 76.2532 19.4950 7.3944 0.0000 -20.1118 0.0000
# 2 19.4950 108.7138 23.4914 0.0000 -9.1591 0.0000
# 3 7.3944 23.4914 90.7649 0.0000 -4.4092 0.0000
# 4 0.0000 0.0000 0.0000 33.0032 0.0000 1.0584
# 5 -20.1118 -9.1591 -4.4092 0.0000 34.2133 0.0000
# 6 0.0000 0.0000 0.0000 1.0584 0.0000 39.4906
#
#
#
# Elastic Compliance Matrix: (Units=1/GPa)
#
#
# Indices 1 2 3 4 5 6 
#
# 1 0.015996 -0.002052 -0.000344 0.000000 0.008809 0.000000
# 2 -0.002052 0.010189 -0.002411 0.000000 0.001211 0.000000
# 3 -0.000344 -0.002411 0.011702 0.000000 0.000660 0.000000
# 4 0.000000 0.000000 0.000000 0.030326 0.000000 -0.000813
# 5 0.008809 0.001211 0.000660 0.000000 0.034816 0.000000
# 6 0.000000 0.000000 0.000000 -0.000813 0.000000 0.025344
#
#
# Mechanical properties :
#
#
# Convention : Reuss Voigt Hill
#
# Bulk Modulus (GPa) = 35.37039 41.83262 38.60151
# Shear Modulus (GPa) = 33.91867 36.36484 35.14176
#
# Velocity S-wave (km/s) = 3.54409 3.66966 3.60742
# Velocity P-wave (km/s) = 5.46311 5.78329 5.62548
#
# Compressibility (1/GPa) = 0.02827223
#
# Stress axis : x y z
#
# Youngs Moduli (GPa) = 62.51741 98.14065 85.45805
#
# Poissons Ratio (x) = 0.20137 0.02941
# Poissons Ratio (y) = 0.12828 0.20606
# Poissons Ratio (z) = 0.02151 0.23664
#
# Static dielectric constant tensor:
#      x y z
#    x 2.784380 0.000000 -0.536560 
#    y 0.000000 2.279040 0.000000 
#    z -0.536560 0.000000 2.603110 
# 
# From -- ./inp_files/74304.got.cif
#   From: 2010.05.17/outbox.cif.g08.bks.cpg/sg14_38_cif.got.tgz:74304.got - 2010.06.03 17:49:19.
