data_PCOD9240885
_publ_section_title
;
Structure prediction by ZEFSAII (Michael W. Deem and Ramdas Pophale) SiO2 
 PCOD9240885
Probable space group: P 21/C
;
_chemical_formula_sum "Si O2"
_cell_formula_units_Z 20
_cell_length_a 9.585489
_cell_length_b 5.553423
_cell_length_c 14.391267
_cell_angle_alpha 90.000000
_cell_angle_beta 85.226212
_cell_angle_gamma 90.000000
_cell_volume 763.422380
_symmetry_space_group_name_H-M "P 21/C"
_symmetry_group_IT_number 14
_symmetry_cell_setting 'monoclinic'
loop_
_space_group_symop_operation_xyz
x,y,z
-x,1/2+y,1/2-z
-x,-y,-z
x,1/2-y,1/2+z
loop_
_atom_site_type_symbol
_atom_site_label
_atom_site_fract_x
_atom_site_fract_y
_atom_site_fract_z
Si Si1 0.415365 0.253461 0.482493
Si Si2 0.873569 0.253564 0.155276
Si Si3 0.039197 0.259670 0.326621
Si Si4 0.298988 0.262876 0.672219
Si Si5 0.592563 0.461833 0.183916
O O1 0.500000 0.500000 0.500000
O O2 0.287179 0.262424 0.562549
O O3 0.374344 0.199753 0.379201
O O4 0.500000 0.000000 0.500000
O O5 0.944103 0.006998 0.118992
O O6 0.708455 0.270571 0.142698
O O7 0.905243 0.258437 0.265957
O O8 0.940783 0.508841 0.121752
O O9 0.164049 0.271766 0.242197
O O10 0.368415 0.502648 0.711156
O O11 0.429400 0.086477 0.685128
#
# Coordination Sequence:
#
# PCOD9240885 Si02
#       5
#     4   4   4   4   4
#     4  10  22  36  51  78 111 136 169 220 265 304
#     4   9  18  32  51  76 105 137 173 214 259 306
#     4   9  18  32  51  76 105 137 173 214 259 306
#     4  10  19  33  56  80 104 139 177 215 260 313
#     4  10  19  33  56  80 104 139 177 215 260 313
#
# _framework density 26.197816
#
# number of rings (size 3 to 8) (size 9 to 14) (size 15 to 20)
#    0.000    2.400    0.000    2.400    0.000    9.600 
#    0.000    1.000    0.000    0.000    0.000   49.000 
#    0.000    0.000    0.000    0.000    0.000    0.000 
#
# Total GULP energy -111457.332657 kJ/mol
# GULP energy per Si atom -5572.866633 kJ/mol
# Density = 2.613819 g / cm^3
# Si number density = 26.197816 Si / 1000 Ang^3
#
#
#
# Elastic Constant Matrix: (Units=GPa)
#
#
# Indices 1 2 3 4 5 6 
#
# 1 87.6667 17.4879 25.9492 0.0000 -3.4026 0.0000
# 2 17.4879 200.2127 -4.1376 0.0000 9.4813 0.0000
# 3 25.9492 -4.1376 64.5224 0.0000 -9.3489 0.0000
# 4 0.0000 0.0000 0.0000 19.1531 0.0000 9.0872
# 5 -3.4026 9.4813 -9.3489 0.0000 16.1081 0.0000
# 6 0.0000 0.0000 0.0000 9.0872 0.0000 40.3924
#
#
#
# Elastic Compliance Matrix: (Units=1/GPa)
#
#
# Indices 1 2 3 4 5 6 
#
# 1 0.013266 -0.001291 -0.005352 0.000000 0.000456 0.000000
# 2 -0.001291 0.005264 0.000402 0.000000 -0.003138 0.000000
# 3 -0.005352 0.000402 0.019083 0.000000 0.009709 0.000000
# 4 0.000000 0.000000 0.000000 0.058450 0.000000 -0.013150
# 5 0.000456 -0.003138 0.009709 0.000000 0.069659 0.000000
# 6 0.000000 0.000000 0.000000 -0.013150 0.000000 0.027715
#
#
# Mechanical properties :
#
#
# Convention : Reuss Voigt Hill
#
# Bulk Modulus (GPa) = 39.78955 47.88897 43.83926
# Shear Modulus (GPa) = 23.33207 36.00419 29.66813
#
# Velocity S-wave (km/s) = 2.98755 3.71120 3.36886
# Velocity P-wave (km/s) = 5.20785 6.05669 5.64824
#
# Compressibility (1/GPa) = 0.02513223
#
# Stress axis : x y z
#
# Youngs Moduli (GPa) = 75.37918 189.95661 52.40144
#
# Poissons Ratio (x) = 0.24523 0.28046
# Poissons Ratio (y) = 0.09731 -0.02107
# Poissons Ratio (z) = 0.40343 -0.07638
#
# Static dielectric constant tensor:
#      x y z
#    x 2.157230 0.000000 0.075750 
#    y 0.000000 2.304610 0.000000 
#    z 0.075750 0.000000 2.112580 
# 
# From -- ./inp_files/42436.got.cif
#   From: 2010.05.17/outbox.cif.g08.bks.cpg/sg14_22_cif.got.tgz:42436.got - 2010.06.03 17:49:19.
