data_PCOD9240274
_publ_section_title
;
Structure prediction by ZEFSAII (Michael W. Deem and Ramdas Pophale) SiO2 
 PCOD9240274
Probable space group: P 21/C
;
_chemical_formula_sum "Si O2"
_cell_formula_units_Z 24
_cell_length_a 23.527101
_cell_length_b 5.448379
_cell_length_c 26.109910
_cell_angle_alpha 90.000000
_cell_angle_beta 158.129852
_cell_angle_gamma 90.000000
_cell_volume 1246.729999
_symmetry_space_group_name_H-M "P 21/C"
_symmetry_group_IT_number 14
_symmetry_cell_setting 'monoclinic'
loop_
_space_group_symop_operation_xyz
x,y,z
-x,1/2+y,1/2-z
-x,-y,-z
x,1/2-y,1/2+z
loop_
_atom_site_type_symbol
_atom_site_label
_atom_site_fract_x
_atom_site_fract_y
_atom_site_fract_z
Si Si1 0.069499 0.251290 0.033946
Si Si2 0.926854 0.152366 0.809310
Si Si3 0.932780 0.079863 0.169718
Si Si4 0.641313 0.846769 0.578588
Si Si5 0.593085 0.755161 0.643438
Si Si6 0.296144 0.976167 0.945561
O O1 0.249991 0.244566 0.195422
O O2 0.028583 0.255569 0.939742
O O3 0.000000 0.500000 0.000000
O O4 0.000000 0.000000 0.000000
O O5 0.837820 0.348250 0.699684
O O6 0.025985 0.981726 0.854223
O O7 0.783343 0.012545 0.714506
O O8 0.756529 0.060557 0.040534
O O9 0.991464 0.349532 0.235484
O O10 0.625909 0.657902 0.612893
O O11 0.696059 0.750032 0.569237
O O12 0.482594 0.981858 0.433983
O O13 0.458531 0.628314 0.562979
#
# Coordination Sequence:
#
# PCOD9240274 Si02
#       6
#     4   4   4   4   4   4
#     4  12  26  41  61  88 127 163 200 245 310 369
#     4  10  21  37  61  90 120 159 207 250 301 365
#     4  10  20  36  62  91 118 154 205 257 298 349
#     4  10  18  36  59  89 116 155 200 254 302 354
#     4  10  22  34  58  87 122 157 195 249 304 363
#     4  10  20  35  61  87 119 154 203 253 303 350
#
# _framework density 19.250359
#
# number of rings (size 3 to 8) (size 9 to 14) (size 15 to 20)
#    0.000    1.667    3.333    1.500    2.333    0.000 
#    0.000    0.000    3.667    0.000    0.000    0.000 
#    0.000    0.000    0.000    0.000    0.000    0.000 
#
# Total GULP energy -133627.770383 kJ/mol
# GULP energy per Si atom -5567.823766 kJ/mol
# Density = 1.920654 g / cm^3
# Si number density = 19.250359 Si / 1000 Ang^3
#
#
#
# Elastic Constant Matrix: (Units=GPa)
#
#
# Indices 1 2 3 4 5 6 
#
# 1 103.2934 12.2969 50.8795 0.0000 18.6991 0.0000
# 2 12.2969 57.7904 21.4537 0.0000 0.9939 0.0000
# 3 50.8795 21.4537 143.8864 0.0000 2.2214 0.0000
# 4 0.0000 0.0000 0.0000 14.0846 0.0000 11.2253
# 5 18.6991 0.9939 2.2214 0.0000 29.3184 0.0000
# 6 0.0000 0.0000 0.0000 11.2253 0.0000 34.2544
#
#
#
# Elastic Compliance Matrix: (Units=1/GPa)
#
#
# Indices 1 2 3 4 5 6 
#
# 1 0.013513 -0.001066 -0.004492 0.000000 -0.008242 0.000000
# 2 -0.001066 0.018407 -0.002371 0.000000 0.000236 0.000000
# 3 -0.004492 -0.002371 0.008857 0.000000 0.002274 0.000000
# 4 0.000000 0.000000 0.000000 0.096098 0.000000 -0.031492
# 5 -0.008242 0.000236 0.002274 0.000000 0.039185 0.000000
# 6 0.000000 0.000000 0.000000 -0.031492 0.000000 0.039513
#
#
# Mechanical properties :
#
#
# Convention : Reuss Voigt Hill
#
# Bulk Modulus (GPa) = 40.13157 52.69229 46.41193
# Shear Modulus (GPa) = 20.85621 30.22083 25.53852
#
# Velocity S-wave (km/s) = 3.29510 3.96647 3.64627
# Velocity P-wave (km/s) = 5.94722 6.95764 6.47218
#
# Compressibility (1/GPa) = 0.02491804
#
# Stress axis : x y z
#
# Youngs Moduli (GPa) = 74.00425 54.32728 112.90765
#
# Poissons Ratio (x) = 0.05791 0.50719
# Poissons Ratio (y) = 0.07889 0.26773
# Poissons Ratio (z) = 0.33243 0.12882
#
# Static dielectric constant tensor:
#      x y z
#    x 1.794710 0.000000 0.037380 
#    y 0.000000 1.775450 0.000000 
#    z 0.037380 0.000000 1.643760 
# 
# From -- ./inp_files/71595.got.cif
#   From: 2010.05.17/outbox.cif.g08.bks.cpg/sg14_36_cif.got.tgz:71595.got - 2010.06.03 17:49:19.
