data_PCOD9240109
_publ_section_title
;
Structure prediction by ZEFSAII (Michael W. Deem and Ramdas Pophale) SiO2 
 PCOD9240109
Probable space group: P 21/C
;
_chemical_formula_sum "Si O2"
_cell_formula_units_Z 24
_cell_length_a 10.363219
_cell_length_b 6.260776
_cell_length_c 21.135635
_cell_angle_alpha 90.000000
_cell_angle_beta 122.473698
_cell_angle_gamma 90.000000
_cell_volume 1156.895893
_symmetry_space_group_name_H-M "P 21/C"
_symmetry_group_IT_number 14
_symmetry_cell_setting 'monoclinic'
loop_
_space_group_symop_operation_xyz
x,y,z
-x,1/2+y,1/2-z
-x,-y,-z
x,1/2-y,1/2+z
loop_
_atom_site_type_symbol
_atom_site_label
_atom_site_fract_x
_atom_site_fract_y
_atom_site_fract_z
Si Si1 0.879718 0.510251 0.876885
Si Si2 0.339722 0.947752 0.386508
Si Si3 0.062329 0.819967 0.836551
Si Si4 0.853318 0.308684 0.274956
Si Si5 0.111619 0.192518 0.008205
Si Si6 0.610967 0.812632 0.006253
O O1 0.783406 0.336535 0.811751
O O2 0.954115 0.651366 0.841627
O O3 0.010616 0.368612 0.944894
O O4 0.821422 0.676593 0.913743
O O5 0.272258 0.943158 0.297761
O O6 0.230768 0.774413 0.394008
O O7 0.509172 0.856075 0.439057
O O8 0.329654 0.175474 0.418010
O O9 0.066015 0.822234 0.761070
O O10 0.249623 0.113654 0.000697
O O11 0.988391 0.042622 0.837009
O O12 0.000000 0.000000 0.000000
O O13 0.500000 0.000000 0.000000
#
# Coordination Sequence:
#
# PCOD9240109 Si02
#       6
#     4   4   4   4   4   4
#     4  11  22  38  64  95 131 165 220 276 337 398
#     4   9  22  39  61  98 128 160 223 275 331 396
#     4  10  18  34  61  97 125 152 213 277 332 391
#     4  10  19  34  64  94 127 166 212 280 336 395
#     4  11  25  41  64  95 136 178 222 275 336 405
#     4  11  24  40  66  93 133 177 220 278 338 396
#
# _framework density 20.745166999999999
#
# number of rings (size 3 to 8) (size 9 to 14) (size 15 to 20)
#    1.000    0.667    3.333    1.000    4.667    2.667 
#    0.000    0.000    7.333    0.000    0.000    0.000 
#    0.000    0.000    0.000    0.000    0.000    0.000 
#
# Total GULP energy -133622.343737 kJ/mol
# GULP energy per Si atom -5567.597656 kJ/mol
# Density = 2.069795 g / cm^3
# Si number density = 20.745167 Si / 1000 Ang^3
#
#
#
# Elastic Constant Matrix: (Units=GPa)
#
#
# Indices 1 2 3 4 5 6 
#
# 1 95.3090 48.5009 30.9333 0.0000 -11.7833 0.0000
# 2 48.5009 98.3623 49.0117 0.0000 -17.3757 0.0000
# 3 30.9333 49.0117 104.9162 0.0000 -10.8970 0.0000
# 4 0.0000 0.0000 0.0000 40.8214 0.0000 -5.5071
# 5 -11.7833 -17.3757 -10.8970 0.0000 25.5767 0.0000
# 6 0.0000 0.0000 0.0000 -5.5071 0.0000 28.6361
#
#
#
# Elastic Compliance Matrix: (Units=1/GPa)
#
#
# Indices 1 2 3 4 5 6 
#
# 1 0.014201 -0.006096 -0.001140 0.000000 0.001915 0.000000
# 2 -0.006096 0.017048 -0.005499 0.000000 0.006431 0.000000
# 3 -0.001140 -0.005499 0.012549 0.000000 0.001086 0.000000
# 4 0.000000 0.000000 0.000000 0.025149 0.000000 0.004837
# 5 0.001915 0.006431 0.001086 0.000000 0.044812 0.000000
# 6 0.000000 0.000000 0.000000 0.004837 0.000000 0.035851
#
#
# Mechanical properties :
#
#
# Convention : Reuss Voigt Hill
#
# Bulk Modulus (GPa) = 54.56028 61.71991 58.14009
# Shear Modulus (GPa) = 27.59529 30.34963 28.97246
#
# Velocity S-wave (km/s) = 3.65115 3.82903 3.74115
# Velocity P-wave (km/s) = 6.64318 7.02600 6.83727
#
# Compressibility (1/GPa) = 0.01832835
#
# Stress axis : x y z
#
# Youngs Moduli (GPa) = 70.41692 58.65737 79.68615
#
# Poissons Ratio (x) = 0.35756 0.09088
# Poissons Ratio (y) = 0.42924 0.43819
# Poissons Ratio (z) = 0.08031 0.32255
#
# Static dielectric constant tensor:
#      x y z
#    x 1.719970 0.000000 0.017620 
#    y 0.000000 1.795930 0.000000 
#    z 0.017620 0.000000 1.821470 
# 
# From -- ./inp_files/68890.got.cif
#   From: 2010.05.17/outbox.cif.g08.bks.cpg/sg14_35_cif.got.tgz:68890.got - 2010.06.03 17:49:19.
