data_PCOD9240765
_publ_section_title
;
Structure prediction by ZEFSAII (Michael W. Deem and Ramdas Pophale) SiO2 
 PCOD9240765
Probable space group: P 21/C
;
_chemical_formula_sum "Si O2"
_cell_formula_units_Z 32
_cell_length_a 11.038362
_cell_length_b 8.137084
_cell_length_c 25.905954
_cell_angle_alpha 90.000000
_cell_angle_beta 33.597036
_cell_angle_gamma 90.000000
_cell_volume 1287.572604
_symmetry_space_group_name_H-M "P 21/C"
_symmetry_group_IT_number 14
_symmetry_cell_setting 'monoclinic'
loop_
_space_group_symop_operation_xyz
x,y,z
-x,1/2+y,1/2-z
-x,-y,-z
x,1/2-y,1/2+z
loop_
_atom_site_type_symbol
_atom_site_label
_atom_site_fract_x
_atom_site_fract_y
_atom_site_fract_z
Si Si1 0.339087 0.710084 0.314394
Si Si2 0.702417 0.159509 0.509937
Si Si3 0.732139 0.855408 0.395201
Si Si4 0.448400 0.987210 0.874164
Si Si5 0.010141 0.871989 0.154180
Si Si6 0.859643 0.798251 0.954740
Si Si7 0.526243 0.984802 0.319127
Si Si8 0.869072 0.980580 0.788891
O O1 0.385369 0.562945 0.338749
O O2 0.455509 0.862217 0.299080
O O3 0.420416 0.653857 0.229118
O O4 0.084281 0.754963 0.401162
O O5 0.519212 0.130940 0.531446
O O6 0.631943 0.327533 0.564632
O O7 0.928156 0.213011 0.401998
O O8 0.656377 0.025843 0.571230
O O9 0.774640 0.821044 0.440203
O O10 0.820350 0.692036 0.333747
O O11 0.888051 0.999086 0.319328
O O12 0.699302 0.008449 0.802741
O O13 0.317366 0.142934 0.941536
O O14 0.149808 0.889406 0.157156
O O15 0.755057 0.903472 0.257693
O O16 0.072954 0.032257 0.098658
#
# Coordination Sequence:
#
# PCOD9240765 Si02
#       8
#     4   4   4   4   4   4   4   4
#     4  10  21  34  55  76 110 144 182 218 262 318
#     4   9  17  33  56  80 105 139 181 222 268 320
#     4  10  19  32  55  83 109 139 174 222 273 322
#     4   9  18  32  53  80 105 137 183 229 261 304
#     4   9  17  33  56  80 105 139 181 222 268 320
#     4   9  18  32  53  80 105 137 183 229 261 304
#     4  10  20  36  54  80 106 146 180 226 268 318
#     4  10  19  32  55  83 109 139 174 222 273 322
#
# _framework density 24.852967
#
# number of rings (size 3 to 8) (size 9 to 14) (size 15 to 20)
#    0.000    2.500    1.250    1.125    1.750    4.000 
#    0.000    0.625    0.000    6.000    0.000    0.000 
#    0.000    0.000    0.000    0.000    0.000    0.000 
#
# Total GULP energy -178927.900959 kJ/mol
# GULP energy per Si atom -5591.496905 kJ/mol
# Density = 2.479640 g / cm^3
# Si number density = 24.852967 Si / 1000 Ang^3
#
#
#
# Elastic Constant Matrix: (Units=GPa)
#
#
# Indices 1 2 3 4 5 6 
#
# 1 136.9828 26.4589 27.7448 0.0000 3.5144 0.0000
# 2 26.4589 65.3606 33.7386 0.0000 5.9130 0.0000
# 3 27.7448 33.7386 69.0384 0.0000 15.1920 0.0000
# 4 0.0000 0.0000 0.0000 42.9953 0.0000 16.5080
# 5 3.5144 5.9130 15.1920 0.0000 29.2034 0.0000
# 6 0.0000 0.0000 0.0000 16.5080 0.0000 42.3066
#
#
#
# Elastic Compliance Matrix: (Units=1/GPa)
#
#
# Indices 1 2 3 4 5 6 
#
# 1 0.008181 -0.002138 -0.002396 0.000000 0.000695 0.000000
# 2 -0.002138 0.021057 -0.009655 0.000000 0.001016 0.000000
# 3 -0.002396 -0.009655 0.022215 0.000000 -0.009313 0.000000
# 4 0.000000 0.000000 0.000000 0.027357 0.000000 -0.010675
# 5 0.000695 0.001016 -0.009313 0.000000 0.038798 0.000000
# 6 0.000000 0.000000 0.000000 -0.010675 0.000000 0.027802
#
#
# Mechanical properties :
#
#
# Convention : Reuss Voigt Hill
#
# Bulk Modulus (GPa) = 43.33533 49.69628 46.51581
# Shear Modulus (GPa) = 27.55142 35.13034 31.34088
#
# Velocity S-wave (km/s) = 3.33314 3.76377 3.55498
# Velocity P-wave (km/s) = 5.68222 6.23919 5.96721
#
# Compressibility (1/GPa) = 0.02307586
#
# Stress axis : x y z
#
# Youngs Moduli (GPa) = 122.24159 47.49011 45.01421
#
# Poissons Ratio (x) = 0.10152 0.10784
# Poissons Ratio (y) = 0.26133 0.43461
# Poissons Ratio (z) = 0.29285 0.45851
#
# Static dielectric constant tensor:
#      x y z
#    x 1.942800 0.000000 0.025640 
#    y 0.000000 2.009710 0.000000 
#    z 0.025640 0.000000 1.977330 
# 
# From -- ./inp_files/77218.got.cif
#   From: 2010.05.17/outbox.cif.g08.bks.cpg/sg14_39_cif.got.tgz:77218.got - 2010.06.03 17:49:19.
