data_PCOD9240353
_publ_section_title
;
Structure prediction by ZEFSAII (Michael W. Deem and Ramdas Pophale) SiO2 
 PCOD9240353
Probable space group: P 21/C
;
_chemical_formula_sum "Si O2"
_cell_formula_units_Z 26
_cell_length_a 5.207351
_cell_length_b 22.090137
_cell_length_c 9.834899
_cell_angle_alpha 90.000000
_cell_angle_beta 121.571150
_cell_angle_gamma 90.000000
_cell_volume 963.873418
_symmetry_space_group_name_H-M "P 21/C"
_symmetry_group_IT_number 14
_symmetry_cell_setting 'monoclinic'
loop_
_space_group_symop_operation_xyz
x,y,z
-x,1/2+y,1/2-z
-x,-y,-z
x,1/2-y,1/2+z
loop_
_atom_site_type_symbol
_atom_site_label
_atom_site_fract_x
_atom_site_fract_y
_atom_site_fract_z
Si Si1 0.337521 0.407935 0.573863
Si Si2 0.667750 0.368008 0.396420
Si Si3 0.028176 0.498446 0.815738
Si Si4 0.922428 0.253151 0.624333
Si Si5 0.000000 0.000000 0.000000
Si Si6 0.585566 0.204831 0.302668
Si Si7 0.625563 0.927292 0.415425
O O1 0.960274 0.412567 0.461188
O O2 0.347805 0.473810 0.637368
O O3 0.454562 0.388030 0.460343
O O4 0.463401 0.358898 0.712479
O O5 0.827816 0.307520 0.494380
O O6 0.490329 0.370376 0.205607
O O7 0.321886 0.541703 0.884814
O O8 0.888750 0.492840 0.630324
O O9 0.820780 0.533794 0.863766
O O10 0.140394 0.430996 0.894010
O O11 0.783121 0.199145 0.494955
O O12 0.767062 0.265973 0.725802
O O13 0.280118 0.256322 0.745155
#
# Coordination Sequence:
#
# PCOD9240353 Si02
#       7
#     4   4   4   4   2   4   4
#     4  10  22  33  59  82 117 146 194 228 298 344
#     4  10  18  37  57  81 105 158 187 229 283 369
#     4  10  22  30  57  72 112 143 187 230 276 324
#     4  10  21  37  67  83 121 149 197 239 309 343
#     4  12  20  38  54  88 110 160 180 248 286 344
#     4  10  21  41  60  93 114 159 192 252 289 366
#     4  10  18  38  49  78 104 147 186 229 265 338
#
# _framework density 26.974495999999998
#
# number of rings (size 3 to 8) (size 9 to 14) (size 15 to 20)
#    0.000    1.846    3.077    0.923    0.000    2.462 
#    2.769    0.000    6.769    0.000    0.000    0.000 
#    0.000    0.000    0.000    0.000    0.000    0.000 
#
# Total GULP energy -145055.722479 kJ/mol
# GULP energy per Si atom -5579.066249 kJ/mol
# Density = 2.691310 g / cm^3
# Si number density = 26.974496 Si / 1000 Ang^3
#
#
#
# Elastic Constant Matrix: (Units=GPa)
#
#
# Indices 1 2 3 4 5 6 
#
# 1 170.9227 19.8815 32.9188 0.0000 -11.9949 0.0000
# 2 19.8815 39.1428 1.4745 0.0000 -1.2600 0.0000
# 3 32.9188 1.4745 84.6243 0.0000 -6.7653 0.0000
# 4 0.0000 0.0000 0.0000 35.9485 0.0000 -4.1717
# 5 -11.9949 -1.2600 -6.7653 0.0000 31.9220 0.0000
# 6 0.0000 0.0000 0.0000 -4.1717 0.0000 26.3845
#
#
#
# Elastic Compliance Matrix: (Units=1/GPa)
#
#
# Indices 1 2 3 4 5 6 
#
# 1 0.006844 -0.003322 -0.002451 0.000000 0.001921 0.000000
# 2 -0.003322 0.027204 0.000818 0.000000 -0.000001 0.000000
# 3 -0.002451 0.000818 0.012904 0.000000 0.001846 0.000000
# 4 0.000000 0.000000 0.000000 0.028337 0.000000 0.004481
# 5 0.001921 -0.000001 0.001846 0.000000 0.032439 0.000000
# 6 0.000000 0.000000 0.000000 0.004481 0.000000 0.038609
#
#
# Mechanical properties :
#
#
# Convention : Reuss Voigt Hill
#
# Bulk Modulus (GPa) = 26.99628 44.80438 35.90033
# Shear Modulus (GPa) = 29.65700 34.87869 32.26784
#
# Velocity S-wave (km/s) = 3.31939 3.59977 3.46242
# Velocity P-wave (km/s) = 4.97201 5.82441 5.41501
#
# Compressibility (1/GPa) = 0.03704214
#
# Stress axis : x y z
#
# Youngs Moduli (GPa) = 146.11710 36.75944 77.49770
#
# Poissons Ratio (x) = 0.12211 0.18993
# Poissons Ratio (y) = 0.48540 -0.06340
# Poissons Ratio (z) = 0.35810 -0.03007
#
# Static dielectric constant tensor:
#      x y z
#    x 2.192900 0.000000 0.033380 
#    y 0.000000 2.688830 0.000000 
#    z 0.033380 0.000000 2.116300 
# 
# From -- ./inp_files/6703.got.cif
#   From: 2010.05.17/outbox.cif.g08.bks.cpg/sg14_4_cif.got.tgz:6703.got - 2010.06.03 17:49:19.
