data_PCOD9240754
_publ_section_title
;
Structure prediction by ZEFSAII (Michael W. Deem and Ramdas Pophale) SiO2 
 PCOD9240754
Probable space group: P 21/C
;
_chemical_formula_sum "Si O2"
_cell_formula_units_Z 32
_cell_length_a 16.751911
_cell_length_b 5.186254
_cell_length_c 17.727036
_cell_angle_alpha 90.000000
_cell_angle_beta 72.126315
_cell_angle_gamma 90.000000
_cell_volume 1465.785835
_symmetry_space_group_name_H-M "P 21/C"
_symmetry_group_IT_number 14
_symmetry_cell_setting 'monoclinic'
loop_
_space_group_symop_operation_xyz
x,y,z
-x,1/2+y,1/2-z
-x,-y,-z
x,1/2-y,1/2+z
loop_
_atom_site_type_symbol
_atom_site_label
_atom_site_fract_x
_atom_site_fract_y
_atom_site_fract_z
Si Si1 0.186364 0.371489 0.237043
Si Si2 0.618192 0.965498 0.035072
Si Si3 0.539697 0.610058 0.704359
Si Si4 0.165255 0.810327 0.596390
Si Si5 0.316022 0.991513 0.136654
Si Si6 0.993064 0.831795 0.203458
Si Si7 0.693189 0.207037 0.218292
Si Si8 0.712498 0.030779 0.559057
O O1 0.164633 0.460126 0.158080
O O2 0.269479 0.205506 0.199772
O O3 0.100880 0.257399 0.295145
O O4 0.217164 0.600764 0.281291
O O5 0.541904 0.900490 0.112901
O O6 0.687294 0.755136 0.041886
O O7 0.646363 0.259898 0.043607
O O8 0.616590 0.929537 0.945469
O O9 0.479461 0.391809 0.757633
O O10 0.631340 0.505337 0.701667
O O11 0.237726 0.628141 0.611574
O O12 0.199943 0.898621 0.506043
O O13 0.072457 0.693525 0.625378
O O14 0.347907 0.798176 0.191220
O O15 0.010305 0.624766 0.265283
O O16 0.708188 0.416854 0.148983
#
# Coordination Sequence:
#
# PCOD9240754 Si02
#       8
#     4   4   4   4   4   4   4   4
#     4  10  19  34  57  87 121 157 201 252 301 340
#     4  10  21  39  63  90 115 157 200 240 289 368
#     4  11  24  44  65  88 119 157 198 241 304 374
#     4   9  18  34  55  88 117 162 209 247 286 344
#     4  10  19  36  61  89 120 154 202 253 291 343
#     4  10  19  32  54  85 121 159 203 250 294 342
#     4  10  24  37  61  90 120 158 197 255 303 362
#     4  10  20  36  59  88 119 161 205 242 288 356
#
# _framework density 21.831295000000001
#
# number of rings (size 3 to 8) (size 9 to 14) (size 15 to 20)
#    0.000    2.000    2.500    1.500    5.250    0.000 
#    0.000    1.875    0.000    0.750    0.000    0.000 
#    0.000    0.000    0.000    0.000    0.000    0.000 
#
# Total GULP energy -178415.388324 kJ/mol
# GULP energy per Si atom -5575.480885 kJ/mol
# Density = 2.178161 g / cm^3
# Si number density = 21.831295 Si / 1000 Ang^3
#
#
#
# Elastic Constant Matrix: (Units=GPa)
#
#
# Indices 1 2 3 4 5 6 
#
# 1 52.2975 2.1187 51.5609 0.0000 -11.5262 0.0000
# 2 2.1187 55.4703 19.9843 0.0000 2.7550 0.0000
# 3 51.5609 19.9843 143.5020 0.0000 -10.9252 0.0000
# 4 0.0000 0.0000 0.0000 21.5093 0.0000 -9.5336
# 5 -11.5262 2.7550 -10.9252 0.0000 31.4115 0.0000
# 6 0.0000 0.0000 0.0000 -9.5336 0.0000 26.7850
#
#
#
# Elastic Compliance Matrix: (Units=1/GPa)
#
#
# Indices 1 2 3 4 5 6 
#
# 1 0.031670 0.002431 -0.011144 0.000000 0.007532 0.000000
# 2 0.002431 0.019384 -0.003733 0.000000 -0.002107 0.000000
# 3 -0.011144 -0.003733 0.011511 0.000000 0.000242 0.000000
# 4 0.000000 0.000000 0.000000 0.055200 0.000000 0.019647
# 5 0.007532 -0.002107 0.000242 0.000000 0.034868 0.000000
# 6 0.000000 0.000000 0.000000 0.019647 0.000000 0.044328
#
#
# Mechanical properties :
#
#
# Convention : Reuss Voigt Hill
#
# Bulk Modulus (GPa) = 26.54444 44.28863 35.41654
# Shear Modulus (GPa) = 21.32992 27.78152 24.55572
#
# Velocity S-wave (km/s) = 3.12915 3.57116 3.35743
# Velocity P-wave (km/s) = 5.02401 6.11024 5.59356
#
# Compressibility (1/GPa) = 0.03767268
#
# Stress axis : x y z
#
# Youngs Moduli (GPa) = 31.57524 51.58765 86.87236
#
# Poissons Ratio (x) = -0.12542 0.96815
# Poissons Ratio (y) = -0.07677 0.32433
# Poissons Ratio (z) = 0.35189 0.19260
#
# Static dielectric constant tensor:
#      x y z
#    x 1.835560 0.000000 -0.048770 
#    y 0.000000 1.855850 0.000000 
#    z -0.048770 0.000000 1.802540 
# 
# From -- ./inp_files/59873.got.cif
#   From: 2010.05.17/outbox.cif.g08.bks.cpg/sg14_30_cif.got.tgz:59873.got - 2010.06.03 17:49:19.
