data_PCOD9240436
_publ_section_title
;
Structure prediction by ZEFSAII (Michael W. Deem and Ramdas Pophale) SiO2 
 PCOD9240436
Probable space group: P 21/C
;
_chemical_formula_sum "Si O2"
_cell_formula_units_Z 30
_cell_length_a 7.701967
_cell_length_b 11.810154
_cell_length_c 15.104894
_cell_angle_alpha 90.000000
_cell_angle_beta 107.964405
_cell_angle_gamma 90.000000
_cell_volume 1306.979555
_symmetry_space_group_name_H-M "P 21/C"
_symmetry_group_IT_number 14
_symmetry_cell_setting 'monoclinic'
loop_
_space_group_symop_operation_xyz
x,y,z
-x,1/2+y,1/2-z
-x,-y,-z
x,1/2-y,1/2+z
loop_
_atom_site_type_symbol
_atom_site_label
_atom_site_fract_x
_atom_site_fract_y
_atom_site_fract_z
Si Si1 0.256200 0.797782 0.489993
Si Si2 0.320632 0.874317 0.313974
Si Si3 0.000000 0.500000 0.000000
Si Si4 0.532030 0.881660 0.664183
Si Si5 0.693117 0.713180 0.808280
Si Si6 0.998552 0.972421 0.150363
Si Si7 0.174221 0.965255 0.706073
Si Si8 0.091604 0.346002 0.522743
O O1 0.285864 0.792068 0.390307
O O2 0.442178 0.805485 0.574049
O O3 0.112673 0.705407 0.502115
O O4 0.160764 0.919532 0.488615
O O5 0.484007 0.823049 0.282848
O O6 0.144482 0.899267 0.227616
O O7 0.397049 0.996929 0.357470
O O8 0.969068 0.440592 0.894357
O O9 0.692443 0.814551 0.738580
O O10 0.366717 0.910322 0.707606
O O11 0.800916 0.601576 0.798572
O O12 0.774448 0.751801 0.915513
O O13 0.892713 0.049544 0.204814
O O14 0.098104 0.049891 0.092706
O O15 0.873934 0.890552 0.070249
#
# Coordination Sequence:
#
# PCOD9240436 Si02
#       8
#     4   4   2   4   4   4   4   4
#     4  11  22  41  61  97 119 168 210 264 312 385
#     4  11  22  40  66  93 128 162 214 263 323 377
#     4  10  18  38  62  88 124 144 212 258 296 358
#     4  10  23  40  63  92 131 163 200 275 326 363
#     4  11  22  42  61  96 130 164 209 263 314 386
#     4  11  23  44  65  92 126 176 212 261 308 383
#     4  10  22  41  66  92 125 166 213 257 318 372
#     4  11  24  42  64  91 130 167 223 254 308 386
#
# _framework density 22.953688
#
# number of rings (size 3 to 8) (size 9 to 14) (size 15 to 20)
#    0.000    1.333    4.000    1.200    1.867    1.067 
#    7.200    0.667    0.000    0.000    0.000    0.000 
#    0.000    0.000    0.000    0.000    0.000    0.000 
#
# Total GULP energy -167129.637201 kJ/mol
# GULP energy per Si atom -5570.987907 kJ/mol
# Density = 2.290144 g / cm^3
# Si number density = 22.953688 Si / 1000 Ang^3
#
#
#
# Elastic Constant Matrix: (Units=GPa)
#
#
# Indices 1 2 3 4 5 6 
#
# 1 34.0593 -1.2263 22.3461 0.0000 -6.3714 0.0000
# 2 -1.2263 50.0952 15.1489 0.0000 11.9091 0.0000
# 3 22.3461 15.1489 124.6999 0.0000 2.3555 0.0000
# 4 0.0000 0.0000 0.0000 16.1276 0.0000 0.5718
# 5 -6.3714 11.9091 2.3555 0.0000 37.6956 0.0000
# 6 0.0000 0.0000 0.0000 0.5718 0.0000 12.7836
#
#
#
# Elastic Compliance Matrix: (Units=1/GPa)
#
#
# Indices 1 2 3 4 5 6 
#
# 1 0.034779 0.001436 -0.006517 0.000000 0.005832 0.000000
# 2 0.001436 0.022447 -0.002858 0.000000 -0.006670 0.000000
# 3 -0.006517 -0.002858 0.009549 0.000000 -0.000795 0.000000
# 4 0.000000 0.000000 0.000000 0.062104 0.000000 -0.002778
# 5 0.005832 -0.006670 -0.000795 0.000000 0.029671 0.000000
# 6 0.000000 0.000000 0.000000 -0.002778 0.000000 0.078350
#
#
# Mechanical properties :
#
#
# Convention : Reuss Voigt Hill
#
# Bulk Modulus (GPa) = 19.64772 31.26576 25.45674
# Shear Modulus (GPa) = 18.53603 24.82706 21.68154
#
# Velocity S-wave (km/s) = 2.84481 3.29236 3.07673
# Velocity P-wave (km/s) = 4.40101 5.30129 4.87199
#
# Compressibility (1/GPa) = 0.05089649
#
# Stress axis : x y z
#
# Youngs Moduli (GPa) = 28.75305 44.54885 104.71952
#
# Poissons Ratio (x) = -0.06395 0.68245
# Poissons Ratio (y) = -0.04128 0.29931
# Poissons Ratio (z) = 0.18738 0.12733
#
# Static dielectric constant tensor:
#      x y z
#    x 1.844000 0.000000 -0.039890 
#    y 0.000000 1.927170 0.000000 
#    z -0.039890 0.000000 1.904000 
# 
# From -- ./inp_files/40135.got.cif
#   From: 2010.05.17/outbox.cif.g08.bks.cpg/sg14_21_cif.got.tgz:40135.got - 2010.06.03 17:49:19.
