data_PCOD9240501
_publ_section_title
;
Structure prediction by ZEFSAII (Michael W. Deem and Ramdas Pophale) SiO2 
 PCOD9240501
Probable space group: P 21/C
;
_chemical_formula_sum "Si O2"
_cell_formula_units_Z 30
_cell_length_a 13.461750
_cell_length_b 7.732618
_cell_length_c 13.737066
_cell_angle_alpha 90.000000
_cell_angle_beta 128.426750
_cell_angle_gamma 90.000000
_cell_volume 1120.230774
_symmetry_space_group_name_H-M "P 21/C"
_symmetry_group_IT_number 14
_symmetry_cell_setting 'monoclinic'
loop_
_space_group_symop_operation_xyz
x,y,z
-x,1/2+y,1/2-z
-x,-y,-z
x,1/2-y,1/2+z
loop_
_atom_site_type_symbol
_atom_site_label
_atom_site_fract_x
_atom_site_fract_y
_atom_site_fract_z
Si Si1 0.033867 0.168103 0.420734
Si Si2 0.968533 0.162745 0.056293
Si Si3 0.099376 0.973055 0.283752
Si Si4 0.500000 0.500000 0.500000
Si Si5 0.302829 0.636374 0.530488
Si Si6 0.431474 0.779418 0.774640
Si Si7 0.638998 0.989151 0.631105
Si Si8 0.314755 0.277833 0.657230
O O1 0.973074 0.319354 0.315315
O O2 0.961753 0.990095 0.650039
O O3 0.177464 0.202364 0.547437
O O4 0.954132 0.182138 0.471036
O O5 0.848045 0.155728 0.054078
O O6 0.081559 0.138767 0.200645
O O7 0.000000 0.000000 0.000000
O O8 0.374234 0.596172 0.474164
O O9 0.543653 0.434296 0.636156
O O10 0.363513 0.792655 0.629705
O O11 0.251161 0.973497 0.379524
O O12 0.315893 0.462823 0.603817
O O13 0.349900 0.646255 0.787493
O O14 0.566008 0.692788 0.825188
O O15 0.500000 0.000000 0.500000
O O16 0.655007 0.817736 0.709702
#
# Coordination Sequence:
#
# PCOD9240501 Si02
#       8
#     4   4   4   2   4   4   4   4
#     4  11  21  42  68 103 136 189 239 307 374 436
#     4  10  18  39  68  96 134 185 236 294 360 437
#     4  11  23  41  72 102 139 188 248 300 367 463
#     4  10  24  40  66 102 142 188 240 314 362 430
#     4  10  20  39  65  94 138 186 239 289 373 443
#     4  10  22  39  63  95 133 188 237 295 367 439
#     4  11  23  41  67  98 137 194 245 297 370 463
#     4  10  19  40  65  91 140 179 235 305 373 426
#
# _framework density 26.780199
#
# number of rings (size 3 to 8) (size 9 to 14) (size 15 to 20)
#    0.000    1.600    4.000    3.200    1.867    2.133 
#    0.000    0.667    0.000    0.000    0.000    0.000 
#    0.000    0.000    0.000    0.000    0.000    0.000 
#
# Total GULP energy -167005.477115 kJ/mol
# GULP energy per Si atom -5566.849237 kJ/mol
# Density = 2.671925 g / cm^3
# Si number density = 26.780199 Si / 1000 Ang^3
#
#
#
# Elastic Constant Matrix: (Units=GPa)
#
#
# Indices 1 2 3 4 5 6 
#
# 1 171.3803 20.2002 70.4172 0.0000 -12.8823 0.0000
# 2 20.2002 61.0042 20.8755 0.0000 -11.8683 0.0000
# 3 70.4172 20.8755 159.0404 0.0000 -15.7417 0.0000
# 4 0.0000 0.0000 0.0000 42.2024 0.0000 -0.4514
# 5 -12.8823 -11.8683 -15.7417 0.0000 53.5768 0.0000
# 6 0.0000 0.0000 0.0000 -0.4514 0.0000 27.8831
#
#
#
# Elastic Compliance Matrix: (Units=1/GPa)
#
#
# Indices 1 2 3 4 5 6 
#
# 1 0.007256 -0.001266 -0.002989 0.000000 0.000586 0.000000
# 2 -0.001266 0.017946 -0.001475 0.000000 0.003238 0.000000
# 3 -0.002989 -0.001475 0.007932 0.000000 0.001285 0.000000
# 4 0.000000 0.000000 0.000000 0.023699 0.000000 0.000384
# 5 0.000586 0.003238 0.001285 0.000000 0.019901 0.000000
# 6 0.000000 0.000000 0.000000 0.000384 0.000000 0.035870
#
#
# Mechanical properties :
#
#
# Convention : Reuss Voigt Hill
#
# Bulk Modulus (GPa) = 46.13480 68.26785 57.20133
# Shear Modulus (GPa) = 38.08430 43.39460 40.73945
#
# Velocity S-wave (km/s) = 3.77517 4.02978 3.90456
# Velocity P-wave (km/s) = 6.02222 6.87019 6.46013
#
# Compressibility (1/GPa) = 0.02167561
#
# Stress axis : x y z
#
# Youngs Moduli (GPa) = 137.81281 55.72271 126.07623
#
# Poissons Ratio (x) = 0.07055 0.37679
# Poissons Ratio (y) = 0.17447 0.18591
# Poissons Ratio (z) = 0.41187 0.08217
#
# Static dielectric constant tensor:
#      x y z
#    x 2.150610 0.000000 0.057060 
#    y 0.000000 2.361200 0.000000 
#    z 0.057060 0.000000 2.108490 
# 
# From -- ./inp_files/33592.got.cif
#   From: 2010.05.17/outbox.cif.g08.bks.cpg/sg14_17_cif.got.tgz:33592.got - 2010.06.03 17:49:19.
