data_PCOD9240538
_publ_section_title
;
Structure prediction by ZEFSAII (Michael W. Deem and Ramdas Pophale) SiO2 
 PCOD9240538
Probable space group: P 21/C
;
_chemical_formula_sum "Si O2"
_cell_formula_units_Z 32
_cell_length_a 18.279403
_cell_length_b 10.640736
_cell_length_c 14.515509
_cell_angle_alpha 90.000000
_cell_angle_beta 153.340416
_cell_angle_gamma 90.000000
_cell_volume 1266.808845
_symmetry_space_group_name_H-M "P 21/C"
_symmetry_group_IT_number 14
_symmetry_cell_setting 'monoclinic'
loop_
_space_group_symop_operation_xyz
x,y,z
-x,1/2+y,1/2-z
-x,-y,-z
x,1/2-y,1/2+z
loop_
_atom_site_type_symbol
_atom_site_label
_atom_site_fract_x
_atom_site_fract_y
_atom_site_fract_z
Si Si1 0.094088 0.172136 0.815377
Si Si2 0.621355 0.208384 0.439790
Si Si3 0.305897 0.371432 0.379968
Si Si4 0.012188 0.657299 0.617051
Si Si5 0.812792 0.004821 0.426970
Si Si6 0.391871 0.756780 0.360093
Si Si7 0.070011 0.627065 0.479087
Si Si8 0.466399 0.045436 0.757441
O O1 0.232582 0.169757 0.894737
O O2 0.123862 0.177775 0.957868
O O3 0.982494 0.051527 0.660748
O O4 0.990681 0.294051 0.674207
O O5 0.816767 0.206474 0.650564
O O6 0.583031 0.231428 0.503050
O O7 0.541905 0.328558 0.300693
O O8 0.558547 0.072960 0.337470
O O9 0.186537 0.419233 0.163953
O O10 0.431590 0.266999 0.484601
O O11 0.411454 0.494161 0.526245
O O12 0.012144 0.694843 0.509624
O O13 0.014312 0.506658 0.614641
O O14 0.714885 0.133743 0.289993
O O15 0.704634 0.937194 0.382995
O O16 0.266903 0.871183 0.198110
#
# Coordination Sequence:
#
# PCOD9240538 Si02
#       8
#     4   4   4   4   4   4   4   4
#     4  11  23  40  68 106 137 188 242 300 356 441
#     4  11  21  40  70 102 138 188 239 303 360 436
#     4  11  21  39  63 104 141 183 244 297 359 433
#     4  10  22  45  72 101 141 190 236 307 363 437
#     4  10  18  41  66  99 136 189 242 296 354 430
#     4   9  18  39  71  92 136 189 231 293 363 425
#     4   9  22  44  71  97 140 191 239 296 378 424
#     4  11  22  39  69 103 139 187 240 295 367 434
#
# _framework density 25.260321999999999
#
# number of rings (size 3 to 8) (size 9 to 14) (size 15 to 20)
#    0.000    1.750    3.750    1.125    0.000    2.000 
#    4.500    0.000    0.000    5.250    0.000    0.000 
#    0.000    0.000    0.000    0.000    0.000    0.000 
#
# Total GULP energy -178926.985605 kJ/mol
# GULP energy per Si atom -5591.468300 kJ/mol
# Density = 2.520283 g / cm^3
# Si number density = 25.260322 Si / 1000 Ang^3
#
#
#
# Elastic Constant Matrix: (Units=GPa)
#
#
# Indices 1 2 3 4 5 6 
#
# 1 165.8686 37.0842 33.6935 0.0000 9.2220 0.0000
# 2 37.0842 94.1325 20.1669 0.0000 5.6894 0.0000
# 3 33.6935 20.1669 32.1294 0.0000 0.7908 0.0000
# 4 0.0000 0.0000 0.0000 34.1065 0.0000 0.2603
# 5 9.2220 5.6894 0.7908 0.0000 35.0590 0.0000
# 6 0.0000 0.0000 0.0000 0.2603 0.0000 34.5759
#
#
#
# Elastic Compliance Matrix: (Units=1/GPa)
#
#
# Indices 1 2 3 4 5 6 
#
# 1 0.007946 -0.001447 -0.007383 0.000000 -0.001689 0.000000
# 2 -0.001447 0.012654 -0.006388 0.000000 -0.001529 0.000000
# 3 -0.007383 -0.006388 0.042827 0.000000 0.002013 0.000000
# 4 0.000000 0.000000 0.000000 0.029322 0.000000 -0.000221
# 5 -0.001689 -0.001529 0.002013 0.000000 0.029170 0.000000
# 6 0.000000 0.000000 0.000000 -0.000221 0.000000 0.028924
#
#
# Mechanical properties :
#
#
# Convention : Reuss Voigt Hill
#
# Bulk Modulus (GPa) = 30.31108 52.66886 41.48997
# Shear Modulus (GPa) = 26.00435 34.16068 30.08252
#
# Velocity S-wave (km/s) = 3.21199 3.68141 3.45469
# Velocity P-wave (km/s) = 5.07754 6.24228 5.68979
#
# Compressibility (1/GPa) = 0.03299124
#
# Stress axis : x y z
#
# Youngs Moduli (GPa) = 125.85008 79.02518 23.34977
#
# Poissons Ratio (x) = 0.11431 0.17240
# Poissons Ratio (y) = 0.18204 0.14916
# Poissons Ratio (z) = 0.92918 0.50483
#
# Static dielectric constant tensor:
#      x y z
#    x 1.987720 0.000000 0.028770 
#    y 0.000000 2.042290 0.000000 
#    z 0.028770 0.000000 2.046700 
# 
# From -- ./inp_files/49057.got.cif
#   From: 2010.05.17/outbox.cif.g08.bks.cpg/sg14_25_cif.got.tgz:49057.got - 2010.06.03 17:49:19.
