data_PCOD9240601
_publ_section_title
;
Structure prediction by ZEFSAII (Michael W. Deem and Ramdas Pophale) SiO2 
 PCOD9240601
Probable space group: P 21/C
;
_chemical_formula_sum "Si O2"
_cell_formula_units_Z 32
_cell_length_a 16.629217
_cell_length_b 20.207880
_cell_length_c 16.555763
_cell_angle_alpha 90.000000
_cell_angle_beta 162.583775
_cell_angle_gamma 90.000000
_cell_volume 1665.192461
_symmetry_space_group_name_H-M "P 21/C"
_symmetry_group_IT_number 14
_symmetry_cell_setting 'monoclinic'
loop_
_space_group_symop_operation_xyz
x,y,z
-x,1/2+y,1/2-z
-x,-y,-z
x,1/2-y,1/2+z
loop_
_atom_site_type_symbol
_atom_site_label
_atom_site_fract_x
_atom_site_fract_y
_atom_site_fract_z
Si Si1 0.998522 0.873439 0.231470
Si Si2 0.003355 0.516231 0.198932
Si Si3 0.278061 0.442274 0.781774
Si Si4 0.458783 0.981564 0.867525
Si Si5 0.457950 0.660530 0.296955
Si Si6 0.260300 0.802460 0.141534
Si Si7 0.803152 0.125699 0.752541
Si Si8 0.798696 0.625112 0.122507
O O1 0.000714 0.953705 0.242882
O O2 0.208385 0.852135 0.499760
O O3 0.090134 0.851541 0.231108
O O4 0.716720 0.843082 0.987696
O O5 0.307377 0.517727 0.459207
O O6 0.897166 0.581279 0.142168
O O7 0.817281 0.500351 0.942644
O O8 0.196821 0.421954 0.794175
O O9 0.002869 0.436467 0.466789
O O10 0.500000 0.500000 0.000000
O O11 0.484566 0.388220 0.941354
O O12 0.489722 0.902218 0.886605
O O13 0.500000 0.000000 0.000000
O O14 0.391419 0.730418 0.272863
O O15 0.175839 0.826800 0.149879
O O16 0.493858 0.849322 0.328631
O O17 0.001151 0.814561 0.836761
#
# Coordination Sequence:
#
# PCOD9240601 Si02
#       8
#     4   4   4   4   4   4   4   4
#     4  10  20  35  58  82 106 143 188 230 277 325
#     4  10  20  35  57  84 113 141 181 236 284 334
#     4  10  19  30  49  77 112 145 173 211 263 319
#     4  10  21  38  60  84 108 141 189 244 294 329
#     4  10  21  38  58  78 108 148 185 231 281 332
#     4  10  21  37  54  77 115 154 185 221 280 342
#     4  10  20  33  51  78 109 143 184 225 261 326
#     4  10  20  34  54  80 112 149 181 220 275 339
#
# _framework density 19.216996999999999
#
# number of rings (size 3 to 8) (size 9 to 14) (size 15 to 20)
#    0.000    2.000    0.000    3.750    0.000    4.000 
#    0.000    3.750    0.000    3.000    0.000    0.000 
#    0.000    0.000    0.000    0.000    0.000    0.000 
#
# Total GULP energy -178344.645268 kJ/mol
# GULP energy per Si atom -5573.270165 kJ/mol
# Density = 1.917326 g / cm^3
# Si number density = 19.216997 Si / 1000 Ang^3
#
#
#
# Elastic Constant Matrix: (Units=GPa)
#
#
# Indices 1 2 3 4 5 6 
#
# 1 117.4367 55.9221 46.7568 0.0000 7.0422 0.0000
# 2 55.9221 69.6757 1.5106 0.0000 2.7193 0.0000
# 3 46.7568 1.5106 115.0342 0.0000 15.3559 0.0000
# 4 0.0000 0.0000 0.0000 28.8494 0.0000 8.6209
# 5 7.0422 2.7193 15.3559 0.0000 12.9015 0.0000
# 6 0.0000 0.0000 0.0000 8.6209 0.0000 17.5049
#
#
#
# Elastic Compliance Matrix: (Units=1/GPa)
#
#
# Indices 1 2 3 4 5 6 
#
# 1 0.018388 -0.014675 -0.007555 0.000000 0.002048 0.000000
# 2 -0.014675 0.026189 0.006287 0.000000 -0.004993 0.000000
# 3 -0.007555 0.006287 0.013444 0.000000 -0.013203 0.000000
# 4 0.000000 0.000000 0.000000 0.040644 0.000000 -0.020017
# 5 0.002048 -0.004993 -0.013203 0.000000 0.093159 0.000000
# 6 0.000000 0.000000 0.000000 -0.020017 0.000000 0.066985
#
#
# Mechanical properties :
#
#
# Convention : Reuss Voigt Hill
#
# Bulk Modulus (GPa) = 38.26087 56.72507 47.49297
# Shear Modulus (GPa) = 16.69981 25.04831 20.87406
#
# Velocity S-wave (km/s) = 2.95110 3.61424 3.29937
# Velocity P-wave (km/s) = 5.61828 6.85560 6.26755
#
# Compressibility (1/GPa) = 0.02613637
#
# Stress axis : x y z
#
# Youngs Moduli (GPa) = 54.38279 38.18450 74.38473
#
# Poissons Ratio (x) = 0.56034 0.56196
# Poissons Ratio (y) = 0.79804 -0.46768
# Poissons Ratio (z) = 0.41085 -0.24008
#
# Static dielectric constant tensor:
#      x y z
#    x 1.629980 0.000000 0.006000 
#    y 0.000000 1.761700 0.000000 
#    z 0.006000 0.000000 1.673070 
# 
# From -- ./inp_files/47685.got.cif
#   From: 2010.05.17/outbox.cif.g08.bks.cpg/sg14_24_cif.got.tgz:47685.got - 2010.06.03 17:49:19.
