data_PCOD9240772
_publ_section_title
;
Structure prediction by ZEFSAII (Michael W. Deem and Ramdas Pophale) SiO2 
 PCOD9240772
Probable space group: P 21/C
;
_chemical_formula_sum "Si O2"
_cell_formula_units_Z 28
_cell_length_a 14.191704
_cell_length_b 7.613827
_cell_length_c 11.119059
_cell_angle_alpha 90.000000
_cell_angle_beta 103.414530
_cell_angle_gamma 90.000000
_cell_volume 1168.670614
_symmetry_space_group_name_H-M "P 21/C"
_symmetry_group_IT_number 14
_symmetry_cell_setting 'monoclinic'
loop_
_space_group_symop_operation_xyz
x,y,z
-x,1/2+y,1/2-z
-x,-y,-z
x,1/2-y,1/2+z
loop_
_atom_site_type_symbol
_atom_site_label
_atom_site_fract_x
_atom_site_fract_y
_atom_site_fract_z
Si Si1 0.133832 0.028181 0.303690
Si Si2 0.364813 0.141121 0.952390
Si Si3 0.114542 0.029828 0.554413
Si Si4 0.445207 0.847067 0.824856
Si Si5 0.432608 0.466661 0.865316
Si Si6 0.183430 0.430773 0.562310
Si Si7 0.089297 0.054099 0.802236
O O1 0.165605 0.964509 0.446577
O O2 0.122204 0.241183 0.313720
O O3 0.187537 0.987085 0.195194
O O4 0.025410 0.956017 0.247738
O O5 0.352373 0.327324 0.882338
O O6 0.285797 0.096121 0.027768
O O7 0.373738 0.996302 0.851079
O O8 0.466275 0.151886 0.053278
O O9 0.136724 0.237812 0.567290
O O10 0.135177 0.965617 0.696271
O O11 0.000000 0.000000 0.500000
O O12 0.398999 0.655567 0.810671
O O13 0.496722 0.885988 0.714342
O O14 0.500000 0.500000 0.000000
O O15 0.119258 0.524063 0.440032
#
# Coordination Sequence:
#
# PCOD9240772 Si02
#       7
#     4   4   4   4   4   4   4
#     4   9  17  31  53  76 105 143 186 229 284 347
#     4  10  22  37  62  87 122 162 195 258 305 358
#     4   8  16  31  50  75 107 141 182 228 278 345
#     4  10  20  39  63  87 121 158 207 242 304 375
#     4  10  20  37  63  92 112 160 204 243 305 371
#     4  10  19  32  56  83 110 146 194 238 297 350
#     4   9  17  31  54  76 104 144 187 230 277 350
#
# _framework density 23.958846000000001
#
# number of rings (size 3 to 8) (size 9 to 14) (size 15 to 20)
#    0.000    2.571    1.429    0.429    0.000    3.429 
#    0.000    0.000   28.286    0.000    0.000    0.000 
#    0.000    0.000    0.000    0.000    0.000    0.000 
#
# Total GULP energy -156321.479031 kJ/mol
# GULP energy per Si atom -5582.909965 kJ/mol
# Density = 2.390432 g / cm^3
# Si number density = 23.958846 Si / 1000 Ang^3
#
#
#
# Elastic Constant Matrix: (Units=GPa)
#
#
# Indices 1 2 3 4 5 6 
#
# 1 68.3502 14.5150 19.8919 0.0000 -20.3142 0.0000
# 2 14.5150 63.7099 8.3087 0.0000 -9.8724 0.0000
# 3 19.8919 8.3087 181.5532 0.0000 -41.6105 0.0000
# 4 0.0000 0.0000 0.0000 17.8126 0.0000 -6.7700
# 5 -20.3142 -9.8724 -41.6105 0.0000 46.2177 0.0000
# 6 0.0000 0.0000 0.0000 -6.7700 0.0000 -19.1069
#
#
#
# Elastic Compliance Matrix: (Units=1/GPa)
#
#
# Indices 1 2 3 4 5 6 
#
# 1 0.017325 -0.002864 -0.000204 0.000000 0.006819 0.000000
# 2 -0.002864 0.016707 0.000099 0.000000 0.002399 0.000000
# 3 -0.000204 0.000099 0.006943 0.000000 0.006182 0.000000
# 4 0.000000 0.000000 0.000000 0.049477 0.000000 -0.017531
# 5 0.006819 0.002399 0.006182 0.000000 0.030712 0.000000
# 6 0.000000 0.000000 0.000000 -0.017531 0.000000 -0.046126
#
#
# Mechanical properties :
#
#
# Convention : Reuss Voigt Hill
#
# Bulk Modulus (GPa) = 28.54111 44.33829 36.43970
# Shear Modulus (GPa) = 53.96310 27.04452 40.50381
#
# Velocity S-wave (km/s) = 4.75101 3.36339 4.11610
# Velocity P-wave (km/s) = 6.48341 5.79909 6.15077
#
# Compressibility (1/GPa) = 0.03503718
#
# Stress axis : x y z
#
# Youngs Moduli (GPa) = 57.72046 59.85344 144.03518
#
# Poissons Ratio (x) = 0.17141 0.02942
# Poissons Ratio (y) = 0.16530 -0.01427
# Poissons Ratio (z) = 0.01179 -0.00593
#
# Static dielectric constant tensor:
#      x y z
#    x 1.920080 0.000000 0.018960 
#    y 0.000000 1.903230 0.000000 
#    z 0.018960 0.000000 1.996500 
# 
# From -- ./inp_files/31369.got.cif
#   From: 2010.05.17/outbox.cif.g08.bks.cpg/sg14_16_cif.got.tgz:31369.got - 2010.06.03 17:49:19.
