data_PCOD9240587
_publ_section_title
;
Structure prediction by ZEFSAII (Michael W. Deem and Ramdas Pophale) SiO2 
 PCOD9240587
Probable space group: P 21/C
;
_chemical_formula_sum "Si O2"
_cell_formula_units_Z 32
_cell_length_a 9.587465
_cell_length_b 5.644372
_cell_length_c 21.553595
_cell_angle_alpha 90.000000
_cell_angle_beta 81.734780
_cell_angle_gamma 90.000000
_cell_volume 1154.262624
_symmetry_space_group_name_H-M "P 21/C"
_symmetry_group_IT_number 14
_symmetry_cell_setting 'monoclinic'
loop_
_space_group_symop_operation_xyz
x,y,z
-x,1/2+y,1/2-z
-x,-y,-z
x,1/2-y,1/2+z
loop_
_atom_site_type_symbol
_atom_site_label
_atom_site_fract_x
_atom_site_fract_y
_atom_site_fract_z
Si Si1 0.055539 0.281733 0.855441
Si Si2 0.819500 0.718932 0.273748
Si Si3 0.373756 0.896394 0.434709
Si Si4 0.742823 0.282396 0.807494
Si Si5 0.867042 0.389727 0.471076
Si Si6 0.538084 0.723370 0.218077
Si Si7 0.379632 0.198293 0.013713
Si Si8 0.206030 0.720609 0.343606
O O1 0.044340 0.277029 0.780219
O O2 0.116146 0.544450 0.865755
O O3 0.922683 0.260515 0.909775
O O4 0.135045 0.029533 0.865790
O O5 0.799003 0.483997 0.315584
O O6 0.703919 0.713770 0.224174
O O7 0.798361 0.951667 0.316652
O O8 0.247015 0.763805 0.481441
O O9 0.534942 0.867875 0.446039
O O10 0.351413 0.779584 0.369628
O O11 0.346906 0.171704 0.450564
O O12 0.573491 0.280216 0.831976
O O13 0.766910 0.283720 0.730875
O O14 0.767510 0.601242 0.454644
O O15 0.000000 0.500000 0.500000
O O16 0.494403 0.481702 0.253887
O O17 0.500000 0.000000 0.000000
#
# Coordination Sequence:
#
# PCOD9240587 Si02
#       8
#     4   4   4   4   4   4   4   4
#     4  10  20  29  43  69  95 118 153 190 228 273
#     4   8  14  24  35  54  85 117 143 175 217 263
#     4  10  20  34  50  64  90 125 157 194 237 277
#     4   8  14  23  36  57  82 112 149 176 212 266
#     4  11  20  31  49  70  92 121 157 193 232 280
#     4   8  12  20  35  51  76 116 147 168 206 265
#     4   9  21  36  48  65  87 120 160 195 234 275
#     4  10  19  30  45  67  93 121 149 191 232 272
#
# _framework density 27.723326
#
# number of rings (size 3 to 8) (size 9 to 14) (size 15 to 20)
#    0.000    2.750    1.250    0.750    3.500    1.000 
#    0.000    0.000    0.000    0.000    0.000    0.000 
#    0.000    0.000   12.750    0.125    0.000    1.750 
#
# Total GULP energy -178431.736944 kJ/mol
# GULP energy per Si atom -5575.991779 kJ/mol
# Density = 2.766023 g / cm^3
# Si number density = 27.723326 Si / 1000 Ang^3
#
#
#
# Elastic Constant Matrix: (Units=GPa)
#
#
# Indices 1 2 3 4 5 6 
#
# 1 152.0396 58.5955 26.2900 0.0000 7.1335 0.0000
# 2 58.5955 209.6530 35.5077 0.0000 -2.8381 0.0000
# 3 26.2900 35.5077 100.5617 0.0000 -4.4320 0.0000
# 4 0.0000 0.0000 0.0000 30.8625 0.0000 -1.0878
# 5 7.1335 -2.8381 -4.4320 0.0000 29.1422 0.0000
# 6 0.0000 0.0000 0.0000 -1.0878 0.0000 51.3095
#
#
#
# Elastic Compliance Matrix: (Units=1/GPa)
#
#
# Indices 1 2 3 4 5 6 
#
# 1 0.007676 -0.001935 -0.001424 0.000000 -0.002284 0.000000
# 2 -0.001935 0.005562 -0.001423 0.000000 0.000799 0.000000
# 3 -0.001424 -0.001423 0.010901 0.000000 0.001868 0.000000
# 4 0.000000 0.000000 0.000000 0.032426 0.000000 0.000687
# 5 -0.002284 0.000799 0.001868 0.000000 0.035236 0.000000
# 6 0.000000 0.000000 0.000000 0.000687 0.000000 0.019504
#
#
# Mechanical properties :
#
#
# Convention : Reuss Voigt Hill
#
# Bulk Modulus (GPa) = 68.60848 78.11561 73.36205
# Shear Modulus (GPa) = 39.76805 45.05359 42.41082
#
# Velocity S-wave (km/s) = 3.79154 4.03564 3.91549
# Velocity P-wave (km/s) = 6.63091 7.06776 6.85282
#
# Compressibility (1/GPa) = 0.01457546
#
# Stress axis : x y z
#
# Youngs Moduli (GPa) = 130.26782 179.77661 91.73266
#
# Poissons Ratio (x) = 0.34790 0.13065
# Poissons Ratio (y) = 0.25209 0.13053
# Poissons Ratio (z) = 0.18553 0.25581
#
# Static dielectric constant tensor:
#      x y z
#    x 2.496200 0.000000 -0.052790 
#    y 0.000000 2.199660 0.000000 
#    z -0.052790 0.000000 2.312700 
# 
# From -- ./inp_files/79131.got.cif
#   From: 2010.05.17/outbox.cif.g08.bks.cpg/sg14_40_cif.got.tgz:79131.got - 2010.06.03 17:49:19.
