data_PCOD9240098
_publ_section_title
;
Structure prediction by ZEFSAII (Michael W. Deem and Ramdas Pophale) SiO2 
 PCOD9240098
Probable space group: P 21/C
;
_chemical_formula_sum "Si O2"
_cell_formula_units_Z 30
_cell_length_a 13.685278
_cell_length_b 9.439644
_cell_length_c 19.395795
_cell_angle_alpha 90.000000
_cell_angle_beta 35.440395
_cell_angle_gamma 90.000000
_cell_volume 1452.903489
_symmetry_space_group_name_H-M "P 21/C"
_symmetry_group_IT_number 14
_symmetry_cell_setting 'monoclinic'
loop_
_space_group_symop_operation_xyz
x,y,z
-x,1/2+y,1/2-z
-x,-y,-z
x,1/2-y,1/2+z
loop_
_atom_site_type_symbol
_atom_site_label
_atom_site_fract_x
_atom_site_fract_y
_atom_site_fract_z
Si Si1 0.478995 0.625456 0.104291
Si Si2 0.777050 0.059706 0.861796
Si Si3 0.000000 0.500000 0.000000
Si Si4 0.533603 0.166795 0.122750
Si Si5 0.305283 0.146302 0.657585
Si Si6 0.001241 0.701880 0.227649
Si Si7 0.675323 0.417012 0.268406
Si Si8 0.738592 0.077754 0.530541
O O1 0.334375 0.517260 0.160896
O O2 0.401777 0.761338 0.185136
O O3 0.604883 0.536596 0.080248
O O4 0.585929 0.668976 0.974812
O O5 0.906322 0.189942 0.774755
O O6 0.680894 0.033937 0.845772
O O7 0.657576 0.109984 0.991781
O O8 0.878179 0.919706 0.825752
O O9 0.136869 0.568402 0.866614
O O10 0.138680 0.523759 0.981806
O O11 0.389477 0.261497 0.169354
O O12 0.639929 0.276975 0.107164
O O13 0.442925 0.028576 0.204364
O O14 0.116770 0.198734 0.752643
O O15 0.144059 0.622403 0.101687
#
# Coordination Sequence:
#
# PCOD9240098 Si02
#       8
#     4   4   2   4   4   4   4   4
#     4  10  22  36  62  94 124 160 216 263 328 388
#     4  11  21  34  59  96 127 165 200 266 333 390
#     4  12  26  44  64  82 132 174 222 254 316 376
#     4  10  20  38  64  90 123 157 210 256 337 374
#     4  10  18  34  60  92 133 158 190 270 333 401
#     4  11  21  34  58  95 136 161 204 266 346 385
#     4  12  23  41  62  91 124 172 214 264 310 397
#     4  10  23  42  60  89 118 173 209 266 318 382
#
# _framework density 20.648308
#
# number of rings (size 3 to 8) (size 9 to 14) (size 15 to 20)
#    0.000    1.333    4.000    2.000    3.733    1.067 
#    0.000    0.000    0.000    8.000    0.000    0.000 
#    0.000    0.000    0.000    0.000    0.000    0.000 
#
# Total GULP energy -167079.416546 kJ/mol
# GULP energy per Si atom -5569.313885 kJ/mol
# Density = 2.060131 g / cm^3
# Si number density = 20.648308 Si / 1000 Ang^3
#
#
#
# Elastic Constant Matrix: (Units=GPa)
#
#
# Indices 1 2 3 4 5 6 
#
# 1 72.3985 29.8738 23.8283 0.0000 -20.8116 0.0000
# 2 29.8738 121.4619 61.4615 0.0000 -25.1241 0.0000
# 3 23.8283 61.4615 74.5431 0.0000 -19.6340 0.0000
# 4 0.0000 0.0000 0.0000 23.2595 0.0000 -26.8376
# 5 -20.8116 -25.1241 -19.6340 0.0000 28.5847 0.0000
# 6 0.0000 0.0000 0.0000 -26.8376 0.0000 15.3044
#
#
#
# Elastic Compliance Matrix: (Units=1/GPa)
#
#
# Indices 1 2 3 4 5 6 
#
# 1 0.018040 -0.001253 -0.001910 0.000000 0.010721 0.000000
# 2 -0.001253 0.014929 -0.010613 0.000000 0.004920 0.000000
# 3 -0.001910 -0.010613 0.024360 0.000000 0.006014 0.000000
# 4 0.000000 0.000000 0.000000 -0.042012 0.000000 -0.073672
# 5 0.010721 0.004920 0.006014 0.000000 0.051244 0.000000
# 6 0.000000 0.000000 0.000000 -0.073672 0.000000 -0.063850
#
#
# Mechanical properties :
#
#
# Convention : Reuss Voigt Hill
#
# Bulk Modulus (GPa) = 33.58185 55.41451 44.49818
# Shear Modulus (GPa) = 124.41473 23.64572 74.03022
#
# Velocity S-wave (km/s) = 7.77078 3.38770 5.99423
# Velocity P-wave (km/s) = 9.83933 6.49597 8.33696
#
# Compressibility (1/GPa) = 0.02977799
#
# Stress axis : x y z
#
# Youngs Moduli (GPa) = 55.43268 66.98333 41.05125
#
# Poissons Ratio (x) = 0.08393 0.07839
# Poissons Ratio (y) = 0.06946 0.43567
# Poissons Ratio (z) = 0.10585 0.71088
#
# Static dielectric constant tensor:
#      x y z
#    x 1.731890 0.000000 -0.003990 
#    y 0.000000 1.775940 0.000000 
#    z -0.003990 0.000000 1.739500 
# 
# From -- ./inp_files/68329.got.cif
#   From: 2010.05.17/outbox.cif.g08.bks.cpg/sg14_35_cif.got.tgz:68329.got - 2010.06.03 17:49:19.
