data_PCOD9240804
_publ_section_title
;
Structure prediction by ZEFSAII (Michael W. Deem and Ramdas Pophale) SiO2 
 PCOD9240804
Probable space group: P 21/C
;
_chemical_formula_sum "Si O2"
_cell_formula_units_Z 30
_cell_length_a 9.969770
_cell_length_b 5.721250
_cell_length_c 23.727021
_cell_angle_alpha 90.000000
_cell_angle_beta 57.560076
_cell_angle_gamma 90.000000
_cell_volume 1142.189694
_symmetry_space_group_name_H-M "P 21/C"
_symmetry_group_IT_number 14
_symmetry_cell_setting 'monoclinic'
loop_
_space_group_symop_operation_xyz
x,y,z
-x,1/2+y,1/2-z
-x,-y,-z
x,1/2-y,1/2+z
loop_
_atom_site_type_symbol
_atom_site_label
_atom_site_fract_x
_atom_site_fract_y
_atom_site_fract_z
Si Si1 0.807735 0.883112 0.834677
Si Si2 0.375221 0.666000 0.336434
Si Si3 0.771858 0.051501 0.025345
Si Si4 0.080453 0.343583 0.089086
Si Si5 0.000000 0.000000 0.500000
Si Si6 0.541107 0.009207 0.375758
Si Si7 0.649529 0.229051 0.450656
Si Si8 0.693309 0.388721 0.259566
O O1 0.943413 0.786624 0.846037
O O2 0.678423 0.681978 0.853829
O O3 0.727644 0.077379 0.892446
O O4 0.829581 0.984862 0.766643
O O5 0.292889 0.485511 0.398336
O O6 0.404979 0.885066 0.371299
O O7 0.549727 0.572122 0.278989
O O8 0.281297 0.741383 0.302569
O O9 0.632081 0.145501 0.014823
O O10 0.896366 0.260494 0.006690
O O11 0.848877 0.834751 0.974659
O O12 0.216080 0.533162 0.071776
O O13 0.953354 0.469936 0.078395
O O14 0.508226 0.119873 0.444854
O O15 0.615005 0.207558 0.320399
#
# Coordination Sequence:
#
# PCOD9240804 Si02
#       8
#     4   4   4   4   2   4   4   4
#     4   8  16  31  54  77 104 145 183 222 273 332
#     4  11  21  33  51  78 112 147 189 223 270 325
#     4  10  21  34  53  83 112 142 180 231 283 341
#     4   9  17  34  54  81 109 136 179 228 288 343
#     4  10  20  36  58  82 110 138 178 232 290 342
#     4   9  17  32  50  73 111 149 182 220 263 324
#     4   8  16  32  52  77 109 146 178 216 274 337
#     4  10  19  33  50  76 109 149 188 227 263 325
#
# _framework density 26.265336999999999
#
# number of rings (size 3 to 8) (size 9 to 14) (size 15 to 20)
#    0.000    2.667    1.333    0.400    0.000    2.667 
#    0.000   22.667    0.000    0.000   20.800    0.000 
#    0.000    0.000    0.000    0.000    0.000    0.000 
#
# Total GULP energy -167026.656800 kJ/mol
# GULP energy per Si atom -5567.555227 kJ/mol
# Density = 2.620556 g / cm^3
# Si number density = 26.265337 Si / 1000 Ang^3
#
#
#
# Elastic Constant Matrix: (Units=GPa)
#
#
# Indices 1 2 3 4 5 6 
#
# 1 115.3438 31.0335 50.1427 0.0000 42.7788 0.0000
# 2 31.0335 68.8968 16.0919 0.0000 1.5755 0.0000
# 3 50.1427 16.0919 130.8110 0.0000 48.1158 0.0000
# 4 0.0000 0.0000 0.0000 41.3430 0.0000 16.0790
# 5 42.7788 1.5755 48.1158 0.0000 56.1279 0.0000
# 6 0.0000 0.0000 0.0000 16.0790 0.0000 40.9876
#
#
#
# Elastic Compliance Matrix: (Units=1/GPa)
#
#
# Indices 1 2 3 4 5 6 
#
# 1 0.014444 -0.006005 -0.001184 0.000000 -0.009825 0.000000
# 2 -0.006005 0.017551 -0.001986 0.000000 0.005786 0.000000
# 3 -0.001184 -0.001986 0.011670 0.000000 -0.009046 0.000000
# 4 0.000000 0.000000 0.000000 0.028543 0.000000 -0.011197
# 5 -0.009825 0.005786 -0.009046 0.000000 0.032897 0.000000
# 6 0.000000 0.000000 0.000000 -0.011197 0.000000 0.028790
#
#
# Mechanical properties :
#
#
# Convention : Reuss Voigt Hill
#
# Bulk Modulus (GPa) = 39.50077 56.62087 48.06082
# Shear Modulus (GPa) = 31.11729 42.21061 36.66395
#
# Velocity S-wave (km/s) = 3.44572 4.01319 3.74024
# Velocity P-wave (km/s) = 5.55900 6.56341 6.08197
#
# Compressibility (1/GPa) = 0.02531596
#
# Stress axis : x y z
#
# Youngs Moduli (GPa) = 69.23257 56.97771 85.68879
#
# Poissons Ratio (x) = 0.34214 0.10146
# Poissons Ratio (y) = 0.41573 0.17014
# Poissons Ratio (z) = 0.08198 0.11313
#
# Static dielectric constant tensor:
#      x y z
#    x 2.254720 0.000000 -0.036800 
#    y 0.000000 2.210060 0.000000 
#    z -0.036800 0.000000 2.134910 
# 
# From -- ./inp_files/72742.got.cif
#   From: 2010.05.17/outbox.cif.g08.bks.cpg/sg14_37_cif.got.tgz:72742.got - 2010.06.03 17:49:19.
