data_PCOD9240902
_publ_section_title
;
Structure prediction by ZEFSAII (Michael W. Deem and Ramdas Pophale) SiO2 
 PCOD9240902
Probable space group: P 21/C
;
_chemical_formula_sum "Si O2"
_cell_formula_units_Z 24
_cell_length_a 22.313052
_cell_length_b 7.562061
_cell_length_c 16.074733
_cell_angle_alpha 90.000000
_cell_angle_beta 21.131488
_cell_angle_gamma 90.000000
_cell_volume 977.821556
_symmetry_space_group_name_H-M "P 21/C"
_symmetry_group_IT_number 14
_symmetry_cell_setting 'monoclinic'
loop_
_space_group_symop_operation_xyz
x,y,z
-x,1/2+y,1/2-z
-x,-y,-z
x,1/2-y,1/2+z
loop_
_atom_site_type_symbol
_atom_site_label
_atom_site_fract_x
_atom_site_fract_y
_atom_site_fract_z
Si Si1 0.341377 0.490179 0.309516
Si Si2 0.482485 0.845138 0.187862
Si Si3 0.934696 0.772566 0.312062
Si Si4 0.251820 0.405457 0.097878
Si Si5 0.315453 0.848410 0.658858
Si Si6 0.243940 0.567535 0.864637
O O1 0.396985 0.651974 0.294412
O O2 0.172125 0.405071 0.556252
O O3 0.325084 0.548135 0.234355
O O4 0.492393 0.348971 0.119332
O O5 0.666583 0.779984 0.975255
O O6 0.426977 0.916043 0.168589
O O7 0.388294 0.982695 0.368262
O O8 0.896930 0.873453 0.274392
O O9 0.121219 0.703427 0.074241
O O10 0.845390 0.882140 0.501632
O O11 0.216611 0.532964 0.221305
O O12 0.250344 0.653748 0.765162
#
# Coordination Sequence:
#
# PCOD9240902 Si02
#       6
#     4   4   4   4   4   4
#     4   9  18  35  56  79 110 149 182 220 271 333
#     4   9  18  33  54  79 109 143 183 217 268 329
#     4  11  22  37  59  80 109 149 187 221 272 334
#     4  10  19  33  57  84 110 145 184 232 271 315
#     4   9  18  34  55  81 112 139 180 230 275 315
#     4  10  21  36  55  80 110 148 184 223 273 333
#
# _framework density 24.544356000000001
#
# number of rings (size 3 to 8) (size 9 to 14) (size 15 to 20)
#    0.000    2.333    0.000    5.000    0.000    1.333 
#    0.000    6.667    0.000    6.000    0.000    0.000 
#    0.000    0.000    0.000    0.000    0.000    0.000 
#
# Total GULP energy -133867.212509 kJ/mol
# GULP energy per Si atom -5577.800521 kJ/mol
# Density = 2.448849 g / cm^3
# Si number density = 24.544356 Si / 1000 Ang^3
#
#
#
# Elastic Constant Matrix: (Units=GPa)
#
#
# Indices 1 2 3 4 5 6 
#
# 1 96.3599 9.7681 5.7483 0.0000 -6.7845 0.0000
# 2 9.7681 75.6330 8.6474 0.0000 4.6298 0.0000
# 3 5.7483 8.6474 45.8718 0.0000 -7.8164 0.0000
# 4 0.0000 0.0000 0.0000 44.1606 0.0000 6.4259
# 5 -6.7845 4.6298 -7.8164 0.0000 17.9826 0.0000
# 6 0.0000 0.0000 0.0000 6.4259 0.0000 20.1728
#
#
#
# Elastic Compliance Matrix: (Units=1/GPa)
#
#
# Indices 1 2 3 4 5 6 
#
# 1 0.010871 -0.001638 -0.000305 0.000000 0.004390 0.000000
# 2 -0.001638 0.014181 -0.003451 0.000000 -0.005769 0.000000
# 3 -0.000305 -0.003451 0.024430 0.000000 0.011392 0.000000
# 4 0.000000 0.000000 0.000000 0.023745 0.000000 -0.007564
# 5 0.004390 -0.005769 0.011392 0.000000 0.063703 0.000000
# 6 0.000000 0.000000 0.000000 -0.007564 0.000000 0.051981
#
#
# Mechanical properties :
#
#
# Convention : Reuss Voigt Hill
#
# Bulk Modulus (GPa) = 25.84425 29.57692 27.71059
# Shear Modulus (GPa) = 23.51858 29.37657 26.44758
#
# Velocity S-wave (km/s) = 3.09885 3.46334 3.28615
# Velocity P-wave (km/s) = 4.83284 5.29807 5.07079
#
# Compressibility (1/GPa) = 0.03869332
#
# Stress axis : x y z
#
# Youngs Moduli (GPa) = 91.98681 70.51692 40.93347
#
# Poissons Ratio (x) = 0.11550 0.01250
# Poissons Ratio (y) = 0.15066 0.14126
# Poissons Ratio (z) = 0.02810 0.24336
#
# Static dielectric constant tensor:
#      x y z
#    x 1.983930 0.000000 -0.008330 
#    y 0.000000 2.039500 0.000000 
#    z -0.008330 0.000000 1.974900 
# 
# From -- ./inp_files/57118.got.cif
#   From: 2010.05.17/outbox.cif.g08.bks.cpg/sg14_29_cif.got.tgz:57118.got - 2010.06.03 17:49:19.
