data_PCOD9240387
_publ_section_title
;
Structure prediction by ZEFSAII (Michael W. Deem and Ramdas Pophale) SiO2 
 PCOD9240387
Probable space group: P 21/C
;
_chemical_formula_sum "Si O2"
_cell_formula_units_Z 28
_cell_length_a 10.111476
_cell_length_b 12.929774
_cell_length_c 13.038331
_cell_angle_alpha 90.000000
_cell_angle_beta 119.744202
_cell_angle_gamma 90.000000
_cell_volume 1480.034351
_symmetry_space_group_name_H-M "P 21/C"
_symmetry_group_IT_number 14
_symmetry_cell_setting 'monoclinic'
loop_
_space_group_symop_operation_xyz
x,y,z
-x,1/2+y,1/2-z
-x,-y,-z
x,1/2-y,1/2+z
loop_
_atom_site_type_symbol
_atom_site_label
_atom_site_fract_x
_atom_site_fract_y
_atom_site_fract_z
Si Si1 0.245179 0.573294 0.375686
Si Si2 0.491241 0.776021 0.721044
Si Si3 0.480873 0.378235 0.989642
Si Si4 0.244958 0.783941 0.270799
Si Si5 0.544264 0.914570 0.120715
Si Si6 0.302759 0.208898 0.009745
Si Si7 0.980258 0.929996 0.094581
O O1 0.190941 0.684943 0.316238
O O2 0.353900 0.517111 0.332955
O O3 0.367827 0.576001 0.517491
O O4 0.103786 0.503866 0.355494
O O5 0.505855 0.839295 0.622245
O O6 0.321093 0.763036 0.697568
O O7 0.548288 0.659505 0.718674
O O8 0.597863 0.816537 0.852210
O O9 0.617479 0.329334 0.108485
O O10 0.330579 0.326988 0.984075
O O11 0.500000 0.500000 0.000000
O O12 0.130383 0.874977 0.196384
O O13 0.624384 0.854508 0.056950
O O14 0.135847 0.165977 0.966461
O O15 0.000000 0.000000 0.000000
#
# Coordination Sequence:
#
# PCOD9240387 Si02
#       7
#     4   4   4   4   4   4   4
#     4  10  19  39  59  84 119 153 200 255 298 352
#     4  10  18  37  63  88 119 149 204 250 297 363
#     4  10  22  38  62  91 121 157 196 262 309 353
#     4  11  23  39  58  92 121 158 205 249 304 365
#     4   9  17  35  64  88 110 149 204 250 304 346
#     4   9  20  39  56  91 115 154 207 245 292 374
#     4  11  25  39  61  87 122 170 206 243 308 375
#
# _framework density 18.918481
#
# number of rings (size 3 to 8) (size 9 to 14) (size 15 to 20)
#    0.000    2.000    4.286    0.857    2.000    3.429 
#    5.143    0.000    0.000    2.571    0.000    0.000 
#    0.000    0.000    0.000    0.000    0.000    0.000 
#
# Total GULP energy -156010.733239 kJ/mol
# GULP energy per Si atom -5571.811901 kJ/mol
# Density = 1.887542 g / cm^3
# Si number density = 18.918481 Si / 1000 Ang^3
#
#
#
# Elastic Constant Matrix: (Units=GPa)
#
#
# Indices 1 2 3 4 5 6 
#
# 1 54.5110 17.6898 25.8985 0.0000 -9.8611 0.0000
# 2 17.6898 107.5323 16.0970 0.0000 -12.1523 0.0000
# 3 25.8985 16.0970 51.8901 0.0000 -9.6178 0.0000
# 4 0.0000 0.0000 0.0000 29.7566 0.0000 7.8848
# 5 -9.8611 -12.1523 -9.6178 0.0000 18.7907 0.0000
# 6 0.0000 0.0000 0.0000 7.8848 0.0000 29.8245
#
#
#
# Elastic Compliance Matrix: (Units=1/GPa)
#
#
# Indices 1 2 3 4 5 6 
#
# 1 0.025261 -0.001793 -0.010837 0.000000 0.006550 0.000000
# 2 -0.001793 0.010374 -0.001385 0.000000 0.005059 0.000000
# 3 -0.010837 -0.001385 0.026394 0.000000 0.006926 0.000000
# 4 0.000000 0.000000 0.000000 0.036138 0.000000 -0.009554
# 5 0.006550 0.005059 0.006926 0.000000 0.063472 0.000000
# 6 0.000000 0.000000 0.000000 -0.009554 0.000000 0.036055
#
#
# Mechanical properties :
#
#
# Convention : Reuss Voigt Hill
#
# Bulk Modulus (GPa) = 29.41495 37.03379 33.22437
# Shear Modulus (GPa) = 21.09203 25.95759 23.52481
#
# Velocity S-wave (km/s) = 3.34262 3.70817 3.53013
# Velocity P-wave (km/s) = 5.52082 6.16052 5.84942
#
# Compressibility (1/GPa) = 0.03399631
#
# Stress axis : x y z
#
# Youngs Moduli (GPa) = 39.58738 96.39871 37.88742
#
# Poissons Ratio (x) = 0.17285 0.41060
# Poissons Ratio (y) = 0.07098 0.05249
# Poissons Ratio (z) = 0.42902 0.13356
#
# Static dielectric constant tensor:
#      x y z
#    x 1.674100 0.000000 -0.009550 
#    y 0.000000 1.748360 0.000000 
#    z -0.009550 0.000000 1.649090 
# 
# From -- ./inp_files/25354.got.cif
#   From: 2010.05.17/outbox.cif.g08.bks.cpg/sg14_13_cif.got.tgz:25354.got - 2010.06.03 17:49:19.
