data_PCOD9240707
_publ_section_title
;
Structure prediction by ZEFSAII (Michael W. Deem and Ramdas Pophale) SiO2 
 PCOD9240707
Probable space group: P 21/C
;
_chemical_formula_sum "Si O2"
_cell_formula_units_Z 26
_cell_length_a 7.860241
_cell_length_b 26.707975
_cell_length_c 5.357162
_cell_angle_alpha 90.000000
_cell_angle_beta 59.162157
_cell_angle_gamma 90.000000
_cell_volume 965.635822
_symmetry_space_group_name_H-M "P 21/C"
_symmetry_group_IT_number 14
_symmetry_cell_setting 'monoclinic'
loop_
_space_group_symop_operation_xyz
x,y,z
-x,1/2+y,1/2-z
-x,-y,-z
x,1/2-y,1/2+z
loop_
_atom_site_type_symbol
_atom_site_label
_atom_site_fract_x
_atom_site_fract_y
_atom_site_fract_z
Si Si1 0.095252 0.882333 0.179409
Si Si2 0.655772 0.061343 0.338474
Si Si3 0.417310 0.278852 0.514863
Si Si4 0.469133 0.391267 0.384212
Si Si5 0.894072 0.518682 0.837046
Si Si6 0.500000 0.500000 0.500000
Si Si7 0.900867 0.274421 0.167475
O O1 0.297472 0.887463 0.198067
O O2 0.027587 0.826772 0.275280
O O3 0.922542 0.922488 0.337986
O O4 0.176237 0.897817 0.844710
O O5 0.483741 0.095425 0.578626
O O6 0.693757 0.016056 0.510585
O O7 0.635952 0.028556 0.108066
O O8 0.353239 0.253059 0.821238
O O9 0.373578 0.338185 0.517852
O O10 0.659369 0.275990 0.343650
O O11 0.384968 0.443555 0.547340
O O12 0.000000 0.500000 0.500000
O O13 0.000000 0.500000 0.000000
O O14 0.957654 0.234407 0.337993
#
# Coordination Sequence:
#
# PCOD9240707 Si02
#       7
#     4   4   4   4   4   2   4
#     4   9  19  30  49  73 102 134 167 207 258 304
#     4  10  20  33  50  73 106 140 172 212 261 315
#     4   9  19  30  47  72 100 132 167 206 260 315
#     4  10  19  32  52  71 108 136 170 217 260 318
#     4  10  19  33  51  74 101 134 172 204 249 306
#     4  10  22  34  48  78 102 146 178 216 268 316
#     4   9  18  27  43  69 101 130 162 199 251 309
#
# _framework density 26.925262
#
# number of rings (size 3 to 8) (size 9 to 14) (size 15 to 20)
#    0.000    2.462    1.538    0.462   12.923    0.000 
#    0.000    0.000    0.000    0.000    0.000    2.154 
#    0.000    0.000    0.000    0.000    0.000    0.000 
#
# Total GULP energy -144757.229080 kJ/mol
# GULP energy per Si atom -5567.585734 kJ/mol
# Density = 2.686398 g / cm^3
# Si number density = 26.925262 Si / 1000 Ang^3
#
#
#
# Elastic Constant Matrix: (Units=GPa)
#
#
# Indices 1 2 3 4 5 6 
#
# 1 62.7761 10.2016 21.9784 0.0000 -5.3357 0.0000
# 2 10.2016 243.6740 76.6862 0.0000 9.1214 0.0000
# 3 21.9784 76.6862 114.5394 0.0000 2.1755 0.0000
# 4 0.0000 0.0000 0.0000 37.0966 0.0000 2.1030
# 5 -5.3357 9.1214 2.1755 0.0000 43.4355 0.0000
# 6 0.0000 0.0000 0.0000 2.1030 0.0000 31.0875
#
#
#
# Elastic Compliance Matrix: (Units=1/GPa)
#
#
# Indices 1 2 3 4 5 6 
#
# 1 0.017321 0.000317 -0.003579 0.000000 0.002240 0.000000
# 2 0.000317 0.005242 -0.003554 0.000000 -0.000884 0.000000
# 3 -0.003579 -0.003554 0.011802 0.000000 -0.000284 0.000000
# 4 0.000000 0.000000 0.000000 0.027060 0.000000 -0.001831
# 5 0.002240 -0.000884 -0.000284 0.000000 0.023498 0.000000
# 6 0.000000 0.000000 0.000000 -0.001831 0.000000 0.032291
#
#
# Mechanical properties :
#
#
# Convention : Reuss Voigt Hill
#
# Bulk Modulus (GPa) = 48.22736 70.96910 59.59823
# Shear Modulus (GPa) = 36.29589 43.13215 39.71402
#
# Velocity S-wave (km/s) = 3.67553 4.00674 3.84470
# Velocity P-wave (km/s) = 5.99693 6.91523 6.47238
#
# Compressibility (1/GPa) = 0.02073512
#
# Stress axis : x y z
#
# Youngs Moduli (GPa) = 57.73197 190.76566 84.73149
#
# Poissons Ratio (x) = -0.06051 0.30322
# Poissons Ratio (y) = -0.01831 0.30111
# Poissons Ratio (z) = 0.20660 0.67793
#
# Static dielectric constant tensor:
#      x y z
#    x 2.360330 0.000000 0.064060 
#    y 0.000000 2.060610 0.000000 
#    z 0.064060 0.000000 2.083410 
# 
# From -- ./inp_files/2786.got.cif
#   From: 2010.05.17/outbox.cif.g08.bks.cpg/sg14_2_cif.got.tgz:2786.got - 2010.06.03 17:49:19.
