data_PCOD9240413
_publ_section_title
;
Structure prediction by ZEFSAII (Michael W. Deem and Ramdas Pophale) SiO2 
 PCOD9240413
Probable space group: P 21/C
;
_chemical_formula_sum "Si O2"
_cell_formula_units_Z 32
_cell_length_a 7.091233
_cell_length_b 11.399312
_cell_length_c 27.220252
_cell_angle_alpha 90.000000
_cell_angle_beta 139.725040
_cell_angle_gamma 90.000000
_cell_volume 1422.432880
_symmetry_space_group_name_H-M "P 21/C"
_symmetry_group_IT_number 14
_symmetry_cell_setting 'monoclinic'
loop_
_space_group_symop_operation_xyz
x,y,z
-x,1/2+y,1/2-z
-x,-y,-z
x,1/2-y,1/2+z
loop_
_atom_site_type_symbol
_atom_site_label
_atom_site_fract_x
_atom_site_fract_y
_atom_site_fract_z
Si Si1 0.358034 0.419630 0.581548
Si Si2 0.293586 0.855311 0.214156
Si Si3 0.040540 0.695244 0.082560
Si Si4 0.891313 0.760344 0.315006
Si Si5 0.476214 0.691105 0.479671
Si Si6 0.705948 0.336193 0.449090
Si Si7 0.869762 0.289562 0.736358
Si Si8 0.202134 0.520888 0.195489
O O1 0.402875 0.412565 0.531185
O O2 0.424369 0.554458 0.607704
O O3 0.575230 0.327137 0.649175
O O4 0.028606 0.383873 0.527584
O O5 0.105225 0.806581 0.131875
O O6 0.141536 0.833043 0.236033
O O7 0.565454 0.762128 0.270814
O O8 0.457010 0.977840 0.237013
O O9 0.224809 0.724394 0.070752
O O10 0.132373 0.579811 0.129544
O O11 0.692785 0.703780 0.005907
O O12 0.140415 0.702196 0.396644
O O13 0.895744 0.714185 0.260365
O O14 0.963413 0.898899 0.328996
O O15 0.475468 0.685795 0.538131
O O16 0.900895 0.388796 0.783704
#
# Coordination Sequence:
#
# PCOD9240413 Si02
#       8
#     4   4   4   4   4   4   4   4
#     4   9  19  33  57  84 113 147 190 238 284 334
#     4   9  20  39  56  80 117 147 192 235 287 343
#     4  10  21  37  56  86 118 145 193 245 277 342
#     4   9  21  39  59  83 115 149 191 230 291 349
#     4  10  20  36  58  85 118 151 191 240 282 346
#     4  10  19  34  56  84 117 151 186 233 291 330
#     4  10  18  38  59  79 111 146 185 244 279 339
#     4   9  21  40  55  85 117 146 196 235 283 353
#
# _framework density 22.496668
#
# number of rings (size 3 to 8) (size 9 to 14) (size 15 to 20)
#    0.750    1.750    0.000    1.875    0.000    2.500 
#    6.750    3.125    0.000    0.000    0.000    0.000 
#    0.000    0.000    0.000    0.000    0.000    0.000 
#
# Total GULP energy -178388.405150 kJ/mol
# GULP energy per Si atom -5574.637661 kJ/mol
# Density = 2.244546 g / cm^3
# Si number density = 22.496668 Si / 1000 Ang^3
#
#
#
# Elastic Constant Matrix: (Units=GPa)
#
#
# Indices 1 2 3 4 5 6 
#
# 1 106.2690 13.5817 14.9182 0.0000 -20.8854 0.0000
# 2 13.5817 38.7852 -13.3143 0.0000 -9.0304 0.0000
# 3 14.9182 -13.3143 42.1017 0.0000 5.1337 0.0000
# 4 0.0000 0.0000 0.0000 24.2376 0.0000 -4.0276
# 5 -20.8854 -9.0304 5.1337 0.0000 36.3476 0.0000
# 6 0.0000 0.0000 0.0000 -4.0276 0.0000 25.2331
#
#
#
# Elastic Compliance Matrix: (Units=1/GPa)
#
#
# Indices 1 2 3 4 5 6 
#
# 1 0.012352 -0.005081 -0.006812 0.000000 0.006797 0.000000
# 2 -0.005081 0.032358 0.011609 0.000000 0.003480 0.000000
# 3 -0.006812 0.011609 0.030488 0.000000 -0.005336 0.000000
# 4 0.000000 0.000000 0.000000 0.042382 0.000000 0.006765
# 5 0.006797 0.003480 -0.005336 0.000000 0.033036 0.000000
# 6 0.000000 0.000000 0.000000 0.006765 0.000000 0.040710
#
#
# Mechanical properties :
#
#
# Convention : Reuss Voigt Hill
#
# Bulk Modulus (GPa) = 13.39977 24.16968 18.78473
# Shear Modulus (GPa) = 23.06581 28.62835 25.84708
#
# Velocity S-wave (km/s) = 3.20550 3.57117 3.39326
# Velocity P-wave (km/s) = 4.43504 5.26985 4.87036
#
# Compressibility (1/GPa) = 0.07462813
#
# Stress axis : x y z
#
# Youngs Moduli (GPa) = 80.96065 30.90448 32.79992
#
# Poissons Ratio (x) = 0.15704 0.22345
# Poissons Ratio (y) = 0.41139 -0.38078
# Poissons Ratio (z) = 0.55154 -0.35877
#
# Static dielectric constant tensor:
#      x y z
#    x 1.819160 0.000000 -0.011790 
#    y 0.000000 1.868560 0.000000 
#    z -0.011790 0.000000 1.872030 
# 
# From -- ./inp_files/75839.got.cif
#   From: 2010.05.17/outbox.cif.g08.bks.cpg/sg14_38_cif.got.tgz:75839.got - 2010.06.03 17:49:19.
