data_PCOD9240127
_publ_section_title
;
Structure prediction by ZEFSAII (Michael W. Deem and Ramdas Pophale) SiO2 
 PCOD9240127
Probable space group: P 21/C
;
_chemical_formula_sum "Si O2"
_cell_formula_units_Z 28
_cell_length_a 11.864777
_cell_length_b 9.528991
_cell_length_c 17.943728
_cell_angle_alpha 90.000000
_cell_angle_beta 37.791800
_cell_angle_gamma 90.000000
_cell_volume 1243.178962
_symmetry_space_group_name_H-M "P 21/C"
_symmetry_group_IT_number 14
_symmetry_cell_setting 'monoclinic'
loop_
_space_group_symop_operation_xyz
x,y,z
-x,1/2+y,1/2-z
-x,-y,-z
x,1/2-y,1/2+z
loop_
_atom_site_type_symbol
_atom_site_label
_atom_site_fract_x
_atom_site_fract_y
_atom_site_fract_z
Si Si1 0.950793 0.347934 0.788827
Si Si2 0.293896 0.680175 0.470921
Si Si3 0.417922 0.112007 0.442206
Si Si4 0.612267 0.687333 0.869320
Si Si5 0.002056 0.100078 0.647011
Si Si6 0.931200 0.525227 0.658868
Si Si7 0.746746 0.224873 0.177980
O O1 0.066196 0.456941 0.778172
O O2 0.870791 0.449452 0.767088
O O3 0.012925 0.218987 0.705811
O O4 0.801912 0.283426 0.920596
O O5 0.501458 0.681166 0.392872
O O6 0.288171 0.739600 0.390737
O O7 0.150399 0.549581 0.545610
O O8 0.399443 0.180183 0.534635
O O9 0.215836 0.090696 0.512883
O O10 0.554916 0.205874 0.321534
O O11 0.512211 0.958663 0.397451
O O12 0.815369 0.668893 0.726463
O O13 0.869221 0.155409 0.652331
O O14 0.862498 0.419906 0.631356
#
# Coordination Sequence:
#
# PCOD9240127 Si02
#       7
#     4   4   4   4   4   4   4
#     4  11  20  37  68  91 119 162 217 260 305 363
#     4  12  21  37  63  94 122 159 213 254 318 376
#     4  10  19  39  61  89 116 164 209 251 308 369
#     4  10  18  34  67  86 109 162 218 252 289 384
#     4  11  21  41  65  92 125 163 215 264 307 370
#     4  10  21  40  64  93 122 167 215 258 311 372
#     4  10  25  37  60  90 133 168 199 254 329 381
#
# _framework density 22.522904
#
# number of rings (size 3 to 8) (size 9 to 14) (size 15 to 20)
#    0.000    1.429    4.286    3.000    0.000    1.714 
#    0.000    2.143    9.429    0.000    0.000    0.000 
#    0.000    0.000    0.000    0.000    0.000    0.000 
#
# Total GULP energy -156169.642301 kJ/mol
# GULP energy per Si atom -5577.487225 kJ/mol
# Density = 2.247164 g / cm^3
# Si number density = 22.522904 Si / 1000 Ang^3
#
#
#
# Elastic Constant Matrix: (Units=GPa)
#
#
# Indices 1 2 3 4 5 6 
#
# 1 62.5135 -2.8754 2.7638 0.0000 11.5830 0.0000
# 2 -2.8754 45.2245 -18.4060 0.0000 -5.4450 0.0000
# 3 2.7638 -18.4060 -12.5616 0.0000 6.5867 0.0000
# 4 0.0000 0.0000 0.0000 18.9654 0.0000 -6.2069
# 5 11.5830 -5.4450 6.5867 0.0000 28.4220 0.0000
# 6 0.0000 0.0000 0.0000 -6.2069 0.0000 35.0213
#
#
#
# Elastic Compliance Matrix: (Units=1/GPa)
#
#
# Indices 1 2 3 4 5 6 
#
# 1 0.017306 0.000200 -0.000146 0.000000 -0.006980 0.000000
# 2 0.000200 0.015376 -0.018711 0.000000 0.007200 0.000000
# 3 -0.000146 -0.018711 -0.048213 0.000000 0.007648 0.000000
# 4 0.000000 0.000000 0.000000 0.055974 0.000000 0.009920
# 5 -0.006980 0.007200 0.007648 0.000000 0.037636 0.000000
# 6 0.000000 0.000000 0.000000 0.009920 0.000000 0.030312
#
#
# Mechanical properties :
#
#
# Convention : Reuss Voigt Hill
#
# Bulk Modulus (GPa) = -18.92337 6.46014 -6.23162
# Shear Modulus (GPa) = 39.03519 24.06134 31.54826
#
# Velocity S-wave (km/s) = 4.16761 3.27204 3.74668
# Velocity P-wave (km/s) = 3.83908 4.14119 3.99299
#
# Compressibility (1/GPa) = -0.05284470
#
# Stress axis : x y z
#
# Youngs Moduli (GPa) = 57.78475 65.03479 -20.74119
#
# Poissons Ratio (x) = -0.01303 -0.00303
# Poissons Ratio (y) = -0.01158 -0.38809
# Poissons Ratio (z) = 0.00845 1.21686
#
# Static dielectric constant tensor:
#      x y z
#    x 1.893530 0.000000 -0.091710 
#    y 0.000000 1.890720 0.000000 
#    z -0.091710 0.000000 1.895400 
# 
# From -- ./inp_files/57527.got.cif
#   From: 2010.05.17/outbox.cif.g08.bks.cpg/sg14_29_cif.got.tgz:57527.got - 2010.06.03 17:49:19.
