data_PCOD9240678
_publ_section_title
;
Structure prediction by ZEFSAII (Michael W. Deem and Ramdas Pophale) SiO2 
 PCOD9240678
Probable space group: P 21/C
;
_chemical_formula_sum "Si O2"
_cell_formula_units_Z 20
_cell_length_a 8.398384
_cell_length_b 13.190923
_cell_length_c 13.007283
_cell_angle_alpha 90.000000
_cell_angle_beta 147.231356
_cell_angle_gamma 90.000000
_cell_volume 779.926901
_symmetry_space_group_name_H-M "P 21/C"
_symmetry_group_IT_number 14
_symmetry_cell_setting 'monoclinic'
loop_
_space_group_symop_operation_xyz
x,y,z
-x,1/2+y,1/2-z
-x,-y,-z
x,1/2-y,1/2+z
loop_
_atom_site_type_symbol
_atom_site_label
_atom_site_fract_x
_atom_site_fract_y
_atom_site_fract_z
Si Si1 0.433063 0.949592 0.306533
Si Si2 0.810106 0.544684 0.538614
Si Si3 0.830884 0.819049 0.392137
Si Si4 0.426186 0.859222 0.989137
Si Si5 0.408530 0.663058 0.096387
O O1 0.678921 0.867783 0.409066
O O2 0.135092 0.912800 0.197413
O O3 0.564851 0.050219 0.429611
O O4 0.315116 0.997574 0.134541
O O5 0.809198 0.446449 0.614596
O O6 0.585319 0.622936 0.468471
O O7 0.686816 0.876057 0.215268
O O8 0.716900 0.705571 0.308732
O O9 0.172982 0.829416 0.560128
O O10 0.320380 0.747616 0.963746
#
# Coordination Sequence:
#
# PCOD9240678 Si02
#       5
#     4   4   4   4   4
#     4  10  19  31  62  83 117 140 189 237 284 324
#     4   9  17  35  56  85 106 154 184 228 279 343
#     4   9  20  34  57  82 112 150 189 229 283 331
#     4   8  18  33  58  74 114 146 193 215 280 344
#     4  10  19  35  58  80 115 149 183 230 281 330
#
# _framework density 25.643428
#
# number of rings (size 3 to 8) (size 9 to 14) (size 15 to 20)
#    1.200    1.600    0.000    1.800    2.800    0.000 
#    0.000    3.000    4.400    0.000    0.000    0.000 
#    0.000    0.000    0.000    0.000    0.000    0.000 
#
# Total GULP energy -111693.105636 kJ/mol
# GULP energy per Si atom -5584.655282 kJ/mol
# Density = 2.558506 g / cm^3
# Si number density = 25.643428 Si / 1000 Ang^3
#
#
#
# Elastic Constant Matrix: (Units=GPa)
#
#
# Indices 1 2 3 4 5 6 
#
# 1 124.5990 49.1954 42.5631 0.0000 33.9325 0.0000
# 2 49.1954 103.2454 4.7482 0.0000 6.4246 0.0000
# 3 42.5631 4.7482 63.1252 0.0000 14.9181 0.0000
# 4 0.0000 0.0000 0.0000 25.7498 0.0000 5.1975
# 5 33.9325 6.4246 14.9181 0.0000 42.7065 0.0000
# 6 0.0000 0.0000 0.0000 5.1975 0.0000 44.1984
#
#
#
# Elastic Compliance Matrix: (Units=1/GPa)
#
#
# Indices 1 2 3 4 5 6 
#
# 1 0.015759 -0.006596 -0.008071 0.000000 -0.008710 0.000000
# 2 -0.006596 0.012548 0.002955 0.000000 0.002321 0.000000
# 3 -0.008071 0.002955 0.021419 0.000000 -0.001514 0.000000
# 4 0.000000 0.000000 0.000000 0.039779 0.000000 -0.004678
# 5 -0.008710 0.002321 -0.001514 0.000000 0.030515 0.000000
# 6 0.000000 0.000000 0.000000 -0.004678 0.000000 0.023175
#
#
# Mechanical properties :
#
#
# Convention : Reuss Voigt Hill
#
# Bulk Modulus (GPa) = 38.01978 53.77590 45.89784
# Shear Modulus (GPa) = 28.50810 35.49512 32.00161
#
# Velocity S-wave (km/s) = 3.33785 3.72449 3.53646
# Velocity P-wave (km/s) = 5.45101 6.28585 5.88326
#
# Compressibility (1/GPa) = 0.02630210
#
# Stress axis : x y z
#
# Youngs Moduli (GPa) = 63.45517 79.69248 46.68709
#
# Poissons Ratio (x) = 0.52565 0.37683
# Poissons Ratio (y) = 0.41855 -0.13796
# Poissons Ratio (z) = 0.51217 -0.23550
#
# Static dielectric constant tensor:
#      x y z
#    x 2.043850 0.000000 -0.068160 
#    y 0.000000 2.062090 0.000000 
#    z -0.068160 0.000000 2.007410 
# 
# From -- ./inp_files/29465.got.cif
#   From: 2010.05.17/outbox.cif.g08.bks.cpg/sg14_15_cif.got.tgz:29465.got - 2010.06.03 17:49:19.
