data_PCOD9240572
_publ_section_title
;
Structure prediction by ZEFSAII (Michael W. Deem and Ramdas Pophale) SiO2 
 PCOD9240572
Probable space group: P 21/C
;
_chemical_formula_sum "Si O2"
_cell_formula_units_Z 28
_cell_length_a 27.456194
_cell_length_b 7.169587
_cell_length_c 20.672381
_cell_angle_alpha 90.000000
_cell_angle_beta 165.050450
_cell_angle_gamma 90.000000
_cell_volume 1049.763658
_symmetry_space_group_name_H-M "P 21/C"
_symmetry_group_IT_number 14
_symmetry_cell_setting 'monoclinic'
loop_
_space_group_symop_operation_xyz
x,y,z
-x,1/2+y,1/2-z
-x,-y,-z
x,1/2-y,1/2+z
loop_
_atom_site_type_symbol
_atom_site_label
_atom_site_fract_x
_atom_site_fract_y
_atom_site_fract_z
Si Si1 0.195546 0.629559 0.167150
Si Si2 0.573018 0.734041 0.807759
Si Si3 0.237683 0.849069 0.581366
Si Si4 0.778332 0.359588 0.077417
Si Si5 0.865160 0.656122 0.283009
Si Si6 0.622800 0.732890 0.234951
Si Si7 0.332959 0.290273 0.847642
O O1 0.132136 0.691886 0.013161
O O2 0.404901 0.708239 0.446004
O O3 0.221673 0.407492 0.205104
O O4 0.046281 0.717101 0.023792
O O5 0.627232 0.520349 0.862473
O O6 0.625349 0.849214 0.810515
O O7 0.357840 0.732838 0.554645
O O8 0.712945 0.774392 0.046329
O O9 0.147193 0.792969 0.396313
O O10 0.262598 0.073243 0.617671
O O11 0.447640 0.759318 0.856011
O O12 0.907382 0.476338 0.291906
O O13 0.754064 0.598081 0.204605
O O14 0.679105 0.630479 0.240864
#
# Coordination Sequence:
#
# PCOD9240572 Si02
#       7
#     4   4   4   4   4   4   4
#     4   9  17  28  51  78 101 130 172 225 257 301
#     4   9  18  32  54  75 104 140 180 209 258 312
#     4   8  13  29  51  71  94 133 173 205 249 308
#     4   9  17  31  54  73 105 138 177 211 253 314
#     4  10  19  28  52  77 109 124 176 224 259 293
#     4   8  16  29  52  71  98 137 175 206 257 311
#     4   9  15  29  50  77  98 133 173 210 252 312
#
# _framework density 26.67267
#
# number of rings (size 3 to 8) (size 9 to 14) (size 15 to 20)
#    0.857    2.286    1.429    2.143    0.000    0.000 
#    0.000    1.429   12.571    0.000    0.000    0.000 
#    0.000    0.000    0.000    0.000    0.000    0.000 
#
# Total GULP energy -156345.105664 kJ/mol
# GULP energy per Si atom -5583.753774 kJ/mol
# Density = 2.661196 g / cm^3
# Si number density = 26.672670 Si / 1000 Ang^3
#
#
#
# Elastic Constant Matrix: (Units=GPa)
#
#
# Indices 1 2 3 4 5 6 
#
# 1 172.3389 19.0385 25.7009 0.0000 -21.9455 0.0000
# 2 19.0385 62.5873 18.9350 0.0000 -0.2297 0.0000
# 3 25.7009 18.9350 64.2852 0.0000 -4.3708 0.0000
# 4 0.0000 0.0000 0.0000 24.7976 0.0000 1.7896
# 5 -21.9455 -0.2297 -4.3708 0.0000 30.3925 0.0000
# 6 0.0000 0.0000 0.0000 1.7896 0.0000 16.0123
#
#
#
# Elastic Compliance Matrix: (Units=1/GPa)
#
#
# Indices 1 2 3 4 5 6 
#
# 1 0.006854 -0.001465 -0.001992 0.000000 0.004651 0.000000
# 2 -0.001465 0.017865 -0.004786 0.000000 -0.001611 0.000000
# 3 -0.001992 -0.004786 0.017836 0.000000 0.001090 0.000000
# 4 0.000000 0.000000 0.000000 0.040654 0.000000 -0.004544
# 5 0.004651 -0.001611 0.001090 0.000000 0.036406 0.000000
# 6 0.000000 0.000000 0.000000 -0.004544 0.000000 0.062960
#
#
# Mechanical properties :
#
#
# Convention : Reuss Voigt Hill
#
# Bulk Modulus (GPa) = 38.36059 47.39557 42.87808
# Shear Modulus (GPa) = 24.06718 29.94294 27.00506
#
# Velocity S-wave (km/s) = 3.00712 3.35417 3.18537
# Velocity P-wave (km/s) = 5.14492 5.72787 5.44420
#
# Compressibility (1/GPa) = 0.02606842
#
# Stress axis : x y z
#
# Youngs Moduli (GPa) = 145.90495 55.97420 56.06629
#
# Poissons Ratio (x) = 0.08200 0.11170
# Poissons Ratio (y) = 0.21376 0.26833
# Poissons Ratio (z) = 0.29069 0.26789
#
# Static dielectric constant tensor:
#      x y z
#    x 2.220110 0.000000 -0.061470 
#    y 0.000000 2.102620 0.000000 
#    z -0.061470 0.000000 2.043790 
# 
# From -- ./inp_files/61950.got.cif
#   From: 2010.05.17/outbox.cif.g08.bks.cpg/sg14_31_cif.got.tgz:61950.got - 2010.06.03 17:49:19.
