data_PCOD9240465
_publ_section_title
;
Structure prediction by ZEFSAII (Michael W. Deem and Ramdas Pophale) SiO2 
 PCOD9240465
Probable space group: P 21/C
;
_chemical_formula_sum "Si O2"
_cell_formula_units_Z 32
_cell_length_a 8.364073
_cell_length_b 9.156457
_cell_length_c 23.286758
_cell_angle_alpha 90.000000
_cell_angle_beta 125.665873
_cell_angle_gamma 90.000000
_cell_volume 1448.907859
_symmetry_space_group_name_H-M "P 21/C"
_symmetry_group_IT_number 14
_symmetry_cell_setting 'monoclinic'
loop_
_space_group_symop_operation_xyz
x,y,z
-x,1/2+y,1/2-z
-x,-y,-z
x,1/2-y,1/2+z
loop_
_atom_site_type_symbol
_atom_site_label
_atom_site_fract_x
_atom_site_fract_y
_atom_site_fract_z
Si Si1 0.893457 0.907910 0.894649
Si Si2 0.079651 0.748687 0.085948
Si Si3 0.319222 0.583647 0.912377
Si Si4 0.711093 0.249970 0.475007
Si Si5 0.967598 0.314071 0.698705
Si Si6 0.127835 0.284892 0.856709
Si Si7 0.370888 0.476887 0.395423
Si Si8 0.652703 0.768472 0.942998
O O1 0.721243 0.827620 0.894973
O O2 0.908371 0.872220 0.830059
O O3 0.868580 0.079656 0.900877
O O4 0.104255 0.852223 0.964842
O O5 0.212542 0.671688 0.066355
O O6 0.070198 0.689400 0.148279
O O7 0.856717 0.735531 0.016512
O O8 0.136271 0.666004 0.844174
O O9 0.510466 0.630699 0.916906
O O10 0.328836 0.647848 0.978861
O O11 0.725269 0.585570 0.098164
O O12 0.530994 0.351241 0.416574
O O13 0.785322 0.425754 0.673555
O O14 0.089617 0.286246 0.781214
O O15 0.211610 0.126984 0.893119
O O16 0.518358 0.606117 0.446530
#
# Coordination Sequence:
#
# PCOD9240465 Si02
#       8
#     4   4   4   4   4   4   4   4
#     4  10  18  38  66  94 115 151 208 270 288 360
#     4  11  20  36  67  92 120 153 201 264 307 370
#     4  10  24  38  59  93 129 156 200 260 312 369
#     4  10  20  37  63  98 115 148 207 259 319 349
#     4  10  23  41  63  83 116 170 217 247 289 372
#     4  12  25  40  56  89 129 172 201 242 314 374
#     4  11  20  37  66  86 116 154 211 255 289 365
#     4  10  20  38  64  94 119 149 205 259 316 353
#
# _framework density 22.085598000000001
#
# number of rings (size 3 to 8) (size 9 to 14) (size 15 to 20)
#    0.000    1.500    3.750    2.250    0.000    4.500 
#    0.000    6.250    0.000    0.000    0.000    0.000 
#    0.000    0.000    0.000    0.000    0.000    0.000 
#
# Total GULP energy -178406.286305 kJ/mol
# GULP energy per Si atom -5575.196447 kJ/mol
# Density = 2.203533 g / cm^3
# Si number density = 22.085598 Si / 1000 Ang^3
#
#
#
# Elastic Constant Matrix: (Units=GPa)
#
#
# Indices 1 2 3 4 5 6 
#
# 1 110.3855 22.3018 53.5344 0.0000 -24.6432 0.0000
# 2 22.3018 75.9938 16.7273 0.0000 2.9908 0.0000
# 3 53.5344 16.7273 73.1725 0.0000 -27.3756 0.0000
# 4 0.0000 0.0000 0.0000 14.4245 0.0000 4.7441
# 5 -24.6432 2.9908 -27.3756 0.0000 31.7841 0.0000
# 6 0.0000 0.0000 0.0000 4.7441 0.0000 31.4980
#
#
#
# Elastic Compliance Matrix: (Units=1/GPa)
#
#
# Indices 1 2 3 4 5 6 
#
# 1 0.014684 -0.002593 -0.008557 0.000000 0.004259 0.000000
# 2 -0.002593 0.015121 -0.004196 0.000000 -0.007048 0.000000
# 3 -0.008557 -0.004196 0.027371 0.000000 0.017336 0.000000
# 4 0.000000 0.000000 0.000000 0.072940 0.000000 -0.010986
# 5 0.004259 -0.007048 0.017336 0.000000 0.050359 0.000000
# 6 0.000000 0.000000 0.000000 -0.010986 0.000000 0.033403
#
#
# Mechanical properties :
#
#
# Convention : Reuss Voigt Hill
#
# Bulk Modulus (GPa) = 37.75855 49.40875 43.58365
# Shear Modulus (GPa) = 19.73186 26.67387 23.20286
#
# Velocity S-wave (km/s) = 2.99227 3.47904 3.24479
# Velocity P-wave (km/s) = 5.39183 6.20954 5.81507
#
# Compressibility (1/GPa) = 0.02648407
#
# Stress axis : x y z
#
# Youngs Moduli (GPa) = 68.10287 66.13316 36.53448
#
# Poissons Ratio (x) = 0.17151 0.31261
# Poissons Ratio (y) = 0.17662 0.15330
# Poissons Ratio (z) = 0.58273 0.27749
#
# Static dielectric constant tensor:
#      x y z
#    x 1.866740 0.000000 -0.006750 
#    y 0.000000 1.830570 0.000000 
#    z -0.006750 0.000000 1.812590 
# 
# From -- ./inp_files/72281.got.cif
#   From: 2010.05.17/outbox.cif.g08.bks.cpg/sg14_37_cif.got.tgz:72281.got - 2010.06.03 17:49:19.
