data_PCOD9240266
_publ_section_title
;
Structure prediction by ZEFSAII (Michael W. Deem and Ramdas Pophale) SiO2 
 PCOD9240266
Probable space group: P 21/C
;
_chemical_formula_sum "Si O2"
_cell_formula_units_Z 28
_cell_length_a 13.689502
_cell_length_b 9.991348
_cell_length_c 13.334798
_cell_angle_alpha 90.000000
_cell_angle_beta 139.815486
_cell_angle_gamma 90.000000
_cell_volume 1176.865993
_symmetry_space_group_name_H-M "P 21/C"
_symmetry_group_IT_number 14
_symmetry_cell_setting 'monoclinic'
loop_
_space_group_symop_operation_xyz
x,y,z
-x,1/2+y,1/2-z
-x,-y,-z
x,1/2-y,1/2+z
loop_
_atom_site_type_symbol
_atom_site_label
_atom_site_fract_x
_atom_site_fract_y
_atom_site_fract_z
Si Si1 0.611889 0.190967 0.078006
Si Si2 0.901285 0.104760 0.361792
Si Si3 0.816888 0.052292 0.700642
Si Si4 0.313873 0.925829 0.078316
Si Si5 0.546100 0.900939 0.444059
Si Si6 0.992848 0.678274 0.416149
Si Si7 0.110426 0.401519 0.313128
O O1 0.718137 0.099707 0.232767
O O2 0.717018 0.322583 0.153390
O O3 0.466586 0.251145 0.019467
O O4 0.607814 0.134935 0.961693
O O5 0.970973 0.244119 0.453282
O O6 0.909446 0.047397 0.256480
O O7 0.000000 0.000000 0.500000
O O8 0.712367 0.955994 0.549709
O O9 0.887664 0.952945 0.839135
O O10 0.957199 0.111506 0.752863
O O11 0.432606 0.919196 0.262244
O O12 0.158069 0.853437 0.995724
O O13 0.253183 0.072670 0.996963
O O14 0.500000 0.000000 0.500000
O O15 0.898635 0.783590 0.274070
#
# Coordination Sequence:
#
# PCOD9240266 Si02
#       7
#     4   4   4   4   4   4   4
#     4  10  19  37  61  86 117 162 196 242 306 362
#     4   9  18  33  61  86 114 155 199 246 300 358
#     4  10  21  36  55  89 120 149 205 247 292 368
#     4  10  19  37  63  81 117 163 194 244 302 349
#     4  10  22  41  55  85 123 160 200 238 295 370
#     4  10  18  36  58  86 119 152 198 257 299 348
#     4   9  19  36  58  88 116 149 205 250 294 355
#
# _framework density 23.792003999999999
#
# number of rings (size 3 to 8) (size 9 to 14) (size 15 to 20)
#    0.000    2.286    2.857    0.000    0.000    0.571 
#   10.286    0.000    0.000    2.571    0.000    0.000 
#    0.000    0.000    0.000    0.000    0.000    0.000 
#
# Total GULP energy -156003.569635 kJ/mol
# GULP energy per Si atom -5571.556058 kJ/mol
# Density = 2.373785 g / cm^3
# Si number density = 23.792004 Si / 1000 Ang^3
#
#
#
# Elastic Constant Matrix: (Units=GPa)
#
#
# Indices 1 2 3 4 5 6 
#
# 1 40.6488 12.9835 23.6838 0.0000 -0.8053 0.0000
# 2 12.9835 55.8332 23.1101 0.0000 -2.3604 0.0000
# 3 23.6838 23.1101 161.6349 0.0000 -13.6056 0.0000
# 4 0.0000 0.0000 0.0000 41.8018 0.0000 -5.9879
# 5 -0.8053 -2.3604 -13.6056 0.0000 22.3622 0.0000
# 6 0.0000 0.0000 0.0000 -5.9879 0.0000 27.4908
#
#
#
# Elastic Compliance Matrix: (Units=1/GPa)
#
#
# Indices 1 2 3 4 5 6 
#
# 1 0.028289 -0.005182 -0.003546 0.000000 -0.001686 0.000000
# 2 -0.005182 0.019989 -0.002041 0.000000 0.000681 0.000000
# 3 -0.003546 -0.002041 0.007346 0.000000 0.004126 0.000000
# 4 0.000000 0.000000 0.000000 0.024693 0.000000 0.005378
# 5 -0.001686 0.000681 0.004126 0.000000 0.047240 0.000000
# 6 0.000000 0.000000 0.000000 0.005378 0.000000 0.037547
#
#
# Mechanical properties :
#
#
# Convention : Reuss Voigt Hill
#
# Bulk Modulus (GPa) = 29.33837 41.96352 35.65095
# Shear Modulus (GPa) = 25.25206 31.55361 28.40283
#
# Velocity S-wave (km/s) = 3.26140 3.64569 3.45889
# Velocity P-wave (km/s) = 5.15172 5.94957 5.56496
#
# Compressibility (1/GPa) = 0.03408505
#
# Stress axis : x y z
#
# Youngs Moduli (GPa) = 35.34974 50.02694 136.13676
#
# Poissons Ratio (x) = 0.25923 0.48275
# Poissons Ratio (y) = 0.18317 0.27791
# Poissons Ratio (z) = 0.12535 0.10212
#
# Static dielectric constant tensor:
#      x y z
#    x 2.017720 0.000000 0.044380 
#    y 0.000000 1.998510 0.000000 
#    z 0.044380 0.000000 2.016790 
# 
# From -- ./inp_files/39775.got.cif
#   From: 2010.05.17/outbox.cif.g08.bks.cpg/sg14_20_cif.got.tgz:39775.got - 2010.06.03 17:49:19.
