data_PCOD9240011
_publ_section_title
;
Structure prediction by ZEFSAII (Michael W. Deem and Ramdas Pophale) SiO2 
 PCOD9240011
Probable space group: P 21/C
;
_chemical_formula_sum "Si O2"
_cell_formula_units_Z 28
_cell_length_a 6.208719
_cell_length_b 24.672845
_cell_length_c 7.877624
_cell_angle_alpha 90.000000
_cell_angle_beta 62.360099
_cell_angle_gamma 90.000000
_cell_volume 1069.034533
_symmetry_space_group_name_H-M "P 21/C"
_symmetry_group_IT_number 14
_symmetry_cell_setting 'monoclinic'
loop_
_space_group_symop_operation_xyz
x,y,z
-x,1/2+y,1/2-z
-x,-y,-z
x,1/2-y,1/2+z
loop_
_atom_site_type_symbol
_atom_site_label
_atom_site_fract_x
_atom_site_fract_y
_atom_site_fract_z
Si Si1 0.397853 0.472122 0.765625
Si Si2 0.300490 0.831244 0.308057
Si Si3 0.025211 0.417429 0.717763
Si Si4 0.638239 0.823987 0.755855
Si Si5 0.527412 0.231148 0.482456
Si Si6 0.209805 0.604238 0.528892
Si Si7 0.510287 0.920845 0.421614
O O1 0.152961 0.471038 0.745736
O O2 0.594477 0.443904 0.569382
O O3 0.501915 0.527142 0.802485
O O4 0.347777 0.436305 0.956931
O O5 0.252103 0.799507 0.502274
O O6 0.525168 0.868812 0.292430
O O7 0.366692 0.778787 0.173074
O O8 0.158804 0.873416 0.236822
O O9 0.184854 0.367571 0.728668
O O10 0.999311 0.412649 0.524922
O O11 0.761156 0.415407 0.898557
O O12 0.653790 0.765134 0.833175
O O13 0.635165 0.811913 0.559297
O O14 0.363893 0.846193 0.889604
#
# Coordination Sequence:
#
# PCOD9240011 Si02
#       7
#     4   4   4   4   4   4   4
#     4   9  19  36  58  82 110 145 181 219 267 328
#     4  10  19  35  56  79 107 141 181 224 272 321
#     4  10  18  34  54  79 111 141 177 220 264 325
#     4   9  18  35  55  76 104 141 181 226 272 320
#     4   9  18  35  57  76 103 141 182 229 275 316
#     4   9  19  34  55  79 108 143 177 219 268 319
#     4  10  20  35  58  84 110 145 181 219 274 328
#
# _framework density 26.191856999999999
#
# number of rings (size 3 to 8) (size 9 to 14) (size 15 to 20)
#    0.000    2.571    0.000    3.000    0.000    0.571 
#    0.000   22.143    0.000    0.000    0.000    0.000 
#    0.000    0.000    0.000    0.000    0.000    0.000 
#
# Total GULP energy -156089.842594 kJ/mol
# GULP energy per Si atom -5574.637236 kJ/mol
# Density = 2.613224 g / cm^3
# Si number density = 26.191857 Si / 1000 Ang^3
#
#
#
# Elastic Constant Matrix: (Units=GPa)
#
#
# Indices 1 2 3 4 5 6 
#
# 1 70.3612 -8.8511 30.9624 0.0000 19.8318 0.0000
# 2 -8.8511 94.5144 28.4305 0.0000 8.2461 0.0000
# 3 30.9624 28.4305 66.3301 0.0000 23.9614 0.0000
# 4 0.0000 0.0000 0.0000 55.4948 0.0000 15.8438
# 5 19.8318 8.2461 23.9614 0.0000 43.4008 0.0000
# 6 0.0000 0.0000 0.0000 15.8438 0.0000 32.1826
#
#
#
# Elastic Compliance Matrix: (Units=1/GPa)
#
#
# Indices 1 2 3 4 5 6 
#
# 1 0.020802 0.005470 -0.010300 0.000000 -0.004858 0.000000
# 2 0.005470 0.013602 -0.008178 0.000000 -0.000569 0.000000
# 3 -0.010300 -0.008178 0.026391 0.000000 -0.008310 0.000000
# 4 0.000000 0.000000 0.000000 0.020967 0.000000 -0.010322
# 5 -0.004858 -0.000569 -0.008310 0.000000 0.029957 0.000000
# 6 0.000000 0.000000 0.000000 -0.010322 0.000000 0.036154
#
#
# Mechanical properties :
#
#
# Convention : Reuss Voigt Hill
#
# Bulk Modulus (GPa) = 28.75195 36.92102 32.83648
# Shear Modulus (GPa) = 26.95655 38.25992 32.60823
#
# Velocity S-wave (km/s) = 3.21159 3.82613 3.53225
# Velocity P-wave (km/s) = 4.97531 5.80052 5.40369
#
# Compressibility (1/GPa) = 0.03478025
#
# Stress axis : x y z
#
# Youngs Moduli (GPa) = 48.07141 73.51659 37.89107
#
# Poissons Ratio (x) = -0.40216 0.39028
# Poissons Ratio (y) = -0.26296 0.30988
# Poissons Ratio (z) = 0.49514 0.60124
#
# Static dielectric constant tensor:
#      x y z
#    x 2.108790 0.000000 0.005210 
#    y 0.000000 2.134050 0.000000 
#    z 0.005210 0.000000 2.215520 
# 
# From -- ./inp_files/6509.got.cif
#   From: 2010.05.17/outbox.cif.g08.bks.cpg/sg14_4_cif.got.tgz:6509.got - 2010.06.03 17:49:19.
