data_PCOD9240329
_publ_section_title
;
Structure prediction by ZEFSAII (Michael W. Deem and Ramdas Pophale) SiO2 
 PCOD9240329
Probable space group: P 21/C
;
_chemical_formula_sum "Si O2"
_cell_formula_units_Z 32
_cell_length_a 14.524586
_cell_length_b 12.475985
_cell_length_c 12.753788
_cell_angle_alpha 90.000000
_cell_angle_beta 38.220654
_cell_angle_gamma 90.000000
_cell_volume 1429.855165
_symmetry_space_group_name_H-M "P 21/C"
_symmetry_group_IT_number 14
_symmetry_cell_setting 'monoclinic'
loop_
_space_group_symop_operation_xyz
x,y,z
-x,1/2+y,1/2-z
-x,-y,-z
x,1/2-y,1/2+z
loop_
_atom_site_type_symbol
_atom_site_label
_atom_site_fract_x
_atom_site_fract_y
_atom_site_fract_z
Si Si1 0.340077 0.548869 0.122558
Si Si2 0.617452 0.848155 0.895483
Si Si3 0.065513 0.882020 0.966245
Si Si4 0.647381 0.128672 0.726453
Si Si5 0.822508 0.927734 0.542927
Si Si6 0.617846 0.241325 0.055570
Si Si7 0.197106 0.162434 0.657054
Si Si8 0.120677 0.677093 0.796859
O O1 0.242033 0.591426 0.308569
O O2 0.360822 0.649766 0.029412
O O3 0.251032 0.453244 0.148062
O O4 0.500000 0.500000 0.000000
O O5 0.751158 0.910000 0.720950
O O6 0.696088 0.749502 0.884820
O O7 0.503967 0.904625 0.077709
O O8 0.516912 0.815016 0.884733
O O9 0.045897 0.793132 0.890473
O O10 0.971910 0.831918 0.146284
O O11 0.000000 0.000000 0.000000
O O12 0.600118 0.222771 0.690243
O O13 0.765587 0.164136 0.708155
O O14 0.738246 0.036138 0.585194
O O15 0.793496 0.840556 0.476996
O O16 0.999058 0.915770 0.398138
O O17 0.771918 0.178967 0.899293
#
# Coordination Sequence:
#
# PCOD9240329 Si02
#       8
#     4   4   4   4   4   4   4   4
#     4  10  18  36  65  92 125 159 203 264 327 369
#     4  11  23  41  63  91 127 166 215 269 319 377
#     4   9  20  38  61  92 128 156 200 268 322 359
#     4  11  24  43  63  87 131 170 211 263 321 385
#     4  12  24  41  64  91 127 172 216 257 323 386
#     4  10  21  40  63  91 120 163 210 262 322 378
#     4  11  21  38  63  93 125 168 208 266 318 385
#     4  10  23  40  63  89 124 163 208 261 314 386
#
# _framework density 22.379888000000001
#
# number of rings (size 3 to 8) (size 9 to 14) (size 15 to 20)
#    0.000    1.500    3.750    1.500    1.750    0.000 
#    0.000    0.000    2.750    0.000    0.000    0.000 
#    0.000    0.000    0.000    0.000    0.000    0.000 
#
# Total GULP energy -178415.397265 kJ/mol
# GULP energy per Si atom -5575.481165 kJ/mol
# Density = 2.232895 g / cm^3
# Si number density = 22.379888 Si / 1000 Ang^3
#
#
#
# Elastic Constant Matrix: (Units=GPa)
#
#
# Indices 1 2 3 4 5 6 
#
# 1 74.2729 6.9128 48.7987 0.0000 -7.3912 0.0000
# 2 6.9128 51.0260 13.9030 0.0000 -8.3686 0.0000
# 3 48.7987 13.9030 146.8946 0.0000 -19.3385 0.0000
# 4 0.0000 0.0000 0.0000 32.6029 0.0000 -0.8472
# 5 -7.3912 -8.3686 -19.3385 0.0000 32.9893 0.0000
# 6 0.0000 0.0000 0.0000 -0.8472 0.0000 29.5181
#
#
#
# Elastic Compliance Matrix: (Units=1/GPa)
#
#
# Indices 1 2 3 4 5 6 
#
# 1 0.017259 -0.000745 -0.005612 0.000000 0.000388 0.000000
# 2 -0.000745 0.020734 -0.001132 0.000000 0.004429 0.000000
# 3 -0.005612 -0.001132 0.009293 0.000000 0.003903 0.000000
# 4 0.000000 0.000000 0.000000 0.030695 0.000000 0.000881
# 5 0.000388 0.004429 0.003903 0.000000 0.033811 0.000000
# 6 0.000000 0.000000 0.000000 0.000881 0.000000 0.033903
#
#
# Mechanical properties :
#
#
# Convention : Reuss Voigt Hill
#
# Bulk Modulus (GPa) = 30.95249 45.71359 38.33304
# Shear Modulus (GPa) = 29.16445 32.52731 30.84588
#
# Velocity S-wave (km/s) = 3.61384 3.81651 3.71655
# Velocity P-wave (km/s) = 5.59228 6.31597 5.96511
#
# Compressibility (1/GPa) = 0.03230758
#
# Stress axis : x y z
#
# Youngs Moduli (GPa) = 57.94100 48.23088 107.61020
#
# Poissons Ratio (x) = 0.03595 0.60389
# Poissons Ratio (y) = 0.04319 0.12177
# Poissons Ratio (z) = 0.32515 0.05458
#
# Static dielectric constant tensor:
#      x y z
#    x 1.838200 0.000000 -0.021130 
#    y 0.000000 1.886100 0.000000 
#    z -0.021130 0.000000 1.898560 
# 
# From -- ./inp_files/32754.got.cif
#   From: 2010.05.17/outbox.cif.g08.bks.cpg/sg14_17_cif.got.tgz:32754.got - 2010.06.03 17:49:19.
