data_PCOD9240288
_publ_section_title
;
Structure prediction by ZEFSAII (Michael W. Deem and Ramdas Pophale) SiO2 
 PCOD9240288
Probable space group: P 21/C
;
_chemical_formula_sum "Si O2"
_cell_formula_units_Z 32
_cell_length_a 9.307514
_cell_length_b 16.939631
_cell_length_c 11.568537
_cell_angle_alpha 90.000000
_cell_angle_beta 49.951750
_cell_angle_gamma 90.000000
_cell_volume 1396.249096
_symmetry_space_group_name_H-M "P 21/C"
_symmetry_group_IT_number 14
_symmetry_cell_setting 'monoclinic'
loop_
_space_group_symop_operation_xyz
x,y,z
-x,1/2+y,1/2-z
-x,-y,-z
x,1/2-y,1/2+z
loop_
_atom_site_type_symbol
_atom_site_label
_atom_site_fract_x
_atom_site_fract_y
_atom_site_fract_z
Si Si1 0.171846 0.089202 0.564141
Si Si2 0.573397 0.326937 0.512468
Si Si3 0.461321 0.619750 0.720673
Si Si4 0.049107 0.770131 0.722941
Si Si5 0.726085 0.428005 0.869728
Si Si6 0.941607 0.190695 0.541573
Si Si7 0.636388 0.834450 0.341045
Si Si8 0.480410 0.941997 0.752502
O O1 0.185509 0.144231 0.672057
O O2 0.356112 0.107961 0.393845
O O3 0.007199 0.106407 0.560455
O O4 0.195790 0.001242 0.598749
O O5 0.508368 0.367727 0.429071
O O6 0.776343 0.289195 0.386472
O O7 0.433925 0.253956 0.605166
O O8 0.586298 0.390208 0.606814
O O9 0.284541 0.676305 0.849562
O O10 0.638125 0.646630 0.705672
O O11 0.437271 0.526641 0.754517
O O12 0.128675 0.857792 0.703959
O O13 0.990657 0.745617 0.886005
O O14 0.978185 0.782699 0.624587
O O15 0.674703 0.453336 0.766510
O O16 0.532910 0.393000 0.025487
#
# Coordination Sequence:
#
# PCOD9240288 Si02
#       8
#     4   4   4   4   4   4   4   4
#     4  11  22  36  58  87 117 152 192 242 296 344
#     4  10  22  33  62  88 117 155 190 253 289 343
#     4  11  20  38  59  87 118 149 202 240 289 353
#     4  10  21  40  61  87 114 156 205 235 296 354
#     4  10  18  36  61  83 109 152 200 243 279 346
#     4  11  23  39  61  85 120 156 194 248 289 360
#     4  10  19  37  56  87 111 148 201 241 282 337
#     4  11  20  36  58  90 121 148 197 242 300 339
#
# _framework density 22.918544000000001
#
# number of rings (size 3 to 8) (size 9 to 14) (size 15 to 20)
#    0.000    1.500    5.000    1.875    5.250    3.000 
#    0.000    0.000    0.000    6.750    0.000    0.000 
#    0.000    0.000    0.000    0.000    0.000    0.000 
#
# Total GULP energy -178541.126909 kJ/mol
# GULP energy per Si atom -5579.410216 kJ/mol
# Density = 2.286638 g / cm^3
# Si number density = 22.918544 Si / 1000 Ang^3
#
#
#
# Elastic Constant Matrix: (Units=GPa)
#
#
# Indices 1 2 3 4 5 6 
#
# 1 96.6255 31.6900 40.8217 0.0000 45.0989 0.0000
# 2 31.6900 77.9433 54.0194 0.0000 38.0336 0.0000
# 3 40.8217 54.0194 87.3637 0.0000 41.8746 0.0000
# 4 0.0000 0.0000 0.0000 29.4204 0.0000 23.2667
# 5 45.0989 38.0336 41.8746 0.0000 43.3156 0.0000
# 6 0.0000 0.0000 0.0000 23.2667 0.0000 17.0324
#
#
#
# Elastic Compliance Matrix: (Units=1/GPa)
#
#
# Indices 1 2 3 4 5 6 
#
# 1 0.020720 0.003736 -0.000147 0.000000 -0.024710 0.000000
# 2 0.003736 0.026852 -0.009659 0.000000 -0.018129 0.000000
# 3 -0.000147 -0.009659 0.024876 0.000000 -0.015413 0.000000
# 4 0.000000 0.000000 0.000000 -0.423304 0.000000 0.578243
# 5 -0.024710 -0.018129 -0.015413 0.000000 0.079633 0.000000
# 6 0.000000 0.000000 0.000000 0.578243 0.000000 -0.731180
#
#
# Mechanical properties :
#
#
# Convention : Reuss Voigt Hill
#
# Bulk Modulus (GPa) = 16.58236 57.22163 36.90200
# Shear Modulus (GPa) = -5.15378 26.98044 10.91333
#
# Velocity S-wave (km/s) = -1.50121 3.43480 2.18452
# Velocity P-wave (km/s) = 2.06064 6.38374 4.74333
#
# Compressibility (1/GPa) = 0.06030504
#
# Stress axis : x y z
#
# Youngs Moduli (GPa) = 48.26360 37.24151 40.19995
#
# Poissons Ratio (x) = -0.13913 0.00593
# Poissons Ratio (y) = -0.18030 0.38830
# Poissons Ratio (z) = 0.00712 0.35973
#
# Static dielectric constant tensor:
#      x y z
#    x 1.934710 0.000000 0.002050 
#    y 0.000000 1.923820 0.000000 
#    z 0.002050 0.000000 1.890470 
# 
# From -- ./inp_files/25470.got.cif
#   From: 2010.05.17/outbox.cif.g08.bks.cpg/sg14_13_cif.got.tgz:25470.got - 2010.06.03 17:49:19.
