data_PCOD9240053
_publ_section_title
;
Structure prediction by ZEFSAII (Michael W. Deem and Ramdas Pophale) SiO2 
 PCOD9240053
Probable space group: P 21/C
;
_chemical_formula_sum "Si O2"
_cell_formula_units_Z 28
_cell_length_a 14.302192
_cell_length_b 8.590308
_cell_length_c 11.661648
_cell_angle_alpha 90.000000
_cell_angle_beta 114.490369
_cell_angle_gamma 90.000000
_cell_volume 1303.849419
_symmetry_space_group_name_H-M "P 21/C"
_symmetry_group_IT_number 14
_symmetry_cell_setting 'monoclinic'
loop_
_space_group_symop_operation_xyz
x,y,z
-x,1/2+y,1/2-z
-x,-y,-z
x,1/2-y,1/2+z
loop_
_atom_site_type_symbol
_atom_site_label
_atom_site_fract_x
_atom_site_fract_y
_atom_site_fract_z
Si Si1 0.095877 0.175060 0.678395
Si Si2 0.075842 0.713887 0.559306
Si Si3 0.553355 0.313491 0.396292
Si Si4 0.486201 0.847569 0.858302
Si Si5 0.216381 0.758608 0.952385
Si Si6 0.076489 0.501958 0.781146
Si Si7 0.251681 0.939108 0.736698
O O1 0.093204 0.322767 0.761147
O O2 0.033782 0.219775 0.531986
O O3 0.025225 0.039831 0.698028
O O4 0.209070 0.113339 0.713352
O O5 0.127748 0.642998 0.472461
O O6 0.069221 0.595373 0.658173
O O7 0.167006 0.841602 0.621124
O O8 0.514231 0.277298 0.509379
O O9 0.496862 0.255509 0.249264
O O10 0.558648 0.501388 0.396179
O O11 0.668765 0.248443 0.441557
O O12 0.372304 0.920490 0.781807
O O13 0.169211 0.591932 0.891610
O O14 0.234626 0.859602 0.849377
#
# Coordination Sequence:
#
# PCOD9240053 Si02
#       7
#     4   4   4   4   4   4   4
#     4  11  21  35  54  82 120 156 205 249 303 373
#     4  10  18  34  58  80 114 161 195 247 304 364
#     4  10  21  43  68  95 128 165 212 265 325 384
#     4  10  22  42  69  96 131 167 210 267 322 385
#     4   9  19  37  59  83 115 158 203 248 313 367
#     4  10  21  35  54  83 115 161 203 251 305 369
#     4  10  20  36  56  85 119 157 202 252 306 370
#
# _framework density 21.474874
#
# number of rings (size 3 to 8) (size 9 to 14) (size 15 to 20)
#    0.000    2.000    1.429    3.429    0.000    1.714 
#    2.571    4.286    0.000    0.000    0.000    0.000 
#    0.000    0.000    0.000    0.000    0.000    0.000 
#
# Total GULP energy -155914.510575 kJ/mol
# GULP energy per Si atom -5568.375378 kJ/mol
# Density = 2.142600 g / cm^3
# Si number density = 21.474874 Si / 1000 Ang^3
#
#
#
# Elastic Constant Matrix: (Units=GPa)
#
#
# Indices 1 2 3 4 5 6 
#
# 1 41.4635 16.6451 0.5301 0.0000 -2.9493 0.0000
# 2 16.6451 46.4463 12.1331 0.0000 -4.2017 0.0000
# 3 0.5301 12.1331 79.5272 0.0000 -5.7602 0.0000
# 4 0.0000 0.0000 0.0000 56.7506 0.0000 6.4402
# 5 -2.9493 -4.2017 -5.7602 0.0000 20.0962 0.0000
# 6 0.0000 0.0000 0.0000 6.4402 0.0000 27.6537
#
#
#
# Elastic Compliance Matrix: (Units=1/GPa)
#
#
# Indices 1 2 3 4 5 6 
#
# 1 0.028439 -0.010381 0.001572 0.000000 0.002454 0.000000
# 2 -0.010381 0.026499 -0.003761 0.000000 0.002939 0.000000
# 3 0.001572 -0.003761 0.013375 0.000000 0.003278 0.000000
# 4 0.000000 0.000000 0.000000 0.018099 0.000000 -0.004215
# 5 0.002454 0.002939 0.003278 0.000000 0.051675 0.000000
# 6 0.000000 0.000000 0.000000 -0.004215 0.000000 0.037143
#
#
# Mechanical properties :
#
#
# Convention : Reuss Voigt Hill
#
# Bulk Modulus (GPa) = 23.16198 25.11707 24.13953
# Shear Modulus (GPa) = 23.28176 30.10867 26.69522
#
# Velocity S-wave (km/s) = 3.29620 3.74845 3.52957
# Velocity P-wave (km/s) = 5.02947 5.51869 5.27975
#
# Compressibility (1/GPa) = 0.04317420
#
# Stress axis : x y z
#
# Youngs Moduli (GPa) = 35.16267 37.73782 74.76621
#
# Poissons Ratio (x) = 0.39174 -0.11752
# Poissons Ratio (y) = 0.36501 0.28118
# Poissons Ratio (z) = -0.05527 0.14192
#
# Static dielectric constant tensor:
#      x y z
#    x 1.849440 0.000000 -0.122130 
#    y 0.000000 1.810670 0.000000 
#    z -0.122130 0.000000 2.111110 
# 
# From -- ./inp_files/31600.got.cif
#   From: 2010.05.17/outbox.cif.g08.bks.cpg/sg14_16_cif.got.tgz:31600.got - 2010.06.03 17:49:19.
