data_PCOD9240344
_publ_section_title
;
Structure prediction by ZEFSAII (Michael W. Deem and Ramdas Pophale) SiO2 
 PCOD9240344
Probable space group: P 21/C
;
_chemical_formula_sum "Si O2"
_cell_formula_units_Z 28
_cell_length_a 9.242368
_cell_length_b 8.735181
_cell_length_c 16.945336
_cell_angle_alpha 90.000000
_cell_angle_beta 114.875876
_cell_angle_gamma 90.000000
_cell_volume 1241.133631
_symmetry_space_group_name_H-M "P 21/C"
_symmetry_group_IT_number 14
_symmetry_cell_setting 'monoclinic'
loop_
_space_group_symop_operation_xyz
x,y,z
-x,1/2+y,1/2-z
-x,-y,-z
x,1/2-y,1/2+z
loop_
_atom_site_type_symbol
_atom_site_label
_atom_site_fract_x
_atom_site_fract_y
_atom_site_fract_z
Si Si1 0.589223 0.540913 0.619989
Si Si2 0.890239 0.858820 0.111017
Si Si3 0.291264 0.337513 0.191403
Si Si4 0.148800 0.641768 0.116823
Si Si5 0.772722 0.419743 0.453718
Si Si6 0.817617 0.975093 0.782582
Si Si7 0.616583 0.265215 0.190982
O O1 0.714285 0.647185 0.604264
O O2 0.605450 0.583332 0.715977
O O3 0.407423 0.566626 0.556966
O O4 0.640026 0.362044 0.629096
O O5 0.979313 0.701446 0.111010
O O6 0.875526 0.968679 0.031560
O O7 0.009813 0.952884 0.196069
O O8 0.180186 0.461488 0.122584
O O9 0.193691 0.206136 0.214481
O O10 0.428199 0.271535 0.165650
O O11 0.281831 0.701631 0.210687
O O12 0.176865 0.742224 0.044474
O O13 0.781662 0.480442 0.365869
O O14 0.688005 0.063892 0.699501
#
# Coordination Sequence:
#
# PCOD9240344 Si02
#       7
#     4   4   4   4   4   4   4
#     4  11  20  33  59  82 107 140 180 239 280 324
#     4  10  22  36  50  81 114 147 184 221 284 333
#     4  11  18  33  60  84 106 135 191 232 280 326
#     4   9  19  34  57  80 107 142 182 231 270 331
#     4  10  18  37  56  75 107 153 191 219 265 341
#     4  10  19  34  59  80 108 145 178 233 274 327
#     4   9  17  33  55  82 104 134 186 228 273 325
#
# _framework density 22.560019
#
# number of rings (size 3 to 8) (size 9 to 14) (size 15 to 20)
#    0.000    2.286    4.286    3.000    0.000    3.429 
#    0.000    2.857    0.000    0.857    0.000    0.000 
#    0.000    0.000    0.000    0.000    0.000    0.000 
#
# Total GULP energy -156121.820209 kJ/mol
# GULP energy per Si atom -5575.779293 kJ/mol
# Density = 2.250867 g / cm^3
# Si number density = 22.560019 Si / 1000 Ang^3
#
#
#
# Elastic Constant Matrix: (Units=GPa)
#
#
# Indices 1 2 3 4 5 6 
#
# 1 111.1245 11.3013 -0.1121 0.0000 24.1581 0.0000
# 2 11.3013 87.6345 1.9617 0.0000 10.4828 0.0000
# 3 -0.1121 1.9617 30.4822 0.0000 -1.2318 0.0000
# 4 0.0000 0.0000 0.0000 17.7832 0.0000 -1.3488
# 5 24.1581 10.4828 -1.2318 0.0000 20.1044 0.0000
# 6 0.0000 0.0000 0.0000 -1.3488 0.0000 13.9499
#
#
#
# Elastic Compliance Matrix: (Units=1/GPa)
#
#
# Indices 1 2 3 4 5 6 
#
# 1 0.012194 0.000210 -0.000567 0.000000 -0.014797 0.000000
# 2 0.000210 0.012207 -0.001055 0.000000 -0.006682 0.000000
# 3 -0.000567 -0.001055 0.033003 0.000000 0.003253 0.000000
# 4 0.000000 0.000000 0.000000 0.056648 0.000000 0.005477
# 5 -0.014797 -0.006682 0.003253 0.000000 0.071204 0.000000
# 6 0.000000 0.000000 0.000000 0.005477 0.000000 0.072214
#
#
# Mechanical properties :
#
#
# Convention : Reuss Voigt Hill
#
# Bulk Modulus (GPa) = 18.32132 28.39367 23.35749
# Shear Modulus (GPa) = 17.95417 24.77352 21.36385
#
# Velocity S-wave (km/s) = 2.82412 3.31738 3.08064
# Velocity P-wave (km/s) = 4.33278 5.22365 4.79893
#
# Compressibility (1/GPa) = 0.05458123
#
# Stress axis : x y z
#
# Youngs Moduli (GPa) = 82.00948 81.92126 30.30006
#
# Poissons Ratio (x) = -0.01722 0.01717
# Poissons Ratio (y) = -0.01723 0.03196
# Poissons Ratio (z) = 0.04647 0.08641
#
# Static dielectric constant tensor:
#      x y z
#    x 1.847100 0.000000 -0.022790 
#    y 0.000000 1.963760 0.000000 
#    z -0.022790 0.000000 1.850010 
# 
# From -- ./inp_files/64606.got.cif
#   From: 2010.05.17/outbox.cif.g08.bks.cpg/sg14_33_cif.got.tgz:64606.got - 2010.06.03 17:49:19.
