data_PCOD9240549
_publ_section_title
;
Structure prediction by ZEFSAII (Michael W. Deem and Ramdas Pophale) SiO2 
 PCOD9240549
Probable space group: P 21/C
;
_chemical_formula_sum "Si O2"
_cell_formula_units_Z 32
_cell_length_a 11.961838
_cell_length_b 13.577284
_cell_length_c 18.797024
_cell_angle_alpha 90.000000
_cell_angle_beta 148.533586
_cell_angle_gamma 90.000000
_cell_volume 1593.563267
_symmetry_space_group_name_H-M "P 21/C"
_symmetry_group_IT_number 14
_symmetry_cell_setting 'monoclinic'
loop_
_space_group_symop_operation_xyz
x,y,z
-x,1/2+y,1/2-z
-x,-y,-z
x,1/2-y,1/2+z
loop_
_atom_site_type_symbol
_atom_site_label
_atom_site_fract_x
_atom_site_fract_y
_atom_site_fract_z
Si Si1 0.114097 0.337724 0.571335
Si Si2 0.258873 0.963679 0.454659
Si Si3 0.245056 0.717283 0.187390
Si Si4 0.328478 0.899795 0.333177
Si Si5 0.596273 0.397909 0.480493
Si Si6 0.440447 0.788654 0.639584
Si Si7 0.215369 0.542580 0.273978
Si Si8 0.098645 0.000448 0.956217
O O1 0.304970 0.306200 0.725429
O O2 0.200417 0.415044 0.560015
O O3 0.993392 0.250052 0.466358
O O4 0.938709 0.402022 0.518468
O O5 0.277755 0.905042 0.389769
O O6 0.313872 0.885024 0.545370
O O7 0.444685 0.046381 0.554564
O O8 0.027956 0.012859 0.340586
O O9 0.319515 0.795378 0.288121
O O10 0.385057 0.729231 0.192118
O O11 0.237883 0.608359 0.215727
O O12 0.136499 0.962814 0.193526
O O13 0.610909 0.300023 0.441800
O O14 0.360117 0.444472 0.349929
O O15 0.681956 0.391736 0.606927
O O16 0.753359 0.477427 0.529424
#
# Coordination Sequence:
#
# PCOD9240549 Si02
#       8
#     4   4   4   4   4   4   4   4
#     4  10  22  38  63  96 124 166 215 264 310 383
#     4  11  24  43  68  96 131 164 222 270 320 376
#     4  11  25  42  64  97 131 168 215 256 329 386
#     4  10  22  44  69  95 124 171 218 268 311 385
#     4  11  24  44  66  89 131 171 213 262 325 384
#     4  12  25  40  65  98 128 171 214 264 324 386
#     4  11  26  45  64  97 132 171 209 273 328 374
#     4  10  18  42  67  87 124 169 218 261 312 377
#
# _framework density 20.080784999999999
#
# number of rings (size 3 to 8) (size 9 to 14) (size 15 to 20)
#    0.000    1.250    3.750    1.500    3.500    1.500 
#    0.000    2.500    0.000    0.000    0.000    0.000 
#    0.000    0.000    0.000    0.000    0.000    0.000 
#
# Total GULP energy -178723.196130 kJ/mol
# GULP energy per Si atom -5585.099879 kJ/mol
# Density = 2.003508 g / cm^3
# Si number density = 20.080785 Si / 1000 Ang^3
#
#
#
# Elastic Constant Matrix: (Units=GPa)
#
#
# Indices 1 2 3 4 5 6 
#
# 1 66.8991 21.2099 11.1366 0.0000 1.7664 0.0000
# 2 21.2099 57.9140 37.4473 0.0000 2.9931 0.0000
# 3 11.1366 37.4473 89.5613 0.0000 9.5515 0.0000
# 4 0.0000 0.0000 0.0000 13.8155 0.0000 -7.6675
# 5 1.7664 2.9931 9.5515 0.0000 35.1460 0.0000
# 6 0.0000 0.0000 0.0000 -7.6675 0.0000 20.6249
#
#
#
# Elastic Compliance Matrix: (Units=1/GPa)
#
#
# Indices 1 2 3 4 5 6 
#
# 1 0.016949 -0.006651 0.000725 0.000000 -0.000482 0.000000
# 2 -0.006651 0.026291 -0.010260 0.000000 0.000884 0.000000
# 3 0.000725 -0.010260 0.015732 0.000000 -0.003438 0.000000
# 4 0.000000 0.000000 0.000000 0.091199 0.000000 0.033904
# 5 -0.000482 0.000884 -0.003438 0.000000 0.029336 0.000000
# 6 0.000000 0.000000 0.000000 0.033904 0.000000 0.061089
#
#
# Mechanical properties :
#
#
# Convention : Reuss Voigt Hill
#
# Bulk Modulus (GPa) = 37.59457 39.32911 38.46184
# Shear Modulus (GPa) = 17.74089 23.55600 20.64845
#
# Velocity S-wave (km/s) = 2.97556 3.42871 3.21014
# Velocity P-wave (km/s) = 5.52879 5.94161 5.73892
#
# Compressibility (1/GPa) = 0.02659958
#
# Stress axis : x y z
#
# Youngs Moduli (GPa) = 59.00207 38.03545 63.56461
#
# Poissons Ratio (x) = 0.25297 -0.04607
# Poissons Ratio (y) = 0.39241 0.65218
# Poissons Ratio (z) = -0.04276 0.39025
#
# Static dielectric constant tensor:
#      x y z
#    x 1.719860 0.000000 -0.020990 
#    y 0.000000 1.705360 0.000000 
#    z -0.020990 0.000000 1.712730 
# 
# From -- ./inp_files/57940.got.cif
#   From: 2010.05.17/outbox.cif.g08.bks.cpg/sg14_29_cif.got.tgz:57940.got - 2010.06.03 17:49:19.
