data_PCOD9240162
_publ_section_title
;
Structure prediction by ZEFSAII (Michael W. Deem and Ramdas Pophale) SiO2 
 PCOD9240162
Probable space group: P 21/C
;
_chemical_formula_sum "Si O2"
_cell_formula_units_Z 32
_cell_length_a 9.971161
_cell_length_b 19.342076
_cell_length_c 19.918171
_cell_angle_alpha 90.000000
_cell_angle_beta 151.032579
_cell_angle_gamma 90.000000
_cell_volume 1860.474411
_symmetry_space_group_name_H-M "P 21/C"
_symmetry_group_IT_number 14
_symmetry_cell_setting 'monoclinic'
loop_
_space_group_symop_operation_xyz
x,y,z
-x,1/2+y,1/2-z
-x,-y,-z
x,1/2-y,1/2+z
loop_
_atom_site_type_symbol
_atom_site_label
_atom_site_fract_x
_atom_site_fract_y
_atom_site_fract_z
Si Si1 0.314492 0.022398 0.623572
Si Si2 0.739892 0.466944 0.560175
Si Si3 0.609809 0.532752 0.117107
Si Si4 0.733636 0.537903 0.414140
Si Si5 0.430197 0.671184 0.092926
Si Si6 0.398342 0.828224 0.073818
Si Si7 0.187914 0.336605 0.125991
Si Si8 0.177319 0.319761 0.606558
O O1 0.309747 0.104733 0.631853
O O2 0.454021 0.000256 0.614281
O O3 0.486267 0.987967 0.758984
O O4 0.000000 0.000000 0.500000
O O5 0.500000 0.500000 0.500000
O O6 0.721649 0.510223 0.483558
O O7 0.663685 0.387529 0.507286
O O8 0.055716 0.471732 0.726533
O O9 0.516948 0.612852 0.078863
O O10 0.500000 0.500000 0.000000
O O11 0.751185 0.620574 0.414488
O O12 0.000000 0.500000 0.500000
O O13 0.419194 0.748826 0.058788
O O14 0.653028 0.667607 0.250533
O O15 0.136327 0.655389 0.999316
O O16 0.663346 0.842369 0.236379
O O17 0.142001 0.828408 0.013382
O O18 0.231236 0.260291 0.114276
#
# Coordination Sequence:
#
# PCOD9240162 Si02
#       8
#     4   4   4   4   4   4   4   4
#     4  12  21  36  62  90 121 153 200 247 307 360
#     4  12  26  41  60  91 123 164 211 251 301 362
#     4  12  26  42  58  89 131 163 200 253 309 366
#     4  12  19  38  64  86 116 154 202 256 300 347
#     4  10  19  37  59  88 118 156 194 247 309 360
#     4  10  19  35  63  86 115 151 204 251 297 361
#     4  10  20  31  60  94 116 147 201 252 302 365
#     4  10  18  35  58  90 118 149 197 258 304 347
#
# _framework density 17.199914
#
# number of rings (size 3 to 8) (size 9 to 14) (size 15 to 20)
#    0.000    1.000    7.500    0.000    3.500    0.000 
#    0.000    1.250    0.000    0.000    0.000    0.000 
#    0.000    0.000    0.000    0.000    0.000    0.000 
#
# Total GULP energy -178473.419658 kJ/mol
# GULP energy per Si atom -5577.294364 kJ/mol
# Density = 1.716077 g / cm^3
# Si number density = 17.199914 Si / 1000 Ang^3
#
#
#
# Elastic Constant Matrix: (Units=GPa)
#
#
# Indices 1 2 3 4 5 6 
#
# 1 98.2905 58.5358 38.1873 0.0000 -3.2545 0.0000
# 2 58.5358 158.1648 29.8345 0.0000 -7.8278 0.0000
# 3 38.1873 29.8345 93.0954 0.0000 1.9401 0.0000
# 4 0.0000 0.0000 0.0000 25.6891 0.0000 -0.6304
# 5 -3.2545 -7.8278 1.9401 0.0000 24.3063 0.0000
# 6 0.0000 0.0000 0.0000 -0.6304 0.0000 28.0105
#
#
#
# Elastic Compliance Matrix: (Units=1/GPa)
#
#
# Indices 1 2 3 4 5 6 
#
# 1 0.014681 -0.004524 -0.004590 0.000000 0.000875 0.000000
# 2 -0.004524 0.008259 -0.000835 0.000000 0.002121 0.000000
# 3 -0.004590 -0.000835 0.012932 0.000000 -0.001916 0.000000
# 4 0.000000 0.000000 0.000000 0.038948 0.000000 0.000877
# 5 0.000875 0.002121 -0.001916 0.000000 0.042095 0.000000
# 6 0.000000 0.000000 0.000000 0.000877 0.000000 0.035721
#
#
# Mechanical properties :
#
#
# Convention : Reuss Voigt Hill
#
# Bulk Modulus (GPa) = 62.60656 66.96287 64.78472
# Shear Modulus (GPa) = 28.11210 30.46741 29.28975
#
# Velocity S-wave (km/s) = 4.04720 4.21333 4.13110
# Velocity P-wave (km/s) = 7.63663 7.91746 7.77831
#
# Compressibility (1/GPa) = 0.01597277
#
# Stress axis : x y z
#
# Youngs Moduli (GPa) = 68.11752 121.07473 77.32621
#
# Poissons Ratio (x) = 0.54774 0.35495
# Poissons Ratio (y) = 0.30816 0.06460
# Poissons Ratio (z) = 0.31268 0.10114
#
# Static dielectric constant tensor:
#      x y z
#    x 1.506150 0.000000 0.007800 
#    y 0.000000 1.635940 0.000000 
#    z 0.007800 0.000000 1.582410 
# 
# From -- ./inp_files/56234.got.cif
#   From: 2010.05.17/outbox.cif.g08.bks.cpg/sg14_29_cif.got.tgz:56234.got - 2010.06.03 17:49:19.
