data_PCOD9240975
_publ_section_title
;
Structure prediction by ZEFSAII (Michael W. Deem and Ramdas Pophale) SiO2 
 PCOD9240975
Probable space group: P 21/C
;
_chemical_formula_sum "Si O2"
_cell_formula_units_Z 24
_cell_length_a 6.726311
_cell_length_b 21.858856
_cell_length_c 11.261139
_cell_angle_alpha 90.000000
_cell_angle_beta 145.560521
_cell_angle_gamma 90.000000
_cell_volume 936.367842
_symmetry_space_group_name_H-M "P 21/C"
_symmetry_group_IT_number 14
_symmetry_cell_setting 'monoclinic'
loop_
_space_group_symop_operation_xyz
x,y,z
-x,1/2+y,1/2-z
-x,-y,-z
x,1/2-y,1/2+z
loop_
_atom_site_type_symbol
_atom_site_label
_atom_site_fract_x
_atom_site_fract_y
_atom_site_fract_z
Si Si1 0.435917 0.321440 0.048390
Si Si2 0.995537 0.431809 0.154748
Si Si3 0.796629 0.218142 0.099924
Si Si4 0.519149 0.107683 0.085401
Si Si5 0.273805 0.052888 0.533119
Si Si6 0.206269 0.683586 0.082699
O O1 0.185089 0.307534 0.811529
O O2 0.525866 0.392956 0.110956
O O3 0.721451 0.268856 0.166916
O O4 0.151796 0.313757 0.015395
O O5 0.218138 0.434779 0.385248
O O6 0.694191 0.482984 0.990656
O O7 0.854823 0.364593 0.053750
O O8 0.246811 0.445521 0.162886
O O9 0.559761 0.159181 0.003373
O O10 0.742728 0.250930 0.949803
O O11 0.885498 0.072677 0.290946
O O12 0.494779 0.151186 0.189442
#
# Coordination Sequence:
#
# PCOD9240975 Si02
#       6
#     4   4   4   4   4   4
#     4   9  20  34  52  78 103 136 173 213 259 309
#     4   9  15  30  52  72 100 137 169 210 259 303
#     4  10  19  34  52  75 108 136 169 215 259 308
#     4   9  18  29  49  75  99 135 172 209 256 306
#     4   8  17  30  48  76 102 129 175 214 250 306
#     4   9  20  33  50  77 103 133 173 211 257 310
#
# _framework density 25.630951
#
# number of rings (size 3 to 8) (size 9 to 14) (size 15 to 20)
#    0.000    3.667    0.000    1.500    0.000    8.000 
#    0.000    0.833    0.000    1.000    0.000    0.000 
#    0.000    8.000    0.000    0.000    0.000    0.000 
#
# Total GULP energy -133926.581716 kJ/mol
# GULP energy per Si atom -5580.274238 kJ/mol
# Density = 2.557261 g / cm^3
# Si number density = 25.630951 Si / 1000 Ang^3
#
#
#
# Elastic Constant Matrix: (Units=GPa)
#
#
# Indices 1 2 3 4 5 6 
#
# 1 60.2732 -3.4266 18.1967 0.0000 -6.2121 0.0000
# 2 -3.4266 99.1317 12.1138 0.0000 6.4963 0.0000
# 3 18.1967 12.1138 110.9294 0.0000 -13.9392 0.0000
# 4 0.0000 0.0000 0.0000 46.9301 0.0000 -11.7370
# 5 -6.2121 6.4963 -13.9392 0.0000 28.2629 0.0000
# 6 0.0000 0.0000 0.0000 -11.7370 0.0000 39.4482
#
#
#
# Elastic Compliance Matrix: (Units=1/GPa)
#
#
# Indices 1 2 3 4 5 6 
#
# 1 0.017693 0.000784 -0.002689 0.000000 0.002383 0.000000
# 2 0.000784 0.010519 -0.001662 0.000000 -0.003065 0.000000
# 3 -0.002689 -0.001662 0.010246 0.000000 0.004845 0.000000
# 4 0.000000 0.000000 0.000000 0.023021 0.000000 0.006850
# 5 0.002383 -0.003065 0.004845 0.000000 0.039000 0.000000
# 6 0.000000 0.000000 0.000000 0.006850 0.000000 0.027388
#
#
# Mechanical properties :
#
#
# Convention : Reuss Voigt Hill
#
# Bulk Modulus (GPa) = 31.92472 36.01134 33.96803
# Shear Modulus (GPa) = 34.37804 39.15825 36.76815
#
# Velocity S-wave (km/s) = 3.66631 3.91291 3.79162
# Velocity P-wave (km/s) = 5.51407 5.87324 5.69649
#
# Compressibility (1/GPa) = 0.03132369
#
# Stress axis : x y z
#
# Youngs Moduli (GPa) = 56.51971 95.06860 97.59839
#
# Poissons Ratio (x) = -0.07453 0.26240
# Poissons Ratio (y) = -0.04431 0.16225
# Poissons Ratio (z) = 0.15196 0.15805
#
# Static dielectric constant tensor:
#      x y z
#    x 2.154760 0.000000 -0.030830 
#    y 0.000000 2.074770 0.000000 
#    z -0.030830 0.000000 1.995690 
# 
# From -- ./inp_files/26704.got.cif
#   From: 2010.05.17/outbox.cif.g08.bks.cpg/sg14_14_cif.got.tgz:26704.got - 2010.06.03 17:49:19.
