data_PCOD9240268
_publ_section_title
;
Structure prediction by ZEFSAII (Michael W. Deem and Ramdas Pophale) SiO2 
 PCOD9240268
Probable space group: P 21/C
;
_chemical_formula_sum "Si O2"
_cell_formula_units_Z 20
_cell_length_a 9.196329
_cell_length_b 8.747728
_cell_length_c 9.273425
_cell_angle_alpha 90.000000
_cell_angle_beta 79.343646
_cell_angle_gamma 90.000000
_cell_volume 733.153194
_symmetry_space_group_name_H-M "P 21/C"
_symmetry_group_IT_number 14
_symmetry_cell_setting 'monoclinic'
loop_
_space_group_symop_operation_xyz
x,y,z
-x,1/2+y,1/2-z
-x,-y,-z
x,1/2-y,1/2+z
loop_
_atom_site_type_symbol
_atom_site_label
_atom_site_fract_x
_atom_site_fract_y
_atom_site_fract_z
Si Si1 0.439830 0.851512 0.204085
Si Si2 0.701952 0.027465 0.253886
Si Si3 0.954781 0.308229 0.514270
Si Si4 0.214631 0.996099 0.449802
Si Si5 0.815533 0.965552 0.853055
O O1 0.405614 0.673245 0.192635
O O2 0.360996 0.903074 0.368140
O O3 0.345932 0.955206 0.108799
O O4 0.607401 0.902452 0.185754
O O5 0.836203 0.104200 0.140885
O O6 0.754396 0.955150 0.394371
O O7 0.909825 0.134595 0.520615
O O8 0.921007 0.386544 0.366345
O O9 0.113490 0.345106 0.551856
O O10 0.179843 0.092767 0.312293
#
# Coordination Sequence:
#
# PCOD9240268 Si02
#       5
#     4   4   4   4   4
#     4   9  21  37  58  85 116 148 188 234 281 331
#     4  11  20  38  62  83 114 155 188 230 284 340
#     4  10  18  36  59  79 110 154 187 228 288 334
#     4   9  18  38  59  79 114 152 181 237 286 328
#     4   9  20  36  56  81 113 147 188 237 276 336
#
# _framework density 27.279426999999998
#
# number of rings (size 3 to 8) (size 9 to 14) (size 15 to 20)
#    1.200    1.200    2.000    0.600    0.000    1.600 
#    3.600    0.000    4.400    0.000    0.000    0.000 
#    0.000    0.000    0.000    0.000    0.000    0.000 
#
# Total GULP energy -111794.236973 kJ/mol
# GULP energy per Si atom -5589.711849 kJ/mol
# Density = 2.721734 g / cm^3
# Si number density = 27.279427 Si / 1000 Ang^3
#
#
#
# Elastic Constant Matrix: (Units=GPa)
#
#
# Indices 1 2 3 4 5 6 
#
# 1 139.6060 85.5016 55.2745 0.0000 35.7539 0.0000
# 2 85.5016 83.5828 21.6978 0.0000 9.9249 0.0000
# 3 55.2745 21.6978 116.0218 0.0000 29.3529 0.0000
# 4 0.0000 0.0000 0.0000 22.4957 0.0000 3.6364
# 5 35.7539 9.9249 29.3529 0.0000 49.2304 0.0000
# 6 0.0000 0.0000 0.0000 3.6364 0.0000 52.1219
#
#
#
# Elastic Compliance Matrix: (Units=1/GPa)
#
#
# Indices 1 2 3 4 5 6 
#
# 1 0.028740 -0.026486 -0.005663 0.000000 -0.012156 0.000000
# 2 -0.026486 0.037059 0.003193 0.000000 0.009861 0.000000
# 3 -0.005663 0.003193 0.011591 0.000000 -0.003441 0.000000
# 4 0.000000 0.000000 0.000000 0.044960 0.000000 -0.003137
# 5 -0.012156 0.009861 -0.003441 0.000000 0.029205 0.000000
# 6 0.000000 0.000000 0.000000 -0.003137 0.000000 0.019405
#
#
# Mechanical properties :
#
#
# Convention : Reuss Voigt Hill
#
# Bulk Modulus (GPa) = 51.34396 73.79535 62.56966
# Shear Modulus (GPa) = 21.24369 36.55206 28.89788
#
# Velocity S-wave (km/s) = 2.79363 3.66445 3.25826
# Velocity P-wave (km/s) = 5.41000 6.70930 6.09438
#
# Compressibility (1/GPa) = 0.01947649
#
# Stress axis : x y z
#
# Youngs Moduli (GPa) = 34.79465 26.98436 86.27608
#
# Poissons Ratio (x) = 0.71471 0.48862
# Poissons Ratio (y) = 0.92158 -0.27549
# Poissons Ratio (z) = 0.19706 -0.08617
#
# Static dielectric constant tensor:
#      x y z
#    x 2.145320 0.000000 -0.040070 
#    y 0.000000 2.107950 0.000000 
#    z -0.040070 0.000000 2.115860 
# 
# From -- ./inp_files/23491.got.cif
#   From: 2010.05.17/outbox.cif.g08.bks.cpg/sg14_12_cif.got.tgz:23491.got - 2010.06.03 17:49:19.
