data_PCOD9240022
_publ_section_title
;
Structure prediction by ZEFSAII (Michael W. Deem and Ramdas Pophale) SiO2 
 PCOD9240022
Probable space group: P 21/C
;
_chemical_formula_sum "Si O2"
_cell_formula_units_Z 20
_cell_length_a 11.462402
_cell_length_b 7.163712
_cell_length_c 9.438861
_cell_angle_alpha 90.000000
_cell_angle_beta 75.164919
_cell_angle_gamma 90.000000
_cell_volume 749.221357
_symmetry_space_group_name_H-M "P 21/C"
_symmetry_group_IT_number 14
_symmetry_cell_setting 'monoclinic'
loop_
_space_group_symop_operation_xyz
x,y,z
-x,1/2+y,1/2-z
-x,-y,-z
x,1/2-y,1/2+z
loop_
_atom_site_type_symbol
_atom_site_label
_atom_site_fract_x
_atom_site_fract_y
_atom_site_fract_z
Si Si1 0.896796 0.716529 0.446526
Si Si2 0.530376 0.245307 0.744991
Si Si3 0.689169 0.317899 0.939454
Si Si4 0.050469 0.788557 0.145981
Si Si5 0.641888 0.625056 0.449658
O O1 0.913431 0.492293 0.422224
O O2 0.760409 0.749264 0.440142
O O3 0.003079 0.801703 0.319102
O O4 0.932577 0.771221 0.593727
O O5 0.619634 0.135673 0.607208
O O6 0.430633 0.322169 0.667477
O O7 0.447540 0.154395 0.891496
O O8 0.619421 0.375082 0.816389
O O9 0.832898 0.344360 0.899476
O O10 0.677176 0.091467 0.933118
#
# Coordination Sequence:
#
# PCOD9240022 Si02
#       5
#     4   4   4   4   4
#     4  10  21  38  59  84 115 150 189 234 285 337
#     4  10  18  34  56  76 106 146 182 216 274 334
#     4  10  21  37  55  80 114 145 181 233 281 329
#     4  10  21  38  59  84 115 150 189 234 285 337
#     4  10  21  37  55  80 114 145 181 233 281 329
#
# _framework density 26.694379000000001
#
# number of rings (size 3 to 8) (size 9 to 14) (size 15 to 20)
#    0.000    2.000    0.000    4.800    0.000    0.800 
#    0.000   22.000    0.000    0.000    0.000    0.000 
#    0.000    0.000    0.000    0.000    0.000    0.000 
#
# Total GULP energy -111872.583128 kJ/mol
# GULP energy per Si atom -5593.629156 kJ/mol
# Density = 2.663362 g / cm^3
# Si number density = 26.694379 Si / 1000 Ang^3
#
#
#
# Elastic Constant Matrix: (Units=GPa)
#
#
# Indices 1 2 3 4 5 6 
#
# 1 187.2168 24.6827 30.4038 0.0000 14.5557 0.0000
# 2 24.6827 69.9175 7.9061 0.0000 9.7267 0.0000
# 3 30.4038 7.9061 136.2091 0.0000 26.6119 0.0000
# 4 0.0000 0.0000 0.0000 -40.4146 0.0000 213.3542
# 5 14.5557 9.7267 26.6119 0.0000 39.2982 0.0000
# 6 0.0000 0.0000 0.0000 213.3542 0.0000 -593.5840
#
#
#
# Elastic Compliance Matrix: (Units=1/GPa)
#
#
# Indices 1 2 3 4 5 6 
#
# 1 0.005820 -0.001798 -0.000992 0.000000 -0.001039 0.000000
# 2 -0.001798 0.015371 0.000141 0.000000 -0.003234 0.000000
# 3 -0.000992 0.000141 0.008632 0.000000 -0.005513 0.000000
# 4 0.000000 0.000000 0.000000 0.027569 0.000000 0.009909
# 5 -0.001039 -0.003234 -0.005513 0.000000 0.030365 0.000000
# 6 0.000000 0.000000 0.000000 0.009909 0.000000 0.001877
#
#
# Mechanical properties :
#
#
# Convention : Reuss Voigt Hill
#
# Bulk Modulus (GPa) = 40.77319 57.70317 49.23818
# Shear Modulus (GPa) = 48.49286 -96.91669 -24.21192
#
# Velocity S-wave (km/s) = 4.26678 -6.03199 -3.01492
# Velocity P-wave (km/s) = 6.29135 5.18170 2.52300
#
# Compressibility (1/GPa) = 0.02452592
#
# Stress axis : x y z
#
# Youngs Moduli (GPa) = 171.81222 65.05640 115.84875
#
# Poissons Ratio (x) = 0.11697 0.11490
# Poissons Ratio (y) = 0.30892 -0.01633
# Poissons Ratio (z) = 0.17040 -0.00917
#
# Static dielectric constant tensor:
#      x y z
#    x 2.126010 0.000000 0.115300 
#    y 0.000000 2.312090 0.000000 
#    z 0.115300 0.000000 2.113730 
# 
# From -- ./inp_files/11863.got.cif
#   From: 2010.05.17/outbox.cif.g08.bks.cpg/sg14_6_cif.got.tgz:11863.got - 2010.06.03 17:49:19.
