data_PCOD9240206
_publ_section_title
;
Structure prediction by ZEFSAII (Michael W. Deem and Ramdas Pophale) SiO2 
 PCOD9240206
Probable space group: P 21/C
;
_chemical_formula_sum "Si O2"
_cell_formula_units_Z 24
_cell_length_a 9.043188
_cell_length_b 14.045495
_cell_length_c 10.381870
_cell_angle_alpha 90.000000
_cell_angle_beta 139.800091
_cell_angle_gamma 90.000000
_cell_volume 851.140306
_symmetry_space_group_name_H-M "P 21/C"
_symmetry_group_IT_number 14
_symmetry_cell_setting 'monoclinic'
loop_
_space_group_symop_operation_xyz
x,y,z
-x,1/2+y,1/2-z
-x,-y,-z
x,1/2-y,1/2+z
loop_
_atom_site_type_symbol
_atom_site_label
_atom_site_fract_x
_atom_site_fract_y
_atom_site_fract_z
Si Si1 0.999465 0.143980 0.933812
Si Si2 0.420952 0.577231 0.678245
Si Si3 0.734593 0.670226 0.048566
Si Si4 0.484628 0.882720 0.634018
Si Si5 0.092140 0.999533 0.771356
Si Si6 0.996324 0.318509 0.089455
O O1 0.825725 0.099473 0.921186
O O2 0.979621 0.073546 0.800023
O O3 0.970051 0.257229 0.940015
O O4 0.267654 0.136657 0.140963
O O5 0.542266 0.490583 0.834377
O O6 0.336404 0.540182 0.483502
O O7 0.586292 0.666508 0.817146
O O8 0.535641 0.637406 0.018545
O O9 0.930408 0.591373 0.164110
O O10 0.851679 0.759039 0.203517
O O11 0.266054 0.825868 0.537420
O O12 0.096757 0.073767 0.655217
#
# Coordination Sequence:
#
# PCOD9240206 Si02
#       6
#     4   4   4   4   4   4
#     4  10  21  37  63  97 123 156 208 255 309 365
#     4  11  18  34  64  86 118 159 197 252 315 350
#     4  11  21  38  63  93 123 158 203 262 305 362
#     4  10  18  35  61  92 124 153 194 264 306 358
#     4  11  20  40  62  90 126 157 202 261 306 352
#     4  11  23  35  61 101 122 157 207 256 313 363
#
# _framework density 28.197464
#
# number of rings (size 3 to 8) (size 9 to 14) (size 15 to 20)
#    0.000    1.333    6.667    2.500    0.000    2.667 
#    0.000    0.000    0.000    5.000    4.333    0.000 
#    0.000    0.000    0.000    0.000    0.000    0.000 
#
# Total GULP energy -134115.915726 kJ/mol
# GULP energy per Si atom -5588.163155 kJ/mol
# Density = 2.813329 g / cm^3
# Si number density = 28.197464 Si / 1000 Ang^3
#
#
#
# Elastic Constant Matrix: (Units=GPa)
#
#
# Indices 1 2 3 4 5 6 
#
# 1 70.4777 33.6802 34.3565 0.0000 7.2105 0.0000
# 2 33.6802 157.9892 63.9381 0.0000 -4.6433 0.0000
# 3 34.3565 63.9381 137.2945 0.0000 16.7783 0.0000
# 4 0.0000 0.0000 0.0000 76.9113 0.0000 2.7850
# 5 7.2105 -4.6433 16.7783 0.0000 30.9535 0.0000
# 6 0.0000 0.0000 0.0000 2.7850 0.0000 59.5768
#
#
#
# Elastic Compliance Matrix: (Units=1/GPa)
#
#
# Indices 1 2 3 4 5 6 
#
# 1 0.017055 -0.002635 -0.002685 0.000000 -0.002913 0.000000
# 2 -0.002635 0.008547 -0.003805 0.000000 0.003958 0.000000
# 3 -0.002685 -0.003805 0.010410 0.000000 -0.005588 0.000000
# 4 0.000000 0.000000 0.000000 0.013024 0.000000 -0.000609
# 5 -0.002913 0.003958 -0.005588 0.000000 0.036608 0.000000
# 6 0.000000 0.000000 0.000000 -0.000609 0.000000 0.016814
#
#
# Mechanical properties :
#
#
# Convention : Reuss Voigt Hill
#
# Bulk Modulus (GPa) = 56.29531 69.96789 63.13160
# Shear Modulus (GPa) = 39.48558 49.07408 44.27983
#
# Velocity S-wave (km/s) = 3.74615 4.17630 3.96706
# Velocity P-wave (km/s) = 6.22250 6.93706 6.58947
#
# Compressibility (1/GPa) = 0.01776347
#
# Stress axis : x y z
#
# Youngs Moduli (GPa) = 58.63443 116.99397 96.05817
#
# Poissons Ratio (x) = 0.30826 0.25790
# Poissons Ratio (y) = 0.15449 0.36550
# Poissons Ratio (z) = 0.15742 0.44516
#
# Static dielectric constant tensor:
#      x y z
#    x 2.348310 0.000000 -0.131440 
#    y 0.000000 2.288260 0.000000 
#    z -0.131440 0.000000 2.249820 
# 
# From -- ./inp_files/44859.got.cif
#   From: 2010.05.17/outbox.cif.g08.bks.cpg/sg14_23_cif.got.tgz:44859.got - 2010.06.03 17:49:19.
