data_PCOD9240397
_publ_section_title
;
Structure prediction by ZEFSAII (Michael W. Deem and Ramdas Pophale) SiO2 
 PCOD9240397
Probable space group: P 21/C
;
_chemical_formula_sum "Si O2"
_cell_formula_units_Z 24
_cell_length_a 7.211708
_cell_length_b 10.379135
_cell_length_c 13.955380
_cell_angle_alpha 90.000000
_cell_angle_beta 122.861496
_cell_angle_gamma 90.000000
_cell_volume 877.429713
_symmetry_space_group_name_H-M "P 21/C"
_symmetry_group_IT_number 14
_symmetry_cell_setting 'monoclinic'
loop_
_space_group_symop_operation_xyz
x,y,z
-x,1/2+y,1/2-z
-x,-y,-z
x,1/2-y,1/2+z
loop_
_atom_site_type_symbol
_atom_site_label
_atom_site_fract_x
_atom_site_fract_y
_atom_site_fract_z
Si Si1 0.183799 0.538553 0.910784
Si Si2 0.052372 0.454740 0.681645
Si Si3 0.620812 0.178953 0.038359
Si Si4 0.275041 0.518450 0.146855
Si Si5 0.634550 0.664838 0.358564
Si Si6 0.712968 0.312465 0.345452
O O1 0.189838 0.448171 0.818983
O O2 0.293012 0.676028 0.921205
O O3 0.922602 0.556821 0.858407
O O4 0.288430 0.484989 0.038081
O O5 0.802207 0.418310 0.632881
O O6 0.598440 0.840907 0.961024
O O7 0.110525 0.592363 0.651908
O O8 0.128925 0.145868 0.121235
O O9 0.624742 0.156565 0.926663
O O10 0.498797 0.547925 0.267508
O O11 0.184932 0.668564 0.118768
O O12 0.503364 0.788250 0.281670
#
# Coordination Sequence:
#
# PCOD9240397 Si02
#       6
#     4   4   4   4   4   4
#     4  10  18  37  66  84 120 155 198 243 295 350
#     4  12  22  37  65  89 114 165 199 234 306 352
#     4  11  22  42  60  87 125 157 189 252 295 352
#     4   8  18  38  60  90 115 153 191 246 295 339
#     4  10  22  39  57  90 118 152 202 239 294 343
#     4   9  21  41  59  89 126 149 197 247 291 358
#
# _framework density 27.352618
#
# number of rings (size 3 to 8) (size 9 to 14) (size 15 to 20)
#    1.000    1.000    3.333    0.500    0.000    2.667 
#    0.000    5.000    0.000    0.000    0.000    0.000 
#    0.000    0.000    0.000    0.000    0.000    0.000 
#
# Total GULP energy -134374.503988 kJ/mol
# GULP energy per Si atom -5598.937666 kJ/mol
# Density = 2.729036 g / cm^3
# Si number density = 27.352618 Si / 1000 Ang^3
#
#
#
# Elastic Constant Matrix: (Units=GPa)
#
#
# Indices 1 2 3 4 5 6 
#
# 1 112.4748 14.6037 35.5422 0.0000 -27.3699 0.0000
# 2 14.6037 72.2534 4.2167 0.0000 -4.1699 0.0000
# 3 35.5422 4.2167 122.8307 0.0000 -28.4434 0.0000
# 4 0.0000 0.0000 0.0000 31.9697 0.0000 -4.4062
# 5 -27.3699 -4.1699 -28.4434 0.0000 44.7850 0.0000
# 6 0.0000 0.0000 0.0000 -4.4062 0.0000 35.1000
#
#
#
# Elastic Compliance Matrix: (Units=1/GPa)
#
#
# Indices 1 2 3 4 5 6 
#
# 1 0.011029 -0.001809 -0.001885 0.000000 0.005375 0.000000
# 2 -0.001809 0.014216 0.000101 0.000000 0.000282 0.000000
# 3 -0.001885 0.000101 0.009870 0.000000 0.005126 0.000000
# 4 0.000000 0.000000 0.000000 0.031830 0.000000 0.003996
# 5 0.005375 0.000282 0.005126 0.000000 0.028896 0.000000
# 6 0.000000 0.000000 0.000000 0.003996 0.000000 0.028992
#
#
# Mechanical properties :
#
#
# Convention : Reuss Voigt Hill
#
# Bulk Modulus (GPa) = 35.80395 46.25380 41.02887
# Shear Modulus (GPa) = 35.37836 39.25070 37.31453
#
# Velocity S-wave (km/s) = 3.60031 3.79223 3.69752
# Velocity P-wave (km/s) = 5.51373 6.01013 5.76727
#
# Compressibility (1/GPa) = 0.02792988
#
# Stress axis : x y z
#
# Youngs Moduli (GPa) = 90.66763 70.34224 101.31463
#
# Poissons Ratio (x) = 0.12725 0.19094
# Poissons Ratio (y) = 0.16402 -0.01021
# Poissons Ratio (z) = 0.17088 -0.00709
#
# Static dielectric constant tensor:
#      x y z
#    x 2.060800 0.000000 0.018200 
#    y 0.000000 2.247760 0.000000 
#    z 0.018200 0.000000 2.114240 
# 
# From -- ./inp_files/55047.got.cif
#   From: 2010.05.17/outbox.cif.g08.bks.cpg/sg14_28_cif.got.tgz:55047.got - 2010.06.03 17:49:19.
