data_PCOD9240723
_publ_section_title
;
Structure prediction by ZEFSAII (Michael W. Deem and Ramdas Pophale) SiO2 
 PCOD9240723
Probable space group: P 21/C
;
_chemical_formula_sum "Si O2"
_cell_formula_units_Z 28
_cell_length_a 26.609057
_cell_length_b 5.373966
_cell_length_c 19.335733
_cell_angle_alpha 90.000000
_cell_angle_beta 24.467972
_cell_angle_gamma 90.000000
_cell_volume 1145.193559
_symmetry_space_group_name_H-M "P 21/C"
_symmetry_group_IT_number 14
_symmetry_cell_setting 'monoclinic'
loop_
_space_group_symop_operation_xyz
x,y,z
-x,1/2+y,1/2-z
-x,-y,-z
x,1/2-y,1/2+z
loop_
_atom_site_type_symbol
_atom_site_label
_atom_site_fract_x
_atom_site_fract_y
_atom_site_fract_z
Si Si1 0.909191 0.920674 0.515962
Si Si2 0.485261 0.548701 0.601989
Si Si3 0.096960 0.307860 0.346969
Si Si4 0.428883 0.509030 0.358815
Si Si5 0.856411 0.273906 0.474795
Si Si6 0.911115 0.022695 0.276079
Si Si7 0.344904 0.444696 0.320366
O O1 0.837077 0.790301 0.668285
O O2 0.988964 0.724364 0.373594
O O3 0.824589 0.101478 0.578654
O O4 0.014483 0.092567 0.417440
O O5 0.500000 0.500000 0.500000
O O6 0.586512 0.524569 0.538787
O O7 0.426568 0.822376 0.689766
O O8 0.401334 0.318378 0.730953
O O9 0.159179 0.438053 0.204288
O O10 0.000000 0.500000 0.500000
O O11 0.521408 0.287104 0.219654
O O12 0.328009 0.469669 0.424902
O O13 0.831131 0.129728 0.436180
O O14 0.780668 0.521757 0.562880
O O15 0.000678 0.313762 0.301739
#
# Coordination Sequence:
#
# PCOD9240723 Si02
#       7
#     4   4   4   4   4   4   4
#     4   9  17  32  52  74 105 153 202 247 296 352
#     4  10  20  39  67  91 120 156 196 246 318 386
#     4   8  16  31  53  72  96 145 214 241 297 351
#     4   8  16  34  59  87 115 151 184 231 312 376
#     4  11  21  32  55  83 122 154 215 249 299 352
#     4  10  19  32  52  79 110 167 201 254 295 352
#     4  10  22  36  62  94 123 158 197 255 302 373
#
# _framework density 24.450016999999999
#
# number of rings (size 3 to 8) (size 9 to 14) (size 15 to 20)
#    0.000    2.571    1.429    0.429    2.000    0.000 
#    0.000    0.000   18.857    3.429    0.000    0.000 
#    0.000    0.000    0.000    0.000    0.000    0.000 
#
# Total GULP energy -156028.232357 kJ/mol
# GULP energy per Si atom -5572.436870 kJ/mol
# Density = 2.439437 g / cm^3
# Si number density = 24.450017 Si / 1000 Ang^3
#
#
#
# Elastic Constant Matrix: (Units=GPa)
#
#
# Indices 1 2 3 4 5 6 
#
# 1 134.8947 22.7101 40.2908 0.0000 44.3262 0.0000
# 2 22.7101 98.6528 23.2244 0.0000 7.2424 0.0000
# 3 40.2908 23.2244 40.5702 0.0000 16.5954 0.0000
# 4 0.0000 0.0000 0.0000 30.6300 0.0000 4.2078
# 5 44.3262 7.2424 16.5954 0.0000 31.4956 0.0000
# 6 0.0000 0.0000 0.0000 4.2078 0.0000 49.4002
#
#
#
# Elastic Compliance Matrix: (Units=1/GPa)
#
#
# Indices 1 2 3 4 5 6 
#
# 1 0.015762 -0.000405 -0.008140 0.000000 -0.017801 0.000000
# 2 -0.000405 0.011754 -0.006952 0.000000 0.001531 0.000000
# 3 -0.008140 -0.006952 0.039992 0.000000 -0.008018 0.000000
# 4 0.000000 0.000000 0.000000 0.033034 0.000000 -0.002814
# 5 -0.017801 0.001531 -0.008018 0.000000 0.060676 0.000000
# 6 0.000000 0.000000 0.000000 -0.002814 0.000000 0.020482
#
#
# Mechanical properties :
#
#
# Convention : Reuss Voigt Hill
#
# Bulk Modulus (GPa) = 27.38747 49.61870 38.50309
# Shear Modulus (GPa) = 22.23538 34.83132 28.53335
#
# Velocity S-wave (km/s) = 3.01893 3.77847 3.41985
# Velocity P-wave (km/s) = 4.83505 6.27485 5.60140
#
# Compressibility (1/GPa) = 0.03651304
#
# Stress axis : x y z
#
# Youngs Moduli (GPa) = 63.44354 85.07616 25.00501
#
# Poissons Ratio (x) = 0.03449 0.20354
# Poissons Ratio (y) = 0.02572 0.17384
# Poissons Ratio (z) = 0.51642 0.59148
#
# Static dielectric constant tensor:
#      x y z
#    x 2.095170 0.000000 0.021370 
#    y 0.000000 2.030220 0.000000 
#    z 0.021370 0.000000 1.925050 
# 
# From -- ./inp_files/62144.got.cif
#   From: 2010.05.17/outbox.cif.g08.bks.cpg/sg14_32_cif.got.tgz:62144.got - 2010.06.03 17:49:19.
