data_PCOD9240160
_publ_section_title
;
Structure prediction by ZEFSAII (Michael W. Deem and Ramdas Pophale) SiO2 
 PCOD9240160
Probable space group: P 21/C
;
_chemical_formula_sum "Si O2"
_cell_formula_units_Z 32
_cell_length_a 5.684219
_cell_length_b 14.253350
_cell_length_c 23.185913
_cell_angle_alpha 90.000000
_cell_angle_beta 119.880710
_cell_angle_gamma 90.000000
_cell_volume 1628.783544
_symmetry_space_group_name_H-M "P 21/C"
_symmetry_group_IT_number 14
_symmetry_cell_setting 'monoclinic'
loop_
_space_group_symop_operation_xyz
x,y,z
-x,1/2+y,1/2-z
-x,-y,-z
x,1/2-y,1/2+z
loop_
_atom_site_type_symbol
_atom_site_label
_atom_site_fract_x
_atom_site_fract_y
_atom_site_fract_z
Si Si1 0.321922 0.707538 0.149994
Si Si2 0.328420 0.638842 0.743776
Si Si3 0.403414 0.283813 0.060276
Si Si4 0.658417 0.810874 0.572782
Si Si5 0.136143 0.724685 0.313145
Si Si6 0.121154 0.349629 0.118866
Si Si7 0.700987 0.015641 0.598101
Si Si8 0.247973 0.442151 0.766326
O O1 0.384080 0.801210 0.193937
O O2 0.482268 0.716073 0.107933
O O3 0.475000 0.619361 0.199251
O O4 0.992481 0.694484 0.114019
O O5 0.131709 0.703649 0.758830
O O6 0.591977 0.630271 0.816351
O O7 0.238297 0.532310 0.723936
O O8 0.560270 0.216536 0.124220
O O9 0.117005 0.300839 0.056003
O O10 0.520797 0.390743 0.079359
O O11 0.415348 0.257836 0.995371
O O12 0.587270 0.921471 0.556683
O O13 0.002174 0.776991 0.350719
O O14 0.988064 0.630730 0.277293
O O15 0.964504 0.447096 0.097589
O O16 0.780125 0.983901 0.672564
#
# Coordination Sequence:
#
# PCOD9240160 Si02
#       8
#     4   4   4   4   4   4   4   4
#     4  11  25  40  60  95 122 162 211 249 307 380
#     4  11  20  38  58  88 129 157 202 267 318 369
#     4  10  22  38  56  85 122 169 203 253 306 367
#     4  11  25  39  59  85 126 169 206 250 302 376
#     4  10  21  37  59  91 122 160 208 254 310 386
#     4  10  18  35  58  84 122 155 199 262 301 380
#     4  10  20  34  56  89 122 156 202 247 317 382
#     4  11  20  39  63  92 126 163 198 263 330 368
#
# _framework density 19.646564999999999
#
# number of rings (size 3 to 8) (size 9 to 14) (size 15 to 20)
#    0.000    1.500    5.000    2.625    5.250    0.500 
#    0.000    0.000    0.000    1.500    0.000    0.000 
#    0.000    0.000    0.000    0.000    0.000    0.000 
#
# Total GULP energy -178181.872137 kJ/mol
# GULP energy per Si atom -5568.183504 kJ/mol
# Density = 1.960185 g / cm^3
# Si number density = 19.646565 Si / 1000 Ang^3
#
#
#
# Elastic Constant Matrix: (Units=GPa)
#
#
# Indices 1 2 3 4 5 6 
#
# 1 77.0239 26.2525 32.5578 0.0000 -15.0468 0.0000
# 2 26.2525 91.6048 37.4137 0.0000 -7.8402 0.0000
# 3 32.5578 37.4137 79.2724 0.0000 -19.3963 0.0000
# 4 0.0000 0.0000 0.0000 21.2784 0.0000 -1.4020
# 5 -15.0468 -7.8402 -19.3963 0.0000 29.1346 0.0000
# 6 0.0000 0.0000 0.0000 -1.4020 0.0000 32.6900
#
#
#
# Elastic Compliance Matrix: (Units=1/GPa)
#
#
# Indices 1 2 3 4 5 6 
#
# 1 0.016701 -0.002547 -0.004437 0.000000 0.004986 0.000000
# 2 -0.002547 0.013925 -0.005890 0.000000 -0.001490 0.000000
# 3 -0.004437 -0.005890 0.019434 0.000000 0.009062 0.000000
# 4 0.000000 0.000000 0.000000 0.047129 0.000000 0.002021
# 5 0.004986 -0.001490 0.009062 0.000000 0.042530 0.000000
# 6 0.000000 0.000000 0.000000 0.002021 0.000000 0.030677
#
#
# Mechanical properties :
#
#
# Convention : Reuss Voigt Hill
#
# Bulk Modulus (GPa) = 41.13436 48.92768 45.03102
# Shear Modulus (GPa) = 24.47996 26.73241 25.60618
#
# Velocity S-wave (km/s) = 3.53373 3.69272 3.61410
# Velocity P-wave (km/s) = 6.13451 6.56807 6.35499
#
# Compressibility (1/GPa) = 0.02431058
#
# Stress axis : x y z
#
# Youngs Moduli (GPa) = 59.87781 71.81481 51.45560
#
# Poissons Ratio (x) = 0.18293 0.22830
# Poissons Ratio (y) = 0.15252 0.30309
# Poissons Ratio (z) = 0.26567 0.42301
#
# Static dielectric constant tensor:
#      x y z
#    x 1.925490 0.000000 0.012740 
#    y 0.000000 1.663270 0.000000 
#    z 0.012740 0.000000 1.751050 
# 
# From -- ./inp_files/63777.got.cif
#   From: 2010.05.17/outbox.cif.g08.bks.cpg/sg14_32_cif.got.tgz:63777.got - 2010.06.03 17:49:19.
