data_PCOD9240242
_publ_section_title
;
Structure prediction by ZEFSAII (Michael W. Deem and Ramdas Pophale) SiO2 
 PCOD9240242
Probable space group: P 21/C
;
_chemical_formula_sum "Si O2"
_cell_formula_units_Z 28
_cell_length_a 7.838185
_cell_length_b 17.716076
_cell_length_c 15.312204
_cell_angle_alpha 90.000000
_cell_angle_beta 45.645649
_cell_angle_gamma 90.000000
_cell_volume 1520.354798
_symmetry_space_group_name_H-M "P 21/C"
_symmetry_group_IT_number 14
_symmetry_cell_setting 'monoclinic'
loop_
_space_group_symop_operation_xyz
x,y,z
-x,1/2+y,1/2-z
-x,-y,-z
x,1/2-y,1/2+z
loop_
_atom_site_type_symbol
_atom_site_label
_atom_site_fract_x
_atom_site_fract_y
_atom_site_fract_z
Si Si1 0.249994 0.315078 0.000004
Si Si2 0.245003 0.660477 0.230195
Si Si3 0.255010 0.839521 0.269798
Si Si4 0.485883 0.085958 0.976036
Si Si5 0.985893 0.914043 0.976029
Si Si6 0.739857 0.798995 0.166923
Si Si7 0.239843 0.298996 0.666931
O O1 0.498792 0.359187 0.901623
O O2 0.234558 0.260235 0.921897
O O3 0.265431 0.260235 0.078110
O O4 0.001195 0.359187 0.098386
O O5 0.250006 0.749999 0.249998
O O6 0.193396 0.615067 0.337661
O O7 0.013420 0.656979 0.250692
O O8 0.306617 0.884930 0.162331
O O9 0.486593 0.843020 0.249301
O O10 0.249994 0.095424 0.000004
O O11 0.444827 0.139722 0.074197
O O12 0.500000 0.000000 0.000000
O O13 0.944841 0.860277 0.074188
O O14 0.000000 0.000000 0.000000
O O15 0.750007 0.750000 0.249996
#
# Coordination Sequence:
#
# PCOD9240242 Si02
#       7
#     4   4   4   4   4   4   4
#     4  10  18  36  54  80 116 146 186 242 274 334
#     4   9  17  35  55  78 114 148 181 237 279 327
#     4   9  17  35  55  78 114 148 181 237 279 327
#     4  10  20  36  56  84 114 144 186 237 281 335
#     4  10  20  36  56  84 114 144 186 237 281 335
#     4  10  19  33  56  82 112 147 190 231 283 334
#     4  10  19  33  56  82 112 147 190 231 283 334
#
# _framework density 18.416754000000001
#
# number of rings (size 3 to 8) (size 9 to 14) (size 15 to 20)
#    0.000    2.286    7.143    0.000    0.000    5.714 
#    0.000    0.000    0.000   15.429    0.000    0.000 
#    0.000    0.000    0.000    0.000    0.000    0.000 
#
# Total GULP energy -155927.649557 kJ/mol
# GULP energy per Si atom -5568.844627 kJ/mol
# Density = 1.837484 g / cm^3
# Si number density = 18.416754 Si / 1000 Ang^3
#
#
#
# Elastic Constant Matrix: (Units=GPa)
#
#
# Indices 1 2 3 4 5 6 
#
# 1 41.9974 21.6118 62.1432 0.0000 3.6510 0.0000
# 2 21.6118 86.8924 64.0485 0.0000 14.5304 0.0000
# 3 62.1432 64.0485 176.2172 0.0000 -12.0404 0.0000
# 4 0.0000 0.0000 0.0000 28.3392 0.0000 9.0952
# 5 3.6510 14.5304 -12.0404 0.0000 47.2597 0.0000
# 6 0.0000 0.0000 0.0000 9.0952 0.0000 23.6789
#
#
#
# Elastic Compliance Matrix: (Units=1/GPa)
#
#
# Indices 1 2 3 4 5 6 
#
# 1 0.054272 0.004067 -0.021361 0.000000 -0.010885 0.000000
# 2 0.004067 0.018189 -0.008599 0.000000 -0.008097 0.000000
# 3 -0.021361 -0.008599 0.016921 0.000000 0.008605 0.000000
# 4 0.000000 0.000000 0.000000 0.040248 0.000000 -0.015460
# 5 -0.010885 -0.008097 0.008605 0.000000 0.026682 0.000000
# 6 0.000000 0.000000 0.000000 -0.015460 0.000000 0.048170
#
#
# Mechanical properties :
#
#
# Convention : Reuss Voigt Hill
#
# Bulk Modulus (GPa) = 26.59777 66.74600 46.67188
# Shear Modulus (GPa) = 18.60113 30.34247 24.47180
#
# Velocity S-wave (km/s) = 3.18152 4.06340 3.64920
# Velocity P-wave (km/s) = 5.28863 7.63778 6.56906
#
# Compressibility (1/GPa) = 0.03759714
#
# Stress axis : x y z
#
# Youngs Moduli (GPa) = 18.42557 54.97839 59.09780
#
# Poissons Ratio (x) = -0.22361 1.26240
# Poissons Ratio (y) = -0.07494 0.50816
# Poissons Ratio (z) = 0.39359 0.47274
#
# Static dielectric constant tensor:
#      x y z
#    x 1.713780 0.000000 -0.052340 
#    y 0.000000 1.670980 0.000000 
#    z -0.052340 0.000000 1.677770 
# 
# From -- ./inp_files/41774.got.cif
#   From: 2010.05.17/outbox.cif.g08.bks.cpg/sg14_21_cif.got.tgz:41774.got - 2010.06.03 17:49:19.
