data_PCOD9240867
_publ_section_title
;
Structure prediction by ZEFSAII (Michael W. Deem and Ramdas Pophale) SiO2 
 PCOD9240867
Probable space group: P 21/C
;
_chemical_formula_sum "Si O2"
_cell_formula_units_Z 28
_cell_length_a 21.468128
_cell_length_b 5.192476
_cell_length_c 22.664441
_cell_angle_alpha 90.000000
_cell_angle_beta 145.911462
_cell_angle_gamma 90.000000
_cell_volume 1416.017555
_symmetry_space_group_name_H-M "P 21/C"
_symmetry_group_IT_number 14
_symmetry_cell_setting 'monoclinic'
loop_
_space_group_symop_operation_xyz
x,y,z
-x,1/2+y,1/2-z
-x,-y,-z
x,1/2-y,1/2+z
loop_
_atom_site_type_symbol
_atom_site_label
_atom_site_fract_x
_atom_site_fract_y
_atom_site_fract_z
Si Si1 0.816822 0.750879 0.326611
Si Si2 0.809906 0.384876 0.725739
Si Si3 0.306975 0.746546 0.719782
Si Si4 0.922181 0.186799 0.189336
Si Si5 0.563810 0.250251 0.572191
Si Si6 0.158592 0.780277 0.501083
Si Si7 0.035289 0.216729 0.955276
O O1 0.749116 0.509675 0.297571
O O2 0.934947 0.740627 0.452178
O O3 0.815812 0.823713 0.257073
O O4 0.755380 0.000167 0.305591
O O5 0.848475 0.367475 0.689024
O O6 0.688128 0.272052 0.642291
O O7 0.906425 0.240926 0.838887
O O8 0.422954 0.752715 0.845929
O O9 0.278099 0.754940 0.627712
O O10 0.001329 0.434966 0.261624
O O11 0.847471 0.247503 0.073601
O O12 0.500000 0.500000 0.500000
O O13 0.500000 0.000000 0.500000
O O14 0.086208 0.546086 0.470706
O O15 0.098640 0.047297 0.472158
#
# Coordination Sequence:
#
# PCOD9240867 Si02
#       7
#     4   4   4   4   4   4   4
#     4   9  19  32  53  87 114 149 183 225 289 362
#     4  11  22  37  59  83 120 156 190 235 297 342
#     4   9  19  36  59  79 113 149 188 239 294 339
#     4  12  23  37  56  85 125 158 188 224 279 362
#     4  11  24  41  59  84 110 146 199 251 292 327
#     4  10  19  36  54  85 118 156 183 223 281 361
#     4  10  19  33  55  82 121 149 185 225 284 360
#
# _framework density 19.773765000000001
#
# number of rings (size 3 to 8) (size 9 to 14) (size 15 to 20)
#    0.000    1.714    2.857    2.143    0.000    6.857 
#    0.000    8.571    0.000    1.714    0.000    0.000 
#    0.000    0.000    0.000    0.000    0.000    0.000 
#
# Total GULP energy -156322.974700 kJ/mol
# GULP energy per Si atom -5582.963382 kJ/mol
# Density = 1.972876 g / cm^3
# Si number density = 19.773765 Si / 1000 Ang^3
#
#
#
# Elastic Constant Matrix: (Units=GPa)
#
#
# Indices 1 2 3 4 5 6 
#
# 1 95.2187 12.6711 43.3463 0.0000 -32.2133 0.0000
# 2 12.6711 129.1758 26.1796 0.0000 -1.5691 0.0000
# 3 43.3463 26.1796 151.6114 0.0000 -28.9362 0.0000
# 4 0.0000 0.0000 0.0000 36.1531 0.0000 -1.5434
# 5 -32.2133 -1.5691 -28.9362 0.0000 39.6579 0.0000
# 6 0.0000 0.0000 0.0000 -1.5434 0.0000 17.4505
#
#
#
# Elastic Compliance Matrix: (Units=1/GPa)
#
#
# Indices 1 2 3 4 5 6 
#
# 1 0.015250 -0.000931 -0.002140 0.000000 0.010789 0.000000
# 2 -0.000931 0.008101 -0.001413 0.000000 -0.001466 0.000000
# 3 -0.002140 -0.001413 0.008259 0.000000 0.004232 0.000000
# 4 0.000000 0.000000 0.000000 0.027765 0.000000 0.002456
# 5 0.010789 -0.001466 0.004232 0.000000 0.037009 0.000000
# 6 0.000000 0.000000 0.000000 0.002456 0.000000 0.057522
#
#
# Mechanical properties :
#
#
# Convention : Reuss Voigt Hill
#
# Bulk Modulus (GPa) = 44.16341 60.04444 52.10392
# Shear Modulus (GPa) = 29.33880 38.23955 33.78918
#
# Velocity S-wave (km/s) = 3.85609 4.40233 4.13823
# Velocity P-wave (km/s) = 6.49683 7.50149 7.01716
#
# Compressibility (1/GPa) = 0.02264318
#
# Stress axis : x y z
#
# Youngs Moduli (GPa) = 65.57215 123.43864 121.07517
#
# Poissons Ratio (x) = 0.11494 0.25912
# Poissons Ratio (y) = 0.06106 0.17103
# Poissons Ratio (z) = 0.14033 0.17436
#
# Static dielectric constant tensor:
#      x y z
#    x 1.698300 0.000000 -0.053920 
#    y 0.000000 1.758350 0.000000 
#    z -0.053920 0.000000 1.759920 
# 
# From -- ./inp_files/74509.got.cif
#   From: 2010.05.17/outbox.cif.g08.bks.cpg/sg14_38_cif.got.tgz:74509.got - 2010.06.03 17:49:19.
