data_PCOD9240041
_publ_section_title
;
Structure prediction by ZEFSAII (Michael W. Deem and Ramdas Pophale) SiO2 
 PCOD9240041
Probable space group: P 21/C
;
_chemical_formula_sum "Si O2"
_cell_formula_units_Z 30
_cell_length_a 24.659844
_cell_length_b 13.350592
_cell_length_c 12.486555
_cell_angle_alpha 90.000000
_cell_angle_beta 17.281677
_cell_angle_gamma 90.000000
_cell_volume 1221.213486
_symmetry_space_group_name_H-M "P 21/C"
_symmetry_group_IT_number 14
_symmetry_cell_setting 'monoclinic'
loop_
_space_group_symop_operation_xyz
x,y,z
-x,1/2+y,1/2-z
-x,-y,-z
x,1/2-y,1/2+z
loop_
_atom_site_type_symbol
_atom_site_label
_atom_site_fract_x
_atom_site_fract_y
_atom_site_fract_z
Si Si1 0.967717 0.583789 0.251548
Si Si2 0.500000 0.000000 0.500000
Si Si3 0.251662 0.903683 0.521853
Si Si4 0.329396 0.192161 0.840916
Si Si5 0.804092 0.246625 0.543011
Si Si6 0.340245 0.939836 0.578737
Si Si7 0.147257 0.113810 0.623191
Si Si8 0.123018 0.383983 0.916528
O O1 0.833084 0.636281 0.421144
O O2 0.841296 0.511681 0.565544
O O3 0.079541 0.665374 0.107688
O O4 0.094145 0.502233 0.952573
O O5 0.463984 0.987083 0.437686
O O6 0.500241 0.876321 0.511699
O O7 0.304981 0.817352 0.338437
O O8 0.383099 0.934185 0.372208
O O9 0.208660 0.002898 0.536338
O O10 0.055327 0.871264 0.944554
O O11 0.291214 0.307189 0.896674
O O12 0.283902 0.166313 0.049059
O O13 0.699931 0.324096 0.815215
O O14 0.943922 0.322248 0.220691
O O15 0.143485 0.130130 0.503863
#
# Coordination Sequence:
#
# PCOD9240041 Si02
#       8
#     4   2   4   4   4   4   4   4
#     4  10  18  34  56  92 126 147 196 262 324 380
#     4  10  26  48  58  78 118 174 226 242 292 378
#     4  11  19  35  61  94 133 157 196 264 331 378
#     4  11  22  37  61  81 123 170 211 258 307 374
#     4  11  19  33  60  98 128 155 196 269 329 386
#     4  10  22  40  61  85 123 172 207 253 313 380
#     4  11  20  33  61  99 126 158 201 258 335 390
#     4  11  20  32  55  94 125 155 200 255 325 378
#
# _framework density 24.565729000000001
#
# number of rings (size 3 to 8) (size 9 to 14) (size 15 to 20)
#    0.000    1.333    6.667    1.200    0.000    0.000 
#    0.000    2.667    0.000    1.600    0.000    0.000 
#    0.000    0.000    0.000    0.000    0.000    0.000 
#
# Total GULP energy -167119.982436 kJ/mol
# GULP energy per Si atom -5570.666081 kJ/mol
# Density = 2.450982 g / cm^3
# Si number density = 24.565729 Si / 1000 Ang^3
#
#
#
# Elastic Constant Matrix: (Units=GPa)
#
#
# Indices 1 2 3 4 5 6 
#
# 1 114.9206 37.4644 13.4524 0.0000 12.6086 0.0000
# 2 37.4644 147.8907 18.3935 0.0000 1.8547 0.0000
# 3 13.4524 18.3935 34.0513 0.0000 -9.2819 0.0000
# 4 0.0000 0.0000 0.0000 18.4864 0.0000 -4.1157
# 5 12.6086 1.8547 -9.2819 0.0000 25.1761 0.0000
# 6 0.0000 0.0000 0.0000 -4.1157 0.0000 46.6242
#
#
#
# Elastic Compliance Matrix: (Units=1/GPa)
#
#
# Indices 1 2 3 4 5 6 
#
# 1 0.010728 -0.001995 -0.005098 0.000000 -0.007105 0.000000
# 2 -0.001995 0.007731 -0.003636 0.000000 -0.000911 0.000000
# 3 -0.005098 -0.003636 0.037926 0.000000 0.016803 0.000000
# 4 0.000000 0.000000 0.000000 0.055178 0.000000 0.004871
# 5 -0.007105 -0.000911 0.016803 0.000000 0.049541 0.000000
# 6 0.000000 0.000000 0.000000 0.004871 0.000000 0.021878
#
#
# Mechanical properties :
#
#
# Convention : Reuss Voigt Hill
#
# Bulk Modulus (GPa) = 28.63060 48.38703 38.50881
# Shear Modulus (GPa) = 23.13939 33.22748 28.18344
#
# Velocity S-wave (km/s) = 3.07243 3.68175 3.39081
# Velocity P-wave (km/s) = 4.92610 6.14927 5.57135
#
# Compressibility (1/GPa) = 0.03492766
#
# Stress axis : x y z
#
# Youngs Moduli (GPa) = 93.21214 129.35417 26.36716
#
# Poissons Ratio (x) = 0.25801 0.13441
# Poissons Ratio (y) = 0.18592 0.09588
# Poissons Ratio (z) = 0.47517 0.47037
#
# Static dielectric constant tensor:
#      x y z
#    x 1.978430 0.000000 -0.114740 
#    y 0.000000 1.898510 0.000000 
#    z -0.114740 0.000000 2.185770 
# 
# From -- ./inp_files/35876.got.cif
#   From: 2010.05.17/outbox.cif.g08.bks.cpg/sg14_18_cif.got.tgz:35876.got - 2010.06.03 17:49:19.
