data_PCOD9240673
_publ_section_title
;
Structure prediction by ZEFSAII (Michael W. Deem and Ramdas Pophale) SiO2 
 PCOD9240673
Probable space group: P 21/C
;
_chemical_formula_sum "Si O2"
_cell_formula_units_Z 32
_cell_length_a 14.240920
_cell_length_b 20.166427
_cell_length_c 8.901343
_cell_angle_alpha 90.000000
_cell_angle_beta 137.495598
_cell_angle_gamma 90.000000
_cell_volume 1727.198683
_symmetry_space_group_name_H-M "P 21/C"
_symmetry_group_IT_number 14
_symmetry_cell_setting 'monoclinic'
loop_
_space_group_symop_operation_xyz
x,y,z
-x,1/2+y,1/2-z
-x,-y,-z
x,1/2-y,1/2+z
loop_
_atom_site_type_symbol
_atom_site_label
_atom_site_fract_x
_atom_site_fract_y
_atom_site_fract_z
Si Si1 0.518531 0.734264 0.804851
Si Si2 0.943049 0.606110 0.941740
Si Si3 0.664540 0.309048 0.159101
Si Si4 0.084154 0.781043 0.444024
Si Si5 0.029934 0.494048 0.278571
Si Si6 0.066749 0.313011 0.533462
Si Si7 0.125676 0.572990 0.661947
Si Si8 0.286461 0.210869 0.726634
O O1 0.415147 0.774531 0.573212
O O2 0.441346 0.683638 0.826134
O O3 0.634007 0.701035 0.835052
O O4 0.598680 0.785089 0.007916
O O5 0.824870 0.654579 0.865483
O O6 0.064580 0.654413 0.023964
O O7 0.904025 0.562897 0.748510
O O8 0.991607 0.554930 0.124987
O O9 0.774669 0.256158 0.355576
O O10 0.749994 0.374486 0.212151
O O11 0.048894 0.796336 0.230958
O O12 0.964803 0.730447 0.357654
O O13 0.893871 0.463816 0.202224
O O14 0.125615 0.522082 0.524223
O O15 0.209381 0.283363 0.638067
O O16 0.022985 0.386985 0.523713
#
# Coordination Sequence:
#
# PCOD9240673 Si02
#       8
#     4   4   4   4   4   4   4   4
#     4  10  22  36  54  88 108 156 186 214 294 314
#     4  10  21  36  57  84 115 141 186 236 287 337
#     4  10  21  36  57  84 116 144 185 236 276 341
#     4  10  19  31  56  87 110 140 172 237 304 328
#     4  10  22  36  54  90 108 152 178 224 304 322
#     4  10  19  31  56  87 110 140 172 237 304 328
#     4  10  21  36  57  84 115 141 186 236 287 337
#     4  10  21  36  57  84 116 144 185 236 276 341
#
# _framework density 18.527111000000001
#
# number of rings (size 3 to 8) (size 9 to 14) (size 15 to 20)
#    0.000    2.000    1.250    3.000   10.500    0.000 
#    0.000    0.000    0.000    4.500    0.000    0.000 
#    0.000    0.000    0.000    0.000    0.000    0.000 
#
# Total GULP energy -178321.379173 kJ/mol
# GULP energy per Si atom -5572.543099 kJ/mol
# Density = 1.848494 g / cm^3
# Si number density = 18.527111 Si / 1000 Ang^3
#
#
#
# Elastic Constant Matrix: (Units=GPa)
#
#
# Indices 1 2 3 4 5 6 
#
# 1 92.0569 9.5740 10.6416 0.0000 -12.5456 0.0000
# 2 9.5740 58.7200 -2.2097 0.0000 -1.3235 0.0000
# 3 10.6416 -2.2097 41.5850 0.0000 -3.4959 0.0000
# 4 0.0000 0.0000 0.0000 18.6954 0.0000 -2.6707
# 5 -12.5456 -1.3235 -3.4959 0.0000 30.2142 0.0000
# 6 0.0000 0.0000 0.0000 -2.6707 0.0000 29.2997
#
#
#
# Elastic Compliance Matrix: (Units=1/GPa)
#
#
# Indices 1 2 3 4 5 6 
#
# 1 0.012014 -0.001961 -0.002794 0.000000 0.004579 0.000000
# 2 -0.001961 0.017406 0.001436 0.000000 0.000115 0.000000
# 3 -0.002794 0.001436 0.024989 0.000000 0.001794 0.000000
# 4 0.000000 0.000000 0.000000 0.054195 0.000000 0.004940
# 5 0.004579 0.000115 0.001794 0.000000 0.035211 0.000000
# 6 0.000000 0.000000 0.000000 0.004940 0.000000 0.034580
#
#
# Mechanical properties :
#
#
# Convention : Reuss Voigt Hill
#
# Bulk Modulus (GPa) = 20.93218 25.37483 23.15351
# Shear Modulus (GPa) = 24.88109 27.26558 26.07334
#
# Velocity S-wave (km/s) = 3.66861 3.84038 3.75548
# Velocity P-wave (km/s) = 5.40995 5.77845 5.59724
#
# Compressibility (1/GPa) = 0.04777333
#
# Stress axis : x y z
#
# Youngs Moduli (GPa) = 83.23790 57.45054 40.01734
#
# Poissons Ratio (x) = 0.11264 0.11179
# Poissons Ratio (y) = 0.16320 -0.05748
# Poissons Ratio (z) = 0.23253 -0.08252
#
# Static dielectric constant tensor:
#      x y z
#    x 1.686760 0.000000 -0.005800 
#    y 0.000000 1.664950 0.000000 
#    z -0.005800 0.000000 1.654140 
# 
# From -- ./inp_files/16810.got.cif
#   From: 2010.05.17/outbox.cif.g08.bks.cpg/sg14_9_cif.got.tgz:16810.got - 2010.06.03 17:49:19.
