data_PCOD9240619
_publ_section_title
;
Structure prediction by ZEFSAII (Michael W. Deem and Ramdas Pophale) SiO2 
 PCOD9240619
Probable space group: P 21/C
;
_chemical_formula_sum "Si O2"
_cell_formula_units_Z 26
_cell_length_a 10.072806
_cell_length_b 18.374890
_cell_length_c 5.330761
_cell_angle_alpha 90.000000
_cell_angle_beta 75.126590
_cell_angle_gamma 90.000000
_cell_volume 953.595468
_symmetry_space_group_name_H-M "P 21/C"
_symmetry_group_IT_number 14
_symmetry_cell_setting 'monoclinic'
loop_
_space_group_symop_operation_xyz
x,y,z
-x,1/2+y,1/2-z
-x,-y,-z
x,1/2-y,1/2+z
loop_
_atom_site_type_symbol
_atom_site_label
_atom_site_fract_x
_atom_site_fract_y
_atom_site_fract_z
Si Si1 0.475551 0.202816 0.167250
Si Si2 0.255753 0.868205 0.828958
Si Si3 0.191894 0.019864 0.356343
Si Si4 0.500000 0.500000 0.500000
Si Si5 0.113886 0.643755 0.903138
Si Si6 0.182906 0.206524 0.439000
Si Si7 0.747635 0.958437 0.161865
O O1 0.492606 0.261207 0.386016
O O2 0.587199 0.140834 0.161819
O O3 0.325909 0.169792 0.282230
O O4 0.218871 0.836264 0.576842
O O5 0.232872 0.954146 0.824898
O O6 0.167656 0.836590 0.100453
O O7 0.108817 0.944669 0.406803
O O8 0.192097 0.066835 0.606620
O O9 0.352747 0.996318 0.229584
O O10 0.158432 0.062481 0.117662
O O11 0.412736 0.451139 0.326630
O O12 0.969445 0.678695 0.029267
O O13 0.194814 0.273286 0.228337
#
# Coordination Sequence:
#
# PCOD9240619 Si02
#       7
#     4   4   4   2   4   4   4
#     4  10  21  35  49  66  92 127 161 189 226 277
#     4  10  19  31  47  71  97 117 154 196 233 265
#     4   8  15  24  39  62  90 114 143 178 223 266
#     4   8  14  24  42  60  92 118 138 176 226 278
#     4  10  19  31  47  71  97 117 154 196 233 265
#     4  10  21  35  49  66  92 127 161 189 226 277
#     4   8  15  24  39  62  90 114 143 178 223 266
#
# _framework density 27.265232000000001
#
# number of rings (size 3 to 8) (size 9 to 14) (size 15 to 20)
#    0.923    1.846    0.000    2.308    0.000    3.692 
#    0.000    0.000    0.000    0.000    0.000    1.077 
#    0.000    5.538    0.000    0.000    0.000    0.000 
#
# Total GULP energy -145001.904926 kJ/mol
# GULP energy per Si atom -5576.996343 kJ/mol
# Density = 2.720318 g / cm^3
# Si number density = 27.265232 Si / 1000 Ang^3
#
#
#
# Elastic Constant Matrix: (Units=GPa)
#
#
# Indices 1 2 3 4 5 6 
#
# 1 103.7616 -3.2711 18.1470 0.0000 -7.6260 0.0000
# 2 -3.2711 49.3557 7.4734 0.0000 -7.4249 0.0000
# 3 18.1470 7.4734 139.9830 0.0000 22.4858 0.0000
# 4 0.0000 0.0000 0.0000 26.2154 0.0000 -3.1902
# 5 -7.6260 -7.4249 22.4858 0.0000 61.5887 0.0000
# 6 0.0000 0.0000 0.0000 -3.1902 0.0000 34.8102
#
#
#
# Elastic Compliance Matrix: (Units=1/GPa)
#
#
# Indices 1 2 3 4 5 6 
#
# 1 0.010123 0.001233 -0.001703 0.000000 0.002024 0.000000
# 2 0.001233 0.021126 -0.001829 0.000000 0.003367 0.000000
# 3 -0.001703 -0.001829 0.008001 0.000000 -0.003352 0.000000
# 4 0.000000 0.000000 0.000000 0.038576 0.000000 0.003535
# 5 0.002024 0.003367 -0.003352 0.000000 0.018117 0.000000
# 6 0.000000 0.000000 0.000000 0.003535 0.000000 0.029051
#
#
# Mechanical properties :
#
#
# Convention : Reuss Voigt Hill
#
# Bulk Modulus (GPa) = 28.85780 37.53319 33.19550
# Shear Modulus (GPa) = 35.42527 42.57293 38.99910
#
# Velocity S-wave (km/s) = 3.60847 3.95579 3.78611
# Velocity P-wave (km/s) = 5.28852 5.88729 5.59592
#
# Compressibility (1/GPa) = 0.03465268
#
# Stress axis : x y z
#
# Youngs Moduli (GPa) = 98.78500 47.33445 124.98973
#
# Poissons Ratio (x) = -0.05838 0.21289
# Poissons Ratio (y) = -0.12183 0.22856
# Poissons Ratio (z) = 0.16826 0.08656
#
# Static dielectric constant tensor:
#      x y z
#    x 2.109570 0.000000 0.147620 
#    y 0.000000 1.767100 0.000000 
#    z 0.147620 0.000000 2.339960 
# 
# From -- ./inp_files/2009.got.cif
#   From: 2010.05.17/outbox.cif.g08.bks.cpg/sg14_2_cif.got.tgz:2009.got - 2010.06.03 17:49:19.
