data_PCOD9240478
_publ_section_title
;
Structure prediction by ZEFSAII (Michael W. Deem and Ramdas Pophale) SiO2 
 PCOD9240478
Probable space group: P 21/C
;
_chemical_formula_sum "Si O2"
_cell_formula_units_Z 28
_cell_length_a 7.945728
_cell_length_b 13.744674
_cell_length_c 17.794503
_cell_angle_alpha 90.000000
_cell_angle_beta 33.198548
_cell_angle_gamma 90.000000
_cell_volume 1064.073071
_symmetry_space_group_name_H-M "P 21/C"
_symmetry_group_IT_number 14
_symmetry_cell_setting 'monoclinic'
loop_
_space_group_symop_operation_xyz
x,y,z
-x,1/2+y,1/2-z
-x,-y,-z
x,1/2-y,1/2+z
loop_
_atom_site_type_symbol
_atom_site_label
_atom_site_fract_x
_atom_site_fract_y
_atom_site_fract_z
Si Si1 0.709232 0.783324 0.810328
Si Si2 0.753640 0.566191 0.859203
Si Si3 0.970073 0.632429 0.924015
Si Si4 0.120502 0.158724 0.098068
Si Si5 0.570517 0.040711 0.287857
Si Si6 0.948587 0.242897 0.969168
Si Si7 0.695085 0.564399 0.603440
O O1 0.667205 0.673960 0.859921
O O2 0.863659 0.843791 0.818922
O O3 0.915554 0.785973 0.658745
O O4 0.361361 0.817851 0.928616
O O5 0.792689 0.515570 0.763262
O O6 0.500000 0.500000 0.000000
O O7 0.021590 0.584476 0.821698
O O8 0.732563 0.563555 0.054339
O O9 0.141128 0.679014 0.932908
O O10 0.803448 0.732009 0.956453
O O11 0.772731 0.137300 0.199457
O O12 0.337856 0.084469 0.972152
O O13 0.480256 0.985262 0.245486
O O14 0.214389 0.170387 0.898165
O O15 0.000000 0.500000 0.500000
#
# Coordination Sequence:
#
# PCOD9240478 Si02
#       7
#     4   4   4   4   4   4   4
#     4  11  24  41  66  96 133 174 221 272 329 397
#     4   9  19  39  65  91 126 171 213 270 336 389
#     4   9  21  37  63  93 124 169 220 264 324 403
#     4   9  21  37  63  93 124 169 220 264 324 403
#     4  10  18  38  72  90 130 174 212 278 344 384
#     4  11  24  41  66  96 133 174 221 272 329 397
#     4   9  19  39  65  91 126 171 213 270 336 389
#
# _framework density 26.313984000000001
#
# number of rings (size 3 to 8) (size 9 to 14) (size 15 to 20)
#    0.000    2.286    1.429    0.000   12.000    0.000 
#    0.000    5.714    6.286    0.000    0.000    0.000 
#    0.000    0.000    0.000    0.000    0.000    0.000 
#
# Total GULP energy -156070.374194 kJ/mol
# GULP energy per Si atom -5573.941935 kJ/mol
# Density = 2.625409 g / cm^3
# Si number density = 26.313984 Si / 1000 Ang^3
#
#
#
# Elastic Constant Matrix: (Units=GPa)
#
#
# Indices 1 2 3 4 5 6 
#
# 1 116.9254 17.6107 18.7539 0.0000 47.8064 0.0000
# 2 17.6107 61.6792 -0.9478 0.0000 19.4055 0.0000
# 3 18.7539 -0.9478 104.7271 0.0000 29.8294 0.0000
# 4 0.0000 0.0000 0.0000 37.9591 0.0000 18.2351
# 5 47.8064 19.4055 29.8294 0.0000 42.6071 0.0000
# 6 0.0000 0.0000 0.0000 18.2351 0.0000 37.6941
#
#
#
# Elastic Compliance Matrix: (Units=1/GPa)
#
#
# Indices 1 2 3 4 5 6 
#
# 1 0.016721 0.002231 0.003321 0.000000 -0.022102 0.000000
# 2 0.002231 0.020170 0.003888 0.000000 -0.014411 0.000000
# 3 0.003321 0.003888 0.013184 0.000000 -0.014727 0.000000
# 4 0.000000 0.000000 0.000000 0.034320 0.000000 -0.016603
# 5 -0.022102 -0.014411 -0.014727 0.000000 0.065144 0.000000
# 6 0.000000 0.000000 0.000000 -0.016603 0.000000 0.034561
#
#
# Mechanical properties :
#
#
# Convention : Reuss Voigt Hill
#
# Bulk Modulus (GPa) = 14.50237 39.35169 26.92703
# Shear Modulus (GPa) = 26.56689 40.17972 33.37331
#
# Velocity S-wave (km/s) = 3.18089 3.91184 3.56515
# Velocity P-wave (km/s) = 4.36050 5.94899 5.21557
#
# Compressibility (1/GPa) = 0.06895423
#
# Stress axis : x y z
#
# Youngs Moduli (GPa) = 59.80666 49.57901 75.85027
#
# Poissons Ratio (x) = -0.11060 -0.25193
# Poissons Ratio (y) = -0.13342 -0.29489
# Poissons Ratio (z) = -0.19864 -0.19276
#
# Static dielectric constant tensor:
#      x y z
#    x 2.185850 0.000000 -0.057640 
#    y 0.000000 2.134690 0.000000 
#    z -0.057640 0.000000 2.190120 
# 
# From -- ./inp_files/55931.got.cif
#   From: 2010.05.17/outbox.cif.g08.bks.cpg/sg14_28_cif.got.tgz:55931.got - 2010.06.03 17:49:19.
