data_PCOD9240531
_publ_section_title
;
Structure prediction by ZEFSAII (Michael W. Deem and Ramdas Pophale) SiO2 
 PCOD9240531
Probable space group: P 21/C
;
_chemical_formula_sum "Si O2"
_cell_formula_units_Z 20
_cell_length_a 8.907951
_cell_length_b 7.342479
_cell_length_c 12.737065
_cell_angle_alpha 90.000000
_cell_angle_beta 74.913486
_cell_angle_gamma 90.000000
_cell_volume 804.372905
_symmetry_space_group_name_H-M "P 21/C"
_symmetry_group_IT_number 14
_symmetry_cell_setting 'monoclinic'
loop_
_space_group_symop_operation_xyz
x,y,z
-x,1/2+y,1/2-z
-x,-y,-z
x,1/2-y,1/2+z
loop_
_atom_site_type_symbol
_atom_site_label
_atom_site_fract_x
_atom_site_fract_y
_atom_site_fract_z
Si Si1 0.647061 0.956793 0.324017
Si Si2 0.429492 0.226775 0.860259
Si Si3 0.732255 0.602082 0.429643
Si Si4 0.823523 0.967027 0.697609
Si Si5 0.942882 0.141782 0.177551
O O1 0.559080 0.135173 0.378556
O O2 0.794614 0.019537 0.228081
O O3 0.536203 0.852664 0.261289
O O4 0.700682 0.812158 0.400313
O O5 0.275145 0.351191 0.865437
O O6 0.377087 0.073455 0.952093
O O7 0.716454 0.498150 0.321805
O O8 0.914508 0.576265 0.420235
O O9 0.966036 0.854170 0.725269
O O10 0.888137 0.160218 0.651097
#
# Coordination Sequence:
#
# PCOD9240531 Si02
#       5
#     4   4   4   4   4
#     4  11  22  40  58  88 119 152 189 241 289 335
#     4  11  22  38  60  85 119 152 195 235 289 345
#     4   9  20  38  61  84 116 152 196 234 282 348
#     4   9  19  37  57  84 116 152 190 236 285 337
#     4  10  18  41  60  81 123 151 187 245 285 336
#
# _framework density 24.864090000000001
#
# number of rings (size 3 to 8) (size 9 to 14) (size 15 to 20)
#    1.200    0.800    2.000    1.800    0.000    1.600 
#    0.000   11.000    0.000    0.000    0.000    0.000 
#    0.000    0.000    0.000    0.000    0.000    0.000 
#
# Total GULP energy -111596.069221 kJ/mol
# GULP energy per Si atom -5579.803461 kJ/mol
# Density = 2.480750 g / cm^3
# Si number density = 24.864090 Si / 1000 Ang^3
#
#
#
# Elastic Constant Matrix: (Units=GPa)
#
#
# Indices 1 2 3 4 5 6 
#
# 1 85.5442 16.1877 10.7874 0.0000 6.1833 0.0000
# 2 16.1877 39.3880 -21.0552 0.0000 12.9647 0.0000
# 3 10.7874 -21.0552 62.2531 0.0000 2.1342 0.0000
# 4 0.0000 0.0000 0.0000 18.1183 0.0000 4.7167
# 5 6.1833 12.9647 2.1342 0.0000 35.5231 0.0000
# 6 0.0000 0.0000 0.0000 4.7167 0.0000 48.6659
#
#
#
# Elastic Compliance Matrix: (Units=1/GPa)
#
#
# Indices 1 2 3 4 5 6 
#
# 1 0.014035 -0.009150 -0.005569 0.000000 0.001231 0.000000
# 2 -0.009150 0.043026 0.016656 0.000000 -0.015111 0.000000
# 3 -0.005569 0.016656 0.022884 0.000000 -0.006484 0.000000
# 4 0.000000 0.000000 0.000000 0.056621 0.000000 -0.005488
# 5 0.001231 -0.015111 -0.006484 0.000000 0.033841 0.000000
# 6 0.000000 0.000000 0.000000 -0.005488 0.000000 0.021080
#
#
# Mechanical properties :
#
#
# Convention : Reuss Voigt Hill
#
# Bulk Modulus (GPa) = 11.93044 22.11391 17.02218
# Shear Modulus (GPa) = 23.19609 32.54582 27.87096
#
# Velocity S-wave (km/s) = 3.05768 3.62186 3.35166
# Velocity P-wave (km/s) = 4.15627 5.13846 4.67324
#
# Compressibility (1/GPa) = 0.08381921
#
# Stress axis : x y z
#
# Youngs Moduli (GPa) = 71.25235 23.24152 43.69833
#
# Poissons Ratio (x) = 0.21266 0.24335
# Poissons Ratio (y) = 0.65197 -0.72784
# Poissons Ratio (z) = 0.39680 -0.38711
#
# Static dielectric constant tensor:
#      x y z
#    x 2.033750 0.000000 -0.021030 
#    y 0.000000 1.941850 0.000000 
#    z -0.021030 0.000000 1.979290 
# 
# From -- ./inp_files/23004.got.cif
#   From: 2010.05.17/outbox.cif.g08.bks.cpg/sg14_12_cif.got.tgz:23004.got - 2010.06.03 17:49:19.
