data_PCOD9240375
_publ_section_title
;
Structure prediction by ZEFSAII (Michael W. Deem and Ramdas Pophale) SiO2 
 PCOD9240375
Probable space group: P 21/C
;
_chemical_formula_sum "Si O2"
_cell_formula_units_Z 28
_cell_length_a 21.701420
_cell_length_b 17.217355
_cell_length_c 11.801537
_cell_angle_alpha 90.000000
_cell_angle_beta 159.634867
_cell_angle_gamma 90.000000
_cell_volume 1534.526548
_symmetry_space_group_name_H-M "P 21/C"
_symmetry_group_IT_number 14
_symmetry_cell_setting 'monoclinic'
loop_
_space_group_symop_operation_xyz
x,y,z
-x,1/2+y,1/2-z
-x,-y,-z
x,1/2-y,1/2+z
loop_
_atom_site_type_symbol
_atom_site_label
_atom_site_fract_x
_atom_site_fract_y
_atom_site_fract_z
Si Si1 0.787035 0.572808 0.330732
Si Si2 0.025427 0.584938 0.370765
Si Si3 0.375534 0.561540 0.590888
Si Si4 0.898104 0.336406 0.737669
Si Si5 0.149730 0.436396 0.294516
Si Si6 0.691284 0.473831 0.784501
Si Si7 0.079700 0.842807 0.201795
O O1 0.841134 0.572649 0.555778
O O2 0.901201 0.636238 0.462078
O O3 0.847247 0.488871 0.387891
O O4 0.579420 0.581546 0.957693
O O5 0.041857 0.642113 0.504622
O O6 0.083264 0.625792 0.354191
O O7 0.831069 0.545474 0.026142
O O8 0.256123 0.621560 0.456248
O O9 0.329536 0.475806 0.561041
O O10 0.324382 0.557551 0.370868
O O11 0.867777 0.245099 0.683125
O O12 0.081972 0.358586 0.118382
O O13 0.000000 0.500000 0.000000
O O14 0.500000 0.500000 0.500000
O O15 0.776329 0.405308 0.006384
#
# Coordination Sequence:
#
# PCOD9240375 Si02
#       7
#     4   4   4   4   4   4   4
#     4  11  21  40  65  93 116 160 214 254 301 366
#     4  11  21  40  64  87 123 162 211 247 305 375
#     4  11  21  39  65  93 122 159 212 258 301 377
#     4  11  23  40  59  95 125 166 200 255 324 365
#     4  10  18  37  61  88 116 160 203 248 300 368
#     4  11  22  43  68  90 119 166 218 252 303 369
#     4  11  25  39  62  91 129 164 200 263 316 362
#
# _framework density 18.246670000000002
#
# number of rings (size 3 to 8) (size 9 to 14) (size 15 to 20)
#    0.000    1.143    4.286    6.429    4.000    0.000 
#    2.571    1.429    0.000    0.000    0.000    0.000 
#    0.000    0.000    0.000    0.000    0.000    0.000 
#
# Total GULP energy -156371.041903 kJ/mol
# GULP energy per Si atom -5584.680068 kJ/mol
# Density = 1.820514 g / cm^3
# Si number density = 18.246670 Si / 1000 Ang^3
#
#
#
# Elastic Constant Matrix: (Units=GPa)
#
#
# Indices 1 2 3 4 5 6 
#
# 1 134.2163 42.7698 54.6085 0.0000 2.9720 0.0000
# 2 42.7698 91.0947 43.1508 0.0000 13.7163 0.0000
# 3 54.6085 43.1508 108.7797 0.0000 24.4300 0.0000
# 4 0.0000 0.0000 0.0000 10.1008 0.0000 -0.0839
# 5 2.9720 13.7163 24.4300 0.0000 32.9540 0.0000
# 6 0.0000 0.0000 0.0000 -0.0839 0.0000 16.8791
#
#
#
# Elastic Compliance Matrix: (Units=1/GPa)
#
#
# Indices 1 2 3 4 5 6 
#
# 1 0.010333 -0.003164 -0.004821 0.000000 0.003959 0.000000
# 2 -0.003164 0.014595 -0.003481 0.000000 -0.003209 0.000000
# 3 -0.004821 -0.003481 0.015082 0.000000 -0.009297 0.000000
# 4 0.000000 0.000000 0.000000 0.099007 0.000000 0.000492
# 5 0.003959 -0.003209 -0.009297 0.000000 0.038216 0.000000
# 6 0.000000 0.000000 0.000000 0.000492 0.000000 0.059247
#
#
# Mechanical properties :
#
#
# Convention : Reuss Voigt Hill
#
# Bulk Modulus (GPa) = 58.55351 68.34988 63.45169
# Shear Modulus (GPa) = 18.86054 24.89090 21.87572
#
# Velocity S-wave (km/s) = 3.21852 3.69742 3.46625
# Velocity P-wave (km/s) = 6.78023 7.46780 7.13230
#
# Compressibility (1/GPa) = 0.01707840
#
# Stress axis : x y z
#
# Youngs Moduli (GPa) = 96.77926 68.51720 66.30434
#
# Poissons Ratio (x) = 0.21676 0.31968
# Poissons Ratio (y) = 0.30617 0.23078
# Poissons Ratio (z) = 0.46661 0.23848
#
# Static dielectric constant tensor:
#      x y z
#    x 1.643210 0.000000 0.002570 
#    y 0.000000 1.618390 0.000000 
#    z 0.002570 0.000000 1.635620 
# 
# From -- ./inp_files/35412.got.cif
#   From: 2010.05.17/outbox.cif.g08.bks.cpg/sg14_18_cif.got.tgz:35412.got - 2010.06.03 17:49:19.
