data_PCOD9240075
_publ_section_title
;
Structure prediction by ZEFSAII (Michael W. Deem and Ramdas Pophale) SiO2 
 PCOD9240075
Probable space group: P 21/C
;
_chemical_formula_sum "Si O2"
_cell_formula_units_Z 32
_cell_length_a 9.210915
_cell_length_b 17.923719
_cell_length_c 21.071079
_cell_angle_alpha 90.000000
_cell_angle_beta 150.157830
_cell_angle_gamma 90.000000
_cell_volume 1731.047414
_symmetry_space_group_name_H-M "P 21/C"
_symmetry_group_IT_number 14
_symmetry_cell_setting 'monoclinic'
loop_
_space_group_symop_operation_xyz
x,y,z
-x,1/2+y,1/2-z
-x,-y,-z
x,1/2-y,1/2+z
loop_
_atom_site_type_symbol
_atom_site_label
_atom_site_fract_x
_atom_site_fract_y
_atom_site_fract_z
Si Si1 0.733444 0.594831 0.825781
Si Si2 0.655188 0.560566 0.102336
Si Si3 0.306338 0.521826 0.748336
Si Si4 0.204861 0.557452 0.224064
Si Si5 0.332502 0.683200 0.053395
Si Si6 0.674766 0.997659 0.000867
Si Si7 0.247031 0.850321 0.040220
Si Si8 0.598687 0.869974 0.785451
O O1 0.567418 0.577030 0.829016
O O2 0.858792 0.517244 0.842381
O O3 0.480012 0.627076 0.683052
O O4 0.006187 0.649786 0.936894
O O5 0.686435 0.518096 0.181234
O O6 0.480909 0.635208 0.053879
O O7 0.949105 0.577142 0.175528
O O8 0.500000 0.500000 0.000000
O O9 0.348288 0.456896 0.712044
O O10 0.974743 0.548727 0.617073
O O11 0.476356 0.534518 0.370533
O O12 0.317813 0.625485 0.223972
O O13 0.512037 0.669463 0.186836
O O14 0.329027 0.771175 0.041481
O O15 0.745765 0.082849 0.008058
O O16 0.500000 0.000000 0.000000
O O17 0.905791 0.843423 0.930831
#
# Coordination Sequence:
#
# PCOD9240075 Si02
#       8
#     4   4   4   4   4   4   4   4
#     4  10  20  35  58  83 106 146 188 238 276 327
#     4  11  21  33  55  87 115 147 185 229 280 339
#     4   9  19  33  56  86 107 133 184 238 277 321
#     4  10  19  34  58  84 113 137 186 238 283 320
#     4  11  22  36  58  79 114 156 190 229 284 345
#     4  10  18  34  59  87 108 142 188 238 279 334
#     4  10  21  38  58  79 111 152 196 228 285 344
#     4   9  20  35  58  81 107 142 185 235 275 327
#
# _framework density 18.485918000000002
#
# number of rings (size 3 to 8) (size 9 to 14) (size 15 to 20)
#    0.000    2.000    2.500    1.500    1.750    4.500 
#    0.000    0.000    8.250    0.000    0.000    0.000 
#    0.000    0.000    0.000    0.000    0.000    0.000 
#
# Total GULP energy -178316.992022 kJ/mol
# GULP energy per Si atom -5572.406001 kJ/mol
# Density = 1.844384 g / cm^3
# Si number density = 18.485918 Si / 1000 Ang^3
#
#
#
# Elastic Constant Matrix: (Units=GPa)
#
#
# Indices 1 2 3 4 5 6 
#
# 1 117.9910 25.8446 17.8824 0.0000 26.4432 0.0000
# 2 25.8446 65.3455 9.4302 0.0000 16.2623 0.0000
# 3 17.8824 9.4302 58.2549 0.0000 24.6849 0.0000
# 4 0.0000 0.0000 0.0000 16.5541 0.0000 4.2436
# 5 26.4432 16.2623 24.6849 0.0000 26.7745 0.0000
# 6 0.0000 0.0000 0.0000 4.2436 0.0000 6.4758
#
#
#
# Elastic Compliance Matrix: (Units=1/GPa)
#
#
# Indices 1 2 3 4 5 6 
#
# 1 0.011201 -0.001798 0.001768 0.000000 -0.011600 0.000000
# 2 -0.001798 0.018605 0.002587 0.000000 -0.011909 0.000000
# 3 0.001768 0.002587 0.028901 0.000000 -0.029963 0.000000
# 4 0.000000 0.000000 0.000000 0.072604 0.000000 -0.047577
# 5 -0.011600 -0.011909 -0.029963 0.000000 0.083663 0.000000
# 6 0.000000 0.000000 0.000000 -0.047577 0.000000 0.185599
#
#
# Mechanical properties :
#
#
# Convention : Reuss Voigt Hill
#
# Bulk Modulus (GPa) = 15.66908 38.65622 27.16265
# Shear Modulus (GPa) = 11.99809 22.52317 17.26063
#
# Velocity S-wave (km/s) = 2.55039 3.49434 3.05899
# Velocity P-wave (km/s) = 4.14334 6.10222 5.21557
#
# Compressibility (1/GPa) = 0.06381995
#
# Stress axis : x y z
#
# Youngs Moduli (GPa) = 89.27872 53.74902 34.60110
#
# Poissons Ratio (x) = 0.09666 -0.06118
# Poissons Ratio (y) = 0.16055 -0.08950
# Poissons Ratio (z) = -0.15787 -0.13903
#
# Static dielectric constant tensor:
#      x y z
#    x 1.704080 0.000000 -0.000250 
#    y 0.000000 1.628180 0.000000 
#    z -0.000250 0.000000 1.702430 
# 
# From -- ./inp_files/66038.got.cif
#   From: 2010.05.17/outbox.cif.g08.bks.cpg/sg14_34_cif.got.tgz:66038.got - 2010.06.03 17:49:19.
