data_PCOD9240597
_publ_section_title
;
Structure prediction by ZEFSAII (Michael W. Deem and Ramdas Pophale) SiO2 
 PCOD9240597
Probable space group: P 21/C
;
_chemical_formula_sum "Si O2"
_cell_formula_units_Z 28
_cell_length_a 25.164136
_cell_length_b 5.075979
_cell_length_c 25.181601
_cell_angle_alpha 90.000000
_cell_angle_beta 29.301257
_cell_angle_gamma 90.000000
_cell_volume 1574.166077
_symmetry_space_group_name_H-M "P 21/C"
_symmetry_group_IT_number 14
_symmetry_cell_setting 'monoclinic'
loop_
_space_group_symop_operation_xyz
x,y,z
-x,1/2+y,1/2-z
-x,-y,-z
x,1/2-y,1/2+z
loop_
_atom_site_type_symbol
_atom_site_label
_atom_site_fract_x
_atom_site_fract_y
_atom_site_fract_z
Si Si1 0.383836 0.779449 0.558460
Si Si2 0.645171 0.643884 0.127753
Si Si3 0.028718 0.237841 0.791874
Si Si4 0.428216 0.642947 0.250248
Si Si5 0.161087 0.781607 0.194914
Si Si6 0.518771 0.279435 0.412964
Si Si7 0.156944 0.036668 0.089418
O O1 0.263440 0.715958 0.644135
O O2 0.466300 0.568037 0.460914
O O3 0.401838 0.755082 0.605907
O O4 0.068701 0.499118 0.786847
O O5 0.551729 0.666297 0.164306
O O6 0.609075 0.847101 0.205289
O O7 0.641325 0.348901 0.153786
O O8 0.755954 0.761522 0.008632
O O9 0.105468 0.000952 0.743121
O O10 0.061611 0.297013 0.701717
O O11 0.904669 0.145995 0.899260
O O12 0.426295 0.719560 0.190771
O O13 0.201173 0.861873 0.100198
O O14 0.422323 0.432375 0.006425
#
# Coordination Sequence:
#
# PCOD9240597 Si02
#       7
#     4   4   4   4   4   4   4
#     4  10  20  32  54  77  94 140 166 206 278 299
#     4  10  22  31  53  69 104 139 176 194 258 301
#     4  10  20  31  49  75 108 126 169 212 264 304
#     4  10  21  36  45  78 100 138 174 210 235 311
#     4  10  19  30  48  76 103 128 162 207 265 313
#     4  10  20  35  51  72 106 127 176 218 244 311
#     4  10  20  33  50  75 105 137 163 215 255 311
#
# _framework density 17.787195000000001
#
# number of rings (size 3 to 8) (size 9 to 14) (size 15 to 20)
#    0.857    1.143    1.429    2.571    4.000    1.143 
#    0.000    0.000    0.000    0.000    0.000    6.000 
#    0.000    0.000    0.000    0.000    0.000    0.000 
#
# Total GULP energy -156155.918250 kJ/mol
# GULP energy per Si atom -5576.997080 kJ/mol
# Density = 1.774671 g / cm^3
# Si number density = 17.787195 Si / 1000 Ang^3
#
#
#
# Elastic Constant Matrix: (Units=GPa)
#
#
# Indices 1 2 3 4 5 6 
#
# 1 52.6220 9.1702 13.2158 0.0000 -9.6451 0.0000
# 2 9.1702 63.9334 -7.9331 0.0000 -10.4811 0.0000
# 3 13.2158 -7.9331 32.6443 0.0000 -14.1797 0.0000
# 4 0.0000 0.0000 0.0000 16.6257 0.0000 -4.4472
# 5 -9.6451 -10.4811 -14.1797 0.0000 24.7308 0.0000
# 6 0.0000 0.0000 0.0000 -4.4472 0.0000 16.1426
#
#
#
# Elastic Compliance Matrix: (Units=1/GPa)
#
#
# Indices 1 2 3 4 5 6 
#
# 1 0.022363 -0.004100 -0.009343 0.000000 0.001627 0.000000
# 2 -0.004100 0.020146 0.012744 0.000000 0.014246 0.000000
# 3 -0.009343 0.012744 0.050970 0.000000 0.030981 0.000000
# 4 0.000000 0.000000 0.000000 0.064933 0.000000 0.017889
# 5 0.001627 0.014246 0.030981 0.000000 0.064871 0.000000
# 6 0.000000 0.000000 0.000000 0.017889 0.000000 0.066876
#
#
# Mechanical properties :
#
#
# Convention : Reuss Voigt Hill
#
# Bulk Modulus (GPa) = 10.86018 19.78949 15.32484
# Shear Modulus (GPa) = 15.51585 20.48293 17.99939
#
# Velocity S-wave (km/s) = 2.95668 3.39714 3.18454
# Velocity P-wave (km/s) = 4.21602 5.15143 4.70702
#
# Compressibility (1/GPa) = 0.09207948
#
# Stress axis : x y z
#
# Youngs Moduli (GPa) = 44.71744 49.63746 19.61936
#
# Poissons Ratio (x) = 0.20352 0.18331
# Poissons Ratio (y) = 0.18335 -0.25002
# Poissons Ratio (z) = 0.41780 -0.63256
#
# Static dielectric constant tensor:
#      x y z
#    x 1.599890 0.000000 -0.005850 
#    y 0.000000 1.644770 0.000000 
#    z -0.005850 0.000000 1.612770 
# 
# From -- ./inp_files/74497.got.cif
#   From: 2010.05.17/outbox.cif.g08.bks.cpg/sg14_38_cif.got.tgz:74497.got - 2010.06.03 17:49:19.
