data_PCOD9240865
_publ_section_title
;
Structure prediction by ZEFSAII (Michael W. Deem and Ramdas Pophale) SiO2 
 PCOD9240865
Probable space group: P 21/C
;
_chemical_formula_sum "Si O2"
_cell_formula_units_Z 24
_cell_length_a 8.231091
_cell_length_b 9.288966
_cell_length_c 18.741446
_cell_angle_alpha 90.000000
_cell_angle_beta 134.148687
_cell_angle_gamma 90.000000
_cell_volume 1028.183839
_symmetry_space_group_name_H-M "P 21/C"
_symmetry_group_IT_number 14
_symmetry_cell_setting 'monoclinic'
loop_
_space_group_symop_operation_xyz
x,y,z
-x,1/2+y,1/2-z
-x,-y,-z
x,1/2-y,1/2+z
loop_
_atom_site_type_symbol
_atom_site_label
_atom_site_fract_x
_atom_site_fract_y
_atom_site_fract_z
Si Si1 0.794795 0.422085 0.394321
Si Si2 0.944710 0.889544 0.820646
Si Si3 0.978035 0.612981 0.057671
Si Si4 0.490838 0.347048 0.032995
Si Si5 0.007180 0.910437 0.297117
Si Si6 0.577642 0.388864 0.464145
O O1 0.583409 0.431702 0.383886
O O2 0.000000 0.500000 0.500000
O O3 0.773967 0.514827 0.315736
O O4 0.864188 0.255242 0.400132
O O5 0.864513 0.733577 0.769756
O O6 0.159774 0.854760 0.937032
O O7 0.034433 0.991300 0.784396
O O8 0.001659 0.518400 0.137574
O O9 0.718449 0.670775 0.978651
O O10 0.000000 0.500000 0.000000
O O11 0.742773 0.338732 0.141401
O O12 0.446418 0.249085 0.950574
O O13 0.500000 0.500000 0.000000
O O14 0.500000 0.500000 0.500000
#
# Coordination Sequence:
#
# PCOD9240865 Si02
#       6
#     4   4   4   4   4   4
#     4  10  19  33  55  82 110 143 183 226 270 324
#     4  10  20  36  55  82 114 148 185 225 275 327
#     4  11  20  35  59  85 111 144 186 230 275 329
#     4   9  18  33  54  80 108 139 179 224 268 322
#     4  10  21  36  56  82 114 150 184 224 276 329
#     4  10  20  35  57  83 109 142 185 227 275 329
#
# _framework density 23.342129
#
# number of rings (size 3 to 8) (size 9 to 14) (size 15 to 20)
#    0.000    2.000    0.000    7.000    0.000    1.333 
#    0.000    1.667    0.000   18.000    0.000    0.000 
#    0.000    0.000    0.000    0.000    0.000    0.000 
#
# Total GULP energy -133763.431948 kJ/mol
# GULP energy per Si atom -5573.476331 kJ/mol
# Density = 2.328900 g / cm^3
# Si number density = 23.342129 Si / 1000 Ang^3
#
#
#
# Elastic Constant Matrix: (Units=GPa)
#
#
# Indices 1 2 3 4 5 6 
#
# 1 111.7383 45.5866 23.3643 0.0000 -39.8463 0.0000
# 2 45.5866 181.2652 28.0060 0.0000 -40.9469 0.0000
# 3 23.3643 28.0060 72.6470 0.0000 -22.7519 0.0000
# 4 0.0000 0.0000 0.0000 31.2814 0.0000 -15.1646
# 5 -39.8463 -40.9469 -22.7519 0.0000 47.7264 0.0000
# 6 0.0000 0.0000 0.0000 -15.1646 0.0000 38.0229
#
#
#
# Elastic Compliance Matrix: (Units=1/GPa)
#
#
# Indices 1 2 3 4 5 6 
#
# 1 0.012927 -0.000963 -0.000782 0.000000 0.009594 0.000000
# 2 -0.000963 0.006970 -0.000889 0.000000 0.004752 0.000000
# 3 -0.000782 -0.000889 0.016358 0.000000 0.006383 0.000000
# 4 0.000000 0.000000 0.000000 0.039630 0.000000 0.015806
# 5 0.009594 0.004752 0.006383 0.000000 0.036082 0.000000
# 6 0.000000 0.000000 0.000000 0.015806 0.000000 0.032604
#
#
# Mechanical properties :
#
#
# Convention : Reuss Voigt Hill
#
# Bulk Modulus (GPa) = 32.27084 62.17382 47.22233
# Shear Modulus (GPa) = 31.21727 41.31905 36.26816
#
# Velocity S-wave (km/s) = 3.66099 4.21188 3.94606
# Velocity P-wave (km/s) = 5.63255 7.09556 6.40596
#
# Compressibility (1/GPa) = 0.03098772
#
# Stress axis : x y z
#
# Youngs Moduli (GPa) = 77.35754 143.47714 61.13093
#
# Poissons Ratio (x) = 0.13818 0.04778
# Poissons Ratio (y) = 0.07450 0.05434
# Poissons Ratio (z) = 0.06047 0.12754
#
# Static dielectric constant tensor:
#      x y z
#    x 2.021340 0.000000 0.062290 
#    y 0.000000 1.893450 0.000000 
#    z 0.062290 0.000000 2.014720 
# 
# From -- ./inp_files/54632.got.cif
#   From: 2010.05.17/outbox.cif.g08.bks.cpg/sg14_28_cif.got.tgz:54632.got - 2010.06.03 17:49:19.
