data_PCOD9240665
_publ_section_title
;
Structure prediction by ZEFSAII (Michael W. Deem and Ramdas Pophale) SiO2 
 PCOD9240665
Probable space group: P 21/C
;
_chemical_formula_sum "Si O2"
_cell_formula_units_Z 24
_cell_length_a 21.986907
_cell_length_b 5.450976
_cell_length_c 19.944855
_cell_angle_alpha 90.000000
_cell_angle_beta 27.246277
_cell_angle_gamma 90.000000
_cell_volume 1094.360474
_symmetry_space_group_name_H-M "P 21/C"
_symmetry_group_IT_number 14
_symmetry_cell_setting 'monoclinic'
loop_
_space_group_symop_operation_xyz
x,y,z
-x,1/2+y,1/2-z
-x,-y,-z
x,1/2-y,1/2+z
loop_
_atom_site_type_symbol
_atom_site_label
_atom_site_fract_x
_atom_site_fract_y
_atom_site_fract_z
Si Si1 0.841010 0.121636 0.684154
Si Si2 0.973844 0.245544 0.933813
Si Si3 0.485603 0.955217 0.595221
Si Si4 0.762998 0.453174 0.870253
Si Si5 0.083129 0.689581 0.155385
Si Si6 0.390510 0.455047 0.665992
O O1 0.890062 0.321414 0.581706
O O2 0.748702 0.231669 0.831860
O O3 0.752069 0.929751 0.729986
O O4 0.963612 0.003811 0.603198
O O5 0.888506 0.274715 0.950733
O O6 0.102785 0.088718 0.786564
O O7 0.627069 0.904050 0.491582
O O8 0.425427 0.217749 0.675033
O O9 0.500000 0.000000 0.500000
O O10 0.395782 0.719028 0.696142
O O11 0.796656 0.363649 0.911705
O O12 0.010089 0.944014 0.248994
O O13 0.500000 0.500000 0.500000
#
# Coordination Sequence:
#
# PCOD9240665 Si02
#       6
#     4   4   4   4   4   4
#     4  11  20  34  57  81 116 141 185 230 284 323
#     4  10  22  35  52  86 113 148 177 232 283 334
#     4  10  19  31  54  78 105 133 190 226 267 307
#     4  11  20  34  58  80 111 148 184 231 273 338
#     4  10  21  37  55  77 113 148 186 216 271 335
#     4  10  19  33  51  81 104 140 178 233 264 321
#
# _framework density 21.930615
#
# number of rings (size 3 to 8) (size 9 to 14) (size 15 to 20)
#    0.000    1.667    5.000    2.500    0.000    0.000 
#    0.000    0.000    0.000    2.000    0.000    0.000 
#    0.000    0.000    0.000    0.000    0.000    0.000 
#
# Total GULP energy -133761.607657 kJ/mol
# GULP energy per Si atom -5573.400319 kJ/mol
# Density = 2.188070 g / cm^3
# Si number density = 21.930615 Si / 1000 Ang^3
#
#
#
# Elastic Constant Matrix: (Units=GPa)
#
#
# Indices 1 2 3 4 5 6 
#
# 1 141.9039 15.2979 33.7727 0.0000 -11.4293 0.0000
# 2 15.2979 111.3584 5.9969 0.0000 -2.7095 0.0000
# 3 33.7727 5.9969 47.7746 0.0000 -19.8732 0.0000
# 4 0.0000 0.0000 0.0000 20.1835 0.0000 -9.0906
# 5 -11.4293 -2.7095 -19.8732 0.0000 25.5584 0.0000
# 6 0.0000 0.0000 0.0000 -9.0906 0.0000 25.6013
#
#
#
# Elastic Compliance Matrix: (Units=1/GPa)
#
#
# Indices 1 2 3 4 5 6 
#
# 1 0.008582 -0.000861 -0.006504 0.000000 -0.001311 0.000000
# 2 -0.000861 0.009128 -0.000436 0.000000 0.000244 0.000000
# 3 -0.006504 -0.000436 0.035999 0.000000 0.025036 0.000000
# 4 0.000000 0.000000 0.000000 0.058978 0.000000 0.020942
# 5 -0.001311 0.000244 0.025036 0.000000 0.058033 0.000000
# 6 0.000000 0.000000 0.000000 0.020942 0.000000 0.046497
#
#
# Mechanical properties :
#
#
# Convention : Reuss Voigt Hill
#
# Bulk Modulus (GPa) = 26.24168 45.68577 35.96373
# Shear Modulus (GPa) = 20.36495 30.66660 25.51578
#
# Velocity S-wave (km/s) = 3.05061 3.74350 3.41468
# Velocity P-wave (km/s) = 4.93964 6.28986 5.65519
#
# Compressibility (1/GPa) = 0.03810732
#
# Stress axis : x y z
#
# Youngs Moduli (GPa) = 116.52045 109.55723 27.77872
#
# Poissons Ratio (x) = 0.09429 0.18068
# Poissons Ratio (y) = 0.10028 0.01211
# Poissons Ratio (z) = 0.75786 0.04776
#
# Static dielectric constant tensor:
#      x y z
#    x 1.846110 0.000000 0.044920 
#    y 0.000000 2.174080 0.000000 
#    z 0.044920 0.000000 1.897750 
# 
# From -- ./inp_files/61563.got.cif
#   From: 2010.05.17/outbox.cif.g08.bks.cpg/sg14_31_cif.got.tgz:61563.got - 2010.06.03 17:49:19.
