data_PCOD9240031
_publ_section_title
;
Structure prediction by ZEFSAII (Michael W. Deem and Ramdas Pophale) SiO2 
 PCOD9240031
Probable space group: P 21/C
;
_chemical_formula_sum "Si O2"
_cell_formula_units_Z 28
_cell_length_a 6.499503
_cell_length_b 12.786898
_cell_length_c 19.762525
_cell_angle_alpha 90.000000
_cell_angle_beta 69.588498
_cell_angle_gamma 90.000000
_cell_volume 1539.308333
_symmetry_space_group_name_H-M "P 21/C"
_symmetry_group_IT_number 14
_symmetry_cell_setting 'monoclinic'
loop_
_space_group_symop_operation_xyz
x,y,z
-x,1/2+y,1/2-z
-x,-y,-z
x,1/2-y,1/2+z
loop_
_atom_site_type_symbol
_atom_site_label
_atom_site_fract_x
_atom_site_fract_y
_atom_site_fract_z
Si Si1 0.584975 0.260240 0.193455
Si Si2 0.443934 0.995066 0.294846
Si Si3 0.871362 0.363883 0.754027
Si Si4 0.821509 0.690414 0.167809
Si Si5 0.696200 0.419832 0.573337
Si Si6 0.260653 0.999408 0.162744
Si Si7 0.996932 0.888829 0.088188
O O1 0.574559 0.380029 0.172812
O O2 0.767946 0.236360 0.229503
O O3 0.354500 0.232070 0.256220
O O4 0.646492 0.177888 0.128214
O O5 0.685274 0.046018 0.271650
O O6 0.284941 0.082399 0.345191
O O7 0.368456 0.983309 0.224469
O O8 0.954341 0.338229 0.819368
O O9 0.085678 0.407425 0.691535
O O10 0.859276 0.782767 0.110694
O O11 0.456766 0.469683 0.590119
O O12 0.842937 0.510611 0.591650
O O13 0.827732 0.385235 0.492265
O O14 0.123669 0.906946 0.144380
#
# Coordination Sequence:
#
# PCOD9240031 Si02
#       7
#     4   4   4   4   4   4   4
#     4  11  19  36  56  82 111 147 185 234 273 339
#     4  10  21  33  58  85 112 142 192 236 280 326
#     4  10  18  34  56  82 111 139 189 231 280 322
#     4  10  21  35  56  82 113 147 189 230 282 328
#     4  11  22  37  56  87 116 149 191 227 284 337
#     4  11  17  36  54  84 111 145 186 232 281 332
#     4  11  23  37  58  83 120 151 183 235 283 335
#
# _framework density 18.189988
#
# number of rings (size 3 to 8) (size 9 to 14) (size 15 to 20)
#    0.000    1.429    5.714    3.000    0.000    2.286 
#    0.000    0.714    0.000    0.857    0.000    0.000 
#    0.000    0.000    0.000    0.000    0.000    0.000 
#
# Total GULP energy -156139.291078 kJ/mol
# GULP energy per Si atom -5576.403253 kJ/mol
# Density = 1.814859 g / cm^3
# Si number density = 18.189988 Si / 1000 Ang^3
#
#
#
# Elastic Constant Matrix: (Units=GPa)
#
#
# Indices 1 2 3 4 5 6 
#
# 1 82.1711 20.9281 16.7434 0.0000 -10.4552 0.0000
# 2 20.9281 127.1217 25.8817 0.0000 -14.2530 0.0000
# 3 16.7434 25.8817 38.8998 0.0000 -13.0768 0.0000
# 4 0.0000 0.0000 0.0000 28.2257 0.0000 -2.5332
# 5 -10.4552 -14.2530 -13.0768 0.0000 20.2418 0.0000
# 6 0.0000 0.0000 0.0000 -2.5332 0.0000 11.7492
#
#
#
# Elastic Compliance Matrix: (Units=1/GPa)
#
#
# Indices 1 2 3 4 5 6 
#
# 1 0.013720 -0.001029 -0.003937 0.000000 0.003819 0.000000
# 2 -0.001029 0.009340 -0.004777 0.000000 0.002959 0.000000
# 3 -0.003937 -0.004777 0.036746 0.000000 0.018342 0.000000
# 4 0.000000 0.000000 0.000000 0.036128 0.000000 0.007790
# 5 0.003819 0.002959 0.018342 0.000000 0.065308 0.000000
# 6 0.000000 0.000000 0.000000 0.007790 0.000000 0.086792
#
#
# Mechanical properties :
#
#
# Convention : Reuss Voigt Hill
#
# Bulk Modulus (GPa) = 24.80136 41.69990 33.25063
# Shear Modulus (GPa) = 17.79614 24.35261 21.07438
#
# Velocity S-wave (km/s) = 3.13125 3.66292 3.40747
# Velocity P-wave (km/s) = 5.17080 6.39247 5.81382
#
# Compressibility (1/GPa) = 0.04032037
#
# Stress axis : x y z
#
# Youngs Moduli (GPa) = 72.88688 107.06391 27.21397
#
# Poissons Ratio (x) = 0.11017 0.10714
# Poissons Ratio (y) = 0.07500 0.12999
# Poissons Ratio (z) = 0.28696 0.51141
#
# Static dielectric constant tensor:
#      x y z
#    x 1.658750 0.000000 0.015460 
#    y 0.000000 1.641390 0.000000 
#    z 0.015460 0.000000 1.619250 
# 
# From -- ./inp_files/63475.got.cif
#   From: 2010.05.17/outbox.cif.g08.bks.cpg/sg14_32_cif.got.tgz:63475.got - 2010.06.03 17:49:19.
