data_PCOD9240099
_publ_section_title
;
Structure prediction by ZEFSAII (Michael W. Deem and Ramdas Pophale) SiO2 
 PCOD9240099
Probable space group: P 21/C
;
_chemical_formula_sum "Si O2"
_cell_formula_units_Z 28
_cell_length_a 9.674489
_cell_length_b 13.109621
_cell_length_c 16.327331
_cell_angle_alpha 90.000000
_cell_angle_beta 46.946795
_cell_angle_gamma 90.000000
_cell_volume 1513.158463
_symmetry_space_group_name_H-M "P 21/C"
_symmetry_group_IT_number 14
_symmetry_cell_setting 'monoclinic'
loop_
_space_group_symop_operation_xyz
x,y,z
-x,1/2+y,1/2-z
-x,-y,-z
x,1/2-y,1/2+z
loop_
_atom_site_type_symbol
_atom_site_label
_atom_site_fract_x
_atom_site_fract_y
_atom_site_fract_z
Si Si1 0.480132 0.344291 0.971506
Si Si2 0.250091 0.021325 0.682431
Si Si3 0.955232 0.903659 0.075758
Si Si4 0.094876 0.123058 0.217416
Si Si5 0.285787 0.335384 0.463743
Si Si6 0.184266 0.704014 0.614825
Si Si7 0.387646 0.529533 0.628036
O O1 0.583086 0.438188 0.885778
O O2 0.393033 0.267831 0.941577
O O3 0.636320 0.279916 0.959536
O O4 0.321749 0.388502 0.095506
O O5 0.187639 0.061156 0.795576
O O6 0.071376 0.960436 0.718813
O O7 0.853992 0.826278 0.055346
O O8 0.132368 0.855859 0.052826
O O9 0.000000 0.000000 0.000000
O O10 0.997005 0.226525 0.288387
O O11 0.265981 0.070673 0.198975
O O12 0.171695 0.137144 0.093438
O O13 0.447885 0.421585 0.382986
O O14 0.243681 0.619919 0.658720
O O15 0.500000 0.500000 0.500000
#
# Coordination Sequence:
#
# PCOD9240099 Si02
#       7
#     4   4   4   4   4   4   4
#     4   9  21  39  60  83 111 152 202 233 269 341
#     4  10  19  38  62  81 112 156 193 232 284 338
#     4  12  21  37  56  86 119 146 182 239 299 334
#     4  10  18  34  61  84 107 154 197 233 268 345
#     4  10  20  34  54  86 117 143 185 240 287 335
#     4  10  20  35  59  86 110 151 200 224 281 345
#     4   9  17  34  53  78 111 146 192 229 270 337
#
# _framework density 18.504341
#
# number of rings (size 3 to 8) (size 9 to 14) (size 15 to 20)
#    0.000    2.000    2.857    1.714    0.000    0.000 
#    5.143    0.000    0.000    2.571    0.000    0.000 
#    0.000    0.000    0.000    0.000    0.000    0.000 
#
# Total GULP energy -156052.690001 kJ/mol
# GULP energy per Si atom -5573.310357 kJ/mol
# Density = 1.846222 g / cm^3
# Si number density = 18.504341 Si / 1000 Ang^3
#
#
#
# Elastic Constant Matrix: (Units=GPa)
#
#
# Indices 1 2 3 4 5 6 
#
# 1 62.3909 12.1469 -8.4022 0.0000 4.2422 0.0000
# 2 12.1469 65.4651 17.8969 0.0000 -6.1455 0.0000
# 3 -8.4022 17.8969 39.4720 0.0000 -5.5408 0.0000
# 4 0.0000 0.0000 0.0000 39.1676 0.0000 -15.2988
# 5 4.2422 -6.1455 -5.5408 0.0000 22.5240 0.0000
# 6 0.0000 0.0000 0.0000 -15.2988 0.0000 32.9384
#
#
#
# Elastic Compliance Matrix: (Units=1/GPa)
#
#
# Indices 1 2 3 4 5 6 
#
# 1 0.018053 -0.005239 0.005739 0.000000 -0.003418 0.000000
# 2 -0.005239 0.019144 -0.009243 0.000000 0.003936 0.000000
# 3 0.005739 -0.009243 0.031323 0.000000 0.004103 0.000000
# 4 0.000000 0.000000 0.000000 0.031190 0.000000 0.014487
# 5 -0.003418 0.003936 0.004103 0.000000 0.047124 0.000000
# 6 0.000000 0.000000 0.000000 0.014487 0.000000 0.037088
#
#
# Mechanical properties :
#
#
# Convention : Reuss Voigt Hill
#
# Bulk Modulus (GPa) = 19.59523 23.40125 21.49824
# Shear Modulus (GPa) = 22.89174 28.63843 25.76508
#
# Velocity S-wave (km/s) = 3.52106 3.93830 3.73551
# Velocity P-wave (km/s) = 5.20990 5.77530 5.49987
#
# Compressibility (1/GPa) = 0.05103283
#
# Stress axis : x y z
#
# Youngs Moduli (GPa) = 55.39154 52.23629 31.92584
#
# Poissons Ratio (x) = 0.27369 -0.18321
# Poissons Ratio (y) = 0.29022 0.29508
# Poissons Ratio (z) = -0.31788 0.48280
#
# Static dielectric constant tensor:
#      x y z
#    x 1.646920 0.000000 -0.045750 
#    y 0.000000 1.691260 0.000000 
#    z -0.045750 0.000000 1.626700 
# 
# From -- ./inp_files/41134.got.cif
#   From: 2010.05.17/outbox.cif.g08.bks.cpg/sg14_21_cif.got.tgz:41134.got - 2010.06.03 17:49:19.
