data_PCOD9240791
_publ_section_title
;
Structure prediction by ZEFSAII (Michael W. Deem and Ramdas Pophale) SiO2 
 PCOD9240791
Probable space group: P 21/C
;
_chemical_formula_sum "Si O2"
_cell_formula_units_Z 28
_cell_length_a 29.841196
_cell_length_b 5.133739
_cell_length_c 18.473615
_cell_angle_alpha 90.000000
_cell_angle_beta 153.039437
_cell_angle_gamma 90.000000
_cell_volume 1283.102899
_symmetry_space_group_name_H-M "P 21/C"
_symmetry_group_IT_number 14
_symmetry_cell_setting 'monoclinic'
loop_
_space_group_symop_operation_xyz
x,y,z
-x,1/2+y,1/2-z
-x,-y,-z
x,1/2-y,1/2+z
loop_
_atom_site_type_symbol
_atom_site_label
_atom_site_fract_x
_atom_site_fract_y
_atom_site_fract_z
Si Si1 0.134291 0.826000 0.129538
Si Si2 0.087487 0.083475 0.446910
Si Si3 0.283992 0.084560 0.268787
Si Si4 0.166582 0.180639 0.410779
Si Si5 0.505970 0.748787 0.956638
Si Si6 0.706512 0.176718 0.874088
Si Si7 0.049254 0.673611 0.644640
O O1 0.105288 0.693334 0.011746
O O2 0.104608 0.674769 0.159887
O O3 0.246719 0.912314 0.282451
O O4 0.059327 0.067030 0.032093
O O5 0.189311 0.231487 0.617603
O O6 0.087182 0.156884 0.362093
O O7 0.982465 0.163540 0.330545
O O8 0.386850 0.233870 0.426429
O O9 0.294033 0.907789 0.211257
O O10 0.227403 0.449346 0.494459
O O11 0.243449 0.954850 0.544630
O O12 0.115547 0.068391 0.265924
O O13 0.407482 0.715152 0.766885
O O14 0.500000 0.500000 0.000000
O O15 0.500000 0.000000 0.000000
#
# Coordination Sequence:
#
# PCOD9240791 Si02
#       7
#     4   4   4   4   4   4   4
#     4  10  20  40  54  81 117 149 207 240 300 359
#     4  10  20  34  57  82 116 148 198 250 296 359
#     4   9  19  33  56  86 114 151 188 246 296 352
#     4  11  23  37  58  86 120 156 195 244 307 350
#     4  10  19  32  59  90 120 151 191 244 305 347
#     4  10  20  37  55  88 121 149 195 245 294 362
#     4  10  24  35  57  82 112 161 198 245 295 364
#
# _framework density 21.822099999999999
#
# number of rings (size 3 to 8) (size 9 to 14) (size 15 to 20)
#    0.000    2.000    1.429    3.000    6.000    0.000 
#    0.000    0.000    0.000    1.714    0.000    0.000 
#    0.000    0.000    0.000    0.000    0.000    0.000 
#
# Total GULP energy -156010.345249 kJ/mol
# GULP energy per Si atom -5571.798045 kJ/mol
# Density = 2.177243 g / cm^3
# Si number density = 21.822100 Si / 1000 Ang^3
#
#
#
# Elastic Constant Matrix: (Units=GPa)
#
#
# Indices 1 2 3 4 5 6 
#
# 1 80.2933 12.1147 50.7325 0.0000 20.6454 0.0000
# 2 12.1147 82.7310 21.8817 0.0000 15.0977 0.0000
# 3 50.7325 21.8817 108.4402 0.0000 30.4739 0.0000
# 4 0.0000 0.0000 0.0000 27.6081 0.0000 7.7830
# 5 20.6454 15.0977 30.4739 0.0000 35.1863 0.0000
# 6 0.0000 0.0000 0.0000 7.7830 0.0000 19.8807
#
#
#
# Elastic Compliance Matrix: (Units=1/GPa)
#
#
# Indices 1 2 3 4 5 6 
#
# 1 0.018174 0.000065 -0.007284 0.000000 -0.004383 0.000000
# 2 0.000065 0.013279 -0.001451 0.000000 -0.004479 0.000000
# 3 -0.007284 -0.001451 0.015260 0.000000 -0.008320 0.000000
# 4 0.000000 0.000000 0.000000 0.040715 0.000000 -0.015939
# 5 -0.004383 -0.004479 -0.008320 0.000000 0.040120 0.000000
# 6 0.000000 0.000000 0.000000 -0.015939 0.000000 0.056540
#
#
# Mechanical properties :
#
#
# Convention : Reuss Voigt Hill
#
# Bulk Modulus (GPa) = 34.04473 48.99136 41.51804
# Shear Modulus (GPa) = 23.67222 28.98406 26.32814
#
# Velocity S-wave (km/s) = 3.29718 3.64840 3.47722
# Velocity P-wave (km/s) = 5.48909 6.34404 5.93198
#
# Compressibility (1/GPa) = 0.02937312
#
# Stress axis : x y z
#
# Youngs Moduli (GPa) = 55.02464 75.30641 65.52966
#
# Poissons Ratio (x) = -0.00490 0.47730
# Poissons Ratio (y) = -0.00358 0.09510
# Poissons Ratio (z) = 0.40079 0.10929
#
# Static dielectric constant tensor:
#      x y z
#    x 1.977300 0.000000 -0.041540 
#    y 0.000000 1.940060 0.000000 
#    z -0.041540 0.000000 1.851310 
# 
# From -- ./inp_files/62162.got.cif
#   From: 2010.05.17/outbox.cif.g08.bks.cpg/sg14_32_cif.got.tgz:62162.got - 2010.06.03 17:49:19.
