data_PCOD9240157
_publ_section_title
;
Structure prediction by ZEFSAII (Michael W. Deem and Ramdas Pophale) SiO2 
 PCOD9240157
Probable space group: P 21/C
;
_chemical_formula_sum "Si O2"
_cell_formula_units_Z 28
_cell_length_a 13.985542
_cell_length_b 9.839121
_cell_length_c 8.445585
_cell_angle_alpha 90.000000
_cell_angle_beta 61.059793
_cell_angle_gamma 90.000000
_cell_volume 1017.034103
_symmetry_space_group_name_H-M "P 21/C"
_symmetry_group_IT_number 14
_symmetry_cell_setting 'monoclinic'
loop_
_space_group_symop_operation_xyz
x,y,z
-x,1/2+y,1/2-z
-x,-y,-z
x,1/2-y,1/2+z
loop_
_atom_site_type_symbol
_atom_site_label
_atom_site_fract_x
_atom_site_fract_y
_atom_site_fract_z
Si Si1 0.170617 0.535350 0.357573
Si Si2 0.088602 0.089853 0.639597
Si Si3 0.882681 0.336262 0.111728
Si Si4 0.677972 0.829833 0.660037
Si Si5 0.621498 0.408733 0.021361
Si Si6 0.528514 0.173496 0.260759
Si Si7 0.301684 0.498253 0.554907
O O1 0.088730 0.439470 0.326310
O O2 0.133588 0.684662 0.434886
O O3 0.261501 0.565850 0.151055
O O4 0.231109 0.464678 0.454838
O O5 0.984588 0.163638 0.650792
O O6 0.090203 0.944227 0.547980
O O7 0.201433 0.166370 0.504421
O O8 0.776839 0.398071 0.284976
O O9 0.603808 0.947262 0.626759
O O10 0.685041 0.872458 0.835882
O O11 0.578043 0.730550 0.707919
O O12 0.550313 0.367443 0.926437
O O13 0.619574 0.295387 0.156060
O O14 0.586380 0.067426 0.089853
#
# Coordination Sequence:
#
# PCOD9240157 Si02
#       7
#     4   4   4   4   4   4   4
#     4  10  19  34  59  87 113 141 200 248 273 340
#     4   9  21  35  56  82 111 155 186 233 300 343
#     4  10  18  35  58  80 114 145 192 238 290 333
#     4  10  21  38  57  82 124 151 191 237 290 345
#     4  10  21  34  58  88 110 155 200 233 284 340
#     4  11  20  35  59  85 116 150 192 244 283 336
#     4  10  20  31  56  87 106 145 192 236 282 329
#
# _framework density 27.531033999999998
#
# number of rings (size 3 to 8) (size 9 to 14) (size 15 to 20)
#    0.000    2.000    1.429    2.571    8.000    0.571 
#    0.000    0.000   15.714    0.000    0.000    0.000 
#    0.000    0.000    0.000    0.000    0.000    0.000 
#
# Total GULP energy -156717.272968 kJ/mol
# GULP energy per Si atom -5597.045463 kJ/mol
# Density = 2.746837 g / cm^3
# Si number density = 27.531034 Si / 1000 Ang^3
#
#
#
# Elastic Constant Matrix: (Units=GPa)
#
#
# Indices 1 2 3 4 5 6 
#
# 1 183.0857 8.4591 42.2992 0.0000 13.3944 0.0000
# 2 8.4591 56.5143 4.9856 0.0000 -3.5424 0.0000
# 3 42.2992 4.9856 127.8768 0.0000 -5.6052 0.0000
# 4 0.0000 0.0000 0.0000 26.2412 0.0000 3.8264
# 5 13.3944 -3.5424 -5.6052 0.0000 52.9333 0.0000
# 6 0.0000 0.0000 0.0000 3.8264 0.0000 23.7491
#
#
#
# Elastic Compliance Matrix: (Units=1/GPa)
#
#
# Indices 1 2 3 4 5 6 
#
# 1 0.006112 -0.000847 -0.002069 0.000000 -0.001822 0.000000
# 2 -0.000847 0.017939 -0.000359 0.000000 0.001377 0.000000
# 3 -0.002069 -0.000359 0.008580 0.000000 0.001408 0.000000
# 4 0.000000 0.000000 0.000000 0.039025 0.000000 -0.006288
# 5 -0.001822 0.001377 0.001408 0.000000 0.019594 0.000000
# 6 0.000000 0.000000 0.000000 -0.006288 0.000000 0.043120
#
#
# Mechanical properties :
#
#
# Convention : Reuss Voigt Hill
#
# Bulk Modulus (GPa) = 38.33921 53.21829 45.77875
# Shear Modulus (GPa) = 33.41941 41.36691 37.39316
#
# Velocity S-wave (km/s) = 3.48786 3.88049 3.68940
# Velocity P-wave (km/s) = 5.49329 6.28091 5.90026
#
# Compressibility (1/GPa) = 0.02608296
#
# Stress axis : x y z
#
# Youngs Moduli (GPa) = 163.60442 55.74347 116.54979
#
# Poissons Ratio (x) = 0.04719 0.24111
# Poissons Ratio (y) = 0.13851 0.04184
# Poissons Ratio (z) = 0.33845 0.02001
#
# Static dielectric constant tensor:
#      x y z
#    x 2.306660 0.000000 -0.211010 
#    y 0.000000 2.384190 0.000000 
#    z -0.211010 0.000000 2.266050 
# 
# From -- ./inp_files/15504.got.cif
#   From: 2010.05.17/outbox.cif.g08.bks.cpg/sg14_8_cif.got.tgz:15504.got - 2010.06.03 17:49:19.
