data_PCOD9240035
_publ_section_title
;
Structure prediction by ZEFSAII (Michael W. Deem and Ramdas Pophale) SiO2 
 PCOD9240035
Probable space group: P 21/C
;
_chemical_formula_sum "Si O2"
_cell_formula_units_Z 32
_cell_length_a 10.271868
_cell_length_b 14.392509
_cell_length_c 20.542373
_cell_angle_alpha 90.000000
_cell_angle_beta 26.133913
_cell_angle_gamma 90.000000
_cell_volume 1337.683916
_symmetry_space_group_name_H-M "P 21/C"
_symmetry_group_IT_number 14
_symmetry_cell_setting 'monoclinic'
loop_
_space_group_symop_operation_xyz
x,y,z
-x,1/2+y,1/2-z
-x,-y,-z
x,1/2-y,1/2+z
loop_
_atom_site_type_symbol
_atom_site_label
_atom_site_fract_x
_atom_site_fract_y
_atom_site_fract_z
Si Si1 0.302855 0.310466 0.829258
Si Si2 0.146518 0.068622 0.026464
Si Si3 0.530641 0.663132 0.848179
Si Si4 0.921039 0.657425 0.846829
Si Si5 0.473945 0.009145 0.753544
Si Si6 0.143113 0.578834 0.632478
Si Si7 0.893387 0.243409 0.617853
Si Si8 0.674282 0.267804 0.929008
O O1 0.384017 0.259176 0.726174
O O2 0.320500 0.421155 0.823922
O O3 0.559568 0.275785 0.763567
O O4 0.008445 0.269668 0.993039
O O5 0.090677 0.176293 0.061987
O O6 0.831903 0.031258 0.139863
O O7 0.224905 0.010525 0.054930
O O8 0.375927 0.053645 0.865521
O O9 0.424503 0.587281 0.842952
O O10 0.845575 0.623545 0.733396
O O11 0.313860 0.680004 0.006644
O O12 0.035920 0.568471 0.754959
O O13 0.042344 0.657315 0.864849
O O14 0.574518 0.675646 0.998014
O O15 0.065070 0.742246 0.738673
O O16 0.388817 0.660035 0.521834
#
# Coordination Sequence:
#
# PCOD9240035 Si02
#       8
#     4   4   4   4   4   4   4   4
#     4  11  23  34  60  83 113 149 176 230 286 330
#     4   9  16  33  56  81 105 148 193 222 258 339
#     4  10  18  34  56  84 111 136 186 230 279 321
#     4   9  19  35  54  79 107 146 188 223 270 324
#     4   9  18  32  53  84 112 142 186 222 271 348
#     4   8  18  32  58  80 101 144 191 232 252 321
#     4  11  22  37  57  81 115 149 185 222 283 331
#     4   9  18  33  59  78 104 146 181 233 269 317
#
# _framework density 23.921944
#
# number of rings (size 3 to 8) (size 9 to 14) (size 15 to 20)
#    0.750    1.750    1.250    1.500    3.500    0.000 
#    0.000    2.500    2.750    6.000    0.000    0.000 
#    0.000    0.000    0.000    0.000    0.000    0.000 
#
# Total GULP energy -178525.928176 kJ/mol
# GULP energy per Si atom -5578.935256 kJ/mol
# Density = 2.386750 g / cm^3
# Si number density = 23.921944 Si / 1000 Ang^3
#
#
#
# Elastic Constant Matrix: (Units=GPa)
#
#
# Indices 1 2 3 4 5 6 
#
# 1 24.8711 -3.6701 6.9725 0.0000 4.2135 0.0000
# 2 -3.6701 52.7618 5.2285 0.0000 -8.1696 0.0000
# 3 6.9725 5.2285 52.8489 0.0000 3.0557 0.0000
# 4 0.0000 0.0000 0.0000 24.0039 0.0000 1.6315
# 5 4.2135 -8.1696 3.0557 0.0000 28.5389 0.0000
# 6 0.0000 0.0000 0.0000 1.6315 0.0000 28.0645
#
#
#
# Elastic Compliance Matrix: (Units=1/GPa)
#
#
# Indices 1 2 3 4 5 6 
#
# 1 0.043047 0.002790 -0.005669 0.000000 -0.004950 0.000000
# 2 0.002790 0.020296 -0.002705 0.000000 0.005688 0.000000
# 3 -0.005669 -0.002705 0.020058 0.000000 -0.002085 0.000000
# 4 0.000000 0.000000 0.000000 0.041825 0.000000 -0.002432
# 5 -0.004950 0.005688 -0.002085 0.000000 0.037622 0.000000
# 6 0.000000 0.000000 0.000000 -0.002432 0.000000 0.035774
#
#
# Mechanical properties :
#
#
# Convention : Reuss Voigt Hill
#
# Bulk Modulus (GPa) = 13.84425 16.39375 15.11900
# Shear Modulus (GPa) = 21.37964 24.25154 22.81559
#
# Velocity S-wave (km/s) = 2.99277 3.18744 3.09164
# Velocity P-wave (km/s) = 4.21213 4.51822 4.36785
#
# Compressibility (1/GPa) = 0.07223217
#
# Stress axis : x y z
#
# Youngs Moduli (GPa) = 23.23046 49.27116 49.85555
#
# Poissons Ratio (x) = -0.13745 0.28264
# Poissons Ratio (y) = -0.06480 0.13485
# Poissons Ratio (z) = 0.13170 0.13327
#
# Static dielectric constant tensor:
#      x y z
#    x 1.955900 0.000000 0.000170 
#    y 0.000000 1.929690 0.000000 
#    z 0.000170 0.000000 1.884230 
# 
# From -- ./inp_files/67487.got.cif
#   From: 2010.05.17/outbox.cif.g08.bks.cpg/sg14_34_cif.got.tgz:67487.got - 2010.06.03 17:49:19.
