data_PCOD9240169
_publ_section_title
;
Structure prediction by ZEFSAII (Michael W. Deem and Ramdas Pophale) SiO2 
 PCOD9240169
Probable space group: P 21/C
;
_chemical_formula_sum "Si O2"
_cell_formula_units_Z 28
_cell_length_a 15.197018
_cell_length_b 16.636868
_cell_length_c 9.842434
_cell_angle_alpha 90.000000
_cell_angle_beta 152.731397
_cell_angle_gamma 90.000000
_cell_volume 1140.123869
_symmetry_space_group_name_H-M "P 21/C"
_symmetry_group_IT_number 14
_symmetry_cell_setting 'monoclinic'
loop_
_space_group_symop_operation_xyz
x,y,z
-x,1/2+y,1/2-z
-x,-y,-z
x,1/2-y,1/2+z
loop_
_atom_site_type_symbol
_atom_site_label
_atom_site_fract_x
_atom_site_fract_y
_atom_site_fract_z
Si Si1 0.526628 0.294572 0.559861
Si Si2 0.556016 0.956593 0.935084
Si Si3 0.923718 0.240860 0.228906
Si Si4 0.270471 0.607676 0.409268
Si Si5 0.377286 0.128882 0.428825
Si Si6 0.045836 0.336082 0.645077
Si Si7 0.213020 0.525986 0.738091
O O1 0.410585 0.363986 0.480032
O O2 0.709216 0.269906 0.901963
O O3 0.626308 0.336330 0.565321
O O4 0.405708 0.211605 0.385330
O O5 0.377707 0.959843 0.580145
O O6 0.732150 0.014085 0.133434
O O7 0.500000 0.000000 0.000000
O O8 0.914659 0.157080 0.298813
O O9 0.037529 0.230795 0.246890
O O10 0.009728 0.306516 0.444181
O O11 0.412576 0.607330 0.732037
O O12 0.285189 0.047399 0.242381
O O13 0.260070 0.133234 0.413346
O O14 0.862308 0.391122 0.428385
O O15 0.000000 0.500000 0.500000
#
# Coordination Sequence:
#
# PCOD9240169 Si02
#       7
#     4   4   4   4   4   4   4
#     4  10  18  35  59  85 115 153 195 240 294 349
#     4   9  17  32  60  85 117 156 197 237 297 359
#     4  11  21  36  58  84 115 152 200 239 293 356
#     4   9  19  36  55  85 113 153 193 241 287 354
#     4   9  21  35  58  86 117 148 195 247 293 355
#     4  11  22  37  60  84 118 157 194 245 301 358
#     4   9  18  37  57  85 118 157 195 243 307 356
#
# _framework density 24.558734000000001
#
# number of rings (size 3 to 8) (size 9 to 14) (size 15 to 20)
#    0.000    2.286    2.857    0.000    2.000    0.000 
#    0.000    9.286    3.143    0.857    0.000    0.000 
#    0.000    0.000    0.000    0.000    0.000    0.000 
#
# Total GULP energy -155948.086150 kJ/mol
# GULP energy per Si atom -5569.574505 kJ/mol
# Density = 2.450284 g / cm^3
# Si number density = 24.558734 Si / 1000 Ang^3
#
#
#
# Elastic Constant Matrix: (Units=GPa)
#
#
# Indices 1 2 3 4 5 6 
#
# 1 69.9631 41.3236 10.8475 0.0000 3.6356 0.0000
# 2 41.3236 78.5591 4.6804 0.0000 -9.8711 0.0000
# 3 10.8475 4.6804 52.3929 0.0000 -1.0229 0.0000
# 4 0.0000 0.0000 0.0000 14.3408 0.0000 -0.5041
# 5 3.6356 -9.8711 -1.0229 0.0000 16.7670 0.0000
# 6 0.0000 0.0000 0.0000 -0.5041 0.0000 31.1129
#
#
#
# Elastic Compliance Matrix: (Units=1/GPa)
#
#
# Indices 1 2 3 4 5 6 
#
# 1 0.023937 -0.014079 -0.003966 0.000000 -0.013721 0.000000
# 2 -0.014079 0.022087 0.001257 0.000000 0.016133 0.000000
# 3 -0.003966 0.001257 0.019850 0.000000 0.002811 0.000000
# 4 0.000000 0.000000 0.000000 0.069771 0.000000 0.001131
# 5 -0.013721 0.016133 0.002811 0.000000 0.072285 0.000000
# 6 0.000000 0.000000 0.000000 0.001131 0.000000 0.032159
#
#
# Mechanical properties :
#
#
# Convention : Reuss Voigt Hill
#
# Bulk Modulus (GPa) = 30.96180 34.95757 32.95969
# Shear Modulus (GPa) = 17.57887 22.04839 19.81363
#
# Velocity S-wave (km/s) = 2.67833 2.99955 2.84348
# Velocity P-wave (km/s) = 4.71160 5.12461 4.92244
#
# Compressibility (1/GPa) = 0.03229787
#
# Stress axis : x y z
#
# Youngs Moduli (GPa) = 41.77646 45.27481 50.37710
#
# Poissons Ratio (x) = 0.63743 0.19980
# Poissons Ratio (y) = 0.58817 -0.06331
# Poissons Ratio (z) = 0.16569 -0.05690
#
# Static dielectric constant tensor:
#      x y z
#    x 2.032680 0.000000 0.061980 
#    y 0.000000 2.198850 0.000000 
#    z 0.061980 0.000000 1.927220 
# 
# From -- ./inp_files/25759.got.cif
#   From: 2010.05.17/outbox.cif.g08.bks.cpg/sg14_13_cif.got.tgz:25759.got - 2010.06.03 17:49:19.
