data_PCOD9240255
_publ_section_title
;
Structure prediction by ZEFSAII (Michael W. Deem and Ramdas Pophale) SiO2 
 PCOD9240255
Probable space group: P 21/C
;
_chemical_formula_sum "Si O2"
_cell_formula_units_Z 32
_cell_length_a 9.153766
_cell_length_b 15.131548
_cell_length_c 13.627649
_cell_angle_alpha 90.000000
_cell_angle_beta 70.538399
_cell_angle_gamma 90.000000
_cell_volume 1779.727933
_symmetry_space_group_name_H-M "P 21/C"
_symmetry_group_IT_number 14
_symmetry_cell_setting 'monoclinic'
loop_
_space_group_symop_operation_xyz
x,y,z
-x,1/2+y,1/2-z
-x,-y,-z
x,1/2-y,1/2+z
loop_
_atom_site_type_symbol
_atom_site_label
_atom_site_fract_x
_atom_site_fract_y
_atom_site_fract_z
Si Si1 0.353230 0.823056 0.769827
Si Si2 0.483771 0.135354 0.068772
Si Si3 0.384365 0.544829 0.648366
Si Si4 0.851350 0.158785 0.675133
Si Si5 0.689754 0.082172 0.523387
Si Si6 0.449920 0.198818 0.454724
Si Si7 0.403796 0.473654 0.219772
Si Si8 0.805397 0.912928 0.397312
O O1 0.415529 0.823201 0.866736
O O2 0.205407 0.759154 0.792418
O O3 0.487225 0.785372 0.668170
O O4 0.339772 0.926811 0.745928
O O5 0.371896 0.061125 0.140034
O O6 0.587578 0.084139 0.965386
O O7 0.409926 0.213181 0.023033
O O8 0.244015 0.595005 0.730390
O O9 0.532091 0.556927 0.688803
O O10 0.791749 0.133216 0.579935
O O11 0.029631 0.133092 0.644474
O O12 0.593453 0.149133 0.476698
O O13 0.555100 0.029894 0.614659
O O14 0.793686 0.014041 0.438228
O O15 0.301462 0.138041 0.500630
O O16 0.279980 0.414435 0.189572
#
# Coordination Sequence:
#
# PCOD9240255 Si02
#       8
#     4   4   4   4   4   4   4   4
#     4  11  19  35  62  85 109 154 193 231 281 346
#     4  10  20  36  62  83 110 143 204 237 270 340
#     4   9  20  37  60  83 108 155 190 235 285 346
#     4  11  22  34  57  87 122 147 190 238 301 331
#     4  10  18  36  57  84 110 153 188 237 287 336
#     4  11  19  35  61  84 110 149 198 237 276 338
#     4   9  18  35  62  81 108 149 198 227 281 344
#     4  11  21  35  56  91 118 147 187 249 288 342
#
# _framework density 17.980277000000001
#
# number of rings (size 3 to 8) (size 9 to 14) (size 15 to 20)
#    0.000    1.750    5.000    1.125    0.000    0.000 
#    2.250    0.000    8.250    2.250    0.000    0.000 
#    0.000    0.000    0.000    0.000    0.000    0.000 
#
# Total GULP energy -178329.427969 kJ/mol
# GULP energy per Si atom -5572.794624 kJ/mol
# Density = 1.793935 g / cm^3
# Si number density = 17.980277 Si / 1000 Ang^3
#
#
#
# Elastic Constant Matrix: (Units=GPa)
#
#
# Indices 1 2 3 4 5 6 
#
# 1 97.0761 31.4675 46.0404 0.0000 -8.3304 0.0000
# 2 31.4675 69.8140 19.7444 0.0000 -3.6314 0.0000
# 3 46.0404 19.7444 79.2605 0.0000 16.4616 0.0000
# 4 0.0000 0.0000 0.0000 22.8396 0.0000 -1.0026
# 5 -8.3304 -3.6314 16.4616 0.0000 20.3979 0.0000
# 6 0.0000 0.0000 0.0000 -1.0026 0.0000 22.7475
#
#
#
# Elastic Compliance Matrix: (Units=1/GPa)
#
#
# Indices 1 2 3 4 5 6 
#
# 1 0.020330 -0.003925 -0.014909 0.000000 0.019636 0.000000
# 2 -0.003925 0.017051 -0.002721 0.000000 0.003629 0.000000
# 3 -0.014909 -0.002721 0.028016 0.000000 -0.029183 0.000000
# 4 0.000000 0.000000 0.000000 0.043869 0.000000 0.001934
# 5 0.019636 0.003629 -0.029183 0.000000 0.081241 0.000000
# 6 0.000000 0.000000 0.000000 0.001934 0.000000 0.044046
#
#
# Mechanical properties :
#
#
# Convention : Reuss Voigt Hill
#
# Bulk Modulus (GPa) = 44.87246 48.96168 46.91707
# Shear Modulus (GPa) = 17.53817 23.12354 20.33085
#
# Velocity S-wave (km/s) = 3.12655 3.59004 3.36628
# Velocity P-wave (km/s) = 6.16801 6.66892 6.42335
#
# Compressibility (1/GPa) = 0.02228539
#
# Stress axis : x y z
#
# Youngs Moduli (GPa) = 49.18922 58.64635 35.69409
#
# Poissons Ratio (x) = 0.23021 0.53217
# Poissons Ratio (y) = 0.19308 0.09713
# Poissons Ratio (z) = 0.73338 0.15958
#
# Static dielectric constant tensor:
#      x y z
#    x 1.589210 0.000000 0.034950 
#    y 0.000000 1.680700 0.000000 
#    z 0.034950 0.000000 1.631220 
# 
# From -- ./inp_files/41199.got.cif
#   From: 2010.05.17/outbox.cif.g08.bks.cpg/sg14_21_cif.got.tgz:41199.got - 2010.06.03 17:49:19.
