data_PCOD9240849
_publ_section_title
;
Structure prediction by ZEFSAII (Michael W. Deem and Ramdas Pophale) SiO2 
 PCOD9240849
Probable space group: P 21/C
;
_chemical_formula_sum "Si O2"
_cell_formula_units_Z 24
_cell_length_a 15.129259
_cell_length_b 8.003540
_cell_length_c 17.610844
_cell_angle_alpha 90.000000
_cell_angle_beta 155.568034
_cell_angle_gamma 90.000000
_cell_volume 882.010077
_symmetry_space_group_name_H-M "P 21/C"
_symmetry_group_IT_number 14
_symmetry_cell_setting 'monoclinic'
loop_
_space_group_symop_operation_xyz
x,y,z
-x,1/2+y,1/2-z
-x,-y,-z
x,1/2-y,1/2+z
loop_
_atom_site_type_symbol
_atom_site_label
_atom_site_fract_x
_atom_site_fract_y
_atom_site_fract_z
Si Si1 0.096420 0.312873 0.561312
Si Si2 0.226837 0.629479 0.866587
Si Si3 0.242016 0.826216 0.612085
Si Si4 0.562588 0.538137 0.262584
Si Si5 0.433570 0.191295 0.953854
Si Si6 0.931999 0.723239 0.244817
O O1 0.240691 0.333594 0.598849
O O2 0.266697 0.252710 0.758468
O O3 0.000000 0.500000 0.500000
O O4 0.897300 0.186533 0.420137
O O5 0.085491 0.466826 0.742232
O O6 0.066838 0.768167 0.773891
O O7 0.395041 0.581170 0.064329
O O8 0.365248 0.689252 0.904183
O O9 0.347427 0.645856 0.678958
O O10 0.429740 0.952508 0.736998
O O11 0.064258 0.837561 0.406646
O O12 0.311187 0.217031 0.937518
O O13 0.500000 0.000000 0.000000
#
# Coordination Sequence:
#
# PCOD9240849 Si02
#       6
#     4   4   4   4   4   4
#     4   8  16  33  53  71 102 145 178 214 276 344
#     4  10  20  34  53  78 108 143 180 226 282 338
#     4   9  18  33  52  72  98 134 175 216 262 322
#     4   9  18  33  52  72  98 134 175 216 262 322
#     4  10  19  33  54  81 110 141 185 238 285 340
#     4  10  20  34  53  78 108 143 180 226 282 338
#
# _framework density 27.210574999999999
#
# number of rings (size 3 to 8) (size 9 to 14) (size 15 to 20)
#    0.000    2.667    0.000    1.500    0.000    1.333 
#    0.000    0.833    0.000    0.000    0.000    0.000 
#    0.000    0.000    0.000    0.000    0.000    0.000 
#
# Total GULP energy -134145.660182 kJ/mol
# GULP energy per Si atom -5589.402508 kJ/mol
# Density = 2.714864 g / cm^3
# Si number density = 27.210575 Si / 1000 Ang^3
#
#
#
# Elastic Constant Matrix: (Units=GPa)
#
#
# Indices 1 2 3 4 5 6 
#
# 1 18.8731 3.3717 84.1464 0.0000 12.4897 0.0000
# 2 3.3717 111.0052 45.2754 0.0000 24.8714 0.0000
# 3 84.1464 45.2754 89.4858 0.0000 26.8219 0.0000
# 4 0.0000 0.0000 0.0000 44.0763 0.0000 14.6807
# 5 12.4897 24.8714 26.8219 0.0000 79.9094 0.0000
# 6 0.0000 0.0000 0.0000 14.6807 0.0000 31.5531
#
#
#
# Elastic Compliance Matrix: (Units=1/GPa)
#
#
# Indices 1 2 3 4 5 6 
#
# 1 -0.012732 -0.005487 0.015166 0.000000 -0.001393 0.000000
# 2 -0.005487 0.009220 0.001221 0.000000 -0.002422 0.000000
# 3 0.015166 0.001221 -0.003202 0.000000 -0.001676 0.000000
# 4 0.000000 0.000000 0.000000 0.026849 0.000000 -0.012492
# 5 -0.001393 -0.002422 -0.001676 0.000000 0.014048 0.000000
# 6 0.000000 0.000000 0.000000 -0.012492 0.000000 0.037505
#
#
# Mechanical properties :
#
#
# Convention : Reuss Voigt Hill
#
# Bulk Modulus (GPa) = 66.28781 53.88344 60.08562
# Shear Modulus (GPa) = 91.04872 36.87913 63.96392
#
# Velocity S-wave (km/s) = 5.79081 3.68547 4.85366
# Velocity P-wave (km/s) = 8.31415 6.16081 7.31713
#
# Compressibility (1/GPa) = 0.01508573
#
# Stress axis : x y z
#
# Youngs Moduli (GPa) = -78.53947 108.46013 -312.32080
#
# Poissons Ratio (x) = 0.59513 4.73678
# Poissons Ratio (y) = -0.43095 0.38125
# Poissons Ratio (z) = 1.19116 -0.13240
#
# Static dielectric constant tensor:
#      x y z
#    x 2.191900 0.000000 -0.005410 
#    y 0.000000 2.080990 0.000000 
#    z -0.005410 0.000000 2.164540 
# 
# From -- ./inp_files/74278.got.cif
#   From: 2010.05.17/outbox.cif.g08.bks.cpg/sg14_38_cif.got.tgz:74278.got - 2010.06.03 17:49:19.
