data_PCOD9240978
_publ_section_title
;
Structure prediction by ZEFSAII (Michael W. Deem and Ramdas Pophale) SiO2 
 PCOD9240978
Probable space group: P 21/C
;
_chemical_formula_sum "Si O2"
_cell_formula_units_Z 20
_cell_length_a 6.401232
_cell_length_b 4.725623
_cell_length_c 29.396423
_cell_angle_alpha 90.000000
_cell_angle_beta 48.143807
_cell_angle_gamma 90.000000
_cell_volume 662.322619
_symmetry_space_group_name_H-M "P 21/C"
_symmetry_group_IT_number 14
_symmetry_cell_setting 'monoclinic'
loop_
_space_group_symop_operation_xyz
x,y,z
-x,1/2+y,1/2-z
-x,-y,-z
x,1/2-y,1/2+z
loop_
_atom_site_type_symbol
_atom_site_label
_atom_site_fract_x
_atom_site_fract_y
_atom_site_fract_z
Si Si1 0.937900 0.277662 0.050038
Si Si2 0.231988 0.014025 0.670627
Si Si3 0.476408 0.697311 0.047947
Si Si4 0.137341 0.189859 0.877307
Si Si5 0.173940 0.014745 0.777237
O O1 0.904246 0.496996 0.097148
O O2 0.762548 0.014546 0.096658
O O3 0.242605 0.118244 0.996846
O O4 0.000000 0.500000 0.000000
O O5 0.339448 0.062952 0.706170
O O6 0.965858 0.208199 0.697125
O O7 0.447836 0.002629 0.597392
O O8 0.101571 0.703522 0.693234
O O9 0.189160 0.873950 0.088909
O O10 0.500000 0.500000 0.000000
O O11 0.296864 0.129318 0.806752
#
# Coordination Sequence:
#
# PCOD9240978 Si02
#       5
#     4   4   4   4   4
#     4  11  22  34  50  73 102 131 163 206 253 298
#     4   9  17  27  46  74 100 122 155 204 244 282
#     4   9  18  32  52  75  99 129 165 203 245 296
#     4  10  19  34  53  72  96 131 168 204 245 299
#     4   9  16  29  47  72  98 123 158 201 245 283
#
# _framework density 30.196766
#
# number of rings (size 3 to 8) (size 9 to 14) (size 15 to 20)
#    0.000    2.400    0.000    4.800    0.000    4.800 
#    0.000    0.000    0.000    2.400    0.000    0.000 
#    0.000    0.000    0.000    0.000    0.000    0.000 
#
# Total GULP energy -111661.454135 kJ/mol
# GULP energy per Si atom -5583.072707 kJ/mol
# Density = 3.012804 g / cm^3
# Si number density = 30.196766 Si / 1000 Ang^3
#
#
#
# Elastic Constant Matrix: (Units=GPa)
#
#
# Indices 1 2 3 4 5 6 
#
# 1 45.8491 7.0036 53.1452 0.0000 8.4716 0.0000
# 2 7.0036 89.4047 28.2936 0.0000 16.4401 0.0000
# 3 53.1452 28.2936 309.0488 0.0000 45.3874 0.0000
# 4 0.0000 0.0000 0.0000 35.5064 0.0000 8.8311
# 5 8.4716 16.4401 45.3874 0.0000 76.5286 0.0000
# 6 0.0000 0.0000 0.0000 8.8311 0.0000 35.2365
#
#
#
# Elastic Compliance Matrix: (Units=1/GPa)
#
#
# Indices 1 2 3 4 5 6 
#
# 1 0.027281 -0.000651 -0.004610 0.000000 -0.000146 0.000000
# 2 -0.000651 0.011828 -0.000666 0.000000 -0.002074 0.000000
# 3 -0.004610 -0.000666 0.004375 0.000000 -0.001941 0.000000
# 4 0.000000 0.000000 0.000000 0.030036 0.000000 -0.007528
# 5 -0.000146 -0.002074 -0.001941 0.000000 0.014680 0.000000
# 6 0.000000 0.000000 0.000000 -0.007528 0.000000 0.030266
#
#
# Mechanical properties :
#
#
# Convention : Reuss Voigt Hill
#
# Bulk Modulus (GPa) = 31.61748 69.02083 50.31916
# Shear Modulus (GPa) = 35.49499 53.17829 44.33664
#
# Velocity S-wave (km/s) = 3.43221 4.20105 3.83594
# Velocity P-wave (km/s) = 5.11859 6.81457 6.02654
#
# Compressibility (1/GPa) = 0.03162807
#
# Stress axis : x y z
#
# Youngs Moduli (GPa) = 36.65548 84.54292 228.59217
#
# Poissons Ratio (x) = 0.05506 1.05388
# Poissons Ratio (y) = 0.02387 0.15232
# Poissons Ratio (z) = 0.16899 0.05633
#
# Static dielectric constant tensor:
#      x y z
#    x 2.864850 0.000000 0.072870 
#    y 0.000000 2.212670 0.000000 
#    z 0.072870 0.000000 2.412650 
# 
# From -- ./inp_files/64016.got.cif
#   From: 2010.05.17/outbox.cif.g08.bks.cpg/sg14_33_cif.got.tgz:64016.got - 2010.06.03 17:49:19.
