data_PCOD9240514
_publ_section_title
;
Structure prediction by ZEFSAII (Michael W. Deem and Ramdas Pophale) SiO2 
 PCOD9240514
Probable space group: P 21/C
;
_chemical_formula_sum "Si O2"
_cell_formula_units_Z 30
_cell_length_a 13.088183
_cell_length_b 7.522320
_cell_length_c 13.405764
_cell_angle_alpha 90.000000
_cell_angle_beta 64.298464
_cell_angle_gamma 90.000000
_cell_volume 1189.266112
_symmetry_space_group_name_H-M "P 21/C"
_symmetry_group_IT_number 14
_symmetry_cell_setting 'monoclinic'
loop_
_space_group_symop_operation_xyz
x,y,z
-x,1/2+y,1/2-z
-x,-y,-z
x,1/2-y,1/2+z
loop_
_atom_site_type_symbol
_atom_site_label
_atom_site_fract_x
_atom_site_fract_y
_atom_site_fract_z
Si Si1 0.220618 0.589188 0.730845
Si Si2 0.116518 0.640443 0.407333
Si Si3 0.000000 0.000000 0.500000
Si Si4 0.326410 0.319955 0.818762
Si Si5 0.921938 0.970286 0.871492
Si Si6 0.488822 0.040940 0.672737
Si Si7 0.371252 0.819551 0.559130
Si Si8 0.810593 0.897639 0.429887
O O1 0.215266 0.744589 0.815658
O O2 0.232924 0.408393 0.786955
O O3 0.108431 0.589135 0.711052
O O4 0.320268 0.631651 0.612403
O O5 0.019965 0.788430 0.470033
O O6 0.138358 0.539270 0.500669
O O7 0.053456 0.526610 0.348372
O O8 0.904032 0.008697 0.450991
O O9 0.377922 0.137072 0.760321
O O10 0.430778 0.459439 0.777563
O O11 0.275647 0.320569 0.949865
O O12 0.870030 0.778868 0.862525
O O13 0.563388 0.173979 0.572904
O O14 0.454385 0.886062 0.610688
O O15 0.268186 0.964025 0.597128
#
# Coordination Sequence:
#
# PCOD9240514 Si02
#       8
#     4   4   2   4   4   4   4   4
#     4  12  24  39  67  99 126 173 227 264 327 400
#     4  10  23  42  62  94 131 176 214 270 319 384
#     4  10  18  40  64  86 134 170 204 270 320 382
#     4  11  23  40  66  98 124 175 220 273 331 398
#     4  10  24  41  61  97 132 173 219 265 327 384
#     4  10  23  42  62  93 130 164 219 273 341 382
#     4  10  23  41  63  91 130 172 210 279 330 391
#     4  10  21  40  65  91 132 174 215 270 332 385
#
# _framework density 25.225639000000001
#
# number of rings (size 3 to 8) (size 9 to 14) (size 15 to 20)
#    0.000    1.600    1.333    2.400    3.733    4.800 
#    2.400    0.000    0.000    0.000    0.000    0.000 
#    0.000    0.000    0.000    0.000    0.000    0.000 
#
# Total GULP energy -167290.395036 kJ/mol
# GULP energy per Si atom -5576.346501 kJ/mol
# Density = 2.516822 g / cm^3
# Si number density = 25.225639 Si / 1000 Ang^3
#
#
#
# Elastic Constant Matrix: (Units=GPa)
#
#
# Indices 1 2 3 4 5 6 
#
# 1 65.1460 -9.8918 20.3991 0.0000 25.7465 0.0000
# 2 -9.8918 32.8647 13.6420 0.0000 3.8444 0.0000
# 3 20.3991 13.6420 41.7092 0.0000 2.7159 0.0000
# 4 0.0000 0.0000 0.0000 23.7081 0.0000 -2.9731
# 5 25.7465 3.8444 2.7159 0.0000 36.9859 0.0000
# 6 0.0000 0.0000 0.0000 -2.9731 0.0000 40.5336
#
#
#
# Elastic Compliance Matrix: (Units=1/GPa)
#
#
# Indices 1 2 3 4 5 6 
#
# 1 0.037332 0.024554 -0.024548 0.000000 -0.026737 0.000000
# 2 0.024554 0.051654 -0.027573 0.000000 -0.020437 0.000000
# 3 -0.024548 -0.027573 0.043911 0.000000 0.016730 0.000000
# 4 0.000000 0.000000 0.000000 0.042571 0.000000 0.003123
# 5 -0.026737 -0.020437 0.016730 0.000000 0.046545 0.000000
# 6 0.000000 0.000000 0.000000 0.003123 0.000000 0.024900
#
#
# Mechanical properties :
#
#
# Convention : Reuss Voigt Hill
#
# Bulk Modulus (GPa) = 12.85968 20.89093 16.87531
# Shear Modulus (GPa) = 15.24537 27.95022 21.59779
#
# Velocity S-wave (km/s) = 2.46104 3.33229 2.92924
# Velocity P-wave (km/s) = 3.63105 4.80678 4.25968
#
# Compressibility (1/GPa) = 0.07776241
#
# Stress axis : x y z
#
# Youngs Moduli (GPa) = 26.78667 19.35950 22.77354
#
# Poissons Ratio (x) = -0.47535 0.55905
# Poissons Ratio (y) = -0.65772 0.62793
# Poissons Ratio (z) = 0.65757 0.53380
#
# Static dielectric constant tensor:
#      x y z
#    x 2.031540 0.000000 -0.066840 
#    y 0.000000 1.961710 0.000000 
#    z -0.066840 0.000000 2.008190 
# 
# From -- ./inp_files/31551.got.cif
#   From: 2010.05.17/outbox.cif.g08.bks.cpg/sg14_16_cif.got.tgz:31551.got - 2010.06.03 17:49:19.
