data_PCOD9240281
_publ_section_title
;
Structure prediction by ZEFSAII (Michael W. Deem and Ramdas Pophale) SiO2 
 PCOD9240281
Probable space group: P 21/C
;
_chemical_formula_sum "Si O2"
_cell_formula_units_Z 24
_cell_length_a 8.629975
_cell_length_b 14.520867
_cell_length_c 9.301515
_cell_angle_alpha 90.000000
_cell_angle_beta 109.345506
_cell_angle_gamma 90.000000
_cell_volume 1099.803862
_symmetry_space_group_name_H-M "P 21/C"
_symmetry_group_IT_number 14
_symmetry_cell_setting 'monoclinic'
loop_
_space_group_symop_operation_xyz
x,y,z
-x,1/2+y,1/2-z
-x,-y,-z
x,1/2-y,1/2+z
loop_
_atom_site_type_symbol
_atom_site_label
_atom_site_fract_x
_atom_site_fract_y
_atom_site_fract_z
Si Si1 0.388682 0.866889 0.175434
Si Si2 0.753044 0.985841 0.510935
Si Si3 0.435479 0.431523 0.781815
Si Si4 0.435293 0.783560 0.890035
Si Si5 0.088998 0.760170 0.170509
Si Si6 0.044511 0.369543 0.119026
O O1 0.461207 0.820736 0.343559
O O2 0.196198 0.839854 0.126163
O O3 0.409766 0.975066 0.182803
O O4 0.460628 0.812915 0.060948
O O5 0.703205 0.929949 0.638206
O O6 0.795762 0.922517 0.387160
O O7 0.605500 0.052266 0.419067
O O8 0.906647 0.051202 0.594000
O O9 0.459127 0.347283 0.682581
O O10 0.238552 0.794256 0.796863
O O11 0.963475 0.806612 0.242601
O O12 0.008405 0.694547 0.030170
#
# Coordination Sequence:
#
# PCOD9240281 Si02
#       6
#     4   4   4   4   4   4
#     4  10  20  35  60  89 115 159 196 241 296 353
#     4  10  22  36  62  88 114 156 199 245 294 355
#     4  11  21  38  60  92 122 150 200 248 298 348
#     4  10  20  35  60  89 115 159 196 241 296 353
#     4  10  18  36  60  86 108 158 196 240 282 358
#     4  11  20  40  62  82 114 158 203 238 295 353
#
# _framework density 21.822073
#
# number of rings (size 3 to 8) (size 9 to 14) (size 15 to 20)
#    1.000    0.667    5.000    0.500    4.667    0.000 
#    3.000    0.000    3.667    4.000    0.000    0.000 
#    0.000    0.000    0.000    0.000    0.000    0.000 
#
# Total GULP energy -133935.083870 kJ/mol
# GULP energy per Si atom -5580.628495 kJ/mol
# Density = 2.177241 g / cm^3
# Si number density = 21.822073 Si / 1000 Ang^3
#
#
#
# Elastic Constant Matrix: (Units=GPa)
#
#
# Indices 1 2 3 4 5 6 
#
# 1 74.8149 23.8828 22.1136 0.0000 -34.6984 0.0000
# 2 23.8828 70.1054 13.5874 0.0000 -16.7250 0.0000
# 3 22.1136 13.5874 67.2452 0.0000 -37.5827 0.0000
# 4 0.0000 0.0000 0.0000 43.2857 0.0000 -18.7514
# 5 -34.6984 -16.7250 -37.5827 0.0000 34.9763 0.0000
# 6 0.0000 0.0000 0.0000 -18.7514 0.0000 36.1588
#
#
#
# Elastic Compliance Matrix: (Units=1/GPa)
#
#
# Indices 1 2 3 4 5 6 
#
# 1 0.031799 -0.002494 0.017552 0.000000 0.049214 0.000000
# 2 -0.002494 0.016484 0.001282 0.000000 0.006786 0.000000
# 3 0.017552 0.001282 0.047349 0.000000 0.068903 0.000000
# 4 0.000000 0.000000 0.000000 0.029796 0.000000 0.015452
# 5 0.049214 0.006786 0.068903 0.000000 0.154696 0.000000
# 6 0.000000 0.000000 0.000000 0.015452 0.000000 0.035669
#
#
# Mechanical properties :
#
#
# Convention : Reuss Voigt Hill
#
# Bulk Modulus (GPa) = 7.79346 36.81479 22.30412
# Shear Modulus (GPa) = 15.34282 33.05628 24.19955
#
# Velocity S-wave (km/s) = 2.65446 3.89628 3.33370
# Velocity P-wave (km/s) = 3.60194 6.09495 5.00611
#
# Compressibility (1/GPa) = 0.12831278
#
# Stress axis : x y z
#
# Youngs Moduli (GPa) = 31.44707 60.66383 21.11962
#
# Poissons Ratio (x) = 0.15129 -0.37069
# Poissons Ratio (y) = 0.07843 -0.02707
# Poissons Ratio (z) = -0.55196 -0.07776
#
# Static dielectric constant tensor:
#      x y z
#    x 1.820340 0.000000 -0.015220 
#    y 0.000000 1.793450 0.000000 
#    z -0.015220 0.000000 1.787840 
# 
# From -- ./inp_files/8506.got.cif
#   From: 2010.05.17/outbox.cif.g08.bks.cpg/sg14_5_cif.got.tgz:8506.got - 2010.06.03 17:49:19.
