data_PCOD9240756
_publ_section_title
;
Structure prediction by ZEFSAII (Michael W. Deem and Ramdas Pophale) SiO2 
 PCOD9240756
Probable space group: P 21/C
;
_chemical_formula_sum "Si O2"
_cell_formula_units_Z 32
_cell_length_a 12.361705
_cell_length_b 11.257966
_cell_length_c 19.921479
_cell_angle_alpha 90.000000
_cell_angle_beta 40.385392
_cell_angle_gamma 90.000000
_cell_volume 1796.325794
_symmetry_space_group_name_H-M "P 21/C"
_symmetry_group_IT_number 14
_symmetry_cell_setting 'monoclinic'
loop_
_space_group_symop_operation_xyz
x,y,z
-x,1/2+y,1/2-z
-x,-y,-z
x,1/2-y,1/2+z
loop_
_atom_site_type_symbol
_atom_site_label
_atom_site_fract_x
_atom_site_fract_y
_atom_site_fract_z
Si Si1 0.192337 0.368187 0.381905
Si Si2 0.708137 0.871711 0.719376
Si Si3 0.459333 0.987489 0.319293
Si Si4 0.724700 0.060172 0.954160
Si Si5 0.682234 0.204012 0.240707
Si Si6 0.006493 0.072938 0.102600
Si Si7 0.630580 0.064702 0.849633
Si Si8 0.652173 0.245036 0.096664
O O1 0.176788 0.236260 0.358840
O O2 0.383128 0.417263 0.288843
O O3 0.127059 0.373776 0.488410
O O4 0.085930 0.460900 0.388615
O O5 0.536137 0.804761 0.819299
O O6 0.661009 0.955692 0.679163
O O7 0.744079 0.960171 0.763431
O O8 0.360690 0.886495 0.406507
O O9 0.546728 0.098916 0.314443
O O10 0.698106 0.100194 0.890604
O O11 0.880862 0.973264 0.890371
O O12 0.747332 0.168027 0.996332
O O13 0.555512 0.988810 0.053667
O O14 0.626200 0.324966 0.301349
O O15 0.705384 0.218438 0.148727
O O16 0.858382 0.163479 0.187818
#
# Coordination Sequence:
#
# PCOD9240756 Si02
#       8
#     4   4   4   4   4   4   4   4
#     4   9  17  30  51  79 106 131 175 218 260 311
#     4   9  16  28  51  78 103 135 172 218 260 301
#     4   9  16  27  52  83 102 133 175 223 260 297
#     4  10  21  35  57  75 105 141 183 218 259 320
#     4  10  19  32  55  80 110 137 177 222 268 320
#     4  10  19  33  51  76 104 141 173 217 267 319
#     4  10  20  37  54  80 104 141 180 219 262 319
#     4   9  16  29  53  81 102 131 177 223 255 305
#
# _framework density 17.814140999999999
#
# number of rings (size 3 to 8) (size 9 to 14) (size 15 to 20)
#    0.000    2.500    1.250    3.750    3.500    0.000 
#    2.250    1.250    0.000    0.000    0.000    0.000 
#    0.000    0.000    0.000    0.000    0.000    0.000 
#
# Total GULP energy -178276.251739 kJ/mol
# GULP energy per Si atom -5571.132867 kJ/mol
# Density = 1.777360 g / cm^3
# Si number density = 17.814141 Si / 1000 Ang^3
#
#
#
# Elastic Constant Matrix: (Units=GPa)
#
#
# Indices 1 2 3 4 5 6 
#
# 1 59.7001 21.8992 19.7051 0.0000 9.0591 0.0000
# 2 21.8992 113.2999 26.7484 0.0000 16.9139 0.0000
# 3 19.7051 26.7484 28.7728 0.0000 6.2891 0.0000
# 4 0.0000 0.0000 0.0000 26.1014 0.0000 4.4263
# 5 9.0591 16.9139 6.2891 0.0000 17.0458 0.0000
# 6 0.0000 0.0000 0.0000 4.4263 0.0000 12.9311
#
#
#
# Elastic Compliance Matrix: (Units=1/GPa)
#
#
# Indices 1 2 3 4 5 6 
#
# 1 0.022340 -0.000062 -0.013770 0.000000 -0.006730 0.000000
# 2 -0.000062 0.012404 -0.009578 0.000000 -0.008741 0.000000
# 3 -0.013770 -0.009578 0.053748 0.000000 -0.003008 0.000000
# 4 0.000000 0.000000 0.000000 0.040673 0.000000 -0.013922
# 5 -0.006730 -0.008741 -0.003008 0.000000 0.072025 0.000000
# 6 0.000000 0.000000 0.000000 -0.013922 0.000000 0.082099
#
#
# Mechanical properties :
#
#
# Convention : Reuss Voigt Hill
#
# Bulk Modulus (GPa) = 23.99829 37.60867 30.80348
# Shear Modulus (GPa) = 14.53483 20.11033 17.32258
#
# Velocity S-wave (km/s) = 2.85952 3.36355 3.12173
# Velocity P-wave (km/s) = 4.93996 6.02015 5.50660
#
# Compressibility (1/GPa) = 0.04166963
#
# Stress axis : x y z
#
# Youngs Moduli (GPa) = 44.76350 80.61645 18.60545
#
# Poissons Ratio (x) = 0.00502 0.25621
# Poissons Ratio (y) = 0.00279 0.17821
# Poissons Ratio (z) = 0.61641 0.77218
#
# Static dielectric constant tensor:
#      x y z
#    x 1.609270 0.000000 -0.011080 
#    y 0.000000 1.643650 0.000000 
#    z -0.011080 0.000000 1.632950 
# 
# From -- ./inp_files/67259.got.cif
#   From: 2010.05.17/outbox.cif.g08.bks.cpg/sg14_34_cif.got.tgz:67259.got - 2010.06.03 17:49:19.
