data_PCOD9240279
_publ_section_title
;
Structure prediction by ZEFSAII (Michael W. Deem and Ramdas Pophale) SiO2 
 PCOD9240279
Probable space group: P 21/C
;
_chemical_formula_sum "Si O2"
_cell_formula_units_Z 28
_cell_length_a 8.010640
_cell_length_b 22.920876
_cell_length_c 8.117373
_cell_angle_alpha 90.000000
_cell_angle_beta 51.075173
_cell_angle_gamma 90.000000
_cell_volume 1159.517537
_symmetry_space_group_name_H-M "P 21/C"
_symmetry_group_IT_number 14
_symmetry_cell_setting 'monoclinic'
loop_
_space_group_symop_operation_xyz
x,y,z
-x,1/2+y,1/2-z
-x,-y,-z
x,1/2-y,1/2+z
loop_
_atom_site_type_symbol
_atom_site_label
_atom_site_fract_x
_atom_site_fract_y
_atom_site_fract_z
Si Si1 0.481082 0.857229 0.471523
Si Si2 0.142785 0.838517 0.267260
Si Si3 0.195017 0.554473 0.933811
Si Si4 0.113679 0.723465 0.129440
Si Si5 0.790332 0.518080 0.369960
Si Si6 0.692499 0.404393 0.615345
Si Si7 0.858605 0.635699 0.495975
O O1 0.349884 0.903904 0.440957
O O2 0.335935 0.799035 0.575535
O O3 0.696259 0.846365 0.239399
O O4 0.492543 0.887277 0.642665
O O5 0.059962 0.898782 0.403599
O O6 0.059233 0.790690 0.188961
O O7 0.155656 0.796082 0.416506
O O8 0.330109 0.867502 0.039718
O O9 0.304288 0.508841 0.741211
O O10 0.040320 0.521788 0.156677
O O11 0.925047 0.685944 0.328399
O O12 0.736537 0.470936 0.541196
O O13 0.753062 0.582387 0.460009
O O14 0.917455 0.386185 0.563417
#
# Coordination Sequence:
#
# PCOD9240279 Si02
#       7
#     4   4   4   4   4   4   4
#     4  10  21  37  55  87 117 150 194 230 283 336
#     4  10  19  39  65  79 111 152 188 235 294 334
#     4   9  19  36  60  85 113 154 189 234 286 333
#     4  10  20  39  60  83 109 150 190 239 283 337
#     4  10  18  36  60  83 117 153 190 232 282 334
#     4  10  21  37  57  83 117 152 188 234 282 338
#     4  11  21  36  58  88 118 152 190 233 283 335
#
# _framework density 24.147974999999999
#
# number of rings (size 3 to 8) (size 9 to 14) (size 15 to 20)
#    0.000    2.000    4.286    2.143    0.000    1.143 
#    0.000   12.857    0.000    0.000    0.000    0.000 
#    0.000    0.000    0.000    0.000    0.000    0.000 
#
# Total GULP energy -156082.497754 kJ/mol
# GULP energy per Si atom -5574.374920 kJ/mol
# Density = 2.409301 g / cm^3
# Si number density = 24.147975 Si / 1000 Ang^3
#
#
#
# Elastic Constant Matrix: (Units=GPa)
#
#
# Indices 1 2 3 4 5 6 
#
# 1 48.5072 26.2228 23.2408 0.0000 -2.3282 0.0000
# 2 26.2228 142.8681 58.0985 0.0000 4.3816 0.0000
# 3 23.2408 58.0985 179.0860 0.0000 8.0005 0.0000
# 4 0.0000 0.0000 0.0000 35.1853 0.0000 17.3312
# 5 -2.3282 4.3816 8.0005 0.0000 17.6751 0.0000
# 6 0.0000 0.0000 0.0000 17.3312 0.0000 17.7721
#
#
#
# Elastic Compliance Matrix: (Units=1/GPa)
#
#
# Indices 1 2 3 4 5 6 
#
# 1 0.023859 -0.003667 -0.002131 0.000000 0.005016 0.000000
# 2 -0.003667 0.008639 -0.002255 0.000000 -0.001604 0.000000
# 3 -0.002131 -0.002255 0.006715 0.000000 -0.002761 0.000000
# 4 0.000000 0.000000 0.000000 0.054693 0.000000 -0.053336
# 5 0.005016 -0.001604 -0.002761 0.000000 0.058885 0.000000
# 6 0.000000 0.000000 0.000000 -0.053336 0.000000 0.108281
#
#
# Mechanical properties :
#
#
# Convention : Reuss Voigt Hill
#
# Bulk Modulus (GPa) = 43.27447 65.06505 54.16976
# Shear Modulus (GPa) = 17.55126 31.65312 24.60219
#
# Velocity S-wave (km/s) = 2.69889 3.62442 3.19534
# Velocity P-wave (km/s) = 5.26036 6.67219 6.00789
#
# Compressibility (1/GPa) = 0.02310831
#
# Stress axis : x y z
#
# Youngs Moduli (GPa) = 41.91227 115.75864 148.91171
#
# Poissons Ratio (x) = 0.42444 0.31732
# Poissons Ratio (y) = 0.15367 0.33580
# Poissons Ratio (z) = 0.08931 0.26104
#
# Static dielectric constant tensor:
#      x y z
#    x 2.057920 0.000000 0.042460 
#    y 0.000000 1.915040 0.000000 
#    z 0.042460 0.000000 1.942770 
# 
# From -- ./inp_files/14468.got.cif
#   From: 2010.05.17/outbox.cif.g08.bks.cpg/sg14_8_cif.got.tgz:14468.got - 2010.06.03 17:49:19.
