data_PCOD9240082
_publ_section_title
;
Structure prediction by ZEFSAII (Michael W. Deem and Ramdas Pophale) SiO2 
 PCOD9240082
Probable space group: P 21/C
;
_chemical_formula_sum "Si O2"
_cell_formula_units_Z 28
_cell_length_a 27.253128
_cell_length_b 9.210340
_cell_length_c 8.381884
_cell_angle_alpha 90.000000
_cell_angle_beta 39.745394
_cell_angle_gamma 90.000000
_cell_volume 1345.212224
_symmetry_space_group_name_H-M "P 21/C"
_symmetry_group_IT_number 14
_symmetry_cell_setting 'monoclinic'
loop_
_space_group_symop_operation_xyz
x,y,z
-x,1/2+y,1/2-z
-x,-y,-z
x,1/2-y,1/2+z
loop_
_atom_site_type_symbol
_atom_site_label
_atom_site_fract_x
_atom_site_fract_y
_atom_site_fract_z
Si Si1 0.574650 0.414552 0.754686
Si Si2 0.274185 0.414900 0.622061
Si Si3 0.893102 0.014217 0.084273
Si Si4 0.274186 0.085101 0.507012
Si Si5 0.106898 0.514219 0.049787
Si Si6 0.000732 0.249998 0.748170
Si Si7 0.574650 0.414552 0.372067
O O1 0.652208 0.494500 0.617779
O O2 0.574950 0.415874 0.562626
O O3 0.572598 0.250000 0.818504
O O4 0.500000 0.500000 0.000000
O O5 0.278746 0.250001 0.553135
O O6 0.274076 0.413973 0.814811
O O7 0.192836 0.484722 0.778228
O O8 0.807164 0.984721 0.242408
O O9 0.893353 0.074208 0.266616
O O10 0.938775 0.861678 0.982123
O O11 0.938941 0.124792 0.855792
O O12 0.347792 0.994501 0.378818
O O13 0.061060 0.624796 0.050497
O O14 0.061224 0.361681 0.176001
O O15 0.500000 0.500000 0.500000
#
# Coordination Sequence:
#
# PCOD9240082 Si02
#       7
#     4   4   4   4   4   4   4
#     4  11  24  42  68  95 128 162 203 249 305 366
#     4  10  22  41  62  88 122 163 202 250 303 360
#     4  10  21  38  56  82 119 154 200 253 301 357
#     4  10  22  41  62  88 122 163 202 250 303 360
#     4  10  21  38  56  82 119 154 200 253 301 357
#     4  10  18  34  60  78 112 154 200 246 312 346
#     4  11  24  42  68  95 128 162 203 249 305 366
#
# _framework density 20.814561000000001
#
# number of rings (size 3 to 8) (size 9 to 14) (size 15 to 20)
#    0.000    1.714    1.429    3.429    2.000    4.571 
#    0.000   14.286    0.000    0.000    0.000    0.000 
#    0.000    0.000    0.000    0.000    0.000    0.000 
#
# Total GULP energy -155926.375845 kJ/mol
# GULP energy per Si atom -5568.799137 kJ/mol
# Density = 2.076719 g / cm^3
# Si number density = 20.814561 Si / 1000 Ang^3
#
#
#
# Elastic Constant Matrix: (Units=GPa)
#
#
# Indices 1 2 3 4 5 6 
#
# 1 119.5817 48.2567 9.0288 0.0000 -56.0803 0.0000
# 2 48.2567 135.6492 69.4039 0.0000 -37.4458 0.0000
# 3 9.0288 69.4039 177.9540 0.0000 -47.2735 0.0000
# 4 0.0000 0.0000 0.0000 36.7242 0.0000 -7.6996
# 5 -56.0803 -37.4458 -47.2735 0.0000 55.5171 0.0000
# 6 0.0000 0.0000 0.0000 -7.6996 0.0000 32.3759
#
#
#
# Elastic Compliance Matrix: (Units=1/GPa)
#
#
# Indices 1 2 3 4 5 6 
#
# 1 0.020988 -0.004396 0.007100 0.000000 0.024281 0.000000
# 2 -0.004396 0.010904 -0.004207 0.000000 -0.000669 0.000000
# 3 0.007100 -0.004207 0.010405 0.000000 0.013194 0.000000
# 4 0.000000 0.000000 0.000000 0.028659 0.000000 0.006816
# 5 0.024281 -0.000669 0.013194 0.000000 0.053324 0.000000
# 6 0.000000 0.000000 0.000000 0.006816 0.000000 0.032508
#
#
# Mechanical properties :
#
#
# Convention : Reuss Voigt Hill
#
# Bulk Modulus (GPa) = 25.45192 76.28485 50.86839
# Shear Modulus (GPa) = 28.91997 45.35645 37.13821
#
# Velocity S-wave (km/s) = 3.73152 4.67312 4.22861
# Velocity P-wave (km/s) = 5.55159 8.11460 6.95223
#
# Compressibility (1/GPa) = 0.03928976
#
# Stress axis : x y z
#
# Youngs Moduli (GPa) = 47.64736 91.71057 96.10647
#
# Poissons Ratio (x) = 0.40317 -0.68235
# Poissons Ratio (y) = 0.20946 0.40434
# Poissons Ratio (z) = -0.33829 0.38584
#
# Static dielectric constant tensor:
#      x y z
#    x 1.810170 0.000000 0.046180 
#    y 0.000000 1.703060 0.000000 
#    z 0.046180 0.000000 1.784100 
# 
# From -- ./inp_files/19723.got.cif
#   From: 2010.05.17/outbox.cif.g08.bks.cpg/sg14_10_cif.got.tgz:19723.got - 2010.06.03 17:49:19.
