data_PCOD9240637
_publ_section_title
;
Structure prediction by ZEFSAII (Michael W. Deem and Ramdas Pophale) SiO2 
 PCOD9240637
Probable space group: P 21/C
;
_chemical_formula_sum "Si O2"
_cell_formula_units_Z 32
_cell_length_a 13.051682
_cell_length_b 5.620083
_cell_length_c 18.450844
_cell_angle_alpha 90.000000
_cell_angle_beta 118.442768
_cell_angle_gamma 90.000000
_cell_volume 1190.033576
_symmetry_space_group_name_H-M "P 21/C"
_symmetry_group_IT_number 14
_symmetry_cell_setting 'monoclinic'
loop_
_space_group_symop_operation_xyz
x,y,z
-x,1/2+y,1/2-z
-x,-y,-z
x,1/2-y,1/2+z
loop_
_atom_site_type_symbol
_atom_site_label
_atom_site_fract_x
_atom_site_fract_y
_atom_site_fract_z
Si Si1 0.434357 0.251816 0.568979
Si Si2 0.362633 0.760563 0.754729
Si Si3 0.942673 0.056933 0.301601
Si Si4 0.340865 0.236465 0.320115
Si Si5 0.166173 0.696478 0.596439
Si Si6 0.412334 0.756415 0.524940
Si Si7 0.016553 0.664590 0.427977
Si Si8 0.158752 0.367110 0.368091
O O1 0.501668 0.254350 0.670059
O O2 0.364314 0.495651 0.528565
O O3 0.539862 0.248308 0.542753
O O4 0.360191 0.013272 0.527691
O O5 0.313965 0.517849 0.775835
O O6 0.304618 0.723981 0.655170
O O7 0.324681 0.027727 0.765669
O O8 0.885023 0.209493 0.345192
O O9 0.070003 0.150884 0.328221
O O10 0.871370 0.060900 0.204262
O O11 0.956775 0.800453 0.341683
O O12 0.474995 0.235486 0.386181
O O13 0.277641 0.271742 0.375068
O O14 0.099733 0.824353 0.507765
O O15 0.096841 0.444621 0.569431
O O16 0.111621 0.486805 0.424718
#
# Coordination Sequence:
#
# PCOD9240637 Si02
#       8
#     4   4   4   4   4   4   4   4
#     4   8  14  25  43  65  97 123 155 187 245 289
#     4  10  19  31  49  74  97 131 162 205 243 300
#     4  11  20  33  50  66  92 131 166 209 246 297
#     4  10  20  30  49  73 102 127 164 200 251 293
#     4  10  21  35  50  68  95 130 172 207 251 295
#     4   8  14  26  41  66  97 127 147 194 240 296
#     4  10  22  36  48  67  95 130 172 210 252 294
#     4  11  21  30  48  70  94 129 167 209 248 297
#
# _framework density 26.889996
#
# number of rings (size 3 to 8) (size 9 to 14) (size 15 to 20)
#    0.000    2.250    2.500    1.125    3.500    0.000 
#    0.000    0.000    0.000    0.000    0.000    0.000 
#    3.750    0.000    0.000    0.000    0.250    0.000 
#
# Total GULP energy -178326.001858 kJ/mol
# GULP energy per Si atom -5572.687558 kJ/mol
# Density = 2.682879 g / cm^3
# Si number density = 26.889996 Si / 1000 Ang^3
#
#
#
# Elastic Constant Matrix: (Units=GPa)
#
#
# Indices 1 2 3 4 5 6 
#
# 1 55.5661 21.1453 3.2697 0.0000 -6.9566 0.0000
# 2 21.1453 144.0374 12.9246 0.0000 -5.2897 0.0000
# 3 3.2697 12.9246 108.8147 0.0000 -8.2778 0.0000
# 4 0.0000 0.0000 0.0000 18.5923 0.0000 0.2210
# 5 -6.9566 -5.2897 -8.2778 0.0000 32.1172 0.0000
# 6 0.0000 0.0000 0.0000 0.2210 0.0000 16.7853
#
#
#
# Elastic Compliance Matrix: (Units=1/GPa)
#
#
# Indices 1 2 3 4 5 6 
#
# 1 0.019506 -0.002727 0.000026 0.000000 0.003783 0.000000
# 2 -0.002727 0.007428 -0.000767 0.000000 0.000435 0.000000
# 3 0.000026 -0.000767 0.009457 0.000000 0.002316 0.000000
# 4 0.000000 0.000000 0.000000 0.053794 0.000000 -0.000708
# 5 0.003783 0.000435 0.002316 0.000000 0.032624 0.000000
# 6 0.000000 0.000000 0.000000 -0.000708 0.000000 0.059585
#
#
# Mechanical properties :
#
#
# Convention : Reuss Voigt Hill
#
# Bulk Modulus (GPa) = 33.95209 42.56640 38.25924
# Shear Modulus (GPa) = 25.10679 31.57086 28.33883
#
# Velocity S-wave (km/s) = 3.05894 3.43019 3.24987
# Velocity P-wave (km/s) = 5.01297 5.61716 5.32364
#
# Compressibility (1/GPa) = 0.02945327
#
# Stress axis : x y z
#
# Youngs Moduli (GPa) = 51.26533 134.62955 105.74722
#
# Poissons Ratio (x) = 0.36713 -0.00270
# Poissons Ratio (y) = 0.13980 0.08113
# Poissons Ratio (z) = -0.00131 0.10329
#
# Static dielectric constant tensor:
#      x y z
#    x 2.097600 0.000000 0.044050 
#    y 0.000000 2.338020 0.000000 
#    z 0.044050 0.000000 2.320350 
# 
# From -- ./inp_files/59898.got.cif
#   From: 2010.05.17/outbox.cif.g08.bks.cpg/sg14_30_cif.got.tgz:59898.got - 2010.06.03 17:49:19.
