data_PCOD9240826
_publ_section_title
;
Structure prediction by ZEFSAII (Michael W. Deem and Ramdas Pophale) SiO2 
 PCOD9240826
Probable space group: P 21/C
;
_chemical_formula_sum "Si O2"
_cell_formula_units_Z 32
_cell_length_a 9.164821
_cell_length_b 13.307910
_cell_length_c 20.086941
_cell_angle_alpha 90.000000
_cell_angle_beta 135.097788
_cell_angle_gamma 90.000000
_cell_volume 1729.378923
_symmetry_space_group_name_H-M "P 21/C"
_symmetry_group_IT_number 14
_symmetry_cell_setting 'monoclinic'
loop_
_space_group_symop_operation_xyz
x,y,z
-x,1/2+y,1/2-z
-x,-y,-z
x,1/2-y,1/2+z
loop_
_atom_site_type_symbol
_atom_site_label
_atom_site_fract_x
_atom_site_fract_y
_atom_site_fract_z
Si Si1 0.212238 0.323650 0.240131
Si Si2 0.522754 0.006029 0.159381
Si Si3 0.817234 0.140410 0.996436
Si Si4 0.498009 0.296382 0.923887
Si Si5 0.272681 0.365786 0.663902
Si Si6 0.253097 0.814821 0.364249
Si Si7 0.809498 0.095448 0.152234
Si Si8 0.262523 0.483321 0.792221
O O1 0.316197 0.428999 0.255308
O O2 0.315682 0.281001 0.342473
O O3 0.271863 0.236248 0.207058
O O4 0.966996 0.334790 0.169640
O O5 0.463850 0.106774 0.179273
O O6 0.625034 0.029645 0.121288
O O7 0.313284 0.943315 0.083189
O O8 0.806158 0.113774 0.071918
O O9 0.056108 0.140285 0.054932
O O10 0.697258 0.246444 0.951874
O O11 0.425537 0.405569 0.876756
O O12 0.564971 0.304481 0.022304
O O13 0.266207 0.457210 0.715293
O O14 0.215223 0.704627 0.322630
O O15 0.296608 0.903585 0.326846
O O16 0.031530 0.048506 0.240485
#
# Coordination Sequence:
#
# PCOD9240826 Si02
#       8
#     4   4   4   4   4   4   4   4
#     4  10  19  35  55  78 109 149 179 223 279 328
#     4  11  21  32  57  82 106 145 188 223 286 321
#     4   9  18  34  56  79 109 143 181 228 276 325
#     4   9  17  32  56  82 104 140 185 220 267 328
#     4  10  20  37  52  79 114 144 180 230 276 333
#     4  11  18  34  57  80 110 144 185 231 269 314
#     4  10  19  33  52  84 109 138 182 237 262 319
#     4  10  19  33  55  79 107 145 187 217 271 332
#
# _framework density 18.503753
#
# number of rings (size 3 to 8) (size 9 to 14) (size 15 to 20)
#    0.000    2.000    6.250    1.125    0.000    1.000 
#    0.000    0.000    0.000    9.000    0.000    0.000 
#    0.000    0.000    0.000    0.000    0.000    0.000 
#
# Total GULP energy -178171.235047 kJ/mol
# GULP energy per Si atom -5567.851095 kJ/mol
# Density = 1.846164 g / cm^3
# Si number density = 18.503753 Si / 1000 Ang^3
#
#
#
# Elastic Constant Matrix: (Units=GPa)
#
#
# Indices 1 2 3 4 5 6 
#
# 1 53.4132 3.7070 3.7410 0.0000 8.2654 0.0000
# 2 3.7070 35.3586 -11.2796 0.0000 -0.8414 0.0000
# 3 3.7410 -11.2796 57.1927 0.0000 11.9754 0.0000
# 4 0.0000 0.0000 0.0000 20.8415 0.0000 3.5189
# 5 8.2654 -0.8414 11.9754 0.0000 12.3506 0.0000
# 6 0.0000 0.0000 0.0000 3.5189 0.0000 30.5697
#
#
#
# Elastic Compliance Matrix: (Units=1/GPa)
#
#
# Indices 1 2 3 4 5 6 
#
# 1 0.021208 -0.002120 0.001502 0.000000 -0.015793 0.000000
# 2 -0.002120 0.030608 0.006828 0.000000 -0.003116 0.000000
# 3 0.001502 0.006828 0.023647 0.000000 -0.023469 0.000000
# 4 0.000000 0.000000 0.000000 0.048932 0.000000 -0.005633
# 5 -0.015793 -0.003116 -0.023469 0.000000 0.114081 0.000000
# 6 0.000000 0.000000 0.000000 -0.005633 0.000000 0.033361
#
#
# Mechanical properties :
#
#
# Convention : Reuss Voigt Hill
#
# Bulk Modulus (GPa) = 11.37903 15.36680 13.37292
# Shear Modulus (GPa) = 17.31830 22.73875 20.02853
#
# Velocity S-wave (km/s) = 3.06262 3.50933 3.29356
# Velocity P-wave (km/s) = 4.32078 4.97426 4.65899
#
# Compressibility (1/GPa) = 0.08788094
#
# Stress axis : x y z
#
# Youngs Moduli (GPa) = 47.15230 32.67130 42.28841
#
# Poissons Ratio (x) = 0.06927 -0.06350
# Poissons Ratio (y) = 0.09997 -0.28873
# Poissons Ratio (z) = -0.07080 -0.22307
#
# Static dielectric constant tensor:
#      x y z
#    x 1.645500 0.000000 0.003760 
#    y 0.000000 1.662020 0.000000 
#    z 0.003760 0.000000 1.665030 
# 
# From -- ./inp_files/65847.got.cif
#   From: 2010.05.17/outbox.cif.g08.bks.cpg/sg14_33_cif.got.tgz:65847.got - 2010.06.03 17:49:19.
