data_PCOD9240382
_publ_section_title
;
Structure prediction by ZEFSAII (Michael W. Deem and Ramdas Pophale) SiO2 
 PCOD9240382
Probable space group: P 21/C
;
_chemical_formula_sum "Si O2"
_cell_formula_units_Z 20
_cell_length_a 5.001020
_cell_length_b 28.699862
_cell_length_c 5.515047
_cell_angle_alpha 90.000000
_cell_angle_beta 97.872861
_cell_angle_gamma 90.000000
_cell_volume 784.105936
_symmetry_space_group_name_H-M "P 21/C"
_symmetry_group_IT_number 14
_symmetry_cell_setting 'monoclinic'
loop_
_space_group_symop_operation_xyz
x,y,z
-x,1/2+y,1/2-z
-x,-y,-z
x,1/2-y,1/2+z
loop_
_atom_site_type_symbol
_atom_site_label
_atom_site_fract_x
_atom_site_fract_y
_atom_site_fract_z
Si Si1 0.555503 0.090849 0.453000
Si Si2 0.281690 0.836086 0.211188
Si Si3 0.952675 0.881527 0.811979
Si Si4 0.262787 0.470423 0.587740
Si Si5 0.177791 0.278741 0.153846
O O1 0.639424 0.110097 0.722368
O O2 0.333423 0.129895 0.345613
O O3 0.381959 0.044765 0.369618
O O4 0.826720 0.091494 0.325907
O O5 0.536146 0.803297 0.258302
O O6 0.116875 0.839370 0.943051
O O7 0.060267 0.817091 0.369427
O O8 0.834653 0.918260 0.998604
O O9 0.500000 0.500000 0.500000
O O10 0.000000 0.500000 0.500000
O O11 0.151972 0.246738 0.392461
#
# Coordination Sequence:
#
# PCOD9240382 Si02
#       5
#     4   4   4   4   4
#     4  10  22  39  67  95 132 184 236 276 365 403
#     4  12  26  46  74  96 144 180 246 292 346 468
#     4  10  22  39  67  95 132 184 236 276 365 403
#     4  10  18  37  62  95 140 178 230 301 348 413
#     4  12  30  49  76 111 146 188 236 305 382 423
#
# _framework density 25.506758000000001
#
# number of rings (size 3 to 8) (size 9 to 14) (size 15 to 20)
#    1.200    0.000    2.000    3.600    8.400    0.000 
#    0.000    2.000    0.000    0.000    0.000    0.000 
#    0.000    0.000    0.000    0.000    0.000    0.000 
#
# Total GULP energy -111429.889910 kJ/mol
# GULP energy per Si atom -5571.494495 kJ/mol
# Density = 2.544870 g / cm^3
# Si number density = 25.506758 Si / 1000 Ang^3
#
#
#
# Elastic Constant Matrix: (Units=GPa)
#
#
# Indices 1 2 3 4 5 6 
#
# 1 202.5147 24.0837 18.9655 0.0000 1.8339 0.0000
# 2 24.0837 48.0058 31.7737 0.0000 10.2004 0.0000
# 3 18.9655 31.7737 79.9140 0.0000 11.0760 0.0000
# 4 0.0000 0.0000 0.0000 32.8094 0.0000 21.3435
# 5 1.8339 10.2004 11.0760 0.0000 32.7216 0.0000
# 6 0.0000 0.0000 0.0000 21.3435 0.0000 61.2511
#
#
#
# Elastic Compliance Matrix: (Units=1/GPa)
#
#
# Indices 1 2 3 4 5 6 
#
# 1 0.005267 -0.002563 -0.000315 0.000000 0.000611 0.000000
# 2 -0.002563 0.030406 -0.010689 0.000000 -0.005717 0.000000
# 3 -0.000315 -0.010689 0.017180 0.000000 -0.002465 0.000000
# 4 0.000000 0.000000 0.000000 0.039413 0.000000 -0.013734
# 5 0.000611 -0.005717 -0.002465 0.000000 0.033143 0.000000
# 6 0.000000 0.000000 0.000000 -0.013734 0.000000 0.021112
#
#
# Mechanical properties :
#
#
# Convention : Reuss Voigt Hill
#
# Bulk Modulus (GPa) = 38.88342 53.34228 46.11285
# Shear Modulus (GPa) = 27.43799 42.39717 34.91758
#
# Velocity S-wave (km/s) = 3.28337 4.08142 3.70395
# Velocity P-wave (km/s) = 5.44531 6.57032 6.03409
#
# Compressibility (1/GPa) = 0.02571790
#
# Stress axis : x y z
#
# Youngs Moduli (GPa) = 189.87038 32.88810 58.20765
#
# Poissons Ratio (x) = 0.08430 0.01836
# Poissons Ratio (y) = 0.48668 0.62217
# Poissons Ratio (z) = 0.05989 0.35153
#
# Static dielectric constant tensor:
#      x y z
#    x 1.974930 0.000000 -0.012070 
#    y 0.000000 2.160210 0.000000 
#    z -0.012070 0.000000 2.112940 
# 
# From -- ./inp_files/702.got.cif
#   From: 2010.05.17/outbox.cif.g08.bks.cpg/sg14_1_cif.got.tgz:702.got - 2010.06.03 17:49:19.
