data_PCOD9240361
_publ_section_title
;
Structure prediction by ZEFSAII (Michael W. Deem and Ramdas Pophale) SiO2 
 PCOD9240361
Probable space group: P 21/C
;
_chemical_formula_sum "Si O2"
_cell_formula_units_Z 32
_cell_length_a 7.097067
_cell_length_b 13.852019
_cell_length_c 19.767670
_cell_angle_alpha 90.000000
_cell_angle_beta 42.243850
_cell_angle_gamma 90.000000
_cell_volume 1306.478917
_symmetry_space_group_name_H-M "P 21/C"
_symmetry_group_IT_number 14
_symmetry_cell_setting 'monoclinic'
loop_
_space_group_symop_operation_xyz
x,y,z
-x,1/2+y,1/2-z
-x,-y,-z
x,1/2-y,1/2+z
loop_
_atom_site_type_symbol
_atom_site_label
_atom_site_fract_x
_atom_site_fract_y
_atom_site_fract_z
Si Si1 0.446777 0.553537 0.201162
Si Si2 0.648667 0.238393 0.764673
Si Si3 0.078542 0.912292 0.407675
Si Si4 0.721895 0.732798 0.867526
Si Si5 0.251903 0.263683 0.487258
Si Si6 0.115393 0.018470 0.673977
Si Si7 0.071396 0.038745 0.075553
Si Si8 0.571143 0.933704 0.880977
O O1 0.493054 0.660720 0.217603
O O2 0.720801 0.491324 0.115456
O O3 0.292085 0.557780 0.169451
O O4 0.224169 0.506516 0.313837
O O5 0.718250 0.158541 0.690842
O O6 0.955397 0.264770 0.711262
O O7 0.473364 0.200788 0.874399
O O8 0.907315 0.832511 0.494127
O O9 0.876354 0.967953 0.408509
O O10 0.618660 0.736389 0.973487
O O11 0.761848 0.622602 0.832651
O O12 0.569536 0.818286 0.868272
O O13 0.046689 0.353393 0.553199
O O14 0.787715 0.991911 0.775547
O O15 0.271469 0.052684 0.088394
O O16 0.258522 0.974739 0.974946
#
# Coordination Sequence:
#
# PCOD9240361 Si02
#       8
#     4   4   4   4   4   4   4   4
#     4  11  20  38  60  82 118 155 189 242 288 344
#     4  10  18  37  59  80 119 158 186 235 302 336
#     4  10  22  38  57  87 118 150 196 237 287 349
#     4   9  17  33  54  87 118 148 193 241 286 343
#     4   9  17  34  59  80 112 160 188 234 293 345
#     4   9  18  36  56  82 112 154 188 229 292 341
#     4   9  15  30  56  83 110 145 192 238 286 330
#     4   9  15  28  55  84 112 145 189 236 288 337
#
# _framework density 24.493317000000001
#
# number of rings (size 3 to 8) (size 9 to 14) (size 15 to 20)
#    0.000    2.750    5.000    1.500    0.000    2.500 
#    2.250    6.250    0.000    0.000    0.000    0.000 
#    0.000    0.000    0.000    0.000    0.000    0.000 
#
# Total GULP energy -178448.714310 kJ/mol
# GULP energy per Si atom -5576.522322 kJ/mol
# Density = 2.443757 g / cm^3
# Si number density = 24.493317 Si / 1000 Ang^3
#
#
#
# Elastic Constant Matrix: (Units=GPa)
#
#
# Indices 1 2 3 4 5 6 
#
# 1 48.4173 16.2595 -2.7695 0.0000 -6.3618 0.0000
# 2 16.2595 91.4401 -6.2855 0.0000 0.1111 0.0000
# 3 -2.7695 -6.2855 94.6032 0.0000 3.0627 0.0000
# 4 0.0000 0.0000 0.0000 34.7220 0.0000 6.4718
# 5 -6.3618 0.1111 3.0627 0.0000 15.1967 0.0000
# 6 0.0000 0.0000 0.0000 6.4718 0.0000 24.2958
#
#
#
# Elastic Compliance Matrix: (Units=1/GPa)
#
#
# Indices 1 2 3 4 5 6 
#
# 1 0.023340 -0.004156 0.000090 0.000000 0.009783 0.000000
# 2 -0.004156 0.011727 0.000721 0.000000 -0.001971 0.000000
# 3 0.000090 0.000721 0.010690 0.000000 -0.002122 0.000000
# 4 0.000000 0.000000 0.000000 0.030305 0.000000 -0.008072
# 5 0.009783 -0.001971 -0.002122 0.000000 0.070341 0.000000
# 6 0.000000 0.000000 0.000000 -0.008072 0.000000 0.043310
#
#
# Mechanical properties :
#
#
# Convention : Reuss Voigt Hill
#
# Bulk Modulus (GPa) = 25.59604 27.65216 26.62410
# Shear Modulus (GPa) = 23.87504 29.99330 26.93417
#
# Velocity S-wave (km/s) = 3.12550 3.50315 3.31970
# Velocity P-wave (km/s) = 4.84746 5.26089 5.05840
#
# Compressibility (1/GPa) = 0.03906855
#
# Stress axis : x y z
#
# Youngs Moduli (GPa) = 42.84485 85.27276 93.54768
#
# Poissons Ratio (x) = 0.35438 -0.00846
# Poissons Ratio (y) = 0.17806 -0.06748
# Poissons Ratio (z) = -0.00387 -0.06151
#
# Static dielectric constant tensor:
#      x y z
#    x 1.996520 0.000000 0.047380 
#    y 0.000000 2.004880 0.000000 
#    z 0.047380 0.000000 2.004670 
# 
# From -- ./inp_files/72414.got.cif
#   From: 2010.05.17/outbox.cif.g08.bks.cpg/sg14_37_cif.got.tgz:72414.got - 2010.06.03 17:49:19.
