data_PCOD9240924
_publ_section_title
;
Structure prediction by ZEFSAII (Michael W. Deem and Ramdas Pophale) SiO2 
 PCOD9240924
Probable space group: P 21/C
;
_chemical_formula_sum "Si O2"
_cell_formula_units_Z 32
_cell_length_a 15.192112
_cell_length_b 14.796558
_cell_length_c 19.519430
_cell_angle_alpha 90.000000
_cell_angle_beta 21.384567
_cell_angle_gamma 90.000000
_cell_volume 1599.902810
_symmetry_space_group_name_H-M "P 21/C"
_symmetry_group_IT_number 14
_symmetry_cell_setting 'monoclinic'
loop_
_space_group_symop_operation_xyz
x,y,z
-x,1/2+y,1/2-z
-x,-y,-z
x,1/2-y,1/2+z
loop_
_atom_site_type_symbol
_atom_site_label
_atom_site_fract_x
_atom_site_fract_y
_atom_site_fract_z
Si Si1 0.466694 0.508807 0.796354
Si Si2 0.342283 0.433796 0.206247
Si Si3 0.315233 0.079714 0.113110
Si Si4 0.255929 0.894398 0.685776
Si Si5 0.933757 0.059400 0.903012
Si Si6 0.236359 0.807570 0.241113
Si Si7 0.013357 0.073381 0.696415
Si Si8 0.062638 0.908480 0.496069
O O1 0.625254 0.564922 0.736478
O O2 0.651378 0.446053 0.621205
O O3 0.302730 0.570110 0.866000
O O4 0.276572 0.449677 0.977264
O O5 0.371609 0.537832 0.158257
O O6 0.912071 0.594828 0.643380
O O7 0.558336 0.383207 0.011504
O O8 0.156829 0.110890 0.293012
O O9 0.129471 0.022982 0.201242
O O10 0.484414 0.158038 0.960559
O O11 0.500000 0.000000 0.000000
O O12 0.205602 0.797753 0.752075
O O13 0.031481 0.955969 0.825776
O O14 0.002128 0.107103 0.782461
O O15 0.112740 0.860816 0.267057
O O16 0.114047 0.836209 0.400639
O O17 0.000000 0.000000 0.500000
#
# Coordination Sequence:
#
# PCOD9240924 Si02
#       8
#     4   4   4   4   4   4   4   4
#     4  11  19  35  66  82 112 157 203 245 288 376
#     4   9  19  42  64  81 112 163 213 241 298 361
#     4   9  18  32  56  81 116 163 190 226 300 369
#     4   9  20  39  64  84 119 157 204 265 295 348
#     4  10  20  36  63  86 107 162 209 238 299 363
#     4  11  21  37  59  90 127 154 198 260 307 352
#     4  10  19  33  58  89 118 154 200 234 301 376
#     4  11  20  35  58  92 122 154 198 237 304 380
#
# _framework density 20.001214000000001
#
# number of rings (size 3 to 8) (size 9 to 14) (size 15 to 20)
#    0.750    1.250    5.000    1.125    1.750    0.000 
#    2.250    5.000    2.750    0.000    0.000    0.000 
#    0.000    0.000    0.000    0.000    0.000    0.000 
#
# Total GULP energy -178326.019800 kJ/mol
# GULP energy per Si atom -5572.688119 kJ/mol
# Density = 1.995569 g / cm^3
# Si number density = 20.001214 Si / 1000 Ang^3
#
#
#
# Elastic Constant Matrix: (Units=GPa)
#
#
# Indices 1 2 3 4 5 6 
#
# 1 104.9933 26.7042 26.6192 0.0000 14.8289 0.0000
# 2 26.7042 28.7706 7.9557 0.0000 8.6278 0.0000
# 3 26.6192 7.9557 104.2177 0.0000 -6.8620 0.0000
# 4 0.0000 0.0000 0.0000 10.4444 0.0000 1.8056
# 5 14.8289 8.6278 -6.8620 0.0000 21.5765 0.0000
# 6 0.0000 0.0000 0.0000 1.8056 0.0000 2.4609
#
#
#
# Elastic Compliance Matrix: (Units=1/GPa)
#
#
# Indices 1 2 3 4 5 6 
#
# 1 0.013786 -0.009963 -0.003189 0.000000 -0.006505 0.000000
# 2 -0.009963 0.048525 -0.002029 0.000000 -0.013202 0.000000
# 3 -0.003189 -0.002029 0.010993 0.000000 0.006499 0.000000
# 4 0.000000 0.000000 0.000000 0.109653 0.000000 -0.080454
# 5 -0.006505 -0.013202 0.006499 0.000000 0.058163 0.000000
# 6 0.000000 0.000000 0.000000 -0.080454 0.000000 0.465392
#
#
# Mechanical properties :
#
#
# Convention : Reuss Voigt Hill
#
# Bulk Modulus (GPa) = 23.28726 40.05998 31.67362
# Shear Modulus (GPa) = 6.65614 18.67652 12.66633
#
# Velocity S-wave (km/s) = 1.82622 3.05908 2.51923
# Velocity P-wave (km/s) = 4.01435 5.70522 4.93277
#
# Compressibility (1/GPa) = 0.04294193
#
# Stress axis : x y z
#
# Youngs Moduli (GPa) = 72.53936 20.60795 90.97056
#
# Poissons Ratio (x) = 0.20532 0.29009
# Poissons Ratio (y) = 0.72271 0.18455
# Poissons Ratio (z) = 0.23132 0.04181
#
# Static dielectric constant tensor:
#      x y z
#    x 1.774200 0.000000 -0.007430 
#    y 0.000000 1.685340 0.000000 
#    z -0.007430 0.000000 1.745970 
# 
# From -- ./inp_files/69415.got.cif
#   From: 2010.05.17/outbox.cif.g08.bks.cpg/sg14_35_cif.got.tgz:69415.got - 2010.06.03 17:49:19.
