data_PCOD9240604
_publ_section_title
;
Structure prediction by ZEFSAII (Michael W. Deem and Ramdas Pophale) SiO2 
 PCOD9240604
Probable space group: P 21/C
;
_chemical_formula_sum "Si O2"
_cell_formula_units_Z 32
_cell_length_a 18.413561
_cell_length_b 8.841326
_cell_length_c 16.095760
_cell_angle_alpha 90.000000
_cell_angle_beta 31.451219
_cell_angle_gamma 90.000000
_cell_volume 1367.249643
_symmetry_space_group_name_H-M "P 21/C"
_symmetry_group_IT_number 14
_symmetry_cell_setting 'monoclinic'
loop_
_space_group_symop_operation_xyz
x,y,z
-x,1/2+y,1/2-z
-x,-y,-z
x,1/2-y,1/2+z
loop_
_atom_site_type_symbol
_atom_site_label
_atom_site_fract_x
_atom_site_fract_y
_atom_site_fract_z
Si Si1 0.360337 0.309977 0.999138
Si Si2 0.206257 0.756010 0.677944
Si Si3 0.633047 0.956900 0.773726
Si Si4 0.543464 0.239201 0.460420
Si Si5 0.159233 0.422947 0.789459
Si Si6 0.089600 0.008631 0.710740
Si Si7 0.915757 0.211194 0.437666
Si Si8 0.632137 0.303158 0.153371
O O1 0.454445 0.363849 0.985567
O O2 0.478799 0.260966 0.818101
O O3 0.240346 0.419368 0.084194
O O4 0.272713 0.170090 0.124043
O O5 0.310870 0.814538 0.646394
O O6 0.160955 0.589411 0.748212
O O7 0.296926 0.761032 0.503390
O O8 0.079718 0.869405 0.784838
O O9 0.569948 0.102395 0.884669
O O10 0.781063 0.930919 0.675095
O O11 0.624550 0.020633 0.689195
O O12 0.548256 0.804389 0.873723
O O13 0.012598 0.337609 0.920065
O O14 0.983549 0.142475 0.829364
O O15 0.074837 0.929596 0.635992
O O16 0.752425 0.248849 0.602224
#
# Coordination Sequence:
#
# PCOD9240604 Si02
#       8
#     4   4   4   4   4   4   4   4
#     4   9  19  35  56  80 104 135 175 218 260 308
#     4  10  19  30  52  80 107 139 174 212 256 307
#     4   8  15  30  53  79 104 136 174 212 255 308
#     4   8  15  31  53  75 104 140 173 207 257 314
#     4   9  18  36  59  77 103 143 178 207 254 318
#     4  10  21  35  51  74 104 140 177 208 258 319
#     4  10  20  35  53  76 105 139 176 215 259 310
#     4  10  19  30  51  81 109 130 171 225 261 292
#
# _framework density 23.404651000000001
#
# number of rings (size 3 to 8) (size 9 to 14) (size 15 to 20)
#    0.000    2.750    0.000    3.750    0.000    5.000 
#    0.000    0.000    0.000    9.750    0.000    0.000 
#    0.000    0.000    0.000    0.000    0.000    0.000 
#
# Total GULP energy -178382.844986 kJ/mol
# GULP energy per Si atom -5574.463906 kJ/mol
# Density = 2.335138 g / cm^3
# Si number density = 23.404651 Si / 1000 Ang^3
#
#
#
# Elastic Constant Matrix: (Units=GPa)
#
#
# Indices 1 2 3 4 5 6 
#
# 1 81.6460 21.5256 5.0062 0.0000 -9.9476 0.0000
# 2 21.5256 68.2462 14.3202 0.0000 1.3905 0.0000
# 3 5.0062 14.3202 72.5455 0.0000 -6.1633 0.0000
# 4 0.0000 0.0000 0.0000 23.2663 0.0000 -11.7138
# 5 -9.9476 1.3905 -6.1633 0.0000 43.1344 0.0000
# 6 0.0000 0.0000 0.0000 -11.7138 0.0000 45.3378
#
#
#
# Elastic Compliance Matrix: (Units=1/GPa)
#
#
# Indices 1 2 3 4 5 6 
#
# 1 0.013824 -0.004474 0.000215 0.000000 0.003363 0.000000
# 2 -0.004474 0.016771 -0.003174 0.000000 -0.002026 0.000000
# 3 0.000215 -0.003174 0.014586 0.000000 0.002236 0.000000
# 4 0.000000 0.000000 0.000000 0.049408 0.000000 0.012765
# 5 0.003363 -0.002026 0.002236 0.000000 0.024344 0.000000
# 6 0.000000 0.000000 0.000000 0.012765 0.000000 0.025355
#
#
# Mechanical properties :
#
#
# Convention : Reuss Voigt Hill
#
# Bulk Modulus (GPa) = 32.98643 33.79353 33.38998
# Shear Modulus (GPa) = 29.54059 34.45341 31.99700
#
# Velocity S-wave (km/s) = 3.55655 3.84093 3.70147
# Velocity P-wave (km/s) = 5.56687 5.84298 5.70659
#
# Compressibility (1/GPa) = 0.03031549
#
# Stress axis : x y z
#
# Youngs Moduli (GPa) = 72.33757 59.62605 68.55836
#
# Poissons Ratio (x) = 0.26676 -0.01473
# Poissons Ratio (y) = 0.32363 0.21760
# Poissons Ratio (z) = -0.01554 0.18925
#
# Static dielectric constant tensor:
#      x y z
#    x 1.969620 0.000000 0.032340 
#    y 0.000000 1.926600 0.000000 
#    z 0.032340 0.000000 1.975720 
# 
# From -- ./inp_files/69776.got.cif
#   From: 2010.05.17/outbox.cif.g08.bks.cpg/sg14_35_cif.got.tgz:69776.got - 2010.06.03 17:49:19.
