data_PCOD9240374
_publ_section_title
;
Structure prediction by ZEFSAII (Michael W. Deem and Ramdas Pophale) SiO2 
 PCOD9240374
Probable space group: P 21/C
;
_chemical_formula_sum "Si O2"
_cell_formula_units_Z 32
_cell_length_a 11.152748
_cell_length_b 24.327953
_cell_length_c 10.208609
_cell_angle_alpha 90.000000
_cell_angle_beta 143.943991
_cell_angle_gamma 90.000000
_cell_volume 1630.258387
_symmetry_space_group_name_H-M "P 21/C"
_symmetry_group_IT_number 14
_symmetry_cell_setting 'monoclinic'
loop_
_space_group_symop_operation_xyz
x,y,z
-x,1/2+y,1/2-z
-x,-y,-z
x,1/2-y,1/2+z
loop_
_atom_site_type_symbol
_atom_site_label
_atom_site_fract_x
_atom_site_fract_y
_atom_site_fract_z
Si Si1 0.524381 0.600798 0.227582
Si Si2 0.162893 0.197903 0.926991
Si Si3 0.321306 0.525412 0.255211
Si Si4 0.312041 0.267253 0.824478
Si Si5 0.270230 0.818752 0.322631
Si Si6 0.984112 0.633613 0.387863
Si Si7 0.984389 0.961343 0.670770
Si Si8 0.894420 0.958145 0.003645
O O1 0.696556 0.643063 0.434138
O O2 0.395119 0.575209 0.229991
O O3 0.652561 0.549941 0.280932
O O4 0.391251 0.631873 0.002084
O O5 0.248968 0.237686 0.117345
O O6 0.212757 0.222135 0.829713
O O7 0.923749 0.194300 0.754486
O O8 0.500000 0.500000 0.500000
O O9 0.144336 0.545989 0.195589
O O10 0.230210 0.477259 0.082620
O O11 0.206616 0.324922 0.779407
O O12 0.555652 0.272607 0.041605
O O13 0.184223 0.831567 0.100725
O O14 0.976139 0.598218 0.515371
O O15 0.984582 0.590654 0.269219
O O16 0.051506 0.017024 0.808073
O O17 0.000000 0.000000 0.000000
#
# Coordination Sequence:
#
# PCOD9240374 Si02
#       8
#     4   4   4   4   4   4   4   4
#     4  11  21  40  62  90 119 168 209 245 315 380
#     4  10  23  42  64  91 128 158 214 264 315 377
#     4  11  23  39  57  81 127 170 204 246 301 377
#     4  10  22  42  62  96 120 163 211 259 318 382
#     4  10  20  40  71  82 127 158 201 260 320 367
#     4  10  20  40  61  92 122 153 204 268 306 367
#     4  10  23  39  56  88 126 159 208 253 309 365
#     4  10  18  37  61  86 120 156 202 256 307 354
#
# _framework density 19.628789999999999
#
# number of rings (size 3 to 8) (size 9 to 14) (size 15 to 20)
#    0.000    1.750    5.000    0.750    0.000    5.000 
#    9.000    2.500    0.000    0.000    0.000    0.000 
#    0.000    0.000    0.000    0.000    0.000    0.000 
#
# Total GULP energy -178141.980537 kJ/mol
# GULP energy per Si atom -5566.936892 kJ/mol
# Density = 1.958411 g / cm^3
# Si number density = 19.628790 Si / 1000 Ang^3
#
#
#
# Elastic Constant Matrix: (Units=GPa)
#
#
# Indices 1 2 3 4 5 6 
#
# 1 80.2066 17.4722 22.1589 0.0000 9.6599 0.0000
# 2 17.4722 32.6681 9.9683 0.0000 11.2802 0.0000
# 3 22.1589 9.9683 102.6389 0.0000 20.5474 0.0000
# 4 0.0000 0.0000 0.0000 11.3462 0.0000 -2.7440
# 5 9.6599 11.2802 20.5474 0.0000 25.6128 0.0000
# 6 0.0000 0.0000 0.0000 -2.7440 0.0000 41.8816
#
#
#
# Elastic Compliance Matrix: (Units=1/GPa)
#
#
# Indices 1 2 3 4 5 6 
#
# 1 0.014708 -0.006939 -0.002386 0.000000 -0.000577 0.000000
# 2 -0.006939 0.039387 0.000740 0.000000 -0.015324 0.000000
# 3 -0.002386 0.000740 0.011998 0.000000 -0.009052 0.000000
# 4 0.000000 0.000000 0.000000 0.089554 0.000000 0.005867
# 5 -0.000577 -0.015324 -0.009052 0.000000 0.053271 0.000000
# 6 0.000000 0.000000 0.000000 0.005867 0.000000 0.024261
#
#
# Mechanical properties :
#
#
# Convention : Reuss Voigt Hill
#
# Bulk Modulus (GPa) = 20.43969 34.96805 27.70387
# Shear Modulus (GPa) = 18.75065 26.82906 22.78986
#
# Velocity S-wave (km/s) = 3.09409 3.70107 3.41110
# Velocity P-wave (km/s) = 4.81666 6.00976 5.44598
#
# Compressibility (1/GPa) = 0.04892442
#
# Stress axis : x y z
#
# Youngs Moduli (GPa) = 67.98981 25.38880 83.34636
#
# Poissons Ratio (x) = 0.17618 0.19886
# Poissons Ratio (y) = 0.47179 -0.06171
# Poissons Ratio (z) = 0.16222 -0.01880
#
# Static dielectric constant tensor:
#      x y z
#    x 1.711810 0.000000 0.013200 
#    y 0.000000 1.783050 0.000000 
#    z 0.013200 0.000000 1.747830 
# 
# From -- ./inp_files/30829.got.cif
#   From: 2010.05.17/outbox.cif.g08.bks.cpg/sg14_16_cif.got.tgz:30829.got - 2010.06.03 17:49:19.
