data_PCOD9240605
_publ_section_title
;
Structure prediction by ZEFSAII (Michael W. Deem and Ramdas Pophale) SiO2 
 PCOD9240605
Probable space group: P 21/C
;
_chemical_formula_sum "Si O2"
_cell_formula_units_Z 32
_cell_length_a 5.434107
_cell_length_b 12.420109
_cell_length_c 27.772285
_cell_angle_alpha 90.000000
_cell_angle_beta 75.431752
_cell_angle_gamma 90.000000
_cell_volume 1814.147869
_symmetry_space_group_name_H-M "P 21/C"
_symmetry_group_IT_number 14
_symmetry_cell_setting 'monoclinic'
loop_
_space_group_symop_operation_xyz
x,y,z
-x,1/2+y,1/2-z
-x,-y,-z
x,1/2-y,1/2+z
loop_
_atom_site_type_symbol
_atom_site_label
_atom_site_fract_x
_atom_site_fract_y
_atom_site_fract_z
Si Si1 0.972621 0.194115 0.684716
Si Si2 0.736989 0.068180 0.507815
Si Si3 0.156459 0.282160 0.323532
Si Si4 0.309053 0.613993 0.711405
Si Si5 0.779815 0.420078 0.113722
Si Si6 0.311130 0.977675 0.678298
Si Si7 0.881129 0.369865 0.903879
Si Si8 0.885231 0.618554 0.259921
O O1 0.755681 0.174516 0.735335
O O2 0.874644 0.186853 0.635327
O O3 0.106354 0.302450 0.695088
O O4 0.149462 0.088015 0.680370
O O5 0.673613 0.102464 0.565731
O O6 0.776569 0.152834 0.462277
O O7 0.500000 0.000000 0.500000
O O8 0.000000 0.000000 0.500000
O O9 0.409259 0.351715 0.317351
O O10 0.071381 0.220759 0.375808
O O11 0.207427 0.188958 0.281066
O O12 0.916338 0.348260 0.313689
O O13 0.276763 0.487416 0.722390
O O14 0.592680 0.476936 0.161490
O O15 0.989727 0.512741 0.097637
O O16 0.298453 0.894956 0.633421
O O17 0.169981 0.920253 0.729512
#
# Coordination Sequence:
#
# PCOD9240605 Si02
#       8
#     4   4   4   4   4   4   4   4
#     4   9  20  32  47  73 103 138 176 214 257 316
#     4  10  19  32  51  77 106 137 171 213 269 331
#     4  10  22  35  53  76 104 138 180 216 263 317
#     4  10  22  36  51  76 103 140 184 218 253 316
#     4  10  19  30  52  75 108 139 172 215 265 325
#     4   9  17  32  47  71 102 136 175 209 261 313
#     4   9  19  32  50  76 103 141 167 218 268 319
#     4   9  20  36  49  72 107 144 178 218 267 308
#
# _framework density 17.639137000000002
#
# number of rings (size 3 to 8) (size 9 to 14) (size 15 to 20)
#    0.000    2.500    1.250    0.750   10.500    2.000 
#    0.000    0.000    0.000    0.000    0.000    1.750 
#    0.000    0.000    0.000    0.000    0.000    0.000 
#
# Total GULP energy -178145.343791 kJ/mol
# GULP energy per Si atom -5567.041993 kJ/mol
# Density = 1.759899 g / cm^3
# Si number density = 17.639137 Si / 1000 Ang^3
#
#
#
# Elastic Constant Matrix: (Units=GPa)
#
#
# Indices 1 2 3 4 5 6 
#
# 1 68.0467 25.3730 25.7632 0.0000 -0.8087 0.0000
# 2 25.3730 82.3585 31.0028 0.0000 6.1715 0.0000
# 3 25.7632 31.0028 75.3455 0.0000 16.4077 0.0000
# 4 0.0000 0.0000 0.0000 17.5210 0.0000 2.4591
# 5 -0.8087 6.1715 16.4077 0.0000 18.1537 0.0000
# 6 0.0000 0.0000 0.0000 2.4591 0.0000 22.4480
#
#
#
# Elastic Compliance Matrix: (Units=1/GPa)
#
#
# Indices 1 2 3 4 5 6 
#
# 1 0.018733 -0.003908 -0.006559 0.000000 0.008091 0.000000
# 2 -0.003908 0.015188 -0.004670 0.000000 -0.001117 0.000000
# 3 -0.006559 -0.004670 0.021358 0.000000 -0.018009 0.000000
# 4 0.000000 0.000000 0.000000 0.057966 0.000000 -0.006350
# 5 0.008091 -0.001117 -0.018009 0.000000 0.072102 0.000000
# 6 0.000000 0.000000 0.000000 -0.006350 0.000000 0.045243
#
#
# Mechanical properties :
#
#
# Convention : Reuss Voigt Hill
#
# Bulk Modulus (GPa) = 39.99390 43.33652 41.66521
# Shear Modulus (GPa) = 18.57370 21.19866 19.88618
#
# Velocity S-wave (km/s) = 3.24849 3.47046 3.36130
# Velocity P-wave (km/s) = 6.06571 6.37812 6.22388
#
# Compressibility (1/GPa) = 0.02500382
#
# Stress axis : x y z
#
# Youngs Moduli (GPa) = 53.38271 65.84288 46.82056
#
# Poissons Ratio (x) = 0.25734 0.30711
# Poissons Ratio (y) = 0.20864 0.21864
# Poissons Ratio (z) = 0.35015 0.30747
#
# Static dielectric constant tensor:
#      x y z
#    x 1.705390 0.000000 0.015590 
#    y 0.000000 1.598270 0.000000 
#    z 0.015590 0.000000 1.655420 
# 
# From -- ./inp_files/75780.got.cif
#   From: 2010.05.17/outbox.cif.g08.bks.cpg/sg14_38_cif.got.tgz:75780.got - 2010.06.03 17:49:19.
