data_PCOD9240051
_publ_section_title
;
Structure prediction by ZEFSAII (Michael W. Deem and Ramdas Pophale) SiO2 
 PCOD9240051
Probable space group: P 21/C
;
_chemical_formula_sum "Si O2"
_cell_formula_units_Z 32
_cell_length_a 17.580870
_cell_length_b 14.365562
_cell_length_c 12.517255
_cell_angle_alpha 90.000000
_cell_angle_beta 33.391547
_cell_angle_gamma 90.000000
_cell_volume 1739.870902
_symmetry_space_group_name_H-M "P 21/C"
_symmetry_group_IT_number 14
_symmetry_cell_setting 'monoclinic'
loop_
_space_group_symop_operation_xyz
x,y,z
-x,1/2+y,1/2-z
-x,-y,-z
x,1/2-y,1/2+z
loop_
_atom_site_type_symbol
_atom_site_label
_atom_site_fract_x
_atom_site_fract_y
_atom_site_fract_z
Si Si1 0.788868 0.177751 0.043163
Si Si2 0.017142 0.101400 0.928534
Si Si3 0.758622 0.357050 0.194249
Si Si4 0.015514 0.290719 0.645803
Si Si5 0.425966 0.995927 0.201039
Si Si6 0.822415 0.881196 0.464569
Si Si7 0.017781 0.049053 0.312905
Si Si8 0.309463 0.543038 0.509459
O O1 0.731551 0.251409 0.194913
O O2 0.692063 0.108606 0.092080
O O3 0.894013 0.117059 0.989309
O O4 0.878755 0.238297 0.851804
O O5 0.148874 0.112838 0.696167
O O6 0.011891 0.179480 0.026947
O O7 0.000000 0.000000 0.000000
O O8 0.684501 0.413710 0.184840
O O9 0.701668 0.390232 0.373966
O O10 0.920764 0.386791 0.002329
O O11 0.136023 0.218611 0.536737
O O12 0.031783 0.386654 0.692100
O O13 0.332348 0.086432 0.330123
O O14 0.548520 0.986868 0.142406
O O15 0.500000 0.000000 0.000000
O O16 0.927271 0.956556 0.396088
O O17 0.169595 0.018925 0.173296
#
# Coordination Sequence:
#
# PCOD9240051 Si02
#       8
#     4   4   4   4   4   4   4   4
#     4  10  20  32  55  87 113 145 194 231 288 352
#     4  11  19  34  59  87 120 151 185 247 304 339
#     4   9  20  35  55  81 108 146 187 232 288 331
#     4  10  19  34  56  87 118 146 191 245 293 346
#     4   9  21  40  57  76 114 155 185 231 291 336
#     4  10  20  38  56  86 116 150 197 233 291 352
#     4  10  18  34  57  86 110 141 192 243 284 339
#     4  11  18  36  55  79 112 143 188 237 277 338
#
# _framework density 18.392168999999999
#
# number of rings (size 3 to 8) (size 9 to 14) (size 15 to 20)
#    0.000    2.000    3.750    1.125    0.000    0.000 
#   13.500    1.250    0.000    3.000    0.000    0.000 
#    0.000    0.000    0.000    0.000    0.000    0.000 
#
# Total GULP energy -178294.074391 kJ/mol
# GULP energy per Si atom -5571.689825 kJ/mol
# Density = 1.835031 g / cm^3
# Si number density = 18.392169 Si / 1000 Ang^3
#
#
#
# Elastic Constant Matrix: (Units=GPa)
#
#
# Indices 1 2 3 4 5 6 
#
# 1 87.0711 32.0450 31.2876 0.0000 -4.1458 0.0000
# 2 32.0450 68.8871 10.3402 0.0000 -0.8860 0.0000
# 3 31.2876 10.3402 43.2084 0.0000 -4.8309 0.0000
# 4 0.0000 0.0000 0.0000 16.8297 0.0000 6.6140
# 5 -4.1458 -0.8860 -4.8309 0.0000 37.4825 0.0000
# 6 0.0000 0.0000 0.0000 6.6140 0.0000 32.2803
#
#
#
# Elastic Compliance Matrix: (Units=1/GPa)
#
#
# Indices 1 2 3 4 5 6 
#
# 1 0.018077 -0.006686 -0.011449 0.000000 0.000366 0.000000
# 2 -0.006686 0.017531 0.000619 0.000000 -0.000245 0.000000
# 3 -0.011449 0.000619 0.031601 0.000000 0.002821 0.000000
# 4 0.000000 0.000000 0.000000 0.064622 0.000000 -0.013241
# 5 0.000366 -0.000245 0.002821 0.000000 0.027077 0.000000
# 6 0.000000 0.000000 0.000000 -0.013241 0.000000 0.033692
#
#
# Mechanical properties :
#
#
# Convention : Reuss Voigt Hill
#
# Bulk Modulus (GPa) = 31.07838 38.50134 34.78986
# Shear Modulus (GPa) = 20.97692 25.68475 23.33084
#
# Velocity S-wave (km/s) = 3.38085 3.74104 3.56549
# Velocity P-wave (km/s) = 5.67225 6.29599 5.99224
#
# Compressibility (1/GPa) = 0.03217671
#
# Stress axis : x y z
#
# Youngs Moduli (GPa) = 55.31961 57.04311 31.64445
#
# Poissons Ratio (x) = 0.38138 0.36229
# Poissons Ratio (y) = 0.36986 -0.01957
# Poissons Ratio (z) = 0.63334 -0.03529
#
# Static dielectric constant tensor:
#      x y z
#    x 1.651530 0.000000 0.000160 
#    y 0.000000 1.660830 0.000000 
#    z 0.000160 0.000000 1.662410 
# 
# From -- ./inp_files/32764.got.cif
#   From: 2010.05.17/outbox.cif.g08.bks.cpg/sg14_17_cif.got.tgz:32764.got - 2010.06.03 17:49:19.
