data_PCOD9240670
_publ_section_title
;
Structure prediction by ZEFSAII (Michael W. Deem and Ramdas Pophale) SiO2 
 PCOD9240670
Probable space group: P 21/C
;
_chemical_formula_sum "Si O2"
_cell_formula_units_Z 32
_cell_length_a 11.779235
_cell_length_b 14.805961
_cell_length_c 20.637445
_cell_angle_alpha 90.000000
_cell_angle_beta 157.155010
_cell_angle_gamma 90.000000
_cell_volume 1397.362716
_symmetry_space_group_name_H-M "P 21/C"
_symmetry_group_IT_number 14
_symmetry_cell_setting 'monoclinic'
loop_
_space_group_symop_operation_xyz
x,y,z
-x,1/2+y,1/2-z
-x,-y,-z
x,1/2-y,1/2+z
loop_
_atom_site_type_symbol
_atom_site_label
_atom_site_fract_x
_atom_site_fract_y
_atom_site_fract_z
Si Si1 0.277022 0.646662 0.591449
Si Si2 0.742257 0.554012 0.922957
Si Si3 0.134252 0.684301 0.202108
Si Si4 0.795757 0.858484 0.744426
Si Si5 0.290143 0.945646 0.307455
Si Si6 0.913842 0.637429 0.519317
Si Si7 0.608920 0.722029 0.023852
Si Si8 0.612837 0.351079 0.842385
O O1 0.589395 0.609666 0.782605
O O2 0.233997 0.754748 0.574947
O O3 0.130872 0.631978 0.444681
O O4 0.063505 0.602467 0.532395
O O5 0.510327 0.558752 0.861290
O O6 0.773956 0.447364 0.926298
O O7 0.030457 0.600277 0.104180
O O8 0.078087 0.771835 0.127592
O O9 0.888476 0.694973 0.128549
O O10 0.442748 0.695298 0.401243
O O11 0.721103 0.777313 0.656423
O O12 0.593305 0.850079 0.701750
O O13 0.711688 0.953817 0.666701
O O14 0.374484 0.860247 0.395007
O O15 0.973548 0.929451 0.108987
O O16 0.586102 0.653787 0.326517
#
# Coordination Sequence:
#
# PCOD9240670 Si02
#       8
#     4   4   4   4   4   4   4   4
#     4  10  19  32  54  80 114 141 175 235 284 334
#     4   9  17  33  54  81 107 140 184 229 282 325
#     4  10  20  36  57  80 108 148 191 229 269 327
#     4  10  20  32  52  81 111 140 186 232 280 321
#     4   8  16  32  54  81 100 136 189 243 264 310
#     4   9  17  32  55  79 107 136 186 229 284 319
#     4  10  21  34  58  80 110 150 186 228 273 328
#     4  10  19  31  55  80 110 144 176 231 284 334
#
# _framework density 22.900282000000001
#
# number of rings (size 3 to 8) (size 9 to 14) (size 15 to 20)
#    0.000    2.500    1.250    1.875    1.750    3.000 
#    0.000    0.625    0.000    0.750    0.000    0.000 
#    0.000    0.000    0.000    0.000    0.000    0.000 
#
# Total GULP energy -178354.822864 kJ/mol
# GULP energy per Si atom -5573.588215 kJ/mol
# Density = 2.284816 g / cm^3
# Si number density = 22.900282 Si / 1000 Ang^3
#
#
#
# Elastic Constant Matrix: (Units=GPa)
#
#
# Indices 1 2 3 4 5 6 
#
# 1 48.9659 3.1279 28.9843 0.0000 -9.2030 0.0000
# 2 3.1279 112.1587 25.5049 0.0000 -9.1911 0.0000
# 3 28.9843 25.5049 90.2105 0.0000 -23.9228 0.0000
# 4 0.0000 0.0000 0.0000 31.0665 0.0000 -4.2656
# 5 -9.2030 -9.1911 -23.9228 0.0000 25.5737 0.0000
# 6 0.0000 0.0000 0.0000 -4.2656 0.0000 23.4066
#
#
#
# Elastic Compliance Matrix: (Units=1/GPa)
#
#
# Indices 1 2 3 4 5 6 
#
# 1 0.025465 0.001280 -0.007968 0.000000 0.002170 0.000000
# 2 0.001280 0.009621 -0.002782 0.000000 0.001315 0.000000
# 3 -0.007968 -0.002782 0.017829 0.000000 0.012811 0.000000
# 4 0.000000 0.000000 0.000000 0.033015 0.000000 0.006017
# 5 0.002170 0.001315 0.012811 0.000000 0.052340 0.000000
# 6 0.000000 0.000000 0.000000 0.006017 0.000000 0.043819
#
#
# Mechanical properties :
#
#
# Convention : Reuss Voigt Hill
#
# Bulk Modulus (GPa) = 29.43485 40.72992 35.08239
# Shear Modulus (GPa) = 23.54536 28.92390 26.23463
#
# Velocity S-wave (km/s) = 3.20999 3.55778 3.38835
# Velocity P-wave (km/s) = 5.15946 5.89079 5.53722
#
# Compressibility (1/GPa) = 0.03397333
#
# Stress axis : x y z
#
# Youngs Moduli (GPa) = 39.26955 103.94195 56.08757
#
# Poissons Ratio (x) = -0.13301 0.44691
# Poissons Ratio (y) = -0.05025 0.15605
# Poissons Ratio (z) = 0.31290 0.28920
#
# Static dielectric constant tensor:
#      x y z
#    x 1.911540 0.000000 0.018490 
#    y 0.000000 1.918390 0.000000 
#    z 0.018490 0.000000 1.911560 
# 
# From -- ./inp_files/73974.got.cif
#   From: 2010.05.17/outbox.cif.g08.bks.cpg/sg14_37_cif.got.tgz:73974.got - 2010.06.03 17:49:19.
