data_PCOD9240682
_publ_section_title
;
Structure prediction by ZEFSAII (Michael W. Deem and Ramdas Pophale) SiO2 
 PCOD9240682
Probable space group: P 21/C
;
_chemical_formula_sum "Si O2"
_cell_formula_units_Z 28
_cell_length_a 10.977901
_cell_length_b 25.370847
_cell_length_c 5.511248
_cell_angle_alpha 90.000000
_cell_angle_beta 80.713444
_cell_angle_gamma 90.000000
_cell_volume 1514.867215
_symmetry_space_group_name_H-M "P 21/C"
_symmetry_group_IT_number 14
_symmetry_cell_setting 'monoclinic'
loop_
_space_group_symop_operation_xyz
x,y,z
-x,1/2+y,1/2-z
-x,-y,-z
x,1/2-y,1/2+z
loop_
_atom_site_type_symbol
_atom_site_label
_atom_site_fract_x
_atom_site_fract_y
_atom_site_fract_z
Si Si1 0.946788 0.959695 0.212721
Si Si2 0.071014 0.764484 0.368867
Si Si3 0.241199 0.541864 0.110260
Si Si4 0.053012 0.885174 0.510695
Si Si5 0.645268 0.003421 0.910643
Si Si6 0.199159 0.398852 0.610890
Si Si7 0.210229 0.276906 0.568483
O O1 0.055576 0.925307 0.285854
O O2 0.865822 0.998021 0.402982
O O3 0.853606 0.917179 0.130970
O O4 0.000000 0.000000 0.000000
O O5 0.135062 0.743451 0.590549
O O6 0.049218 0.825934 0.421347
O O7 0.939884 0.732684 0.390871
O O8 0.169341 0.597701 0.134728
O O9 0.297342 0.527505 0.356518
O O10 0.328394 0.535565 0.847232
O O11 0.923199 0.898181 0.681724
O O12 0.704078 0.944664 0.855653
O O13 0.500000 0.000000 0.000000
O O14 0.241188 0.338448 0.584775
O O15 0.253439 0.253497 0.296823
#
# Coordination Sequence:
#
# PCOD9240682 Si02
#       7
#     4   4   4   4   4   4   4
#     4  11  20  31  48  83 121 147 180 220 282 357
#     4  10  20  31  48  75 120 147 175 215 272 362
#     4  11  23  36  58  83 111 150 186 232 279 351
#     4  12  20  32  55  85 120 146 181 227 302 351
#     4  11  25  43  57  79 112 155 205 244 278 328
#     4  11  21  32  57  80 116 155 180 235 292 344
#     4  10  19  32  47  78 116 142 180 218 277 354
#
# _framework density 18.483468999999999
#
# number of rings (size 3 to 8) (size 9 to 14) (size 15 to 20)
#    0.000    1.143    5.714    4.286    0.000    0.000 
#    0.000    0.000    0.000    0.000    0.000    6.000 
#    0.000    0.000    0.000    0.000    0.000    0.000 
#
# Total GULP energy -156031.143663 kJ/mol
# GULP energy per Si atom -5572.540845 kJ/mol
# Density = 1.844140 g / cm^3
# Si number density = 18.483469 Si / 1000 Ang^3
#
#
#
# Elastic Constant Matrix: (Units=GPa)
#
#
# Indices 1 2 3 4 5 6 
#
# 1 53.7794 23.9653 24.7276 0.0000 -6.9939 0.0000
# 2 23.9653 90.5302 37.2743 0.0000 8.2654 0.0000
# 3 24.7276 37.2743 117.0811 0.0000 3.8335 0.0000
# 4 0.0000 0.0000 0.0000 26.4524 0.0000 3.7653
# 5 -6.9939 8.2654 3.8335 0.0000 25.3159 0.0000
# 6 0.0000 0.0000 0.0000 3.7653 0.0000 10.7093
#
#
#
# Elastic Compliance Matrix: (Units=1/GPa)
#
#
# Indices 1 2 3 4 5 6 
#
# 1 0.023932 -0.005703 -0.003534 0.000000 0.009009 0.000000
# 2 -0.005703 0.014398 -0.003190 0.000000 -0.005793 0.000000
# 3 -0.003534 -0.003190 0.010352 0.000000 -0.001502 0.000000
# 4 0.000000 0.000000 0.000000 0.039795 0.000000 -0.013992
# 5 0.009009 -0.005793 -0.001502 0.000000 0.044109 0.000000
# 6 0.000000 0.000000 0.000000 -0.013992 0.000000 0.098296
#
#
# Mechanical properties :
#
#
# Convention : Reuss Voigt Hill
#
# Bulk Modulus (GPa) = 41.96479 48.14721 45.05600
# Shear Modulus (GPa) = 18.96248 24.19042 21.57645
#
# Velocity S-wave (km/s) = 3.20647 3.62160 3.42034
# Velocity P-wave (km/s) = 6.03836 6.60253 6.32674
#
# Compressibility (1/GPa) = 0.02382950
#
# Stress axis : x y z
#
# Youngs Moduli (GPa) = 41.78467 69.45448 96.59880
#
# Poissons Ratio (x) = 0.39609 0.34137
# Poissons Ratio (y) = 0.23829 0.30811
# Poissons Ratio (z) = 0.14766 0.22153
#
# Static dielectric constant tensor:
#      x y z
#    x 1.637730 0.000000 0.029060 
#    y 0.000000 1.653450 0.000000 
#    z 0.029060 0.000000 1.779120 
# 
# From -- ./inp_files/3060.got.cif
#   From: 2010.05.17/outbox.cif.g08.bks.cpg/sg14_2_cif.got.tgz:3060.got - 2010.06.03 17:49:19.
