data_PCOD9240055
_publ_section_title
;
Structure prediction by ZEFSAII (Michael W. Deem and Ramdas Pophale) SiO2 
 PCOD9240055
Probable space group: P 21/C
;
_chemical_formula_sum "Si O2"
_cell_formula_units_Z 28
_cell_length_a 15.655036
_cell_length_b 8.018274
_cell_length_c 9.264456
_cell_angle_alpha 90.000000
_cell_angle_beta 87.251806
_cell_angle_gamma 90.000000
_cell_volume 1161.596023
_symmetry_space_group_name_H-M "P 21/C"
_symmetry_group_IT_number 14
_symmetry_cell_setting 'monoclinic'
loop_
_space_group_symop_operation_xyz
x,y,z
-x,1/2+y,1/2-z
-x,-y,-z
x,1/2-y,1/2+z
loop_
_atom_site_type_symbol
_atom_site_label
_atom_site_fract_x
_atom_site_fract_y
_atom_site_fract_z
Si Si1 0.586329 0.409451 0.329699
Si Si2 0.298549 0.405417 0.078629
Si Si3 0.313643 0.732655 0.431482
Si Si4 0.397254 0.233726 0.820280
Si Si5 0.892361 0.594175 0.981179
Si Si6 0.881079 0.198221 0.047362
Si Si7 0.995250 0.221308 0.788715
O O1 0.646002 0.296173 0.220594
O O2 0.622630 0.385907 0.486817
O O3 0.407149 0.404293 0.728471
O O4 0.489583 0.348271 0.325875
O O5 0.305876 0.595830 0.025294
O O6 0.361171 0.296882 0.974326
O O7 0.202502 0.347637 0.051858
O O8 0.330039 0.379706 0.238588
O O9 0.218462 0.656944 0.431175
O O10 0.936922 0.686373 0.112692
O O11 0.885746 0.398406 0.018568
O O12 0.951235 0.629178 0.838704
O O13 0.932168 0.124100 0.905828
O O14 0.930481 0.171821 0.192720
#
# Coordination Sequence:
#
# PCOD9240055 Si02
#       7
#     4   4   4   4   4   4   4
#     4  11  23  39  61  89 118 152 195 240 290 349
#     4  10  22  40  60  84 118 157 195 240 292 345
#     4  10  22  40  60  84 118 157 195 240 292 345
#     4  11  23  39  61  89 118 152 195 240 290 349
#     4  10  21  38  57  81 115 151 190 238 289 341
#     4  10  21  38  57  81 115 151 190 238 289 341
#     4  10  18  34  58  82 110 146 186 230 284 338
#
# _framework density 24.104765
#
# number of rings (size 3 to 8) (size 9 to 14) (size 15 to 20)
#    0.000    1.714    0.000    5.143    0.000    5.714 
#    0.000   15.714    0.000    0.000    0.000    0.000 
#    0.000    0.000    0.000    0.000    0.000    0.000 
#
# Total GULP energy -156845.443468 kJ/mol
# GULP energy per Si atom -5601.622981 kJ/mol
# Density = 2.404990 g / cm^3
# Si number density = 24.104765 Si / 1000 Ang^3
#
#
#
# Elastic Constant Matrix: (Units=GPa)
#
#
# Indices 1 2 3 4 5 6 
#
# 1 136.6948 28.0517 63.8092 0.0000 6.1887 0.0000
# 2 28.0517 49.4159 33.7930 0.0000 1.1863 0.0000
# 3 63.8092 33.7930 142.3125 0.0000 20.9577 0.0000
# 4 0.0000 0.0000 0.0000 38.4838 0.0000 1.1240
# 5 6.1887 1.1863 20.9577 0.0000 36.5470 0.0000
# 6 0.0000 0.0000 0.0000 1.1240 0.0000 12.1655
#
#
#
# Elastic Compliance Matrix: (Units=1/GPa)
#
#
# Indices 1 2 3 4 5 6 
#
# 1 0.009621 -0.002944 -0.003701 0.000000 0.000589 0.000000
# 2 -0.002944 0.025314 -0.005071 0.000000 0.002585 0.000000
# 3 -0.003701 -0.005071 0.010676 0.000000 -0.005330 0.000000
# 4 0.000000 0.000000 0.000000 0.026055 0.000000 -0.002407
# 5 0.000589 0.002585 -0.005330 0.000000 0.030235 0.000000
# 6 0.000000 0.000000 0.000000 -0.002407 0.000000 0.082422
#
#
# Mechanical properties :
#
#
# Convention : Reuss Voigt Hill
#
# Bulk Modulus (GPa) = 45.09372 64.41454 54.75413
# Shear Modulus (GPa) = 23.23970 30.95721 27.09846
#
# Velocity S-wave (km/s) = 3.10838 3.58757 3.35654
# Velocity P-wave (km/s) = 5.62412 6.62885 6.14705
#
# Compressibility (1/GPa) = 0.02217604
#
# Stress axis : x y z
#
# Youngs Moduli (GPa) = 103.94007 39.50395 93.67154
#
# Poissons Ratio (x) = 0.11632 0.34671
# Poissons Ratio (y) = 0.30605 0.47505
# Poissons Ratio (z) = 0.38472 0.20034
#
# Static dielectric constant tensor:
#      x y z
#    x 1.879660 0.000000 -0.013190 
#    y 0.000000 1.971460 0.000000 
#    z -0.013190 0.000000 1.886170 
# 
# From -- ./inp_files/15333.got.cif
#   From: 2010.05.17/outbox.cif.g08.bks.cpg/sg14_8_cif.got.tgz:15333.got - 2010.06.03 17:49:19.
