data_PCOD9240216
_publ_section_title
;
Structure prediction by ZEFSAII (Michael W. Deem and Ramdas Pophale) SiO2 
 PCOD9240216
Probable space group: P 21/C
;
_chemical_formula_sum "Si O2"
_cell_formula_units_Z 32
_cell_length_a 29.662972
_cell_length_b 6.614953
_cell_length_c 18.310951
_cell_angle_alpha 90.000000
_cell_angle_beta 27.044229
_cell_angle_gamma 90.000000
_cell_volume 1633.640261
_symmetry_space_group_name_H-M "P 21/C"
_symmetry_group_IT_number 14
_symmetry_cell_setting 'monoclinic'
loop_
_space_group_symop_operation_xyz
x,y,z
-x,1/2+y,1/2-z
-x,-y,-z
x,1/2-y,1/2+z
loop_
_atom_site_type_symbol
_atom_site_label
_atom_site_fract_x
_atom_site_fract_y
_atom_site_fract_z
Si Si1 0.538360 0.254635 0.802648
Si Si2 0.066861 0.303676 0.567496
Si Si3 0.663526 0.619739 0.149792
Si Si4 0.777228 0.933296 0.734813
Si Si5 0.368832 0.345671 0.155124
Si Si6 0.785880 0.318679 0.629533
Si Si7 0.127590 0.500830 0.108542
Si Si8 0.622537 0.899525 0.078928
O O1 0.461624 0.136569 0.860310
O O2 0.594759 0.413384 0.670307
O O3 0.614926 0.099056 0.726905
O O4 0.470513 0.350900 0.963756
O O5 0.115961 0.171294 0.431919
O O6 0.134261 0.503118 0.477960
O O7 0.078574 0.160047 0.622513
O O8 0.955764 0.387921 0.723609
O O9 0.626729 0.755214 0.270430
O O10 0.628901 0.710163 0.123385
O O11 0.782676 0.609229 0.980147
O O12 0.705059 0.807915 0.782995
O O13 0.780872 0.165467 0.704580
O O14 0.725936 0.920130 0.886946
O O15 0.316878 0.563420 0.231897
O O16 0.819442 0.174139 0.515750
#
# Coordination Sequence:
#
# PCOD9240216 Si02
#       8
#     4   4   4   4   4   4   4   4
#     4  11  25  42  63  88 128 179 211 260 316 377
#     4  10  19  36  64  95 129 158 201 257 331 385
#     4  12  24  41  62  96 129 161 218 270 306 372
#     4   9  21  39  62  93 126 169 210 257 315 386
#     4  10  22  38  63  96 125 159 216 266 316 366
#     4  10  18  35  63  89 129 159 199 254 319 373
#     4  11  21  36  63 101 125 160 203 264 321 379
#     4  11  25  43  62  86 129 176 219 252 319 378
#
# _framework density 19.588155
#
# number of rings (size 3 to 8) (size 9 to 14) (size 15 to 20)
#    0.000    1.500    6.250    0.375    3.500    1.500 
#    0.000    0.625    0.000    1.500    0.000    0.000 
#    0.000    0.000    0.000    0.000    0.000    0.000 
#
# Total GULP energy -178671.675278 kJ/mol
# GULP energy per Si atom -5583.489852 kJ/mol
# Density = 1.954357 g / cm^3
# Si number density = 19.588155 Si / 1000 Ang^3
#
#
#
# Elastic Constant Matrix: (Units=GPa)
#
#
# Indices 1 2 3 4 5 6 
#
# 1 38.3909 9.0862 23.5343 0.0000 18.9017 0.0000
# 2 9.0862 93.5016 29.6568 0.0000 10.2551 0.0000
# 3 23.5343 29.6568 93.8273 0.0000 83.5991 0.0000
# 4 0.0000 0.0000 0.0000 29.3648 0.0000 -6.6874
# 5 18.9017 10.2551 83.5991 0.0000 -94.1269 0.0000
# 6 0.0000 0.0000 0.0000 -6.6874 0.0000 12.0766
#
#
#
# Elastic Compliance Matrix: (Units=1/GPa)
#
#
# Indices 1 2 3 4 5 6 
#
# 1 0.030794 -0.000663 -0.007235 0.000000 -0.000314 0.000000
# 2 -0.000663 0.011686 -0.002536 0.000000 -0.001112 0.000000
# 3 -0.007235 -0.002536 0.008270 0.000000 0.005616 0.000000
# 4 0.000000 0.000000 0.000000 0.038969 0.000000 0.021579
# 5 -0.000314 -0.001112 0.005616 0.000000 -0.005820 0.000000
# 6 0.000000 0.000000 0.000000 0.021579 0.000000 0.094754
#
#
# Mechanical properties :
#
#
# Convention : Reuss Voigt Hill
#
# Bulk Modulus (GPa) = 33.46469 38.91939 36.19204
# Shear Modulus (GPa) = 23.86849 0.35908 12.11378
#
# Velocity S-wave (km/s) = 3.49451 0.42862 2.48951
# Velocity P-wave (km/s) = 5.77957 4.48965 5.17495
#
# Compressibility (1/GPa) = 0.02988224
#
# Stress axis : x y z
#
# Youngs Moduli (GPa) = 32.47350 85.57346 120.91589
#
# Poissons Ratio (x) = 0.05677 0.87478
# Poissons Ratio (y) = 0.02154 0.30665
# Poissons Ratio (z) = 0.23493 0.21702
#
# Static dielectric constant tensor:
#      x y z
#    x 1.683820 0.000000 -0.017730 
#    y 0.000000 1.679740 0.000000 
#    z -0.017730 0.000000 1.698410 
# 
# From -- ./inp_files/62482.got.cif
#   From: 2010.05.17/outbox.cif.g08.bks.cpg/sg14_32_cif.got.tgz:62482.got - 2010.06.03 17:49:19.
