data_PCOD9240213
_publ_section_title
;
Structure prediction by ZEFSAII (Michael W. Deem and Ramdas Pophale) SiO2 
 PCOD9240213
Probable space group: P 21/C
;
_chemical_formula_sum "Si O2"
_cell_formula_units_Z 16
_cell_length_a 12.567312
_cell_length_b 7.061674
_cell_length_c 13.577917
_cell_angle_alpha 90.000000
_cell_angle_beta 43.573619
_cell_angle_gamma 90.000000
_cell_volume 830.582338
_symmetry_space_group_name_H-M "P 21/C"
_symmetry_group_IT_number 14
_symmetry_cell_setting 'monoclinic'
loop_
_space_group_symop_operation_xyz
x,y,z
-x,1/2+y,1/2-z
-x,-y,-z
x,1/2-y,1/2+z
loop_
_atom_site_type_symbol
_atom_site_label
_atom_site_fract_x
_atom_site_fract_y
_atom_site_fract_z
Si Si1 0.830210 0.017583 0.571437
Si Si2 0.417702 0.331799 0.614219
Si Si3 0.635156 0.353943 0.634642
Si Si4 0.338746 0.280960 0.961933
O O1 0.712051 0.923654 0.729164
O O2 0.799511 0.899083 0.492771
O O3 0.774063 0.229677 0.583684
O O4 0.000000 0.000000 0.500000
O O5 0.500000 0.500000 0.500000
O O6 0.550116 0.254714 0.598028
O O7 0.347225 0.207824 0.574164
O O8 0.501203 0.352385 0.807072
O O9 0.675200 0.564191 0.569875
#
# Coordination Sequence:
#
# PCOD9240213 Si02
#       4
#     4   4   4   4
#     4  11  23  39  55  86 121 146 184 242 286 325
#     4   9  18  37  61  81 109 147 196 232 265 348
#     4  10  18  35  63  82 110 150 190 234 276 332
#     4  10  19  38  60  87 110 150 196 230 277 341
#
# _framework density 19.263591999999999
#
# number of rings (size 3 to 8) (size 9 to 14) (size 15 to 20)
#    0.000    2.000    7.500    0.000    0.000    2.000 
#    9.000    0.000    0.000    0.000    0.000    0.000 
#    0.000    0.000    0.000    0.000    0.000    0.000 
#
# Total GULP energy -89179.421344 kJ/mol
# GULP energy per Si atom -5573.713834 kJ/mol
# Density = 1.921975 g / cm^3
# Si number density = 19.263592 Si / 1000 Ang^3
#
#
#
# Elastic Constant Matrix: (Units=GPa)
#
#
# Indices 1 2 3 4 5 6 
#
# 1 82.6781 5.6594 11.1750 0.0000 -26.3213 0.0000
# 2 5.6594 63.4337 -14.4474 0.0000 -13.6980 0.0000
# 3 11.1750 -14.4474 30.8150 0.0000 7.8118 0.0000
# 4 0.0000 0.0000 0.0000 17.6714 0.0000 8.1670
# 5 -26.3213 -13.6980 7.8118 0.0000 35.6646 0.0000
# 6 0.0000 0.0000 0.0000 8.1670 0.0000 41.4255
#
#
#
# Elastic Compliance Matrix: (Units=1/GPa)
#
#
# Indices 1 2 3 4 5 6 
#
# 1 0.018761 -0.000774 -0.011225 0.000000 0.016008 0.000000
# 2 -0.000774 0.018664 0.007791 0.000000 0.004891 0.000000
# 3 -0.011225 0.007791 0.043957 0.000000 -0.014920 0.000000
# 4 0.000000 0.000000 0.000000 0.062261 0.000000 -0.012275
# 5 0.016008 0.004891 -0.014920 0.000000 0.045000 0.000000
# 6 0.000000 0.000000 0.000000 -0.012275 0.000000 0.026560
#
#
# Mechanical properties :
#
#
# Convention : Reuss Voigt Hill
#
# Bulk Modulus (GPa) = 13.70441 20.18899 16.94670
# Shear Modulus (GPa) = 20.16609 30.58828 25.37719
#
# Velocity S-wave (km/s) = 3.23902 3.98914 3.63349
# Velocity P-wave (km/s) = 4.59542 5.63213 5.13998
#
# Compressibility (1/GPa) = 0.07296920
#
# Stress axis : x y z
#
# Youngs Moduli (GPa) = 53.30076 53.57851 22.74930
#
# Poissons Ratio (x) = 0.04145 0.25535
# Poissons Ratio (y) = 0.04123 -0.17724
# Poissons Ratio (z) = 0.59828 -0.41744
#
# Static dielectric constant tensor:
#      x y z
#    x 1.728320 0.000000 0.068500 
#    y 0.000000 1.702500 0.000000 
#    z 0.068500 0.000000 1.677010 
# 
# From -- ./inp_files/22681.got.cif
#   From: 2010.05.17/outbox.cif.g08.bks.cpg/sg14_12_cif.got.tgz:22681.got - 2010.06.03 17:49:19.
