data_PCOD9240755
_publ_section_title
;
Structure prediction by ZEFSAII (Michael W. Deem and Ramdas Pophale) SiO2 
 PCOD9240755
Probable space group: P 21/C
;
_chemical_formula_sum "Si O2"
_cell_formula_units_Z 28
_cell_length_a 21.000967
_cell_length_b 7.436689
_cell_length_c 23.947632
_cell_angle_alpha 90.000000
_cell_angle_beta 155.622268
_cell_angle_gamma 90.000000
_cell_volume 1543.721866
_symmetry_space_group_name_H-M "P 21/C"
_symmetry_group_IT_number 14
_symmetry_cell_setting 'monoclinic'
loop_
_space_group_symop_operation_xyz
x,y,z
-x,1/2+y,1/2-z
-x,-y,-z
x,1/2-y,1/2+z
loop_
_atom_site_type_symbol
_atom_site_label
_atom_site_fract_x
_atom_site_fract_y
_atom_site_fract_z
Si Si1 0.849439 0.484154 0.096547
Si Si2 0.220321 0.618247 0.667541
Si Si3 0.970830 0.673025 0.551969
Si Si4 0.516694 0.971422 0.350083
Si Si5 0.883094 0.593319 0.603596
Si Si6 0.797057 0.046581 0.431169
Si Si7 0.548320 0.923332 0.821519
O O1 0.851863 0.694698 0.084231
O O2 0.996456 0.451533 0.252133
O O3 0.686253 0.451641 0.996919
O O4 0.846356 0.391276 0.033175
O O5 0.143073 0.668473 0.664538
O O6 0.398746 0.558959 0.806143
O O7 0.131010 0.447289 0.570960
O O8 0.194575 0.789650 0.605801
O O9 0.955489 0.578856 0.599968
O O10 0.900806 0.874525 0.498273
O O11 0.533884 0.774074 0.336184
O O12 0.446296 0.081043 0.241547
O O13 0.714519 0.500472 0.472949
O O14 0.615932 0.990930 0.292574
#
# Coordination Sequence:
#
# PCOD9240755 Si02
#       7
#     4   4   4   4   4   4   4
#     4   9  20  31  50  75 104 129 167 209 263 299
#     4  10  19  32  55  74 101 138 164 209 254 289
#     4  10  20  33  50  79 103 129 175 206 242 307
#     4   9  17  31  47  75  95 131 168 207 253 303
#     4  10  19  33  47  76 104 132 164 212 252 309
#     4   9  19  35  52  78  99 130 169 215 251 299
#     4   9  17  29  51  71 100 125 163 214 258 287
#
# _framework density 18.137982000000001
#
# number of rings (size 3 to 8) (size 9 to 14) (size 15 to 20)
#    0.000    2.571    1.429    1.286    2.000    1.143 
#    0.000    0.714    0.000    0.000    0.000    7.000 
#    0.000    0.000    0.000    0.000    0.000    0.000 
#
# Total GULP energy -155881.461329 kJ/mol
# GULP energy per Si atom -5567.195047 kJ/mol
# Density = 1.809670 g / cm^3
# Si number density = 18.137982 Si / 1000 Ang^3
#
#
#
# Elastic Constant Matrix: (Units=GPa)
#
#
# Indices 1 2 3 4 5 6 
#
# 1 96.4482 12.9967 43.8078 0.0000 29.4948 0.0000
# 2 12.9967 44.1149 -5.6674 0.0000 9.7781 0.0000
# 3 43.8078 -5.6674 111.6591 0.0000 11.7260 0.0000
# 4 0.0000 0.0000 0.0000 19.1881 0.0000 0.2435
# 5 29.4948 9.7781 11.7260 0.0000 26.9691 0.0000
# 6 0.0000 0.0000 0.0000 0.2435 0.0000 21.0942
#
#
#
# Elastic Compliance Matrix: (Units=1/GPa)
#
#
# Indices 1 2 3 4 5 6 
#
# 1 0.018347 -0.002400 -0.005558 0.000000 -0.016779 0.000000
# 2 -0.002400 0.025537 0.003075 0.000000 -0.007971 0.000000
# 3 -0.005558 0.003075 0.011287 0.000000 0.000056 0.000000
# 4 0.000000 0.000000 0.000000 0.052123 0.000000 -0.000602
# 5 -0.016779 -0.007971 0.000056 0.000000 0.058295 0.000000
# 6 0.000000 0.000000 0.000000 -0.000602 0.000000 0.047413
#
#
# Mechanical properties :
#
#
# Convention : Reuss Voigt Hill
#
# Bulk Modulus (GPa) = 22.02450 39.38847 30.70648
# Shear Modulus (GPa) = 21.01687 26.85596 23.93642
#
# Velocity S-wave (km/s) = 3.40769 3.85209 3.63669
# Velocity P-wave (km/s) = 5.25854 6.44577 5.88219
#
# Compressibility (1/GPa) = 0.04540399
#
# Stress axis : x y z
#
# Youngs Moduli (GPa) = 54.50378 39.15885 88.60047
#
# Poissons Ratio (x) = 0.09400 0.49245
# Poissons Ratio (y) = 0.13083 -0.27244
# Poissons Ratio (z) = 0.30294 -0.12041
#
# Static dielectric constant tensor:
#      x y z
#    x 1.646330 0.000000 0.043200 
#    y 0.000000 1.654290 0.000000 
#    z 0.043200 0.000000 1.673420 
# 
# From -- ./inp_files/54864.got.cif
#   From: 2010.05.17/outbox.cif.g08.bks.cpg/sg14_28_cif.got.tgz:54864.got - 2010.06.03 17:49:19.
