data_PCOD9240299
_publ_section_title
;
Structure prediction by ZEFSAII (Michael W. Deem and Ramdas Pophale) SiO2 
 PCOD9240299
Probable space group: P 21/C
;
_chemical_formula_sum "Si O2"
_cell_formula_units_Z 24
_cell_length_a 8.338745
_cell_length_b 9.094127
_cell_length_c 13.058614
_cell_angle_alpha 90.000000
_cell_angle_beta 101.241076
_cell_angle_gamma 90.000000
_cell_volume 971.283882
_symmetry_space_group_name_H-M "P 21/C"
_symmetry_group_IT_number 14
_symmetry_cell_setting 'monoclinic'
loop_
_space_group_symop_operation_xyz
x,y,z
-x,1/2+y,1/2-z
-x,-y,-z
x,1/2-y,1/2+z
loop_
_atom_site_type_symbol
_atom_site_label
_atom_site_fract_x
_atom_site_fract_y
_atom_site_fract_z
Si Si1 0.075856 0.808495 0.047131
Si Si2 0.798069 0.812686 0.241027
Si Si3 0.045313 0.456453 0.862766
Si Si4 0.466781 0.379111 0.683934
Si Si5 0.708724 0.126829 0.725028
Si Si6 0.266560 0.033249 0.971353
O O1 0.161882 0.866647 0.163608
O O2 0.030727 0.637206 0.052696
O O3 0.201973 0.866506 0.977354
O O4 0.898358 0.881564 0.010534
O O5 0.908071 0.679623 0.208605
O O6 0.670303 0.737709 0.298817
O O7 0.709949 0.896128 0.136307
O O8 0.906216 0.934935 0.307532
O O9 0.207581 0.556408 0.865206
O O10 0.633928 0.289103 0.708038
O O11 0.433315 0.513832 0.756606
O O12 0.413094 0.428835 0.565017
#
# Coordination Sequence:
#
# PCOD9240299 Si02
#       6
#     4   4   4   4   4   4
#     4   9  18  34  64  86 119 165 217 264 304 376
#     4  10  21  37  65  90 124 169 217 261 321 381
#     4  10  18  36  62  92 116 168 218 257 315 379
#     4  10  23  37  64  90 131 171 208 265 335 380
#     4  10  20  38  60  92 126 171 208 263 326 381
#     4   9  18  40  64  90 125 171 219 264 312 390
#
# _framework density 24.709562999999999
#
# number of rings (size 3 to 8) (size 9 to 14) (size 15 to 20)
#    0.000    2.333    3.333    0.000    4.667    0.000 
#    0.000   14.167    3.667    0.000    0.000    0.000 
#    0.000    0.000    0.000    0.000    0.000    0.000 
#
# Total GULP energy -134109.099809 kJ/mol
# GULP energy per Si atom -5587.879159 kJ/mol
# Density = 2.465332 g / cm^3
# Si number density = 24.709563 Si / 1000 Ang^3
#
#
#
# Elastic Constant Matrix: (Units=GPa)
#
#
# Indices 1 2 3 4 5 6 
#
# 1 67.3482 40.4196 36.2462 0.0000 -18.8582 0.0000
# 2 40.4196 167.0298 27.7662 0.0000 -1.0275 0.0000
# 3 36.2462 27.7662 65.7471 0.0000 -10.8796 0.0000
# 4 0.0000 0.0000 0.0000 32.8311 0.0000 -0.2966
# 5 -18.8582 -1.0275 -10.8796 0.0000 40.1658 0.0000
# 6 0.0000 0.0000 0.0000 -0.2966 0.0000 76.0285
#
#
#
# Elastic Compliance Matrix: (Units=1/GPa)
#
#
# Indices 1 2 3 4 5 6 
#
# 1 0.025914 -0.004399 -0.010923 0.000000 0.009096 0.000000
# 2 -0.004399 0.007200 -0.000970 0.000000 -0.002144 0.000000
# 3 -0.010923 -0.000970 0.021764 0.000000 0.000742 0.000000
# 4 0.000000 0.000000 0.000000 0.030460 0.000000 0.000119
# 5 0.009096 -0.002144 0.000742 0.000000 0.029313 0.000000
# 6 0.000000 0.000000 0.000000 0.000119 0.000000 0.013153
#
#
# Mechanical properties :
#
#
# Convention : Reuss Voigt Hill
#
# Bulk Modulus (GPa) = 44.85777 56.55434 50.70606
# Shear Modulus (GPa) = 29.79365 42.85128 36.32246
#
# Velocity S-wave (km/s) = 3.47616 4.16889 3.83819
# Velocity P-wave (km/s) = 5.85705 6.79045 6.34095
#
# Compressibility (1/GPa) = 0.02229268
#
# Stress axis : x y z
#
# Youngs Moduli (GPa) = 38.58892 138.89699 45.94689
#
# Poissons Ratio (x) = 0.61103 0.50190
# Poissons Ratio (y) = 0.16976 0.04457
# Poissons Ratio (z) = 0.42152 0.13474
#
# Static dielectric constant tensor:
#      x y z
#    x 2.002370 0.000000 -0.059990 
#    y 0.000000 1.966180 0.000000 
#    z -0.059990 0.000000 1.954790 
# 
# From -- ./inp_files/54640.got.cif
#   From: 2010.05.17/outbox.cif.g08.bks.cpg/sg14_28_cif.got.tgz:54640.got - 2010.06.03 17:49:19.
