data_PCOD9240229
_publ_section_title
;
Structure prediction by ZEFSAII (Michael W. Deem and Ramdas Pophale) SiO2 
 PCOD9240229
Probable space group: P 21/C
;
_chemical_formula_sum "Si O2"
_cell_formula_units_Z 32
_cell_length_a 10.135995
_cell_length_b 11.849465
_cell_length_c 14.584489
_cell_angle_alpha 90.000000
_cell_angle_beta 66.468941
_cell_angle_gamma 90.000000
_cell_volume 1606.022749
_symmetry_space_group_name_H-M "P 21/C"
_symmetry_group_IT_number 14
_symmetry_cell_setting 'monoclinic'
loop_
_space_group_symop_operation_xyz
x,y,z
-x,1/2+y,1/2-z
-x,-y,-z
x,1/2-y,1/2+z
loop_
_atom_site_type_symbol
_atom_site_label
_atom_site_fract_x
_atom_site_fract_y
_atom_site_fract_z
Si Si1 0.280846 0.987298 0.005046
Si Si2 0.260222 0.268351 0.461291
Si Si3 0.210787 0.751706 0.090757
Si Si4 0.481155 0.132064 0.530863
Si Si5 0.740090 0.186375 0.714616
Si Si6 0.445876 0.237365 0.730473
Si Si7 0.975367 0.367488 0.996797
Si Si8 0.581988 0.525090 0.334430
O O1 0.208518 0.108499 0.009839
O O2 0.410500 0.978003 0.896261
O O3 0.355429 0.998258 0.083384
O O4 0.196083 0.870085 0.038979
O O5 0.359704 0.198354 0.505570
O O6 0.359368 0.290903 0.345410
O O7 0.125119 0.194525 0.470727
O O8 0.202777 0.775627 0.201671
O O9 0.369416 0.699568 0.028094
O O10 0.094952 0.666548 0.080841
O O11 0.446608 0.147170 0.648163
O O12 0.500000 0.000000 0.500000
O O13 0.609985 0.263638 0.714995
O O14 0.863342 0.172309 0.606001
O O15 0.654354 0.067804 0.750156
O O16 0.378570 0.350788 0.708102
O O17 0.000000 0.500000 0.000000
#
# Coordination Sequence:
#
# PCOD9240229 Si02
#       8
#     4   4   4   4   4   4   4   4
#     4  10  18  39  66  92 125 168 219 285 322 378
#     4  12  25  41  68 102 132 174 235 280 331 408
#     4  11  23  46  69  96 138 178 227 279 343 409
#     4  12  24  41  67 105 140 176 225 289 336 402
#     4  11  23  41  70  97 130 187 227 270 348 409
#     4  12  22  38  69 101 130 177 226 275 339 398
#     4  12  27  48  66  98 145 185 217 280 355 410
#     4  10  18  35  64  95 128 163 221 274 327 390
#
# _framework density 19.924997000000001
#
# number of rings (size 3 to 8) (size 9 to 14) (size 15 to 20)
#    0.000    0.750    6.250    2.250    1.750    1.500 
#    6.750    0.000    0.000    0.000    0.000    0.000 
#    0.000    0.000    0.000    0.000    0.000    0.000 
#
# Total GULP energy -178685.436242 kJ/mol
# GULP energy per Si atom -5583.919883 kJ/mol
# Density = 1.987965 g / cm^3
# Si number density = 19.924997 Si / 1000 Ang^3
#
#
#
# Elastic Constant Matrix: (Units=GPa)
#
#
# Indices 1 2 3 4 5 6 
#
# 1 89.6951 23.6361 23.3872 0.0000 5.9300 0.0000
# 2 23.6361 123.9577 16.9065 0.0000 15.5431 0.0000
# 3 23.3872 16.9065 104.6331 0.0000 12.5021 0.0000
# 4 0.0000 0.0000 0.0000 20.5683 0.0000 5.6310
# 5 5.9300 15.5431 12.5021 0.0000 21.2901 0.0000
# 6 0.0000 0.0000 0.0000 5.6310 0.0000 33.3624
#
#
#
# Elastic Compliance Matrix: (Units=1/GPa)
#
#
# Indices 1 2 3 4 5 6 
#
# 1 0.012320 -0.001949 -0.002365 0.000000 -0.000620 0.000000
# 2 -0.001949 0.009238 -0.000340 0.000000 -0.006002 0.000000
# 3 -0.002365 -0.000340 0.010789 0.000000 -0.005429 0.000000
# 4 0.000000 0.000000 0.000000 0.050974 0.000000 -0.008603
# 5 -0.000620 -0.006002 -0.005429 0.000000 0.054713 0.000000
# 6 0.000000 0.000000 0.000000 -0.008603 0.000000 0.031426
#
#
# Mechanical properties :
#
#
# Convention : Reuss Voigt Hill
#
# Bulk Modulus (GPa) = 43.40254 49.57171 46.48712
# Shear Modulus (GPa) = 26.81734 32.00125 29.40929
#
# Velocity S-wave (km/s) = 3.67265 4.01195 3.84604
# Velocity P-wave (km/s) = 6.30989 6.81132 6.56540
#
# Compressibility (1/GPa) = 0.02304013
#
# Stress axis : x y z
#
# Youngs Moduli (GPa) = 81.16865 108.25082 92.68380
#
# Poissons Ratio (x) = 0.21097 0.21917
# Poissons Ratio (y) = 0.15819 0.03150
# Poissons Ratio (z) = 0.19194 0.03679
#
# Static dielectric constant tensor:
#      x y z
#    x 1.700460 0.000000 0.021120 
#    y 0.000000 1.786460 0.000000 
#    z 0.021120 0.000000 1.708260 
# 
# From -- ./inp_files/40276.got.cif
#   From: 2010.05.17/outbox.cif.g08.bks.cpg/sg14_21_cif.got.tgz:40276.got - 2010.06.03 17:49:19.
