data_PCOD9240879
_publ_section_title
;
Structure prediction by ZEFSAII (Michael W. Deem and Ramdas Pophale) SiO2 
 PCOD9240879
Probable space group: P 21/C
;
_chemical_formula_sum "Si O2"
_cell_formula_units_Z 28
_cell_length_a 19.900747
_cell_length_b 14.650428
_cell_length_c 9.294535
_cell_angle_alpha 90.000000
_cell_angle_beta 149.804619
_cell_angle_gamma 90.000000
_cell_volume 1362.926399
_symmetry_space_group_name_H-M "P 21/C"
_symmetry_group_IT_number 14
_symmetry_cell_setting 'monoclinic'
loop_
_space_group_symop_operation_xyz
x,y,z
-x,1/2+y,1/2-z
-x,-y,-z
x,1/2-y,1/2+z
loop_
_atom_site_type_symbol
_atom_site_label
_atom_site_fract_x
_atom_site_fract_y
_atom_site_fract_z
Si Si1 0.767668 0.949361 0.760889
Si Si2 0.042202 0.485350 0.836976
Si Si3 0.348780 0.908677 0.222088
Si Si4 0.924804 0.141218 0.358493
Si Si5 0.398953 0.413519 0.642759
Si Si6 0.803824 0.703337 0.558467
Si Si7 0.301930 0.405645 0.167737
O O1 0.678195 0.944927 0.454143
O O2 0.712756 0.023159 0.771803
O O3 0.776715 0.853453 0.862353
O O4 0.921243 0.977173 0.015822
O O5 0.982947 0.400840 0.818511
O O6 0.071137 0.561852 0.012481
O O7 0.175146 0.458784 0.000739
O O8 0.481336 0.870690 0.541597
O O9 0.388169 0.980263 0.169683
O O10 0.231712 0.840263 0.957087
O O11 0.037346 0.211537 0.618354
O O12 0.266070 0.359770 0.448687
O O13 0.411994 0.407710 0.496179
O O14 0.739440 0.801267 0.432480
#
# Coordination Sequence:
#
# PCOD9240879 Si02
#       7
#     4   4   4   4   4   4   4
#     4   9  20  31  49  80 109 132 175 227 262 302
#     4   9  16  30  52  77 104 135 173 222 255 299
#     4   9  18  35  56  76  96 138 188 218 249 316
#     4   9  15  33  56  75 100 139 187 209 244 318
#     4  10  19  33  56  77  99 142 182 212 259 317
#     4  10  20  33  52  79 105 142 176 212 264 321
#     4  12  19  30  52  83 112 134 171 225 274 304
#
# _framework density 20.544031
#
# number of rings (size 3 to 8) (size 9 to 14) (size 15 to 20)
#    0.000    2.286    2.857    3.000    0.000    0.571 
#    0.000    0.000    6.286    0.000    0.000    0.000 
#    0.000    0.000    0.000    0.000    0.000    0.000 
#
# Total GULP energy -156132.091616 kJ/mol
# GULP energy per Si atom -5576.146129 kJ/mol
# Density = 2.049727 g / cm^3
# Si number density = 20.544031 Si / 1000 Ang^3
#
#
#
# Elastic Constant Matrix: (Units=GPa)
#
#
# Indices 1 2 3 4 5 6 
#
# 1 31.4090 0.3701 18.7672 0.0000 -16.1304 0.0000
# 2 0.3701 26.3742 4.6989 0.0000 -5.3732 0.0000
# 3 18.7672 4.6989 134.9955 0.0000 -7.2863 0.0000
# 4 0.0000 0.0000 0.0000 12.4827 0.0000 2.9214
# 5 -16.1304 -5.3732 -7.2863 0.0000 41.9051 0.0000
# 6 0.0000 0.0000 0.0000 2.9214 0.0000 5.2882
#
#
#
# Elastic Compliance Matrix: (Units=1/GPa)
#
#
# Indices 1 2 3 4 5 6 
#
# 1 0.043263 0.003632 -0.005266 0.000000 0.016203 0.000000
# 2 0.003632 0.039399 -0.001543 0.000000 0.006182 0.000000
# 3 -0.005266 -0.001543 0.008150 0.000000 -0.000808 0.000000
# 4 0.000000 0.000000 0.000000 0.092006 0.000000 -0.050827
# 5 0.016203 0.006182 -0.000808 0.000000 0.030753 0.000000
# 6 0.000000 0.000000 0.000000 -0.050827 0.000000 0.217180
#
#
# Mechanical properties :
#
#
# Convention : Reuss Voigt Hill
#
# Bulk Modulus (GPa) = 11.84011 26.71680 19.27845
# Shear Modulus (GPa) = 10.74675 23.19804 16.97239
#
# Velocity S-wave (km/s) = 2.28964 3.36398 2.87740
# Velocity P-wave (km/s) = 3.57291 5.30296 4.52145
#
# Compressibility (1/GPa) = 0.08445870
#
# Stress axis : x y z
#
# Youngs Moduli (GPa) = 23.11429 25.38128 122.70117
#
# Poissons Ratio (x) = -0.09219 0.64619
# Poissons Ratio (y) = -0.08396 0.18929
# Poissons Ratio (z) = 0.12173 0.03916
#
# Static dielectric constant tensor:
#      x y z
#    x 1.755880 0.000000 0.008190 
#    y 0.000000 1.710450 0.000000 
#    z 0.008190 0.000000 1.822770 
# 
# From -- ./inp_files/13414.got.cif
#   From: 2010.05.17/outbox.cif.g08.bks.cpg/sg14_7_cif.got.tgz:13414.got - 2010.06.03 17:49:19.
