data_PCOD9240195
_publ_section_title
;
Structure prediction by ZEFSAII (Michael W. Deem and Ramdas Pophale) SiO2 
 PCOD9240195
Probable space group: P 21/C
;
_chemical_formula_sum "Si O2"
_cell_formula_units_Z 20
_cell_length_a 8.417416
_cell_length_b 7.122690
_cell_length_c 16.202766
_cell_angle_alpha 90.000000
_cell_angle_beta 51.156009
_cell_angle_gamma 90.000000
_cell_volume 756.605543
_symmetry_space_group_name_H-M "P 21/C"
_symmetry_group_IT_number 14
_symmetry_cell_setting 'monoclinic'
loop_
_space_group_symop_operation_xyz
x,y,z
-x,1/2+y,1/2-z
-x,-y,-z
x,1/2-y,1/2+z
loop_
_atom_site_type_symbol
_atom_site_label
_atom_site_fract_x
_atom_site_fract_y
_atom_site_fract_z
Si Si1 0.692250 0.726978 0.424360
Si Si2 0.753952 0.675488 0.214820
Si Si3 0.923470 0.432704 0.628041
Si Si4 0.369204 0.601584 0.127692
Si Si5 0.332845 0.843611 0.362165
O O1 0.717076 0.641774 0.324362
O O2 0.471005 0.736568 0.540047
O O3 0.850370 0.637642 0.434548
O O4 0.744653 0.946751 0.390856
O O5 0.793500 0.491275 0.150460
O O6 0.905335 0.845656 0.148792
O O7 0.537419 0.759819 0.253340
O O8 0.788586 0.350935 0.749336
O O9 0.811139 0.339697 0.585735
O O10 0.555467 0.472628 0.105067
#
# Coordination Sequence:
#
# PCOD9240195 Si02
#       5
#     4   4   4   4   4
#     4   9  20  37  58  87 117 148 197 240 286 340
#     4  10  20  35  60  84 115 152 191 235 287 345
#     4  10  20  35  62  83 113 153 193 235 285 343
#     4   9  20  38  59  85 117 153 193 239 288 344
#     4  10  18  35  61  80 115 153 192 230 292 335
#
# _framework density 26.433854
#
# number of rings (size 3 to 8) (size 9 to 14) (size 15 to 20)
#    0.000    2.800    4.000    0.000    5.600    0.800 
#    0.000    2.000    0.000    0.000    0.000    0.000 
#    0.000    0.000    0.000    0.000    0.000    0.000 
#
# Total GULP energy -111667.872261 kJ/mol
# GULP energy per Si atom -5583.393613 kJ/mol
# Density = 2.637369 g / cm^3
# Si number density = 26.433854 Si / 1000 Ang^3
#
#
#
# Elastic Constant Matrix: (Units=GPa)
#
#
# Indices 1 2 3 4 5 6 
#
# 1 65.4895 43.1352 -0.6497 0.0000 -7.7765 0.0000
# 2 43.1352 108.7453 14.8498 0.0000 12.2489 0.0000
# 3 -0.6497 14.8498 106.8651 0.0000 12.9399 0.0000
# 4 0.0000 0.0000 0.0000 9.6227 0.0000 18.7890
# 5 -7.7765 12.2489 12.9399 0.0000 12.7914 0.0000
# 6 0.0000 0.0000 0.0000 18.7890 0.0000 31.6280
#
#
#
# Elastic Compliance Matrix: (Units=1/GPa)
#
#
# Indices 1 2 3 4 5 6 
#
# 1 0.029400 -0.015281 -0.001862 0.000000 0.034391 0.000000
# 2 -0.015281 0.018257 0.000697 0.000000 -0.027479 0.000000
# 3 -0.001862 0.000697 0.010789 0.000000 -0.012714 0.000000
# 4 0.000000 0.000000 0.000000 -0.649688 0.000000 0.385956
# 5 0.034391 -0.027479 -0.012714 0.000000 0.138260 0.000000
# 6 0.000000 0.000000 0.000000 0.385956 0.000000 -0.197665
#
#
# Mechanical properties :
#
#
# Convention : Reuss Voigt Hill
#
# Bulk Modulus (GPa) = 39.13248 43.97449 41.55348
# Shear Modulus (GPa) = -8.20699 25.72606 8.75953
#
# Velocity S-wave (km/s) = -1.76393 3.12304 1.82235
# Velocity P-wave (km/s) = 3.26917 5.44759 4.49242
#
# Compressibility (1/GPa) = 0.02555422
#
# Stress axis : x y z
#
# Youngs Moduli (GPa) = 34.01365 54.77281 92.68838
#
# Poissons Ratio (x) = 0.83700 0.17259
# Poissons Ratio (y) = 0.51977 -0.06464
# Poissons Ratio (z) = 0.06333 -0.03820
#
# Static dielectric constant tensor:
#      x y z
#    x 2.130110 0.000000 0.100500 
#    y 0.000000 2.086350 0.000000 
#    z 0.100500 0.000000 2.117820 
# 
# From -- ./inp_files/54360.got.cif
#   From: 2010.05.17/outbox.cif.g08.bks.cpg/sg14_28_cif.got.tgz:54360.got - 2010.06.03 17:49:19.
