data_PCOD9240656
_publ_section_title
;
Structure prediction by ZEFSAII (Michael W. Deem and Ramdas Pophale) SiO2 
 PCOD9240656
Probable space group: P 21/C
;
_chemical_formula_sum "Si O2"
_cell_formula_units_Z 32
_cell_length_a 19.811897
_cell_length_b 15.938939
_cell_length_c 12.973367
_cell_angle_alpha 90.000000
_cell_angle_beta 158.550759
_cell_angle_gamma 90.000000
_cell_volume 1498.082048
_symmetry_space_group_name_H-M "P 21/C"
_symmetry_group_IT_number 14
_symmetry_cell_setting 'monoclinic'
loop_
_space_group_symop_operation_xyz
x,y,z
-x,1/2+y,1/2-z
-x,-y,-z
x,1/2-y,1/2+z
loop_
_atom_site_type_symbol
_atom_site_label
_atom_site_fract_x
_atom_site_fract_y
_atom_site_fract_z
Si Si1 0.823664 0.942869 0.622567
Si Si2 0.753936 0.023517 0.742790
Si Si3 0.472358 0.826317 0.507256
Si Si4 0.792883 0.765958 0.669501
Si Si5 0.588126 0.260686 0.783912
Si Si6 0.166436 0.349786 0.549984
Si Si7 0.806756 0.301969 0.782733
Si Si8 0.765048 0.406927 0.904315
O O1 0.757365 0.848929 0.549503
O O2 0.768409 0.999117 0.643364
O O3 0.756137 0.996635 0.428671
O O4 0.047088 0.937425 0.943423
O O5 0.590291 0.085641 0.536126
O O6 0.742241 0.938453 0.790033
O O7 0.450258 0.811987 0.353618
O O8 0.690976 0.808516 0.827735
O O9 0.320454 0.763630 0.336315
O O10 0.595883 0.723028 0.410719
O O11 0.848619 0.800285 0.864138
O O12 0.975986 0.716014 0.897721
O O13 0.744324 0.220623 0.078650
O O14 0.636208 0.345410 0.789712
O O15 0.967159 0.372422 0.224017
O O16 0.752481 0.388366 0.764162
#
# Coordination Sequence:
#
# PCOD9240656 Si02
#       8
#     4   4   4   4   4   4   4   4
#     4   9  17  32  55  83 109 140 184 232 277 320
#     4   9  15  28  54  82 108 137 169 229 280 316
#     4  10  19  31  51  82 110 140 177 221 277 325
#     4  10  19  36  59  79 108 149 181 228 284 322
#     4  10  22  36  53  80 112 145 183 223 276 339
#     4   9  18  31  53  83 109 132 179 228 275 321
#     4  11  21  35  54  79 113 145 182 225 274 332
#     4  10  20  35  54  81 112 143 179 236 272 325
#
# _framework density 21.360645999999999
#
# number of rings (size 3 to 8) (size 9 to 14) (size 15 to 20)
#    0.000    2.250    2.500    1.875    1.750    0.000 
#    0.000    0.625    0.000    3.000    0.000    0.000 
#    0.000    0.000    0.000    0.000    0.000    0.000 
#
# Total GULP energy -178409.372722 kJ/mol
# GULP energy per Si atom -5575.292898 kJ/mol
# Density = 2.131203 g / cm^3
# Si number density = 21.360646 Si / 1000 Ang^3
#
#
#
# Elastic Constant Matrix: (Units=GPa)
#
#
# Indices 1 2 3 4 5 6 
#
# 1 54.2918 12.2822 16.3259 0.0000 21.7470 0.0000
# 2 12.2822 29.7665 6.6334 0.0000 19.3255 0.0000
# 3 16.3259 6.6334 78.0421 0.0000 25.9205 0.0000
# 4 0.0000 0.0000 0.0000 20.7074 0.0000 4.2036
# 5 21.7470 19.3255 25.9205 0.0000 36.0053 0.0000
# 6 0.0000 0.0000 0.0000 4.2036 0.0000 30.9196
#
#
#
# Elastic Compliance Matrix: (Units=1/GPa)
#
#
# Indices 1 2 3 4 5 6 
#
# 1 0.024317 -0.000909 -0.000386 0.000000 -0.013922 0.000000
# 2 -0.000909 0.054084 0.006640 0.000000 -0.033260 0.000000
# 3 -0.000386 0.006640 0.017659 0.000000 -0.016043 0.000000
# 4 0.000000 0.000000 0.000000 0.049662 0.000000 -0.006752
# 5 -0.013922 -0.033260 -0.016043 0.000000 0.065584 0.000000
# 6 0.000000 0.000000 0.000000 -0.006752 0.000000 0.033260
#
#
# Mechanical properties :
#
#
# Convention : Reuss Voigt Hill
#
# Bulk Modulus (GPa) = 9.36777 25.84259 17.60518
# Shear Modulus (GPa) = 18.55571 25.98375 22.26973
#
# Velocity S-wave (km/s) = 2.95055 3.49152 3.23237
# Velocity P-wave (km/s) = 4.00034 5.32717 4.71070
#
# Compressibility (1/GPa) = 0.10674901
#
# Stress axis : x y z
#
# Youngs Moduli (GPa) = 41.12334 18.48984 56.62987
#
# Poissons Ratio (x) = 0.01681 0.02185
# Poissons Ratio (y) = 0.03740 -0.37602
# Poissons Ratio (z) = 0.01587 -0.12277
#
# Static dielectric constant tensor:
#      x y z
#    x 1.854620 0.000000 -0.028980 
#    y 0.000000 1.777790 0.000000 
#    z -0.028980 0.000000 1.835150 
# 
# From -- ./inp_files/50784.got.cif
#   From: 2010.05.17/outbox.cif.g08.bks.cpg/sg14_26_cif.got.tgz:50784.got - 2010.06.03 17:49:19.
