data_PCOD9240356
_publ_section_title
;
Structure prediction by ZEFSAII (Michael W. Deem and Ramdas Pophale) SiO2 
 PCOD9240356
Probable space group: P 21/C
;
_chemical_formula_sum "Si O2"
_cell_formula_units_Z 30
_cell_length_a 8.565832
_cell_length_b 4.918011
_cell_length_c 32.691523
_cell_angle_alpha 90.000000
_cell_angle_beta 94.258607
_cell_angle_gamma 90.000000
_cell_volume 1373.388714
_symmetry_space_group_name_H-M "P 21/C"
_symmetry_group_IT_number 14
_symmetry_cell_setting 'monoclinic'
loop_
_space_group_symop_operation_xyz
x,y,z
-x,1/2+y,1/2-z
-x,-y,-z
x,1/2-y,1/2+z
loop_
_atom_site_type_symbol
_atom_site_label
_atom_site_fract_x
_atom_site_fract_y
_atom_site_fract_z
Si Si1 0.500000 0.500000 0.000000
Si Si2 0.786371 0.648367 0.002797
Si Si3 0.386977 0.442772 0.644660
Si Si4 0.057750 0.703170 0.061009
Si Si5 0.430842 0.910443 0.770409
Si Si6 0.915534 0.234412 0.262942
Si Si7 0.387380 0.976891 0.054948
Si Si8 0.833635 0.443234 0.850656
O O1 0.315127 0.593278 0.980154
O O2 0.527312 0.289273 0.958732
O O3 0.895864 0.795762 0.037184
O O4 0.889570 0.548056 0.966955
O O5 0.625385 0.783642 0.979721
O O6 0.514403 0.393432 0.681839
O O7 0.444646 0.412607 0.599345
O O8 0.316917 0.745039 0.647759
O O9 0.239754 0.242556 0.649236
O O10 0.202949 0.906781 0.058017
O O11 0.058122 0.613681 0.107864
O O12 0.458401 0.212004 0.753889
O O13 0.255200 0.818618 0.758753
O O14 0.912890 0.134540 0.309692
O O15 0.962873 0.546408 0.259191
#
# Coordination Sequence:
#
# PCOD9240356 Si02
#       8
#     2   4   4   4   4   4   4   4
#     4  10  22  36  54  82 124 166 194 256 326 380
#     4  10  18  37  57  85 116 160 206 252 317 374
#     4  11  21  39  68  95 118 162 224 274 300 381
#     4   9  20  34  61  87 111 155 214 260 297 371
#     4  12  22  42  70  95 122 172 223 264 317 400
#     4  12  25  42  65  95 137 170 204 270 346 392
#     4  10  20  36  61  84 122 159 210 263 319 365
#     4  11  21  41  64  93 126 163 214 265 323 377
#
# _framework density 21.843779999999999
#
# number of rings (size 3 to 8) (size 9 to 14) (size 15 to 20)
#    0.000    1.333    4.000    2.400    0.000    0.000 
#    2.400    1.333    0.000    0.000    0.000    0.000 
#    0.000    0.000    0.000    0.000    0.000    0.000 
#
# Total GULP energy -167211.751731 kJ/mol
# GULP energy per Si atom -5573.725058 kJ/mol
# Density = 2.179406 g / cm^3
# Si number density = 21.843780 Si / 1000 Ang^3
#
#
#
# Elastic Constant Matrix: (Units=GPa)
#
#
# Indices 1 2 3 4 5 6 
#
# 1 68.3735 -3.0743 59.2057 0.0000 13.5162 0.0000
# 2 -3.0743 55.8326 24.1416 0.0000 7.3913 0.0000
# 3 59.2057 24.1416 167.9825 0.0000 26.8498 0.0000
# 4 0.0000 0.0000 0.0000 29.9874 0.0000 -7.2043
# 5 13.5162 7.3913 26.8498 0.0000 32.5157 0.0000
# 6 0.0000 0.0000 0.0000 -7.2043 0.0000 32.1016
#
#
#
# Elastic Compliance Matrix: (Units=1/GPa)
#
#
# Indices 1 2 3 4 5 6 
#
# 1 0.022671 0.005279 -0.008123 0.000000 -0.003916 0.000000
# 2 0.005279 0.020489 -0.004274 0.000000 -0.003323 0.000000
# 3 -0.008123 -0.004274 0.010064 0.000000 -0.003962 0.000000
# 4 0.000000 0.000000 0.000000 0.035248 0.000000 0.007910
# 5 -0.003916 -0.003323 -0.003962 0.000000 0.036409 0.000000
# 6 0.000000 0.000000 0.000000 0.007910 0.000000 0.032926
#
#
# Mechanical properties :
#
#
# Convention : Reuss Voigt Hill
#
# Bulk Modulus (GPa) = 25.64918 50.30383 37.97651
# Shear Modulus (GPa) = 27.02127 33.04865 30.03496
#
# Velocity S-wave (km/s) = 3.52095 3.89389 3.71211
# Velocity P-wave (km/s) = 5.31950 6.57993 5.98300
#
# Compressibility (1/GPa) = 0.03898760
#
# Stress axis : x y z
#
# Youngs Moduli (GPa) = 44.10895 48.80584 99.36877
#
# Poissons Ratio (x) = -0.25766 0.80719
# Poissons Ratio (y) = -0.23286 0.42472
# Poissons Ratio (z) = 0.35831 0.20861
#
# Static dielectric constant tensor:
#      x y z
#    x 1.835060 0.000000 -0.016540 
#    y 0.000000 1.910630 0.000000 
#    z -0.016540 0.000000 1.843470 
# 
# From -- ./inp_files/79111.got.cif
#   From: 2010.05.17/outbox.cif.g08.bks.cpg/sg14_40_cif.got.tgz:79111.got - 2010.06.03 17:49:19.
