data_PCOD9240364
_publ_section_title
;
Structure prediction by ZEFSAII (Michael W. Deem and Ramdas Pophale) SiO2 
 PCOD9240364
Probable space group: P 21/C
;
_chemical_formula_sum "Si O2"
_cell_formula_units_Z 24
_cell_length_a 15.305573
_cell_length_b 15.425989
_cell_length_c 10.108755
_cell_angle_alpha 90.000000
_cell_angle_beta 31.905099
_cell_angle_gamma 90.000000
_cell_volume 1261.411203
_symmetry_space_group_name_H-M "P 21/C"
_symmetry_group_IT_number 14
_symmetry_cell_setting 'monoclinic'
loop_
_space_group_symop_operation_xyz
x,y,z
-x,1/2+y,1/2-z
-x,-y,-z
x,1/2-y,1/2+z
loop_
_atom_site_type_symbol
_atom_site_label
_atom_site_fract_x
_atom_site_fract_y
_atom_site_fract_z
Si Si1 0.374053 0.527676 0.775614
Si Si2 0.223107 0.118141 0.949142
Si Si3 0.012187 0.477073 0.137461
Si Si4 0.437523 0.309406 0.417335
Si Si5 0.846323 0.695218 0.986996
Si Si6 0.367776 0.124553 0.475281
O O1 0.500000 0.500000 0.500000
O O2 0.188837 0.508031 0.967780
O O3 0.409251 0.628161 0.754071
O O4 0.418779 0.464413 0.840279
O O5 0.344412 0.148674 0.910869
O O6 0.107948 0.203942 0.079602
O O7 0.127780 0.031608 0.109717
O O8 0.312060 0.106232 0.695205
O O9 0.015120 0.373300 0.149735
O O10 0.000000 0.500000 0.000000
O O11 0.484160 0.209387 0.331655
O O12 0.305913 0.311191 0.709960
O O13 0.777757 0.662706 0.933007
#
# Coordination Sequence:
#
# PCOD9240364 Si02
#       6
#     4   4   4   4   4   4
#     4  11  20  36  59  85 114 151 190 231 281 339
#     4  10  20  35  59  84 109 148 192 231 278 340
#     4  11  20  36  60  86 112 151 193 231 278 340
#     4  10  18  37  59  82 110 150 192 223 279 348
#     4   9  18  35  59  80 109 152 188 223 283 347
#     4   9  20  34  60  82 110 152 187 227 280 344
#
# _framework density 19.026309000000001
#
# number of rings (size 3 to 8) (size 9 to 14) (size 15 to 20)
#    0.000    2.000    5.000    0.000    0.000    3.333 
#    0.000    3.333    3.667    0.000    0.000    0.000 
#    0.000    0.000    0.000    0.000    0.000    0.000 
#
# Total GULP energy -133743.378522 kJ/mol
# GULP energy per Si atom -5572.640772 kJ/mol
# Density = 1.898300 g / cm^3
# Si number density = 19.026309 Si / 1000 Ang^3
#
#
#
# Elastic Constant Matrix: (Units=GPa)
#
#
# Indices 1 2 3 4 5 6 
#
# 1 53.1379 3.0346 18.6226 0.0000 18.0459 0.0000
# 2 3.0346 93.3152 2.4948 0.0000 -4.7337 0.0000
# 3 18.6226 2.4948 48.1546 0.0000 21.0769 0.0000
# 4 0.0000 0.0000 0.0000 36.4403 0.0000 -2.4801
# 5 18.0459 -4.7337 21.0769 0.0000 22.5400 0.0000
# 6 0.0000 0.0000 0.0000 -2.4801 0.0000 33.7097
#
#
#
# Elastic Compliance Matrix: (Units=1/GPa)
#
#
# Indices 1 2 3 4 5 6 
#
# 1 0.026226 -0.001852 -0.001161 0.000000 -0.020300 0.000000
# 2 -0.001852 0.011164 -0.002602 0.000000 0.006260 0.000000
# 3 -0.001161 -0.002602 0.035859 0.000000 -0.033148 0.000000
# 4 0.000000 0.000000 0.000000 0.027580 0.000000 0.002029
# 5 -0.020300 0.006260 -0.033148 0.000000 0.092929 0.000000
# 6 0.000000 0.000000 0.000000 0.002029 0.000000 0.029814
#
#
# Mechanical properties :
#
#
# Convention : Reuss Voigt Hill
#
# Bulk Modulus (GPa) = 16.12437 26.99019 21.55728
# Shear Modulus (GPa) = 19.57140 29.90172 24.73656
#
# Velocity S-wave (km/s) = 3.21074 3.96864 3.60964
# Velocity P-wave (km/s) = 4.71575 5.93436 5.35980
#
# Compressibility (1/GPa) = 0.06201791
#
# Stress axis : x y z
#
# Youngs Moduli (GPa) = 38.13081 89.57572 27.88699
#
# Poissons Ratio (x) = 0.16586 0.03238
# Poissons Ratio (y) = 0.07060 0.07257
# Poissons Ratio (z) = 0.04428 0.23312
#
# Static dielectric constant tensor:
#      x y z
#    x 1.684820 0.000000 0.005110 
#    y 0.000000 1.717950 0.000000 
#    z 0.005110 0.000000 1.639780 
# 
# From -- ./inp_files/16132.got.cif
#   From: 2010.05.17/outbox.cif.g08.bks.cpg/sg14_9_cif.got.tgz:16132.got - 2010.06.03 17:49:19.
