data_PCOD9240312
_publ_section_title
;
Structure prediction by ZEFSAII (Michael W. Deem and Ramdas Pophale) SiO2 
 PCOD9240312
Probable space group: P 21/C
;
_chemical_formula_sum "Si O2"
_cell_formula_units_Z 28
_cell_length_a 16.676417
_cell_length_b 16.043241
_cell_length_c 9.743765
_cell_angle_alpha 90.000000
_cell_angle_beta 29.588579
_cell_angle_gamma 90.000000
_cell_volume 1287.197145
_symmetry_space_group_name_H-M "P 21/C"
_symmetry_group_IT_number 14
_symmetry_cell_setting 'monoclinic'
loop_
_space_group_symop_operation_xyz
x,y,z
-x,1/2+y,1/2-z
-x,-y,-z
x,1/2-y,1/2+z
loop_
_atom_site_type_symbol
_atom_site_label
_atom_site_fract_x
_atom_site_fract_y
_atom_site_fract_z
Si Si1 0.767114 0.212257 0.172369
Si Si2 0.154695 0.651785 0.174287
Si Si3 0.490341 0.092954 0.463183
Si Si4 0.497360 0.680808 0.320181
Si Si5 0.764385 0.810867 0.814408
Si Si6 0.141387 0.326613 0.534905
Si Si7 0.495272 0.084734 0.920824
O O1 0.882659 0.166458 0.109341
O O2 0.823309 0.268462 0.961806
O O3 0.633365 0.148330 0.314804
O O4 0.674375 0.274024 0.415772
O O5 0.326670 0.602487 0.908961
O O6 0.992260 0.617089 0.343885
O O7 0.504980 0.102662 0.277334
O O8 0.500000 0.000000 0.500000
O O9 0.318015 0.132072 0.759310
O O10 0.530462 0.655886 0.425727
O O11 0.627749 0.745770 0.070523
O O12 0.887150 0.820337 0.759405
O O13 0.843650 0.762550 0.567344
O O14 0.662018 0.895710 0.938446
O O15 0.500000 0.000000 0.000000
#
# Coordination Sequence:
#
# PCOD9240312 Si02
#       7
#     4   4   4   4   4   4   4
#     4  11  19  41  62  86 116 158 204 241 284 360
#     4  11  22  38  62  91 120 153 200 249 294 349
#     4  11  23  37  63  88 121 156 198 246 301 355
#     4  10  18  36  64  86 108 154 218 236 274 352
#     4  11  19  41  62  86 116 158 204 241 284 360
#     4  11  22  38  62  91 120 153 200 249 294 349
#     4  11  23  37  63  88 121 156 198 246 301 355
#
# _framework density 21.752689
#
# number of rings (size 3 to 8) (size 9 to 14) (size 15 to 20)
#    0.000    1.143    5.714    2.571    4.000    0.000 
#    0.000    2.857    0.000    0.000    0.000    0.000 
#    0.000    0.000    0.000    0.000    0.000    0.000 
#
# Total GULP energy -156182.752192 kJ/mol
# GULP energy per Si atom -5577.955435 kJ/mol
# Density = 2.170318 g / cm^3
# Si number density = 21.752689 Si / 1000 Ang^3
#
#
#
# Elastic Constant Matrix: (Units=GPa)
#
#
# Indices 1 2 3 4 5 6 
#
# 1 111.9990 -24.5681 8.7388 0.0000 2.4351 0.0000
# 2 -24.5681 25.0922 3.3274 0.0000 -8.0936 0.0000
# 3 8.7388 3.3274 29.2110 0.0000 -7.1022 0.0000
# 4 0.0000 0.0000 0.0000 14.1365 0.0000 2.0911
# 5 2.4351 -8.0936 -7.1022 0.0000 30.4028 0.0000
# 6 0.0000 0.0000 0.0000 2.0911 0.0000 14.1453
#
#
#
# Elastic Compliance Matrix: (Units=1/GPa)
#
#
# Indices 1 2 3 4 5 6 
#
# 1 0.012105 0.012922 -0.004763 0.000000 0.001358 0.000000
# 2 0.012922 0.057534 -0.007365 0.000000 0.012561 0.000000
# 3 -0.004763 -0.007365 0.038288 0.000000 0.007365 0.000000
# 4 0.000000 0.000000 0.000000 0.072320 0.000000 -0.010691
# 5 0.001358 0.012561 0.007365 0.000000 0.037847 0.000000
# 6 0.000000 0.000000 0.000000 -0.010691 0.000000 0.072275
#
#
# Mechanical properties :
#
#
# Convention : Reuss Voigt Hill
#
# Bulk Modulus (GPa) = 9.13124 15.69982 12.41553
# Shear Modulus (GPa) = 15.37098 23.65720 19.51409
#
# Velocity S-wave (km/s) = 2.66112 3.30138 2.99839
# Velocity P-wave (km/s) = 3.69445 4.66533 4.20798
#
# Compressibility (1/GPa) = 0.10951418
#
# Stress axis : x y z
#
# Youngs Moduli (GPa) = 82.60775 17.38114 26.11756
#
# Poissons Ratio (x) = -0.22460 0.12441
# Poissons Ratio (y) = -1.06747 0.19237
# Poissons Ratio (z) = 0.39349 0.12802
#
# Static dielectric constant tensor:
#      x y z
#    x 1.948640 0.000000 -0.024640 
#    y 0.000000 1.866710 0.000000 
#    z -0.024640 0.000000 1.834530 
# 
# From -- ./inp_files/16639.got.cif
#   From: 2010.05.17/outbox.cif.g08.bks.cpg/sg14_9_cif.got.tgz:16639.got - 2010.06.03 17:49:19.
