data_PCOD9240318
_publ_section_title
;
Structure prediction by ZEFSAII (Michael W. Deem and Ramdas Pophale) SiO2 
 PCOD9240318
Probable space group: P 21/C
;
_chemical_formula_sum "Si O2"
_cell_formula_units_Z 24
_cell_length_a 6.429569
_cell_length_b 8.863715
_cell_length_c 26.300762
_cell_angle_alpha 90.000000
_cell_angle_beta 135.284777
_cell_angle_gamma 90.000000
_cell_volume 1054.585126
_symmetry_space_group_name_H-M "P 21/C"
_symmetry_group_IT_number 14
_symmetry_cell_setting 'monoclinic'
loop_
_space_group_symop_operation_xyz
x,y,z
-x,1/2+y,1/2-z
-x,-y,-z
x,1/2-y,1/2+z
loop_
_atom_site_type_symbol
_atom_site_label
_atom_site_fract_x
_atom_site_fract_y
_atom_site_fract_z
Si Si1 0.846858 0.185352 0.692986
Si Si2 0.186022 0.612633 0.217323
Si Si3 0.117270 0.392178 0.654581
Si Si4 0.747530 0.188070 0.525626
Si Si5 0.677013 0.604100 0.959066
Si Si6 0.127919 0.211476 0.920754
O O1 0.884800 0.251769 0.755738
O O2 0.507433 0.132469 0.623958
O O3 0.937278 0.323508 0.671098
O O4 0.056008 0.043323 0.716653
O O5 0.537926 0.606000 0.273664
O O6 0.039213 0.656513 0.138455
O O7 0.021972 0.283511 0.591725
O O8 0.019880 0.556404 0.619563
O O9 0.610933 0.107708 0.551868
O O10 0.469578 0.290752 0.461450
O O11 0.808614 0.060526 0.495048
O O12 0.856203 0.740842 0.017048
#
# Coordination Sequence:
#
# PCOD9240318 Si02
#       6
#     4   4   4   4   4   4
#     4  11  23  42  61  88 127 162 201 251 311 362
#     4  12  24  40  63  91 124 163 205 253 307 360
#     4  11  22  37  65  96 122 154 207 258 303 361
#     4   8  15  33  61  85 116 162 196 239 298 362
#     4   8  16  35  62  83 113 169 200 232 303 369
#     4  10  18  36  64  89 119 163 201 246 306 359
#
# _framework density 22.757766
#
# number of rings (size 3 to 8) (size 9 to 14) (size 15 to 20)
#    1.000    1.000    1.667    3.500    0.000    0.000 
#    0.000    3.333    3.667    0.000    0.000    0.000 
#    0.000    0.000    0.000    0.000    0.000    0.000 
#
# Total GULP energy -133919.208545 kJ/mol
# GULP energy per Si atom -5579.967023 kJ/mol
# Density = 2.270597 g / cm^3
# Si number density = 22.757766 Si / 1000 Ang^3
#
#
#
# Elastic Constant Matrix: (Units=GPa)
#
#
# Indices 1 2 3 4 5 6 
#
# 1 -141.3907 -80.0867 -5.6418 0.0000 -112.2665 0.0000
# 2 -80.0867 28.9788 -1.5813 0.0000 -58.5161 0.0000
# 3 -5.6418 -1.5813 100.4207 0.0000 13.5660 0.0000
# 4 0.0000 0.0000 0.0000 48.4850 0.0000 5.1644
# 5 -112.2665 -58.5161 13.5660 0.0000 -61.5316 0.0000
# 6 0.0000 0.0000 0.0000 5.1644 0.0000 32.9524
#
#
#
# Elastic Compliance Matrix: (Units=1/GPa)
#
#
# Indices 1 2 3 4 5 6 
#
# 1 0.020651 -0.005606 0.005284 0.000000 -0.031182 0.000000
# 2 -0.005606 0.013628 0.000261 0.000000 -0.002675 0.000000
# 3 0.005284 0.000261 0.011260 0.000000 -0.007407 0.000000
# 4 0.000000 0.000000 0.000000 0.020975 0.000000 -0.003287
# 5 -0.031182 -0.002675 -0.007407 0.000000 0.041552 0.000000
# 6 0.000000 0.000000 0.000000 -0.003287 0.000000 0.030862
#
#
# Mechanical properties :
#
#
# Convention : Reuss Voigt Hill
#
# Bulk Modulus (GPa) = 22.01752 -20.73453 0.64149
# Shear Modulus (GPa) = 32.42801 9.00242 20.71521
#
# Velocity S-wave (km/s) = 3.77891 1.99107 3.02030
# Velocity P-wave (km/s) = 5.36059 1.96086 3.52781
#
# Compressibility (1/GPa) = 0.04541839
#
# Stress axis : x y z
#
# Youngs Moduli (GPa) = 48.42445 73.37655 88.81190
#
# Poissons Ratio (x) = 0.41132 -0.46931
# Poissons Ratio (y) = 0.27145 -0.02319
# Poissons Ratio (z) = -0.25589 -0.01916
#
# Static dielectric constant tensor:
#      x y z
#    x 1.958440 0.000000 -0.004850 
#    y 0.000000 1.849730 0.000000 
#    z -0.004850 0.000000 1.882610 
# 
# From -- ./inp_files/79370.got.cif
#   From: 2010.05.17/outbox.cif.g08.bks.cpg/sg14_40_cif.got.tgz:79370.got - 2010.06.03 17:49:19.
