data_PCOD9240989
_publ_section_title
;
Structure prediction by ZEFSAII (Michael W. Deem and Ramdas Pophale) SiO2 
 PCOD9240989
Probable space group: P 21/C
;
_chemical_formula_sum "Si O2"
_cell_formula_units_Z 32
_cell_length_a 13.891292
_cell_length_b 15.512038
_cell_length_c 8.394643
_cell_angle_alpha 90.000000
_cell_angle_beta 83.038250
_cell_angle_gamma 90.000000
_cell_volume 1795.560085
_symmetry_space_group_name_H-M "P 21/C"
_symmetry_group_IT_number 14
_symmetry_cell_setting 'monoclinic'
loop_
_space_group_symop_operation_xyz
x,y,z
-x,1/2+y,1/2-z
-x,-y,-z
x,1/2-y,1/2+z
loop_
_atom_site_type_symbol
_atom_site_label
_atom_site_fract_x
_atom_site_fract_y
_atom_site_fract_z
Si Si1 0.323036 0.253745 0.178996
Si Si2 0.017088 0.509490 0.757121
Si Si3 0.567505 0.589293 0.329886
Si Si4 0.365560 0.997034 0.855997
Si Si5 0.670809 0.923983 0.485793
Si Si6 0.181338 0.189574 0.973565
Si Si7 0.143324 0.508691 0.443080
Si Si8 0.893256 0.881831 0.512556
O O1 0.409698 0.189874 0.191292
O O2 0.352733 0.323801 0.043455
O O3 0.271038 0.303786 0.331940
O O4 0.234262 0.194914 0.132675
O O5 0.090297 0.543387 0.609307
O O6 0.923159 0.467275 0.692423
O O7 0.974161 0.587139 0.870439
O O8 0.072988 0.435023 0.840839
O O9 0.607977 0.557711 0.494852
O O10 0.454171 0.569395 0.343914
O O11 0.621707 0.548159 0.162791
O O12 0.361860 0.031266 0.672797
O O13 0.255339 0.967786 0.908572
O O14 0.787755 0.919462 0.481818
O O15 0.135606 0.096635 0.955038
O O16 0.119278 0.278056 0.972518
#
# Coordination Sequence:
#
# PCOD9240989 Si02
#       8
#     4   4   4   4   4   4   4   4
#     4  11  17  31  53  85 115 140 176 239 293 337
#     4  10  21  32  52  80 117 149 188 229 303 339
#     4  11  22  34  54  88 119 153 181 237 288 353
#     4  11  22  37  54  84 120 153 195 222 295 346
#     4  11  20  36  58  84 120 147 185 241 297 334
#     4  11  19  31  58  82 115 139 183 250 302 323
#     4  11  19  35  53  83 112 151 185 244 285 342
#     4  10  19  34  53  86 112 146 184 242 292 349
#
# _framework density 17.821736999999999
#
# number of rings (size 3 to 8) (size 9 to 14) (size 15 to 20)
#    0.000    1.250    6.250    2.625    0.000    0.000 
#    0.000    0.000    0.000    0.000   13.000    0.000 
#    0.000    0.000    0.000    0.000    0.000    0.000 
#
# Total GULP energy -178145.394169 kJ/mol
# GULP energy per Si atom -5567.043568 kJ/mol
# Density = 1.778117 g / cm^3
# Si number density = 17.821737 Si / 1000 Ang^3
#
#
#
# Elastic Constant Matrix: (Units=GPa)
#
#
# Indices 1 2 3 4 5 6 
#
# 1 117.1280 38.7559 37.9510 0.0000 7.9877 0.0000
# 2 38.7559 51.8661 19.9948 0.0000 -2.9262 0.0000
# 3 37.9510 19.9948 94.3512 0.0000 3.9405 0.0000
# 4 0.0000 0.0000 0.0000 20.6635 0.0000 -0.0529
# 5 7.9877 -2.9262 3.9405 0.0000 35.5825 0.0000
# 6 0.0000 0.0000 0.0000 -0.0529 0.0000 34.2904
#
#
#
# Elastic Compliance Matrix: (Units=1/GPa)
#
#
# Indices 1 2 3 4 5 6 
#
# 1 0.012525 -0.008326 -0.003142 0.000000 -0.003148 0.000000
# 2 -0.008326 0.026707 -0.002492 0.000000 0.004341 0.000000
# 3 -0.003142 -0.002492 0.012427 0.000000 -0.000876 0.000000
# 4 0.000000 0.000000 0.000000 0.048395 0.000000 0.000075
# 5 -0.003148 0.004341 -0.000876 0.000000 0.029264 0.000000
# 6 0.000000 0.000000 0.000000 0.000075 0.000000 0.029163
#
#
# Mechanical properties :
#
#
# Convention : Reuss Voigt Hill
#
# Bulk Modulus (GPa) = 42.12347 50.74986 46.43666
# Shear Modulus (GPa) = 25.73140 29.21687 27.47414
#
# Velocity S-wave (km/s) = 3.80389 4.05334 3.93059
# Velocity P-wave (km/s) = 6.55592 7.10241 6.83463
#
# Compressibility (1/GPa) = 0.02373973
#
# Stress axis : x y z
#
# Youngs Moduli (GPa) = 79.83841 37.44306 80.46770
#
# Poissons Ratio (x) = 0.31173 0.25285
# Poissons Ratio (y) = 0.66470 0.20055
# Poissons Ratio (z) = 0.25087 0.09332
#
# Static dielectric constant tensor:
#      x y z
#    x 1.596380 0.000000 0.015830 
#    y 0.000000 1.612120 0.000000 
#    z 0.015830 0.000000 1.741250 
# 
# From -- ./inp_files/13745.got.cif
#   From: 2010.05.17/outbox.cif.g08.bks.cpg/sg14_7_cif.got.tgz:13745.got - 2010.06.03 17:49:19.
