data_PCOD9240891
_publ_section_title
;
Structure prediction by ZEFSAII (Michael W. Deem and Ramdas Pophale) SiO2 
 PCOD9240891
Probable space group: P 21/C
;
_chemical_formula_sum "Si O2"
_cell_formula_units_Z 24
_cell_length_a 8.768623
_cell_length_b 20.678705
_cell_length_c 5.386409
_cell_angle_alpha 90.000000
_cell_angle_beta 71.085640
_cell_angle_gamma 90.000000
_cell_volume 923.947092
_symmetry_space_group_name_H-M "P 21/C"
_symmetry_group_IT_number 14
_symmetry_cell_setting 'monoclinic'
loop_
_space_group_symop_operation_xyz
x,y,z
-x,1/2+y,1/2-z
-x,-y,-z
x,1/2-y,1/2+z
loop_
_atom_site_type_symbol
_atom_site_label
_atom_site_fract_x
_atom_site_fract_y
_atom_site_fract_z
Si Si1 0.946551 0.926126 0.458975
Si Si2 0.731701 0.738052 0.441708
Si Si3 0.677430 0.987824 0.306723
Si Si4 0.893441 0.116035 0.139511
Si Si5 0.426362 0.660671 0.102775
Si Si6 0.448172 0.392897 0.466899
O O1 0.983842 0.887433 0.692348
O O2 0.767673 0.935551 0.436437
O O3 0.036956 0.893238 0.174683
O O4 0.000000 0.000000 0.500000
O O5 0.824632 0.751847 0.144050
O O6 0.565858 0.783227 0.531288
O O7 0.674783 0.665659 0.470692
O O8 0.645926 0.957656 0.051543
O O9 0.500000 0.000000 0.500000
O O10 0.792315 0.049014 0.230325
O O11 0.762808 0.173540 0.249032
O O12 0.465340 0.615505 0.319346
O O13 0.439962 0.625424 0.829110
#
# Coordination Sequence:
#
# PCOD9240891 Si02
#       6
#     4   4   4   4   4   4
#     4  10  23  40  53  77 120 163 183 228 283 346
#     4   8  16  31  50  77 109 137 178 232 289 323
#     4  11  22  37  57  87 120 149 195 236 281 341
#     4  11  22  39  56  80 119 154 193 228 288 343
#     4  10  19  33  56  83 108 145 188 239 276 341
#     4  10  20  33  52  86 114 139 183 245 287 325
#
# _framework density 25.975514
#
# number of rings (size 3 to 8) (size 9 to 14) (size 15 to 20)
#    0.000    2.000    1.667    3.000    2.333    4.667 
#    0.000    0.000    0.000    0.000    0.000   63.000 
#    0.000    0.000    0.000    0.000    0.000    0.000 
#
# Total GULP energy -134066.560599 kJ/mol
# GULP energy per Si atom -5586.106692 kJ/mol
# Density = 2.591639 g / cm^3
# Si number density = 25.975514 Si / 1000 Ang^3
#
#
#
# Elastic Constant Matrix: (Units=GPa)
#
#
# Indices 1 2 3 4 5 6 
#
# 1 126.2145 20.5527 59.0184 0.0000 5.0087 0.0000
# 2 20.5527 48.7112 2.3087 0.0000 0.1258 0.0000
# 3 59.0184 2.3087 187.2084 0.0000 30.4784 0.0000
# 4 0.0000 0.0000 0.0000 28.3184 0.0000 4.4673
# 5 5.0087 0.1258 30.4784 0.0000 44.8898 0.0000
# 6 0.0000 0.0000 0.0000 4.4673 0.0000 33.2228
#
#
#
# Elastic Compliance Matrix: (Units=1/GPa)
#
#
# Indices 1 2 3 4 5 6 
#
# 1 0.010098 -0.004106 -0.003318 0.000000 0.001138 0.000000
# 2 -0.004106 0.022212 0.001075 0.000000 -0.000334 0.000000
# 3 -0.003318 0.001075 0.007099 0.000000 -0.004453 0.000000
# 4 0.000000 0.000000 0.000000 0.036078 0.000000 -0.004851
# 5 0.001138 -0.000334 -0.004453 0.000000 0.025174 0.000000
# 6 0.000000 0.000000 0.000000 -0.004851 0.000000 0.030752
#
#
# Mechanical properties :
#
#
# Convention : Reuss Voigt Hill
#
# Bulk Modulus (GPa) = 37.43866 58.43262 47.93564
# Shear Modulus (GPa) = 32.67640 39.96984 36.32312
#
# Velocity S-wave (km/s) = 3.55063 3.92695 3.74352
# Velocity P-wave (km/s) = 5.59050 6.56546 6.09750
#
# Compressibility (1/GPa) = 0.02671035
#
# Stress axis : x y z
#
# Youngs Moduli (GPa) = 99.02875 45.02136 140.85737
#
# Poissons Ratio (x) = 0.18487 0.46737
# Poissons Ratio (y) = 0.40665 -0.15142
# Poissons Ratio (z) = 0.32858 -0.04840
#
# Static dielectric constant tensor:
#      x y z
#    x 2.108050 0.000000 0.047710 
#    y 0.000000 2.119920 0.000000 
#    z 0.047710 0.000000 2.259460 
# 
# From -- ./inp_files/1797.got.cif
#   From: 2010.05.17/outbox.cif.g08.bks.cpg/sg14_1_cif.got.tgz:1797.got - 2010.06.03 17:49:19.
