data_PCOD9240136
_publ_section_title
;
Structure prediction by ZEFSAII (Michael W. Deem and Ramdas Pophale) SiO2 
 PCOD9240136
Probable space group: P 21/C
;
_chemical_formula_sum "Si O2"
_cell_formula_units_Z 28
_cell_length_a 10.731436
_cell_length_b 28.468815
_cell_length_c 5.243442
_cell_angle_alpha 90.000000
_cell_angle_beta 62.067473
_cell_angle_gamma 90.000000
_cell_volume 1415.305437
_symmetry_space_group_name_H-M "P 21/C"
_symmetry_group_IT_number 14
_symmetry_cell_setting 'monoclinic'
loop_
_space_group_symop_operation_xyz
x,y,z
-x,1/2+y,1/2-z
-x,-y,-z
x,1/2-y,1/2+z
loop_
_atom_site_type_symbol
_atom_site_label
_atom_site_fract_x
_atom_site_fract_y
_atom_site_fract_z
Si Si1 0.809454 0.794698 0.494054
Si Si2 0.171193 0.864883 0.861281
Si Si3 0.845760 0.023885 0.157887
Si Si4 0.491366 0.776181 0.909045
Si Si5 0.344734 0.523080 0.656422
Si Si6 0.087677 0.191721 0.103035
Si Si7 0.336062 0.866324 0.203176
O O1 0.906309 0.748212 0.362551
O O2 0.799639 0.818595 0.228575
O O3 0.660327 0.776031 0.732829
O O4 0.873120 0.826684 0.655432
O O5 0.129614 0.919625 0.871964
O O6 0.296735 0.858761 0.535738
O O7 0.211520 0.856426 0.116425
O O8 0.052952 0.829673 0.874550
O O9 0.751851 0.012669 0.500488
O O10 0.749699 0.011841 0.002863
O O11 0.000000 0.000000 0.000000
O O12 0.438935 0.743575 0.190075
O O13 0.451741 0.829231 0.008196
O O14 0.500000 0.500000 0.500000
O O15 0.370929 0.579257 0.632496
#
# Coordination Sequence:
#
# PCOD9240136 Si02
#       7
#     4   4   4   4   4   4   4
#     4  10  19  35  53  74 109 140 182 246 279 322
#     4  10  21  40  58  82 121 152 190 242 296 355
#     4  10  21  40  64  93 128 158 202 256 313 367
#     4  12  21  40  57  78 116 153 196 243 297 336
#     4  10  21  42  66  91 128 165 205 255 314 376
#     4  10  18  35  54  74 105 147 181 225 295 324
#     4  10  23  40  58  86 117 157 195 245 294 360
#
# _framework density 19.783715999999998
#
# number of rings (size 3 to 8) (size 9 to 14) (size 15 to 20)
#    0.000    1.714    2.857    2.571    0.000    0.000 
#   20.571    0.000    0.000    0.000    0.000    0.000 
#    0.000    0.000    0.000    0.000    0.000    0.000 
#
# Total GULP energy -156005.438418 kJ/mol
# GULP energy per Si atom -5571.622801 kJ/mol
# Density = 1.973869 g / cm^3
# Si number density = 19.783716 Si / 1000 Ang^3
#
#
#
# Elastic Constant Matrix: (Units=GPa)
#
#
# Indices 1 2 3 4 5 6 
#
# 1 75.7055 33.8193 42.5071 0.0000 0.7439 0.0000
# 2 33.8193 38.3293 27.3629 0.0000 -16.1656 0.0000
# 3 42.5071 27.3629 108.5299 0.0000 11.9567 0.0000
# 4 0.0000 0.0000 0.0000 22.5100 0.0000 -8.7910
# 5 0.7439 -16.1656 11.9567 0.0000 37.0706 0.0000
# 6 0.0000 0.0000 0.0000 -8.7910 0.0000 29.3425
#
#
#
# Elastic Compliance Matrix: (Units=1/GPa)
#
#
# Indices 1 2 3 4 5 6 
#
# 1 0.026466 -0.026275 -0.002509 0.000000 -0.011180 0.000000
# 2 -0.026275 0.073388 -0.012230 0.000000 0.036475 0.000000
# 3 -0.002509 -0.012230 0.014373 0.000000 -0.009919 0.000000
# 4 0.000000 0.000000 0.000000 0.050311 0.000000 0.015073
# 5 -0.011180 0.036475 -0.009919 0.000000 0.046305 0.000000
# 6 0.000000 0.000000 0.000000 0.015073 0.000000 0.038596
#
#
# Mechanical properties :
#
#
# Convention : Reuss Voigt Hill
#
# Bulk Modulus (GPa) = 31.05883 47.77148 39.41515
# Shear Modulus (GPa) = 14.61132 25.70964 20.16048
#
# Velocity S-wave (km/s) = 2.72058 3.60882 3.19571
# Velocity P-wave (km/s) = 5.05984 6.44702 5.79509
#
# Compressibility (1/GPa) = 0.03219696
#
# Stress axis : x y z
#
# Youngs Moduli (GPa) = 37.78479 13.62628 69.57466
#
# Poissons Ratio (x) = 0.35804 0.17459
# Poissons Ratio (y) = 0.99281 0.85090
# Poissons Ratio (z) = 0.09481 0.16665
#
# Static dielectric constant tensor:
#      x y z
#    x 1.734350 0.000000 0.042660 
#    y 0.000000 1.679250 0.000000 
#    z 0.042660 0.000000 1.779000 
# 
# From -- ./inp_files/2072.got.cif
#   From: 2010.05.17/outbox.cif.g08.bks.cpg/sg14_2_cif.got.tgz:2072.got - 2010.06.03 17:49:19.
