data_PCOD9240500
_publ_section_title
;
Structure prediction by ZEFSAII (Michael W. Deem and Ramdas Pophale) SiO2 
 PCOD9240500
Probable space group: P 21/C
;
_chemical_formula_sum "Si O2"
_cell_formula_units_Z 28
_cell_length_a 7.069196
_cell_length_b 9.024795
_cell_length_c 16.973008
_cell_angle_alpha 90.000000
_cell_angle_beta 73.380771
_cell_angle_gamma 90.000000
_cell_volume 1037.610662
_symmetry_space_group_name_H-M "P 21/C"
_symmetry_group_IT_number 14
_symmetry_cell_setting 'monoclinic'
loop_
_space_group_symop_operation_xyz
x,y,z
-x,1/2+y,1/2-z
-x,-y,-z
x,1/2-y,1/2+z
loop_
_atom_site_type_symbol
_atom_site_label
_atom_site_fract_x
_atom_site_fract_y
_atom_site_fract_z
Si Si1 0.669845 0.789442 0.001896
Si Si2 0.515258 0.449961 0.608967
Si Si3 0.821725 0.253207 0.123417
Si Si4 0.328758 0.477238 0.788597
Si Si5 0.931378 0.496117 0.731890
Si Si6 0.933346 0.752583 0.100922
Si Si7 0.808384 0.975721 0.413919
O O1 0.870414 0.822755 0.025865
O O2 0.518316 0.885709 0.071958
O O3 0.654358 0.864894 0.918222
O O4 0.651958 0.615605 0.984453
O O5 0.716373 0.355501 0.573395
O O6 0.497019 0.453691 0.704893
O O7 0.650566 0.368035 0.169902
O O8 0.998685 0.371902 0.090487
O O9 0.890597 0.152682 0.188576
O O10 0.262534 0.346604 0.854555
O O11 0.137223 0.486342 0.753897
O O12 0.947501 0.628844 0.667969
O O13 0.780111 0.522471 0.822892
O O14 0.117547 0.640377 0.073917
#
# Coordination Sequence:
#
# PCOD9240500 Si02
#       7
#     4   4   4   4   4   4   4
#     4  11  23  40  59  89 129 167 202 252 323 380
#     4  11  24  39  58  90 131 167 204 250 321 382
#     4  10  21  39  65  91 114 163 214 249 308 362
#     4  10  22  39  64  91 121 155 210 261 299 371
#     4  10  18  39  67  90 113 157 214 259 300 358
#     4  10  20  39  66  91 117 164 213 260 309 361
#     4  10  21  39  64  91 122 154 213 267 307 367
#
# _framework density 26.985074000000001
#
# number of rings (size 3 to 8) (size 9 to 14) (size 15 to 20)
#    0.000    2.000    1.429    5.571    2.000    1.714 
#    5.143    2.857    6.286    0.000    0.000    0.000 
#    0.000    0.000    0.000    0.000    0.000    0.000 
#
# Total GULP energy -156503.874577 kJ/mol
# GULP energy per Si atom -5589.424092 kJ/mol
# Density = 2.692365 g / cm^3
# Si number density = 26.985074 Si / 1000 Ang^3
#
#
#
# Elastic Constant Matrix: (Units=GPa)
#
#
# Indices 1 2 3 4 5 6 
#
# 1 58.6484 40.5334 16.6190 0.0000 15.5584 0.0000
# 2 40.5334 131.4320 13.9202 0.0000 2.8428 0.0000
# 3 16.6190 13.9202 43.0070 0.0000 22.6512 0.0000
# 4 0.0000 0.0000 0.0000 33.8411 0.0000 -9.8447
# 5 15.5584 2.8428 22.6512 0.0000 42.2958 0.0000
# 6 0.0000 0.0000 0.0000 -9.8447 0.0000 26.3809
#
#
#
# Elastic Compliance Matrix: (Units=1/GPa)
#
#
# Indices 1 2 3 4 5 6 
#
# 1 0.024786 -0.007098 -0.003802 0.000000 -0.006604 0.000000
# 2 -0.007098 0.009953 -0.002091 0.000000 0.003062 0.000000
# 3 -0.003802 -0.002091 0.034247 0.000000 -0.016802 0.000000
# 4 0.000000 0.000000 0.000000 0.033148 0.000000 0.012370
# 5 -0.006604 0.003062 -0.016802 0.000000 0.034865 0.000000
# 6 0.000000 0.000000 0.000000 0.012370 0.000000 0.042522
#
#
# Mechanical properties :
#
#
# Convention : Reuss Voigt Hill
#
# Bulk Modulus (GPa) = 23.25429 41.69251 32.47340
# Shear Modulus (GPa) = 22.74386 31.30456 27.02421
#
# Velocity S-wave (km/s) = 2.90631 3.40967 3.16800
# Velocity P-wave (km/s) = 4.46075 5.56641 5.04397
#
# Compressibility (1/GPa) = 0.04300281
#
# Stress axis : x y z
#
# Youngs Moduli (GPa) = 40.34531 100.47325 29.19931
#
# Poissons Ratio (x) = 0.71320 0.11102
# Poissons Ratio (y) = 0.28639 0.06106
# Poissons Ratio (z) = 0.15340 0.21011
#
# Static dielectric constant tensor:
#      x y z
#    x 2.285080 0.000000 -0.267450 
#    y 0.000000 2.077540 0.000000 
#    z -0.267450 0.000000 2.335880 
# 
# From -- ./inp_files/54787.got.cif
#   From: 2010.05.17/outbox.cif.g08.bks.cpg/sg14_28_cif.got.tgz:54787.got - 2010.06.03 17:49:19.
