data_PCOD9240739
_publ_section_title
;
Structure prediction by ZEFSAII (Michael W. Deem and Ramdas Pophale) SiO2 
 PCOD9240739
Probable space group: P 21/C
;
_chemical_formula_sum "Si O2"
_cell_formula_units_Z 26
_cell_length_a 9.672510
_cell_length_b 13.553657
_cell_length_c 7.553465
_cell_angle_alpha 90.000000
_cell_angle_beta 78.119471
_cell_angle_gamma 90.000000
_cell_volume 969.031272
_symmetry_space_group_name_H-M "P 21/C"
_symmetry_group_IT_number 14
_symmetry_cell_setting 'monoclinic'
loop_
_space_group_symop_operation_xyz
x,y,z
-x,1/2+y,1/2-z
-x,-y,-z
x,1/2-y,1/2+z
loop_
_atom_site_type_symbol
_atom_site_label
_atom_site_fract_x
_atom_site_fract_y
_atom_site_fract_z
Si Si1 0.633221 0.357027 0.040218
Si Si2 0.000000 0.500000 0.500000
Si Si3 0.326117 0.083298 0.105409
Si Si4 0.992133 0.850476 0.755581
Si Si5 0.366775 0.636258 0.563087
Si Si6 0.668207 0.572915 0.970198
Si Si7 0.017041 0.371408 0.155956
O O1 0.686849 0.371114 0.223128
O O2 0.674965 0.456157 0.923642
O O3 0.674912 0.246010 0.983854
O O4 0.463701 0.371955 0.080644
O O5 0.922972 0.406564 0.615973
O O6 0.969217 0.453995 0.306096
O O7 0.169897 0.129385 0.126419
O O8 0.348894 0.078846 0.311893
O O9 0.334279 0.975840 0.008583
O O10 0.461149 0.140454 0.994946
O O11 0.013581 0.881915 0.545811
O O12 0.021319 0.735619 0.763756
O O13 0.812616 0.622569 0.877841
#
# Coordination Sequence:
#
# PCOD9240739 Si02
#       7
#     4   2   4   4   4   4   4
#     4  10  19  32  53  85 128 165 204 247 307 374
#     4  12  26  44  72 100 124 172 210 292 336 390
#     4   9  20  36  58  88 120 165 208 258 307 383
#     4  11  23  44  71  98 130 166 222 275 337 398
#     4  10  19  32  53  85 128 165 204 247 307 374
#     4   9  20  36  58  88 120 165 208 258 307 383
#     4  11  23  44  71  98 130 166 222 275 337 398
#
# _framework density 26.830919000000002
#
# number of rings (size 3 to 8) (size 9 to 14) (size 15 to 20)
#    0.000    1.846    1.538    2.308    2.154    3.692 
#    0.000    1.538    6.769    0.000    0.000    0.000 
#    0.000    0.000    0.000    0.000    0.000    0.000 
#
# Total GULP energy -144989.185813 kJ/mol
# GULP energy per Si atom -5576.507147 kJ/mol
# Density = 2.676985 g / cm^3
# Si number density = 26.830919 Si / 1000 Ang^3
#
#
#
# Elastic Constant Matrix: (Units=GPa)
#
#
# Indices 1 2 3 4 5 6 
#
# 1 85.7417 0.5422 27.6391 0.0000 -22.9011 0.0000
# 2 0.5422 173.1271 33.8215 0.0000 0.8116 0.0000
# 3 27.6391 33.8215 139.3834 0.0000 1.0604 0.0000
# 4 0.0000 0.0000 0.0000 30.7708 0.0000 11.0290
# 5 -22.9011 0.8116 1.0604 0.0000 37.0784 0.0000
# 6 0.0000 0.0000 0.0000 11.0290 0.0000 28.9481
#
#
#
# Elastic Compliance Matrix: (Units=1/GPa)
#
#
# Indices 1 2 3 4 5 6 
#
# 1 0.015233 0.000537 -0.003223 0.000000 0.009489 0.000000
# 2 0.000537 0.006083 -0.001584 0.000000 0.000244 0.000000
# 3 -0.003223 -0.001584 0.008215 0.000000 -0.002191 0.000000
# 4 0.000000 0.000000 0.000000 0.037638 0.000000 -0.014340
# 5 0.009489 0.000244 -0.002191 0.000000 0.032888 0.000000
# 6 0.000000 0.000000 0.000000 -0.014340 0.000000 0.040008
#
#
# Mechanical properties :
#
#
# Convention : Reuss Voigt Hill
#
# Bulk Modulus (GPa) = 47.64135 58.02865 52.83500
# Shear Modulus (GPa) = 32.13334 41.77610 36.95472
#
# Velocity S-wave (km/s) = 3.46442 3.95018 3.71525
# Velocity P-wave (km/s) = 5.81358 6.51765 6.17565
#
# Compressibility (1/GPa) = 0.02099017
#
# Stress axis : x y z
#
# Youngs Moduli (GPa) = 65.64694 164.39785 121.73232
#
# Poissons Ratio (x) = -0.08836 0.39237
# Poissons Ratio (y) = -0.03528 0.19288
# Poissons Ratio (z) = 0.21160 0.26048
#
# Static dielectric constant tensor:
#      x y z
#    x 2.748710 0.000000 0.138040 
#    y 0.000000 2.168290 0.000000 
#    z 0.138040 0.000000 2.062240 
# 
# From -- ./inp_files/15309.got.cif
#   From: 2010.05.17/outbox.cif.g08.bks.cpg/sg14_8_cif.got.tgz:15309.got - 2010.06.03 17:49:19.
