data_PCOD9240838
_publ_section_title
;
Structure prediction by ZEFSAII (Michael W. Deem and Ramdas Pophale) SiO2 
 PCOD9240838
Probable space group: P 21/C
;
_chemical_formula_sum "Si O2"
_cell_formula_units_Z 24
_cell_length_a 12.515484
_cell_length_b 17.893770
_cell_length_c 8.505444
_cell_angle_alpha 90.000000
_cell_angle_beta 33.198397
_cell_angle_gamma 90.000000
_cell_volume 1042.946888
_symmetry_space_group_name_H-M "P 21/C"
_symmetry_group_IT_number 14
_symmetry_cell_setting 'monoclinic'
loop_
_space_group_symop_operation_xyz
x,y,z
-x,1/2+y,1/2-z
-x,-y,-z
x,1/2-y,1/2+z
loop_
_atom_site_type_symbol
_atom_site_label
_atom_site_fract_x
_atom_site_fract_y
_atom_site_fract_z
Si Si1 0.466332 0.566231 0.232195
Si Si2 0.465094 0.830966 0.452040
Si Si3 0.353144 0.179017 0.275753
Si Si4 0.221465 0.054249 0.905661
Si Si5 0.077276 0.267167 0.857484
Si Si6 0.125082 0.851297 0.662736
O O1 0.390379 0.631391 0.205774
O O2 0.544393 0.603810 0.293123
O O3 0.297635 0.504816 0.438974
O O4 0.656524 0.534234 0.903022
O O5 0.485566 0.743310 0.443954
O O6 0.682493 0.865251 0.172382
O O7 0.346042 0.857163 0.447227
O O8 0.216866 0.212181 0.583952
O O9 0.214399 0.180800 0.296256
O O10 0.995789 0.071836 0.167178
O O11 0.930539 0.316912 0.936004
O O12 0.957513 0.210398 0.113727
#
# Coordination Sequence:
#
# PCOD9240838 Si02
#       6
#     4   4   4   4   4   4
#     4   9  18  35  56  81 104 146 177 217 266 322
#     4  10  20  32  60  79 108 135 186 220 264 314
#     4  11  17  36  56  80 107 142 178 223 266 316
#     4   9  18  37  53  78 111 141 179 216 267 318
#     4  10  19  33  54  77 111 138 173 227 270 307
#     4  11  21  33  55  83 108 141 176 226 271 311
#
# _framework density 23.011717999999998
#
# number of rings (size 3 to 8) (size 9 to 14) (size 15 to 20)
#    1.000    1.000    6.667    0.000    2.333    0.667 
#    0.000    0.833    0.000    1.000    0.000    0.000 
#    0.000    0.000    0.000    0.000    0.000    0.000 
#
# Total GULP energy -133945.767184 kJ/mol
# GULP energy per Si atom -5581.073633 kJ/mol
# Density = 2.295934 g / cm^3
# Si number density = 23.011718 Si / 1000 Ang^3
#
#
#
# Elastic Constant Matrix: (Units=GPa)
#
#
# Indices 1 2 3 4 5 6 
#
# 1 123.8010 -3.6278 18.2557 0.0000 -7.2114 0.0000
# 2 -3.6278 29.3839 5.6579 0.0000 1.5217 0.0000
# 3 18.2557 5.6579 19.1243 0.0000 -9.3061 0.0000
# 4 0.0000 0.0000 0.0000 6.9732 0.0000 9.0162
# 5 -7.2114 1.5217 -9.3061 0.0000 30.9664 0.0000
# 6 0.0000 0.0000 0.0000 9.0162 0.0000 34.1773
#
#
#
# Elastic Compliance Matrix: (Units=1/GPa)
#
#
# Indices 1 2 3 4 5 6 
#
# 1 0.009702 0.003339 -0.010811 0.000000 -0.001154 0.000000
# 2 0.003339 0.038161 -0.017583 0.000000 -0.006382 0.000000
# 3 -0.010811 -0.017583 0.078484 0.000000 0.021932 0.000000
# 4 0.000000 0.000000 0.000000 0.217645 0.000000 -0.057416
# 5 -0.001154 -0.006382 0.021932 0.000000 0.038929 0.000000
# 6 0.000000 0.000000 0.000000 -0.057416 0.000000 0.044406
#
#
# Mechanical properties :
#
#
# Convention : Reuss Voigt Hill
#
# Bulk Modulus (GPa) = 13.11682 23.65342 18.38512
# Shear Modulus (GPa) = 9.94336 24.55825 17.25081
#
# Velocity S-wave (km/s) = 2.08096 3.27036 2.74095
# Velocity P-wave (km/s) = 3.38914 4.95595 4.24545
#
# Compressibility (1/GPa) = 0.07623800
#
# Stress axis : x y z
#
# Youngs Moduli (GPa) = 103.06832 26.20505 12.74152
#
# Poissons Ratio (x) = -0.08750 0.13775
# Poissons Ratio (y) = -0.34417 0.22403
# Poissons Ratio (z) = 1.11426 0.46075
#
# Static dielectric constant tensor:
#      x y z
#    x 1.870910 0.000000 0.026490 
#    y 0.000000 1.870790 0.000000 
#    z 0.026490 0.000000 1.921290 
# 
# From -- ./inp_files/10465.got.cif
#   From: 2010.05.17/outbox.cif.g08.bks.cpg/sg14_6_cif.got.tgz:10465.got - 2010.06.03 17:49:19.
