data_PCOD9240023
_publ_section_title
;
Structure prediction by ZEFSAII (Michael W. Deem and Ramdas Pophale) SiO2 
 PCOD9240023
Probable space group: P 21/C
;
_chemical_formula_sum "Si O2"
_cell_formula_units_Z 24
_cell_length_a 12.680438
_cell_length_b 16.051685
_cell_length_c 7.970709
_cell_angle_alpha 90.000000
_cell_angle_beta 138.868110
_cell_angle_gamma 90.000000
_cell_volume 1067.190914
_symmetry_space_group_name_H-M "P 21/C"
_symmetry_group_IT_number 14
_symmetry_cell_setting 'monoclinic'
loop_
_space_group_symop_operation_xyz
x,y,z
-x,1/2+y,1/2-z
-x,-y,-z
x,1/2-y,1/2+z
loop_
_atom_site_type_symbol
_atom_site_label
_atom_site_fract_x
_atom_site_fract_y
_atom_site_fract_z
Si Si1 0.531512 0.865263 0.237475
Si Si2 0.963331 0.967776 0.142280
Si Si3 0.558526 0.804411 0.653132
Si Si4 0.893351 0.870109 0.547867
Si Si5 0.075612 0.296994 0.286953
Si Si6 0.588362 0.526061 0.276760
O O1 0.543691 0.834831 0.445355
O O2 0.468823 0.782617 0.070076
O O3 0.709975 0.882386 0.385066
O O4 0.437057 0.951893 0.123051
O O5 0.017505 0.871861 0.231727
O O6 0.032044 0.038770 0.345655
O O7 0.773981 0.965309 0.953183
O O8 0.000000 0.000000 0.000000
O O9 0.519011 0.881754 0.729262
O O10 0.746451 0.788894 0.918351
O O11 0.905534 0.831617 0.377563
O O12 0.979650 0.798967 0.766444
O O13 0.500000 0.500000 0.000000
#
# Coordination Sequence:
#
# PCOD9240023 Si02
#       6
#     4   4   4   4   4   4
#     4  10  18  34  56  78 105 140 180 223 268 324
#     4  11  21  37  58  81 110 147 184 227 274 323
#     4   9  17  32  53  76 101 140 179 212 263 329
#     4  11  20  35  57  82 106 142 184 225 269 326
#     4  10  20  35  56  81 109 144 185 221 270 336
#     4   9  19  35  54  78 107 141 180 218 267 328
#
# _framework density 22.488945999999999
#
# number of rings (size 3 to 8) (size 9 to 14) (size 15 to 20)
#    0.000    2.000    0.000    8.500    0.000    0.000 
#    0.000   15.833    0.000    2.000    0.000    0.000 
#    0.000    0.000    0.000    0.000    0.000    0.000 
#
# Total GULP energy -133869.002938 kJ/mol
# GULP energy per Si atom -5577.875122 kJ/mol
# Density = 2.243776 g / cm^3
# Si number density = 22.488946 Si / 1000 Ang^3
#
#
#
# Elastic Constant Matrix: (Units=GPa)
#
#
# Indices 1 2 3 4 5 6 
#
# 1 68.0748 32.3142 0.5812 0.0000 -14.8361 0.0000
# 2 32.3142 138.7768 -13.0252 0.0000 12.7087 0.0000
# 3 0.5812 -13.0252 13.8118 0.0000 -7.7291 0.0000
# 4 0.0000 0.0000 0.0000 -34.7170 0.0000 28.4782
# 5 -14.8361 12.7087 -7.7291 0.0000 24.3161 0.0000
# 6 0.0000 0.0000 0.0000 28.4782 0.0000 28.2938
#
#
#
# Elastic Compliance Matrix: (Units=1/GPa)
#
#
# Indices 1 2 3 4 5 6 
#
# 1 0.021419 -0.006304 0.002810 0.000000 0.017257 0.000000
# 2 -0.006304 0.009854 0.005502 0.000000 -0.007247 0.000000
# 3 0.002810 0.005502 0.093444 0.000000 0.028541 0.000000
# 4 0.000000 0.000000 0.000000 -0.015778 0.000000 0.015880
# 5 0.017257 -0.007247 0.028541 0.000000 0.064514 0.000000
# 6 0.000000 0.000000 0.000000 0.015880 0.000000 0.019359
#
#
# Mechanical properties :
#
#
# Convention : Reuss Voigt Hill
#
# Bulk Modulus (GPa) = 7.76792 28.93375 18.35083
# Shear Modulus (GPa) = 21.57905 16.96479 19.27192
#
# Velocity S-wave (km/s) = 3.10101 2.74954 2.93055
# Velocity P-wave (km/s) = 4.03525 4.79309 4.43040
#
# Compressibility (1/GPa) = 0.12873464
#
# Stress axis : x y z
#
# Youngs Moduli (GPa) = 46.68753 101.48363 10.70158
#
# Poissons Ratio (x) = 0.63975 -0.03008
# Poissons Ratio (y) = 0.29431 -0.05888
# Poissons Ratio (z) = -0.13121 -0.55840
#
# Static dielectric constant tensor:
#      x y z
#    x 1.846450 0.000000 -0.038170 
#    y 0.000000 1.988640 0.000000 
#    z -0.038170 0.000000 1.844780 
# 
# From -- ./inp_files/16545.got.cif
#   From: 2010.05.17/outbox.cif.g08.bks.cpg/sg14_9_cif.got.tgz:16545.got - 2010.06.03 17:49:19.
