data_PCOD9240422
_publ_section_title
;
Structure prediction by ZEFSAII (Michael W. Deem and Ramdas Pophale) SiO2 
 PCOD9240422
Probable space group: P 21/C
;
_chemical_formula_sum "Si O2"
_cell_formula_units_Z 30
_cell_length_a 13.259447
_cell_length_b 6.599053
_cell_length_c 12.476403
_cell_angle_alpha 90.000000
_cell_angle_beta 73.550873
_cell_angle_gamma 90.000000
_cell_volume 1047.001789
_symmetry_space_group_name_H-M "P 21/C"
_symmetry_group_IT_number 14
_symmetry_cell_setting 'monoclinic'
loop_
_space_group_symop_operation_xyz
x,y,z
-x,1/2+y,1/2-z
-x,-y,-z
x,1/2-y,1/2+z
loop_
_atom_site_type_symbol
_atom_site_label
_atom_site_fract_x
_atom_site_fract_y
_atom_site_fract_z
Si Si1 0.500000 0.500000 0.000000
Si Si2 0.692541 0.643097 0.500223
Si Si3 0.624555 0.513467 0.293362
Si Si4 0.665718 0.124477 0.561135
Si Si5 0.080720 0.284782 0.022869
Si Si6 0.939559 0.954870 0.161249
Si Si7 0.397110 0.465193 0.260602
Si Si8 0.873844 0.330090 0.874492
O O1 0.449374 0.683977 0.943651
O O2 0.577962 0.430835 0.861688
O O3 0.651694 0.524673 0.409264
O O4 0.638411 0.874211 0.528117
O O5 0.814641 0.701524 0.449052
O O6 0.676980 0.502562 0.610621
O O7 0.687673 0.390503 0.181204
O O8 0.507791 0.459683 0.290287
O O9 0.644052 0.745416 0.256902
O O10 0.764769 0.196788 0.465626
O O11 0.068582 0.512932 0.062800
O O12 0.980633 0.147348 0.081832
O O13 0.108213 0.223690 0.894060
O O14 0.047433 0.853789 0.173746
O O15 0.861495 0.042269 0.270823
#
# Coordination Sequence:
#
# PCOD9240422 Si02
#       8
#     2   4   4   4   4   4   4   4
#     4  10  18  38  60  94 132 166 218 256 322 404
#     4  10  20  39  63  91 121 179 219 270 331 403
#     4  10  20  40  60  93 131 168 226 263 334 399
#     4   9  21  35  62  96 124 177 216 268 335 398
#     4  10  24  42  66  95 134 175 222 285 340 408
#     4  11  23  44  65 100 134 169 231 279 348 411
#     4  10  21  36  62  90 127 170 211 271 322 387
#     4  11  22  42  70  97 133 180 221 287 347 405
#
# _framework density 28.653245999999999
#
# number of rings (size 3 to 8) (size 9 to 14) (size 15 to 20)
#    0.000    1.867    2.667    0.800    1.867    3.200 
#    7.200    0.000    0.000    0.000    0.000    0.000 
#    0.000    0.000    0.000    0.000    0.000    0.000 
#
# Total GULP energy -167277.278641 kJ/mol
# GULP energy per Si atom -5575.909288 kJ/mol
# Density = 2.858803 g / cm^3
# Si number density = 28.653246 Si / 1000 Ang^3
#
#
#
# Elastic Constant Matrix: (Units=GPa)
#
#
# Indices 1 2 3 4 5 6 
#
# 1 48.8921 4.9919 22.5522 0.0000 -5.1967 0.0000
# 2 4.9919 64.6697 59.1999 0.0000 -0.5109 0.0000
# 3 22.5522 59.1999 212.7826 0.0000 1.8270 0.0000
# 4 0.0000 0.0000 0.0000 54.7224 0.0000 0.8044
# 5 -5.1967 -0.5109 1.8270 0.0000 52.4553 0.0000
# 6 0.0000 0.0000 0.0000 0.8044 0.0000 30.0030
#
#
#
# Elastic Compliance Matrix: (Units=1/GPa)
#
#
# Indices 1 2 3 4 5 6 
#
# 1 0.021783 0.000627 -0.002503 0.000000 0.002251 0.000000
# 2 0.000627 0.020774 -0.005850 0.000000 0.000468 0.000000
# 3 -0.002503 -0.005850 0.006597 0.000000 -0.000535 0.000000
# 4 0.000000 0.000000 0.000000 0.018281 0.000000 -0.000490
# 5 0.002251 0.000468 -0.000535 0.000000 0.019310 0.000000
# 6 0.000000 0.000000 0.000000 -0.000490 0.000000 0.033343
#
#
# Mechanical properties :
#
#
# Convention : Reuss Voigt Hill
#
# Bulk Modulus (GPa) = 29.67119 55.53694 42.60406
# Shear Modulus (GPa) = 34.06614 43.40949 38.73781
#
# Velocity S-wave (km/s) = 3.45180 3.89651 3.68088
# Velocity P-wave (km/s) = 5.12487 6.29828 5.74163
#
# Compressibility (1/GPa) = 0.03370273
#
# Stress axis : x y z
#
# Youngs Moduli (GPa) = 45.90787 48.13748 151.58238
#
# Poissons Ratio (x) = -0.03019 0.37934
# Poissons Ratio (y) = -0.02879 0.88678
# Poissons Ratio (z) = 0.11489 0.28161
#
# Static dielectric constant tensor:
#      x y z
#    x 1.842580 0.000000 -0.109850 
#    y 0.000000 2.741410 0.000000 
#    z -0.109850 0.000000 2.373200 
# 
# From -- ./inp_files/31796.got.cif
#   From: 2010.05.17/outbox.cif.g08.bks.cpg/sg14_16_cif.got.tgz:31796.got - 2010.06.03 17:49:19.
