data_PCOD9240454
_publ_section_title
;
Structure prediction by ZEFSAII (Michael W. Deem and Ramdas Pophale) SiO2 
 PCOD9240454
Probable space group: P 21/C
;
_chemical_formula_sum "Si O2"
_cell_formula_units_Z 24
_cell_length_a 12.506509
_cell_length_b 11.682355
_cell_length_c 13.965338
_cell_angle_alpha 90.000000
_cell_angle_beta 139.686140
_cell_angle_gamma 90.000000
_cell_volume 1320.094276
_symmetry_space_group_name_H-M "P 21/C"
_symmetry_group_IT_number 14
_symmetry_cell_setting 'monoclinic'
loop_
_space_group_symop_operation_xyz
x,y,z
-x,1/2+y,1/2-z
-x,-y,-z
x,1/2-y,1/2+z
loop_
_atom_site_type_symbol
_atom_site_label
_atom_site_fract_x
_atom_site_fract_y
_atom_site_fract_z
Si Si1 0.899184 0.957570 0.339260
Si Si2 0.689104 0.324636 0.632906
Si Si3 0.383790 0.805446 0.223313
Si Si4 0.803276 0.338387 0.054965
Si Si5 0.467176 0.038922 0.369421
Si Si6 0.383040 0.209542 0.788759
O O1 0.776077 0.861452 0.294453
O O2 0.029799 0.903726 0.354629
O O3 0.793334 0.061799 0.223411
O O4 0.000000 0.000000 0.500000
O O5 0.622226 0.272454 0.686364
O O6 0.797247 0.228300 0.651617
O O7 0.533327 0.340638 0.455966
O O8 0.551227 0.795263 0.275131
O O9 0.378793 0.937148 0.252366
O O10 0.240360 0.756138 0.056322
O O11 0.645463 0.424598 0.946915
O O12 0.366569 0.156900 0.302229
O O13 0.500000 0.000000 0.500000
#
# Coordination Sequence:
#
# PCOD9240454 Si02
#       6
#     4   4   4   4   4   4
#     4  12  23  42  62  88 131 159 199 255 315 353
#     4  10  21  42  62  88 123 161 203 254 292 365
#     4  10  18  39  63  84 122 152 204 252 292 355
#     4  10  23  38  59  96 120 161 200 251 313 357
#     4  10  18  38  64  86 117 158 207 250 291 362
#     4  10  24  37  63  94 112 166 209 237 310 366
#
# _framework density 18.180520000000001
#
# number of rings (size 3 to 8) (size 9 to 14) (size 15 to 20)
#    0.000    2.000    5.000    1.500    2.333    1.333 
#    3.000    0.833    0.000    0.000    0.000    0.000 
#    0.000    0.000    0.000    0.000    0.000    0.000 
#
# Total GULP energy -133855.838699 kJ/mol
# GULP energy per Si atom -5577.326612 kJ/mol
# Density = 1.813914 g / cm^3
# Si number density = 18.180520 Si / 1000 Ang^3
#
#
#
# Elastic Constant Matrix: (Units=GPa)
#
#
# Indices 1 2 3 4 5 6 
#
# 1 125.8594 56.7506 48.8315 0.0000 2.9006 0.0000
# 2 56.7506 139.9143 60.0085 0.0000 14.1974 0.0000
# 3 48.8315 60.0085 58.2223 0.0000 2.3726 0.0000
# 4 0.0000 0.0000 0.0000 28.6729 0.0000 -1.4955
# 5 2.9006 14.1974 2.3726 0.0000 33.5379 0.0000
# 6 0.0000 0.0000 0.0000 -1.4955 0.0000 32.6450
#
#
#
# Elastic Compliance Matrix: (Units=1/GPa)
#
#
# Indices 1 2 3 4 5 6 
#
# 1 0.011852 -0.000978 -0.008933 0.000000 0.000021 0.000000
# 2 -0.000978 0.013606 -0.013010 0.000000 -0.004755 0.000000
# 3 -0.008933 -0.013010 0.037930 0.000000 0.003597 0.000000
# 4 0.000000 0.000000 0.000000 0.034960 0.000000 0.001602
# 5 0.000021 -0.004755 0.003597 0.000000 0.031574 0.000000
# 6 0.000000 0.000000 0.000000 0.001602 0.000000 0.030706
#
#
# Mechanical properties :
#
#
# Convention : Reuss Voigt Hill
#
# Bulk Modulus (GPa) = 56.99101 72.79747 64.89424
# Shear Modulus (GPa) = 23.54971 29.53153 26.54062
#
# Velocity S-wave (km/s) = 3.60297 4.03470 3.82493
# Velocity P-wave (km/s) = 6.98025 7.86342 7.43496
#
# Compressibility (1/GPa) = 0.01754663
#
# Stress axis : x y z
#
# Youngs Moduli (GPa) = 84.37578 73.49626 26.36445
#
# Poissons Ratio (x) = 0.07188 0.23551
# Poissons Ratio (y) = 0.08252 0.34299
# Poissons Ratio (z) = 0.75373 0.95615
#
# Static dielectric constant tensor:
#      x y z
#    x 1.639610 0.000000 -0.010640 
#    y 0.000000 1.637380 0.000000 
#    z -0.010640 0.000000 1.608990 
# 
# From -- ./inp_files/44490.got.cif
#   From: 2010.05.17/outbox.cif.g08.bks.cpg/sg14_23_cif.got.tgz:44490.got - 2010.06.03 17:49:19.
