data_PCOD9240464
_publ_section_title
;
Structure prediction by ZEFSAII (Michael W. Deem and Ramdas Pophale) SiO2 
 PCOD9240464
Probable space group: P 21/C
;
_chemical_formula_sum "Si O2"
_cell_formula_units_Z 28
_cell_length_a 5.576430
_cell_length_b 17.557867
_cell_length_c 15.927798
_cell_angle_alpha 90.000000
_cell_angle_beta 121.259590
_cell_angle_gamma 90.000000
_cell_volume 1333.094628
_symmetry_space_group_name_H-M "P 21/C"
_symmetry_group_IT_number 14
_symmetry_cell_setting 'monoclinic'
loop_
_space_group_symop_operation_xyz
x,y,z
-x,1/2+y,1/2-z
-x,-y,-z
x,1/2-y,1/2+z
loop_
_atom_site_type_symbol
_atom_site_label
_atom_site_fract_x
_atom_site_fract_y
_atom_site_fract_z
Si Si1 0.632734 0.538227 0.421154
Si Si2 0.252736 0.842259 0.301783
Si Si3 0.885822 0.903543 0.391710
Si Si4 0.143727 0.437817 0.367054
Si Si5 0.817891 0.081653 0.387093
Si Si6 0.771979 0.931374 0.755093
Si Si7 0.773928 0.334200 0.699776
O O1 0.467181 0.459195 0.407423
O O2 0.866752 0.548942 0.534803
O O3 0.689769 0.545581 0.333846
O O4 0.428064 0.612227 0.392684
O O5 0.551718 0.882255 0.332072
O O6 0.310079 0.752594 0.315143
O O7 0.088408 0.866733 0.357737
O O8 0.017066 0.862471 0.188681
O O9 0.003113 0.883618 0.505494
O O10 0.914697 0.995135 0.388652
O O11 0.992552 0.501311 0.280677
O O12 0.491309 0.071344 0.353157
O O13 0.805185 0.131635 0.300023
O O14 0.919772 0.849994 0.782948
#
# Coordination Sequence:
#
# PCOD9240464 Si02
#       7
#     4   4   4   4   4   4   4
#     4   9  20  38  62  94 123 172 217 268 324 399
#     4  12  26  44  63 102 138 172 218 284 329 400
#     4  11  26  44  71  99 133 173 235 275 328 389
#     4  10  20  38  64  93 127 165 223 272 325 384
#     4  10  23  43  71  95 128 180 226 277 328 400
#     4  10  18  38  66  93 122 171 216 270 321 398
#     4  10  24  40  63  94 137 174 217 268 347 394
#
# _framework density 21.003758000000001
#
# number of rings (size 3 to 8) (size 9 to 14) (size 15 to 20)
#    0.000    1.714    1.429    3.000    6.000    2.286 
#    0.000    0.000    0.000    0.000    0.000    0.000 
#    0.000    0.000    0.000    0.000    0.000    0.000 
#
# Total GULP energy -155880.607663 kJ/mol
# GULP energy per Si atom -5567.164559 kJ/mol
# Density = 2.095595 g / cm^3
# Si number density = 21.003758 Si / 1000 Ang^3
#
#
#
# Elastic Constant Matrix: (Units=GPa)
#
#
# Indices 1 2 3 4 5 6 
#
# 1 55.1850 8.1409 29.0611 0.0000 -6.9513 0.0000
# 2 8.1409 65.8929 13.3445 0.0000 -2.5648 0.0000
# 3 29.0611 13.3445 115.4169 0.0000 3.9165 0.0000
# 4 0.0000 0.0000 0.0000 20.3228 0.0000 -1.8167
# 5 -6.9513 -2.5648 3.9165 0.0000 35.1881 0.0000
# 6 0.0000 0.0000 0.0000 -1.8167 0.0000 20.2905
#
#
#
# Elastic Compliance Matrix: (Units=1/GPa)
#
#
# Indices 1 2 3 4 5 6 
#
# 1 0.021830 -0.001396 -0.005499 0.000000 0.004823 0.000000
# 2 -0.001396 0.015692 -0.001498 0.000000 0.001035 0.000000
# 3 -0.005499 -0.001498 0.010302 0.000000 -0.002342 0.000000
# 4 0.000000 0.000000 0.000000 0.049603 0.000000 0.004441
# 5 0.004823 0.001035 -0.002342 0.000000 0.029708 0.000000
# 6 0.000000 0.000000 0.000000 0.004441 0.000000 0.049682
#
#
# Mechanical properties :
#
#
# Convention : Reuss Voigt Hill
#
# Bulk Modulus (GPa) = 32.21807 37.50976 34.86392
# Shear Modulus (GPa) = 24.51612 27.55682 26.03647
#
# Velocity S-wave (km/s) = 3.42017 3.62608 3.52463
# Velocity P-wave (km/s) = 5.56501 5.95219 5.76185
#
# Compressibility (1/GPa) = 0.03103848
#
# Stress axis : x y z
#
# Youngs Moduli (GPa) = 45.80842 63.72584 97.07315
#
# Poissons Ratio (x) = 0.08894 0.53380
# Poissons Ratio (y) = 0.06394 0.14542
# Poissons Ratio (z) = 0.25190 0.09546
#
# Static dielectric constant tensor:
#      x y z
#    x 1.968260 0.000000 0.021210 
#    y 0.000000 1.784450 0.000000 
#    z 0.021210 0.000000 1.748620 
# 
# From -- ./inp_files/37915.got.cif
#   From: 2010.05.17/outbox.cif.g08.bks.cpg/sg14_19_cif.got.tgz:37915.got - 2010.06.03 17:49:19.
