data_PCOD9240899
_publ_section_title
;
Structure prediction by ZEFSAII (Michael W. Deem and Ramdas Pophale) SiO2 
 PCOD9240899
Probable space group: P 21/C
;
_chemical_formula_sum "Si O2"
_cell_formula_units_Z 32
_cell_length_a 6.970107
_cell_length_b 15.212498
_cell_length_c 16.247447
_cell_angle_alpha 90.000000
_cell_angle_beta 88.606135
_cell_angle_gamma 90.000000
_cell_volume 1722.251539
_symmetry_space_group_name_H-M "P 21/C"
_symmetry_group_IT_number 14
_symmetry_cell_setting 'monoclinic'
loop_
_space_group_symop_operation_xyz
x,y,z
-x,1/2+y,1/2-z
-x,-y,-z
x,1/2-y,1/2+z
loop_
_atom_site_type_symbol
_atom_site_label
_atom_site_fract_x
_atom_site_fract_y
_atom_site_fract_z
Si Si1 0.555553 0.916867 0.795853
Si Si2 0.582259 0.953920 0.610354
Si Si3 0.288362 0.093859 0.562513
Si Si4 0.875639 0.055684 0.834010
Si Si5 0.722896 0.519390 0.590722
Si Si6 0.611386 0.367023 0.463281
Si Si7 0.570867 0.257035 0.108234
Si Si8 0.118576 0.891087 0.351361
O O1 0.561130 0.907453 0.698012
O O2 0.510024 0.825442 0.840240
O O3 0.748368 0.966738 0.824535
O O4 0.387838 0.983124 0.827472
O O5 0.666090 0.897600 0.534756
O O6 0.381918 0.999827 0.586275
O O7 0.732564 0.033384 0.622585
O O8 0.409932 0.168258 0.607459
O O9 0.069058 0.102801 0.590506
O O10 0.739869 0.126511 0.880760
O O11 0.931085 0.089207 0.742988
O O12 0.060969 0.038555 0.887424
O O13 0.695982 0.443442 0.522577
O O14 0.603247 0.602181 0.557873
O O15 0.611517 0.279051 0.515952
O O16 0.765032 0.300103 0.141057
#
# Coordination Sequence:
#
# PCOD9240899 Si02
#       8
#     4   4   4   4   4   4   4   4
#     4   9  19  35  54  80 108 139 175 217 269 321
#     4   9  19  37  59  76  99 139 186 222 256 311
#     4  10  20  36  56  77 103 140 180 223 265 305
#     4  10  19  33  57  81 104 138 182 222 261 318
#     4   9  17  32  55  80 106 137 175 216 258 315
#     4   9  19  33  51  78 108 140 173 210 264 323
#     4  10  22  36  51  77 114 142 170 217 270 319
#     4  10  21  36  54  80 107 137 178 223 264 309
#
# _framework density 18.580328999999999
#
# number of rings (size 3 to 8) (size 9 to 14) (size 15 to 20)
#    0.000    2.500    0.000    2.250    0.000    5.000 
#    0.000    1.250    0.000    0.000    0.000    0.000 
#    0.000    0.000    0.000    0.000    0.000    0.000 
#
# Total GULP energy -178489.558445 kJ/mol
# GULP energy per Si atom -5577.798701 kJ/mol
# Density = 1.853804 g / cm^3
# Si number density = 18.580329 Si / 1000 Ang^3
#
#
#
# Elastic Constant Matrix: (Units=GPa)
#
#
# Indices 1 2 3 4 5 6 
#
# 1 80.4416 21.6965 32.3725 0.0000 -2.0952 0.0000
# 2 21.6965 51.8758 20.1283 0.0000 -7.9308 0.0000
# 3 32.3725 20.1283 97.8197 0.0000 -14.0087 0.0000
# 4 0.0000 0.0000 0.0000 23.2343 0.0000 -3.7914
# 5 -2.0952 -7.9308 -14.0087 0.0000 26.1693 0.0000
# 6 0.0000 0.0000 0.0000 -3.7914 0.0000 7.5483
#
#
#
# Elastic Compliance Matrix: (Units=1/GPa)
#
#
# Indices 1 2 3 4 5 6 
#
# 1 0.015559 -0.005189 -0.004471 0.000000 -0.002720 0.000000
# 2 -0.005189 0.023153 -0.002276 0.000000 0.005383 0.000000
# 3 -0.004471 -0.002276 0.013019 0.000000 0.005921 0.000000
# 4 0.000000 0.000000 0.000000 0.046883 0.000000 0.023548
# 5 -0.002720 0.005383 0.005921 0.000000 0.042796 0.000000
# 6 0.000000 0.000000 0.000000 0.023548 0.000000 0.144308
#
#
# Mechanical properties :
#
#
# Convention : Reuss Voigt Hill
#
# Bulk Modulus (GPa) = 35.89437 42.05907 38.97672
# Shear Modulus (GPa) = 15.68007 21.78636 18.73322
#
# Velocity S-wave (km/s) = 2.90816 3.42797 3.17871
# Velocity P-wave (km/s) = 5.53506 6.19301 5.87326
#
# Compressibility (1/GPa) = 0.02785952
#
# Stress axis : x y z
#
# Youngs Moduli (GPa) = 64.27025 43.19095 76.81124
#
# Poissons Ratio (x) = 0.22410 0.34343
# Poissons Ratio (y) = 0.33347 0.17484
# Poissons Ratio (z) = 0.28736 0.09831
#
# Static dielectric constant tensor:
#      x y z
#    x 1.622970 0.000000 -0.002900 
#    y 0.000000 1.630720 0.000000 
#    z -0.002900 0.000000 1.667420 
# 
# From -- ./inp_files/53482.got.cif
#   From: 2010.05.17/outbox.cif.g08.bks.cpg/sg14_27_cif.got.tgz:53482.got - 2010.06.03 17:49:19.
