data_PCOD9240393
_publ_section_title
;
Structure prediction by ZEFSAII (Michael W. Deem and Ramdas Pophale) SiO2 
 PCOD9240393
Probable space group: P 21/C
;
_chemical_formula_sum "Si O2"
_cell_formula_units_Z 26
_cell_length_a 12.117815
_cell_length_b 16.436801
_cell_length_c 9.097027
_cell_angle_alpha 90.000000
_cell_angle_beta 143.352855
_cell_angle_gamma 90.000000
_cell_volume 1081.513520
_symmetry_space_group_name_H-M "P 21/C"
_symmetry_group_IT_number 14
_symmetry_cell_setting 'monoclinic'
loop_
_space_group_symop_operation_xyz
x,y,z
-x,1/2+y,1/2-z
-x,-y,-z
x,1/2-y,1/2+z
loop_
_atom_site_type_symbol
_atom_site_label
_atom_site_fract_x
_atom_site_fract_y
_atom_site_fract_z
Si Si1 0.017677 0.833367 0.336080
Si Si2 0.449154 0.611089 0.134831
Si Si3 0.500000 0.500000 0.000000
Si Si4 0.821816 0.990243 0.577170
Si Si5 0.181109 0.744302 0.277982
Si Si6 0.787396 0.072656 0.030339
Si Si7 0.299697 0.078353 0.852541
O O1 0.838611 0.852192 0.239843
O O2 0.006457 0.788920 0.168506
O O3 0.145131 0.775285 0.571028
O O4 0.111015 0.921347 0.409403
O O5 0.507437 0.602990 0.366465
O O6 0.611941 0.582690 0.203790
O O7 0.334517 0.523423 0.975810
O O8 0.345067 0.691799 0.983064
O O9 0.374740 0.564773 0.758520
O O10 0.722276 0.938989 0.342674
O O11 0.008614 0.944671 0.821672
O O12 0.211873 0.658608 0.388474
O O13 0.760165 0.005011 0.129651
#
# Coordination Sequence:
#
# PCOD9240393 Si02
#       7
#     4   4   2   4   4   4   4
#     4  10  20  35  62  85 120 153 206 244 305 355
#     4  10  23  35  59  88 126 148 202 246 310 351
#     4  10  22  40  54  92 126 164 188 260 300 372
#     4  10  18  37  64  89 101 163 212 244 277 375
#     4  11  20  38  57  91 117 164 193 256 306 362
#     4  10  19  36  65  82 120 155 205 241 308 351
#     4  10  18  39  60  87 109 157 206 246 275 368
#
# _framework density 24.040382999999999
#
# number of rings (size 3 to 8) (size 9 to 14) (size 15 to 20)
#    0.000    1.846    3.077    2.308    0.000    0.615 
#    0.000   15.385    0.000    0.000    0.000    0.000 
#    0.000    0.000    0.000    0.000    0.000    0.000 
#
# Total GULP energy -144886.270856 kJ/mol
# GULP energy per Si atom -5572.548879 kJ/mol
# Density = 2.398567 g / cm^3
# Si number density = 24.040383 Si / 1000 Ang^3
#
#
#
# Elastic Constant Matrix: (Units=GPa)
#
#
# Indices 1 2 3 4 5 6 
#
# 1 73.0048 19.8094 15.2613 0.0000 -1.4443 0.0000
# 2 19.8094 102.8563 19.4357 0.0000 9.3796 0.0000
# 3 15.2613 19.4357 65.0143 0.0000 0.3120 0.0000
# 4 0.0000 0.0000 0.0000 38.5605 0.0000 3.6790
# 5 -1.4443 9.3796 0.3120 0.0000 33.4060 0.0000
# 6 0.0000 0.0000 0.0000 3.6790 0.0000 35.6040
#
#
#
# Elastic Compliance Matrix: (Units=1/GPa)
#
#
# Indices 1 2 3 4 5 6 
#
# 1 0.014980 -0.002485 -0.002780 0.000000 0.001371 0.000000
# 2 -0.002485 0.010998 -0.002689 0.000000 -0.003170 0.000000
# 3 -0.002780 -0.002689 0.016836 0.000000 0.000478 0.000000
# 4 0.000000 0.000000 0.000000 0.026191 0.000000 -0.002706
# 5 0.001371 -0.003170 0.000478 0.000000 0.030880 0.000000
# 6 0.000000 0.000000 0.000000 -0.002706 0.000000 0.028366
#
#
# Mechanical properties :
#
#
# Convention : Reuss Voigt Hill
#
# Bulk Modulus (GPa) = 37.16747 38.87647 38.02197
# Shear Modulus (GPa) = 32.65229 33.93871 33.29550
#
# Velocity S-wave (km/s) = 3.68941 3.76139 3.72557
# Velocity P-wave (km/s) = 5.80026 5.92203 5.86146
#
# Compressibility (1/GPa) = 0.02690525
#
# Stress axis : x y z
#
# Youngs Moduli (GPa) = 66.75437 90.92451 59.39816
#
# Poissons Ratio (x) = 0.22593 0.16514
# Poissons Ratio (y) = 0.16587 0.15974
# Poissons Ratio (z) = 0.18559 0.24453
#
# Static dielectric constant tensor:
#      x y z
#    x 2.122620 0.000000 0.033440 
#    y 0.000000 1.903530 0.000000 
#    z 0.033440 0.000000 1.979400 
# 
# From -- ./inp_files/16362.got.cif
#   From: 2010.05.17/outbox.cif.g08.bks.cpg/sg14_9_cif.got.tgz:16362.got - 2010.06.03 17:49:19.
