data_PCOD9240813
_publ_section_title
;
Structure prediction by ZEFSAII (Michael W. Deem and Ramdas Pophale) SiO2 
 PCOD9240813
Probable space group: P 21/C
;
_chemical_formula_sum "Si O2"
_cell_formula_units_Z 32
_cell_length_a 27.000149
_cell_length_b 5.496045
_cell_length_c 27.579564
_cell_angle_alpha 90.000000
_cell_angle_beta 154.311456
_cell_angle_gamma 90.000000
_cell_volume 1774.074321
_symmetry_space_group_name_H-M "P 21/C"
_symmetry_group_IT_number 14
_symmetry_cell_setting 'monoclinic'
loop_
_space_group_symop_operation_xyz
x,y,z
-x,1/2+y,1/2-z
-x,-y,-z
x,1/2-y,1/2+z
loop_
_atom_site_type_symbol
_atom_site_label
_atom_site_fract_x
_atom_site_fract_y
_atom_site_fract_z
Si Si1 0.834089 0.672671 0.145941
Si Si2 0.022374 0.181880 0.820213
Si Si3 0.947107 0.556899 0.828892
Si Si4 0.866261 0.953086 0.895027
Si Si5 0.141488 0.597666 0.510174
Si Si6 0.374392 0.235219 0.603690
Si Si7 0.875270 0.047270 0.365695
Si Si8 0.360950 0.737743 0.652494
O O1 0.914767 0.791103 0.175158
O O2 0.856266 0.790746 0.217662
O O3 0.891658 0.405900 0.198837
O O4 0.707297 0.702325 0.014490
O O5 0.017176 0.415411 0.849600
O O6 0.092483 0.996712 0.915732
O O7 0.891749 0.402761 0.822972
O O8 0.040876 0.723019 0.937764
O O9 0.851143 0.908777 0.939187
O O10 0.815963 0.218320 0.837151
O O11 0.820537 0.718894 0.825992
O O12 0.000000 0.000000 0.000000
O O13 0.262805 0.714715 0.605900
O O14 0.347621 0.996203 0.613072
O O15 0.509790 0.230453 0.713506
O O16 0.350398 0.494615 0.609162
O O17 0.000000 0.000000 0.500000
#
# Coordination Sequence:
#
# PCOD9240813 Si02
#       8
#     4   4   4   4   4   4   4   4
#     4  11  22  32  49  75 110 148 173 218 256 328
#     4  11  21  32  47  77 110 142 178 209 264 322
#     4  11  22  32  50  77 111 148 174 215 266 335
#     4  10  19  33  51  75 105 139 166 227 266 322
#     4  11  21  32  56  79 108 139 185 217 275 317
#     4  10  22  40  54  74 111 142 185 219 264 302
#     4  10  19  34  49  71 108 139 173 212 272 312
#     4  10  22  37  58  78 100 147 182 227 260 309
#
# _framework density 18.037576000000001
#
# number of rings (size 3 to 8) (size 9 to 14) (size 15 to 20)
#    0.000    1.500    5.000    2.250    5.250    0.000 
#    0.000    0.000    0.000    0.000    0.000    1.750 
#    0.000    0.000    0.000    0.000    0.000    0.000 
#
# Total GULP energy -178234.839412 kJ/mol
# GULP energy per Si atom -5569.838732 kJ/mol
# Density = 1.799652 g / cm^3
# Si number density = 18.037576 Si / 1000 Ang^3
#
#
#
# Elastic Constant Matrix: (Units=GPa)
#
#
# Indices 1 2 3 4 5 6 
#
# 1 60.1402 4.9365 24.6393 0.0000 -20.9920 0.0000
# 2 4.9365 83.3152 4.3311 0.0000 -4.6234 0.0000
# 3 24.6393 4.3311 72.4023 0.0000 1.6224 0.0000
# 4 0.0000 0.0000 0.0000 3.9992 0.0000 1.6866
# 5 -20.9920 -4.6234 1.6224 0.0000 15.5158 0.0000
# 6 0.0000 0.0000 0.0000 1.6866 0.0000 7.3488
#
#
#
# Elastic Compliance Matrix: (Units=1/GPa)
#
#
# Indices 1 2 3 4 5 6 
#
# 1 0.046186 0.001758 -0.017275 0.000000 0.064817 0.000000
# 2 0.001758 0.012319 -0.001474 0.000000 0.006204 0.000000
# 3 -0.017275 -0.001474 0.020360 0.000000 -0.025941 0.000000
# 4 0.000000 0.000000 0.000000 0.276850 0.000000 -0.063539
# 5 0.064817 0.006204 -0.025941 0.000000 0.156706 0.000000
# 6 0.000000 0.000000 0.000000 -0.063539 0.000000 0.150660
#
#
# Mechanical properties :
#
#
# Convention : Reuss Voigt Hill
#
# Bulk Modulus (GPa) = 22.28015 31.51906 26.89960
# Shear Modulus (GPa) = 7.02223 17.50279 12.26251
#
# Velocity S-wave (km/s) = 1.97524 3.11843 2.61019
# Velocity P-wave (km/s) = 4.19297 5.52070 4.90200
#
# Compressibility (1/GPa) = 0.04488300
#
# Stress axis : x y z
#
# Youngs Moduli (GPa) = 21.65173 81.17307 49.11560
#
# Poissons Ratio (x) = -0.14274 0.84848
# Poissons Ratio (y) = -0.03807 0.07242
# Poissons Ratio (z) = 0.37404 0.11968
#
# Static dielectric constant tensor:
#      x y z
#    x 1.609110 0.000000 -0.014790 
#    y 0.000000 1.675390 0.000000 
#    z -0.014790 0.000000 1.595700 
# 
# From -- ./inp_files/74804.got.cif
#   From: 2010.05.17/outbox.cif.g08.bks.cpg/sg14_38_cif.got.tgz:74804.got - 2010.06.03 17:49:19.
