data_PCOD9240936
_publ_section_title
;
Structure prediction by ZEFSAII (Michael W. Deem and Ramdas Pophale) SiO2 
 PCOD9240936
Probable space group: P 21/C
;
_chemical_formula_sum "Si O2"
_cell_formula_units_Z 28
_cell_length_a 26.240495
_cell_length_b 5.054598
_cell_length_c 14.751044
_cell_angle_alpha 90.000000
_cell_angle_beta 38.159965
_cell_angle_gamma 90.000000
_cell_volume 1208.845710
_symmetry_space_group_name_H-M "P 21/C"
_symmetry_group_IT_number 14
_symmetry_cell_setting 'monoclinic'
loop_
_space_group_symop_operation_xyz
x,y,z
-x,1/2+y,1/2-z
-x,-y,-z
x,1/2-y,1/2+z
loop_
_atom_site_type_symbol
_atom_site_label
_atom_site_fract_x
_atom_site_fract_y
_atom_site_fract_z
Si Si1 0.991960 0.615203 0.196798
Si Si2 0.160969 0.758090 0.913314
Si Si3 0.733850 0.762853 0.775311
Si Si4 0.180178 0.897810 0.088615
Si Si5 0.550574 0.043938 0.204209
Si Si6 0.658106 0.771087 0.192286
Si Si7 0.305414 0.899779 0.510735
O O1 0.903875 0.552488 0.275316
O O2 0.982930 0.851089 0.282691
O O3 0.065691 0.698662 0.026853
O O4 0.223564 0.546826 0.784657
O O5 0.193101 0.051685 0.849371
O O6 0.166150 0.733757 0.015848
O O7 0.667922 0.753070 0.785680
O O8 0.697828 0.644628 0.917513
O O9 0.214237 0.708424 0.118713
O O10 0.256994 0.089182 0.959649
O O11 0.486466 0.287078 0.293789
O O12 0.582316 0.936086 0.257033
O O13 0.630621 0.178594 0.045742
O O14 0.659795 0.495840 0.135457
#
# Coordination Sequence:
#
# PCOD9240936 Si02
#       7
#     4   4   4   4   4   4   4
#     4  10  19  33  59  88 121 168 217 259 310 362
#     4  10  20  38  57  90 126 165 210 264 303 354
#     4  11  24  39  63  93 127 163 214 252 301 370
#     4   9  20  35  62  90 119 168 217 252 308 367
#     4  11  23  42  70  93 122 160 197 249 310 376
#     4  10  21  42  66  91 123 168 202 252 308 366
#     4  11  23  41  67  93 126 164 205 254 311 366
#
# _framework density 23.162590999999999
#
# number of rings (size 3 to 8) (size 9 to 14) (size 15 to 20)
#    0.000    1.714    2.857    2.571    6.000    0.000 
#    0.000    2.857    0.000    0.000    0.000    0.000 
#    0.000    0.000    0.000    0.000    0.000    0.000 
#
# Total GULP energy -156511.570915 kJ/mol
# GULP energy per Si atom -5589.698961 kJ/mol
# Density = 2.310987 g / cm^3
# Si number density = 23.162591 Si / 1000 Ang^3
#
#
#
# Elastic Constant Matrix: (Units=GPa)
#
#
# Indices 1 2 3 4 5 6 
#
# 1 95.7568 34.4935 28.0555 0.0000 -14.6593 0.0000
# 2 34.4935 103.4809 8.5468 0.0000 -9.5610 0.0000
# 3 28.0555 8.5468 45.2023 0.0000 -13.1783 0.0000
# 4 0.0000 0.0000 0.0000 32.7316 0.0000 -1.5149
# 5 -14.6593 -9.5610 -13.1783 0.0000 39.7462 0.0000
# 6 0.0000 0.0000 0.0000 -1.5149 0.0000 27.0393
#
#
#
# Elastic Compliance Matrix: (Units=1/GPa)
#
#
# Indices 1 2 3 4 5 6 
#
# 1 0.014405 -0.004002 -0.007656 0.000000 0.001812 0.000000
# 2 -0.004002 0.011065 0.000816 0.000000 0.001456 0.000000
# 3 -0.007656 0.000816 0.028731 0.000000 0.006899 0.000000
# 4 0.000000 0.000000 0.000000 0.030631 0.000000 0.001716
# 5 0.001812 0.001456 0.006899 0.000000 0.028466 0.000000
# 6 0.000000 0.000000 0.000000 0.001716 0.000000 0.037079
#
#
# Mechanical properties :
#
#
# Convention : Reuss Voigt Hill
#
# Bulk Modulus (GPa) = 30.75183 42.95907 36.85545
# Shear Modulus (GPa) = 27.33740 31.45971 29.39856
#
# Velocity S-wave (km/s) = 3.43919 3.68939 3.56648
# Velocity P-wave (km/s) = 5.39222 6.06101 5.73637
#
# Compressibility (1/GPa) = 0.03251839
#
# Stress axis : x y z
#
# Youngs Moduli (GPa) = 69.41962 90.37725 34.80510
#
# Poissons Ratio (x) = 0.36169 0.26646
# Poissons Ratio (y) = 0.27782 -0.02841
# Poissons Ratio (z) = 0.53146 -0.07378
#
# Static dielectric constant tensor:
#      x y z
#    x 1.891510 0.000000 -0.013120 
#    y 0.000000 1.879800 0.000000 
#    z -0.013120 0.000000 1.933090 
# 
# From -- ./inp_files/51715.got.cif
#   From: 2010.05.17/outbox.cif.g08.bks.cpg/sg14_26_cif.got.tgz:51715.got - 2010.06.03 17:49:19.
