data_PCOD9240948
_publ_section_title
;
Structure prediction by ZEFSAII (Michael W. Deem and Ramdas Pophale) SiO2 
 PCOD9240948
Probable space group: P 21/C
;
_chemical_formula_sum "Si O2"
_cell_formula_units_Z 32
_cell_length_a 14.400841
_cell_length_b 10.057986
_cell_length_c 22.558363
_cell_angle_alpha 90.000000
_cell_angle_beta 29.330031
_cell_angle_gamma 90.000000
_cell_volume 1600.516811
_symmetry_space_group_name_H-M "P 21/C"
_symmetry_group_IT_number 14
_symmetry_cell_setting 'monoclinic'
loop_
_space_group_symop_operation_xyz
x,y,z
-x,1/2+y,1/2-z
-x,-y,-z
x,1/2-y,1/2+z
loop_
_atom_site_type_symbol
_atom_site_label
_atom_site_fract_x
_atom_site_fract_y
_atom_site_fract_z
Si Si1 0.845303 0.679780 0.086470
Si Si2 0.945356 0.086742 0.089105
Si Si3 0.431672 0.746371 0.186236
Si Si4 0.062563 0.134560 0.333009
Si Si5 0.562612 0.289579 0.180465
Si Si6 0.824651 0.111327 0.962136
Si Si7 0.534953 0.991536 0.911051
Si Si8 0.257112 0.038453 0.468859
O O1 0.950893 0.650009 0.088057
O O2 0.652075 0.750723 0.212298
O O3 0.786927 0.561625 0.076248
O O4 0.959932 0.773409 0.978815
O O5 0.731056 0.132025 0.222820
O O6 0.000000 0.000000 0.000000
O O7 0.045196 0.008393 0.086960
O O8 0.425577 0.811222 0.255536
O O9 0.418847 0.866308 0.146428
O O10 0.629215 0.665491 0.071374
O O11 0.963100 0.268474 0.363988
O O12 0.280586 0.102670 0.199395
O O13 0.930498 0.007282 0.392389
O O14 0.704713 0.170427 0.084544
O O15 0.612652 0.408575 0.108656
O O16 0.657929 0.064954 0.011208
O O17 0.500000 0.000000 0.000000
#
# Coordination Sequence:
#
# PCOD9240948 Si02
#       8
#     4   4   4   4   4   4   4   4
#     4  11  19  30  57  90 139 173 203 256 339 408
#     4  12  20  35  62 108 143 169 210 270 344 419
#     4  11  23  38  65  97 140 181 215 276 344 401
#     4  11  22  40  67  90 126 174 221 277 336 394
#     4  10  19  33  60  97 140 171 200 270 344 414
#     4  11  23  41  66  99 135 176 221 274 345 401
#     4  12  28  51  66  89 133 185 235 281 326 396
#     4  10  21  34  58  98 130 167 215 259 332 425
#
# _framework density 19.993542999999999
#
# number of rings (size 3 to 8) (size 9 to 14) (size 15 to 20)
#    0.000    1.000    3.750    4.875    3.500    0.000 
#    4.500    0.000    0.000    3.750    0.000    0.000 
#    0.000    0.000    0.000    0.000    0.000    0.000 
#
# Total GULP energy -178500.383454 kJ/mol
# GULP energy per Si atom -5578.136983 kJ/mol
# Density = 1.994804 g / cm^3
# Si number density = 19.993543 Si / 1000 Ang^3
#
#
#
# Elastic Constant Matrix: (Units=GPa)
#
#
# Indices 1 2 3 4 5 6 
#
# 1 85.5794 41.7703 63.5761 0.0000 -10.5071 0.0000
# 2 41.7703 67.6707 40.0025 0.0000 -9.5402 0.0000
# 3 63.5761 40.0025 66.3444 0.0000 -22.2215 0.0000
# 4 0.0000 0.0000 0.0000 11.5641 0.0000 3.6723
# 5 -10.5071 -9.5402 -22.2215 0.0000 33.6098 0.0000
# 6 0.0000 0.0000 0.0000 3.6723 0.0000 4.1313
#
#
#
# Elastic Compliance Matrix: (Units=1/GPa)
#
#
# Indices 1 2 3 4 5 6 
#
# 1 0.049678 -0.002134 -0.053072 0.000000 -0.020165 0.000000
# 2 -0.002134 0.023357 -0.012897 0.000000 -0.002564 0.000000
# 3 -0.053072 -0.012897 0.085959 0.000000 0.036581 0.000000
# 4 0.000000 0.000000 0.000000 0.120486 0.000000 -0.107102
# 5 -0.020165 -0.002564 0.036581 0.000000 0.046907 0.000000
# 6 0.000000 0.000000 0.000000 -0.107102 0.000000 0.337261
#
#
# Mechanical properties :
#
#
# Convention : Reuss Voigt Hill
#
# Bulk Modulus (GPa) = 43.88373 56.69915 50.29144
# Shear Modulus (GPa) = 6.19232 14.81073 10.50153
#
# Velocity S-wave (km/s) = 1.76178 2.72467 2.29431
# Velocity P-wave (km/s) = 5.11225 6.19021 5.67688
#
# Compressibility (1/GPa) = 0.02278749
#
# Stress axis : x y z
#
# Youngs Moduli (GPa) = 20.12971 42.81358 11.63339
#
# Poissons Ratio (x) = 0.09136 0.61741
# Poissons Ratio (y) = 0.04296 0.15004
# Poissons Ratio (z) = 1.06833 0.55217
#
# Static dielectric constant tensor:
#      x y z
#    x 1.722150 0.000000 -0.064510 
#    y 0.000000 1.806980 0.000000 
#    z -0.064510 0.000000 1.741590 
# 
# From -- ./inp_files/73824.got.cif
#   From: 2010.05.17/outbox.cif.g08.bks.cpg/sg14_37_cif.got.tgz:73824.got - 2010.06.03 17:49:19.
