data_PCOD9240014
_publ_section_title
;
Structure prediction by ZEFSAII (Michael W. Deem and Ramdas Pophale) SiO2 
 PCOD9240014
Probable space group: P 21/C
;
_chemical_formula_sum "Si O2"
_cell_formula_units_Z 32
_cell_length_a 5.118562
_cell_length_b 15.220852
_cell_length_c 21.906452
_cell_angle_alpha 90.000000
_cell_angle_beta 109.280223
_cell_angle_gamma 90.000000
_cell_volume 1610.986326
_symmetry_space_group_name_H-M "P 21/C"
_symmetry_group_IT_number 14
_symmetry_cell_setting 'monoclinic'
loop_
_space_group_symop_operation_xyz
x,y,z
-x,1/2+y,1/2-z
-x,-y,-z
x,1/2-y,1/2+z
loop_
_atom_site_type_symbol
_atom_site_label
_atom_site_fract_x
_atom_site_fract_y
_atom_site_fract_z
Si Si1 0.024994 0.924750 0.196814
Si Si2 0.477149 0.959383 0.809777
Si Si3 0.341446 0.563825 0.834382
Si Si4 0.828643 0.056384 0.326691
Si Si5 0.042244 0.867945 0.064202
Si Si6 0.636130 0.543780 0.451137
Si Si7 0.543254 0.397191 0.020968
Si Si8 0.940761 0.326301 0.951757
O O1 0.195208 0.885139 0.266885
O O2 0.971633 0.871818 0.130552
O O3 0.224830 0.006845 0.191563
O O4 0.729189 0.957314 0.198011
O O5 0.325522 0.905373 0.744962
O O6 0.484961 0.921609 0.878937
O O7 0.629441 0.522765 0.833740
O O8 0.391330 0.610617 0.902324
O O9 0.125774 0.484014 0.831862
O O10 0.853603 0.122638 0.384094
O O11 0.165569 0.773307 0.061598
O O12 0.204834 0.958578 0.063831
O O13 0.804109 0.878274 0.995212
O O14 0.500000 0.500000 0.500000
O O15 0.500000 0.500000 0.000000
O O16 0.798992 0.367642 0.999795
O O17 0.270073 0.341586 0.983155
#
# Coordination Sequence:
#
# PCOD9240014 Si02
#       8
#     4   4   4   4   4   4   4   4
#     4   9  18  34  55  82 108 144 189 239 279 345
#     4   9  18  31  57  84 106 141 193 232 285 341
#     4  10  19  34  59  81 113 148 201 227 281 349
#     4  10  18  34  54  85 111 149 190 240 280 349
#     4  10  23  37  58  88 118 154 199 244 300 343
#     4  10  19  38  63  83 113 157 198 242 290 358
#     4  12  22  38  59  88 118 160 196 238 293 353
#     4  12  24  36  59  87 123 153 195 250 293 345
#
# _framework density 19.863607999999999
#
# number of rings (size 3 to 8) (size 9 to 14) (size 15 to 20)
#    0.000    1.750    3.750    1.125    1.750    0.000 
#    0.000    1.250    0.000    0.000    0.000    0.000 
#    0.000    0.000    0.000    0.000    0.000    0.000 
#
# Total GULP energy -178178.102666 kJ/mol
# GULP energy per Si atom -5568.065708 kJ/mol
# Density = 1.981840 g / cm^3
# Si number density = 19.863608 Si / 1000 Ang^3
#
#
#
# Elastic Constant Matrix: (Units=GPa)
#
#
# Indices 1 2 3 4 5 6 
#
# 1 60.1886 -8.0505 -1.9054 0.0000 -11.0170 0.0000
# 2 -8.0505 33.4672 6.6784 0.0000 -3.4969 0.0000
# 3 -1.9054 6.6784 201.9571 0.0000 -3.1939 0.0000
# 4 0.0000 0.0000 0.0000 9.5671 0.0000 -0.8138
# 5 -11.0170 -3.4969 -3.1939 0.0000 33.9230 0.0000
# 6 0.0000 0.0000 0.0000 -0.8138 0.0000 1.4993
#
#
#
# Elastic Compliance Matrix: (Units=1/GPa)
#
#
# Indices 1 2 3 4 5 6 
#
# 1 0.018500 0.005112 0.000109 0.000000 0.006545 0.000000
# 2 0.005112 0.031802 -0.000927 0.000000 0.004851 0.000000
# 3 0.000109 -0.000927 0.004990 0.000000 0.000410 0.000000
# 4 0.000000 0.000000 0.000000 0.109585 0.000000 0.059484
# 5 0.006545 0.004851 0.000410 0.000000 0.032143 0.000000
# 6 0.000000 0.000000 0.000000 0.059484 0.000000 0.699272
#
#
# Mechanical properties :
#
#
# Convention : Reuss Voigt Hill
#
# Bulk Modulus (GPa) = 15.65431 32.11753 23.88592
# Shear Modulus (GPa) = 5.50058 28.92390 17.21224
#
# Velocity S-wave (km/s) = 1.66589 3.82006 2.94687
# Velocity P-wave (km/s) = 3.40562 5.97171 4.86105
#
# Compressibility (1/GPa) = 0.06388019
#
# Stress axis : x y z
#
# Youngs Moduli (GPa) = 54.05472 31.44502 200.41291
#
# Poissons Ratio (x) = -0.16076 -0.02185
# Poissons Ratio (y) = -0.27634 0.18572
# Poissons Ratio (z) = -0.00589 0.02914
#
# Static dielectric constant tensor:
#      x y z
#    x 1.734770 0.000000 0.050000 
#    y 0.000000 1.677140 0.000000 
#    z 0.050000 0.000000 1.813390 
# 
# From -- ./inp_files/63761.got.cif
#   From: 2010.05.17/outbox.cif.g08.bks.cpg/sg14_32_cif.got.tgz:63761.got - 2010.06.03 17:49:19.
