data_PCOD9240930
_publ_section_title
;
Structure prediction by ZEFSAII (Michael W. Deem and Ramdas Pophale) SiO2 
 PCOD9240930
Probable space group: P 21/C
;
_chemical_formula_sum "Si O2"
_cell_formula_units_Z 28
_cell_length_a 10.741827
_cell_length_b 13.900245
_cell_length_c 11.354956
_cell_angle_alpha 90.000000
_cell_angle_beta 72.515609
_cell_angle_gamma 90.000000
_cell_volume 1617.122250
_symmetry_space_group_name_H-M "P 21/C"
_symmetry_group_IT_number 14
_symmetry_cell_setting 'monoclinic'
loop_
_space_group_symop_operation_xyz
x,y,z
-x,1/2+y,1/2-z
-x,-y,-z
x,1/2-y,1/2+z
loop_
_atom_site_type_symbol
_atom_site_label
_atom_site_fract_x
_atom_site_fract_y
_atom_site_fract_z
Si Si1 0.297031 0.143537 0.583785
Si Si2 0.344451 0.004675 0.023655
Si Si3 0.852577 0.975690 0.572422
Si Si4 0.406105 0.499321 0.247875
Si Si5 0.740900 0.828519 0.787661
Si Si6 0.505291 0.701978 0.169931
Si Si7 0.664423 0.393568 0.255932
O O1 0.219185 0.074025 0.517866
O O2 0.358496 0.076295 0.666075
O O3 0.214376 0.226825 0.672134
O O4 0.408859 0.197569 0.474092
O O5 0.295677 0.103594 0.092745
O O6 0.292383 0.920721 0.123426
O O7 0.322044 0.999265 0.891422
O O8 0.500000 0.000000 0.000000
O O9 0.833789 0.894294 0.679777
O O10 0.780954 0.073706 0.637088
O O11 0.000000 0.000000 0.500000
O O12 0.419544 0.605751 0.194250
O O13 0.551150 0.467231 0.245777
O O14 0.611837 0.805585 0.745285
O O15 0.410316 0.792232 0.217736
#
# Coordination Sequence:
#
# PCOD9240930 Si02
#       7
#     4   4   4   4   4   4   4
#     4  11  21  34  58  88 114 145 185 246 285 345
#     4   9  16  30  48  79 118 143 174 218 286 352
#     4  10  23  43  59  77 114 161 197 230 274 338
#     4  11  19  31  52  90 121 140 179 239 304 332
#     4  10  19  33  59  84 106 151 190 229 284 343
#     4  11  20  30  53  91 119 145 181 233 302 345
#     4  10  19  34  55  81 115 150 186 232 288 339
#
# _framework density 17.314708
#
# number of rings (size 3 to 8) (size 9 to 14) (size 15 to 20)
#    0.000    1.714    7.143    2.143    2.000    0.000 
#    0.000    1.429    3.143    3.429    0.000    0.000 
#    0.000    0.000    0.000    0.000    0.000    0.000 
#
# Total GULP energy -155922.197450 kJ/mol
# GULP energy per Si atom -5568.649909 kJ/mol
# Density = 1.727530 g / cm^3
# Si number density = 17.314708 Si / 1000 Ang^3
#
#
#
# Elastic Constant Matrix: (Units=GPa)
#
#
# Indices 1 2 3 4 5 6 
#
# 1 39.0099 26.8785 45.7694 0.0000 -14.4772 0.0000
# 2 26.8785 117.8267 44.1990 0.0000 -15.8458 0.0000
# 3 45.7694 44.1990 97.5691 0.0000 -7.1371 0.0000
# 4 0.0000 0.0000 0.0000 24.7366 0.0000 -0.0099
# 5 -14.4772 -15.8458 -7.1371 0.0000 20.4990 0.0000
# 6 0.0000 0.0000 0.0000 -0.0099 0.0000 15.3570
#
#
#
# Elastic Compliance Matrix: (Units=1/GPa)
#
#
# Indices 1 2 3 4 5 6 
#
# 1 0.088255 0.000866 -0.038156 0.000000 0.049714 0.000000
# 2 0.000866 0.011139 -0.004903 0.000000 0.007515 0.000000
# 3 -0.038156 -0.004903 0.028855 0.000000 -0.020690 0.000000
# 4 0.000000 0.000000 0.000000 0.040426 0.000000 0.000026
# 5 0.049714 0.007515 -0.020690 0.000000 0.082498 0.000000
# 6 0.000000 0.000000 0.000000 0.000026 0.000000 0.065117
#
#
# Mechanical properties :
#
#
# Convention : Reuss Voigt Hill
#
# Bulk Modulus (GPa) = 22.79745 54.23325 38.51535
# Shear Modulus (GPa) = 12.03958 21.28911 16.66434
#
# Velocity S-wave (km/s) = 2.63979 3.51028 3.10569
# Velocity P-wave (km/s) = 4.74198 6.91517 5.92899
#
# Compressibility (1/GPa) = 0.04386456
#
# Stress axis : x y z
#
# Youngs Moduli (GPa) = 11.33084 89.77281 34.65563
#
# Poissons Ratio (x) = -0.07775 1.32231
# Poissons Ratio (y) = -0.00981 0.16990
# Poissons Ratio (z) = 0.43234 0.44012
#
# Static dielectric constant tensor:
#      x y z
#    x 1.552070 0.000000 0.017600 
#    y 0.000000 1.676240 0.000000 
#    z 0.017600 0.000000 1.648660 
# 
# From -- ./inp_files/29540.got.cif
#   From: 2010.05.17/outbox.cif.g08.bks.cpg/sg14_15_cif.got.tgz:29540.got - 2010.06.03 17:49:19.
