data_PCOD9240330
_publ_section_title
;
Structure prediction by ZEFSAII (Michael W. Deem and Ramdas Pophale) SiO2 
 PCOD9240330
Probable space group: P 21/C
;
_chemical_formula_sum "Si O2"
_cell_formula_units_Z 28
_cell_length_a 9.534857
_cell_length_b 12.644066
_cell_length_c 21.720092
_cell_angle_alpha 90.000000
_cell_angle_beta 34.999717
_cell_angle_gamma 90.000000
_cell_volume 1501.933958
_symmetry_space_group_name_H-M "P 21/C"
_symmetry_group_IT_number 14
_symmetry_cell_setting 'monoclinic'
loop_
_space_group_symop_operation_xyz
x,y,z
-x,1/2+y,1/2-z
-x,-y,-z
x,1/2-y,1/2+z
loop_
_atom_site_type_symbol
_atom_site_label
_atom_site_fract_x
_atom_site_fract_y
_atom_site_fract_z
Si Si1 0.235789 0.040618 0.825657
Si Si2 0.268457 0.081327 0.240339
Si Si3 0.824187 0.613992 0.518106
Si Si4 0.251524 0.527914 0.874958
Si Si5 0.399507 0.580653 0.587264
Si Si6 0.059945 0.724878 0.627058
Si Si7 0.267359 0.761742 0.917186
O O1 0.471792 0.983147 0.711407
O O2 0.151513 0.143605 0.818844
O O3 0.295356 0.070369 0.875587
O O4 0.989312 0.972845 0.923470
O O5 0.516445 0.151128 0.162819
O O6 0.062123 0.169490 0.303631
O O7 0.204438 0.014249 0.323677
O O8 0.289956 0.999155 0.177194
O O9 0.614054 0.643241 0.546143
O O10 0.022897 0.695124 0.472118
O O11 0.307414 0.651021 0.868419
O O12 0.000000 0.500000 0.000000
O O13 0.500000 0.500000 0.500000
O O14 0.221432 0.662448 0.618170
O O15 0.207869 0.751579 0.511095
#
# Coordination Sequence:
#
# PCOD9240330 Si02
#       7
#     4   4   4   4   4   4   4
#     4  10  18  36  65  94 119 163 220 274 322 381
#     4  12  23  42  65  95 139 173 219 276 330 394
#     4  10  19  37  64  96 122 155 228 282 310 379
#     4  12  23  38  63 100 133 166 214 279 342 389
#     4  12  22  40  66  97 129 174 226 266 320 402
#     4  11  23  40  67  94 128 178 217 265 332 393
#     4  11  22  39  69  95 124 169 222 277 333 379
#
# _framework density 18.642631000000002
#
# number of rings (size 3 to 8) (size 9 to 14) (size 15 to 20)
#    0.000    0.857    8.571    0.857    0.000    0.000 
#    2.571    1.429    0.000    2.571    0.000    0.000 
#    0.000    0.000    0.000    0.000    0.000    0.000 
#
# Total GULP energy -156003.917581 kJ/mol
# GULP energy per Si atom -5571.568485 kJ/mol
# Density = 1.860020 g / cm^3
# Si number density = 18.642631 Si / 1000 Ang^3
#
#
#
# Elastic Constant Matrix: (Units=GPa)
#
#
# Indices 1 2 3 4 5 6 
#
# 1 133.2963 62.7165 55.2578 0.0000 -0.3876 0.0000
# 2 62.7165 85.7226 37.1475 0.0000 3.6417 0.0000
# 3 55.2578 37.1475 118.4965 0.0000 -0.2468 0.0000
# 4 0.0000 0.0000 0.0000 31.9607 0.0000 -2.8509
# 5 -0.3876 3.6417 -0.2468 0.0000 22.8550 0.0000
# 6 0.0000 0.0000 0.0000 -2.8509 0.0000 35.8917
#
#
#
# Elastic Compliance Matrix: (Units=1/GPa)
#
#
# Indices 1 2 3 4 5 6 
#
# 1 0.012591 -0.007787 -0.003427 0.000000 0.001417 0.000000
# 2 -0.007787 0.018426 -0.002152 0.000000 -0.003091 0.000000
# 3 -0.003427 -0.002152 0.010713 0.000000 0.000400 0.000000
# 4 0.000000 0.000000 0.000000 0.031512 0.000000 0.002503
# 5 0.001417 -0.003091 0.000400 0.000000 0.044275 0.000000
# 6 0.000000 0.000000 0.000000 0.002503 0.000000 0.028060
#
#
# Mechanical properties :
#
#
# Convention : Reuss Voigt Hill
#
# Bulk Modulus (GPa) = 66.67517 71.97324 69.32420
# Shear Modulus (GPa) = 28.19960 30.30104 29.25032
#
# Velocity S-wave (km/s) = 3.89349 4.03595 3.96536
# Velocity P-wave (km/s) = 7.48698 7.77233 7.63099
#
# Compressibility (1/GPa) = 0.01499809
#
# Stress axis : x y z
#
# Youngs Moduli (GPa) = 79.42422 54.27072 93.34693
#
# Poissons Ratio (x) = 0.42258 0.31993
# Poissons Ratio (y) = 0.61844 0.20086
# Poissons Ratio (z) = 0.27221 0.11678
#
# Static dielectric constant tensor:
#      x y z
#    x 1.642470 0.000000 -0.029310 
#    y 0.000000 1.670500 0.000000 
#    z -0.029310 0.000000 1.701600 
# 
# From -- ./inp_files/55908.got.cif
#   From: 2010.05.17/outbox.cif.g08.bks.cpg/sg14_28_cif.got.tgz:55908.got - 2010.06.03 17:49:19.
