data_PCOD9240506
_publ_section_title
;
Structure prediction by ZEFSAII (Michael W. Deem and Ramdas Pophale) SiO2 
 PCOD9240506
Probable space group: P 21/C
;
_chemical_formula_sum "Si O2"
_cell_formula_units_Z 30
_cell_length_a 11.157895
_cell_length_b 10.261400
_cell_length_c 12.044333
_cell_angle_alpha 90.000000
_cell_angle_beta 110.949199
_cell_angle_gamma 90.000000
_cell_volume 1287.866944
_symmetry_space_group_name_H-M "P 21/C"
_symmetry_group_IT_number 14
_symmetry_cell_setting 'monoclinic'
loop_
_space_group_symop_operation_xyz
x,y,z
-x,1/2+y,1/2-z
-x,-y,-z
x,1/2-y,1/2+z
loop_
_atom_site_type_symbol
_atom_site_label
_atom_site_fract_x
_atom_site_fract_y
_atom_site_fract_z
Si Si1 0.805799 0.183165 0.553768
Si Si2 0.219620 0.329085 0.896501
Si Si3 0.000000 0.000000 0.000000
Si Si4 0.292553 0.454378 0.342640
Si Si5 0.359990 0.575312 0.826691
Si Si6 0.351099 0.035264 0.619234
Si Si7 0.742605 0.445999 0.447201
Si Si8 0.999477 0.505774 0.233905
O O1 0.711279 0.190329 0.629562
O O2 0.835248 0.322091 0.508757
O O3 0.930076 0.103643 0.634549
O O4 0.718653 0.098297 0.440766
O O5 0.269364 0.195261 0.866095
O O6 0.292025 0.446545 0.854446
O O7 0.070826 0.360054 0.824349
O O8 0.257366 0.355035 0.036930
O O9 0.149019 0.053934 0.035382
O O10 0.975058 0.021898 0.855707
O O11 0.370830 0.465232 0.256666
O O12 0.338250 0.523182 0.470674
O O13 0.150871 0.510123 0.267291
O O14 0.511451 0.562266 0.890303
O O15 0.331871 0.584508 0.687620
#
# Coordination Sequence:
#
# PCOD9240506 Si02
#       8
#     4   4   2   4   4   4   4   4
#     4  10  22  42  67  96 126 175 214 267 319 394
#     4  10  22  44  65  92 129 173 207 264 330 380
#     4  10  18  40  62  90 132 164 200 262 322 382
#     4  11  26  38  64 105 125 162 220 268 312 390
#     4  10  22  45  68  89 127 180 212 259 327 384
#     4  10  24  44  65  93 130 169 220 263 320 377
#     4  11  24  40  67 100 129 165 220 266 327 382
#     4   9  21  39  64  92 128 171 209 251 332 387
#
# _framework density 23.294333999999999
#
# number of rings (size 3 to 8) (size 9 to 14) (size 15 to 20)
#    0.000    2.133    2.667    1.600    7.467    4.800 
#    2.400    0.000    0.000    0.000    0.000    0.000 
#    0.000    0.000    0.000    0.000    0.000    0.000 
#
# Total GULP energy -167055.323601 kJ/mol
# GULP energy per Si atom -5568.510787 kJ/mol
# Density = 2.324131 g / cm^3
# Si number density = 23.294334 Si / 1000 Ang^3
#
#
#
# Elastic Constant Matrix: (Units=GPa)
#
#
# Indices 1 2 3 4 5 6 
#
# 1 49.2393 -28.7445 -6.6264 0.0000 -7.8987 0.0000
# 2 -28.7445 45.7370 5.1264 0.0000 4.5095 0.0000
# 3 -6.6264 5.1264 123.2568 0.0000 -13.3990 0.0000
# 4 0.0000 0.0000 0.0000 4.5069 0.0000 0.4845
# 5 -7.8987 4.5095 -13.3990 0.0000 35.0402 0.0000
# 6 0.0000 0.0000 0.0000 0.4845 0.0000 0.5981
#
#
#
# Elastic Compliance Matrix: (Units=1/GPa)
#
#
# Indices 1 2 3 4 5 6 
#
# 1 0.033134 0.020112 0.001539 0.000000 0.005469 0.000000
# 2 0.020112 0.034550 -0.000361 0.000000 -0.000051 0.000000
# 3 0.001539 -0.000361 0.008612 0.000000 0.003687 0.000000
# 4 0.000000 0.000000 0.000000 0.243052 0.000000 -0.196908
# 5 0.005469 -0.000051 0.003687 0.000000 0.031188 0.000000
# 6 0.000000 0.000000 0.000000 -0.196908 0.000000 1.831480
#
#
# Mechanical properties :
#
#
# Convention : Reuss Voigt Hill
#
# Bulk Modulus (GPa) = 8.41207 17.52713 12.96960
# Shear Modulus (GPa) = 2.29457 24.59421 13.44439
#
# Velocity S-wave (km/s) = 0.99356 3.25284 2.40501
# Velocity P-wave (km/s) = 2.22155 4.65279 3.64580
#
# Compressibility (1/GPa) = 0.11887684
#
# Stress axis : x y z
#
# Youngs Moduli (GPa) = 30.18003 28.94383 116.12134
#
# Poissons Ratio (x) = -0.58213 -0.17876
# Poissons Ratio (y) = -0.60699 0.04195
# Poissons Ratio (z) = -0.04646 0.01046
#
# Static dielectric constant tensor:
#      x y z
#    x 3.255760 0.000000 -0.159340 
#    y 0.000000 1.546150 0.000000 
#    z -0.159340 0.000000 1.906530 
# 
# From -- ./inp_files/29153.got.cif
#   From: 2010.05.17/outbox.cif.g08.bks.cpg/sg14_15_cif.got.tgz:29153.got - 2010.06.03 17:49:19.
