data_PCOD9240497
_publ_section_title
;
Structure prediction by ZEFSAII (Michael W. Deem and Ramdas Pophale) SiO2 
 PCOD9240497
Probable space group: P 21/C
;
_chemical_formula_sum "Si O2"
_cell_formula_units_Z 24
_cell_length_a 14.919453
_cell_length_b 7.390556
_cell_length_c 15.295073
_cell_angle_alpha 90.000000
_cell_angle_beta 142.872247
_cell_angle_gamma 90.000000
_cell_volume 1017.950505
_symmetry_space_group_name_H-M "P 21/C"
_symmetry_group_IT_number 14
_symmetry_cell_setting 'monoclinic'
loop_
_space_group_symop_operation_xyz
x,y,z
-x,1/2+y,1/2-z
-x,-y,-z
x,1/2-y,1/2+z
loop_
_atom_site_type_symbol
_atom_site_label
_atom_site_fract_x
_atom_site_fract_y
_atom_site_fract_z
Si Si1 0.338703 0.718801 0.226343
Si Si2 0.455406 0.386733 0.756731
Si Si3 0.006490 0.208413 0.039765
Si Si4 0.407250 0.674206 0.960251
Si Si5 0.851415 0.723284 0.025283
Si Si6 0.901986 0.507828 0.231730
O O1 0.415103 0.595038 0.213619
O O2 0.395728 0.690008 0.369732
O O3 0.393503 0.920964 0.241735
O O4 0.161171 0.722667 0.085027
O O5 0.317010 0.287703 0.605258
O O6 0.518658 0.278547 0.889862
O O7 0.083816 0.183352 0.193791
O O8 0.098037 0.309196 0.035463
O O9 0.000000 0.000000 0.000000
O O10 0.240152 0.606977 0.848883
O O11 0.500000 0.500000 0.000000
O O12 0.881771 0.564218 0.116428
O O13 0.952761 0.888421 0.139639
#
# Coordination Sequence:
#
# PCOD9240497 Si02
#       6
#     4   4   4   4   4   4
#     4  11  21  40  65  91 124 164 206 251 311 367
#     4  11  23  38  64  94 125 160 206 260 304 368
#     4  10  18  39  66  86 120 166 206 248 305 368
#     4  10  20  38  63  88 118 165 202 244 311 372
#     4  11  22  40  64  93 122 162 213 254 303 366
#     4  11  22  39  67  90 121 164 207 252 305 369
#
# _framework density 23.576785000000001
#
# number of rings (size 3 to 8) (size 9 to 14) (size 15 to 20)
#    0.000    1.333    6.667    3.000    2.333    0.000 
#    0.000    1.667    7.333    0.000    0.000    0.000 
#    0.000    0.000    0.000    0.000    0.000    0.000 
#
# Total GULP energy -134318.911310 kJ/mol
# GULP energy per Si atom -5596.621305 kJ/mol
# Density = 2.352312 g / cm^3
# Si number density = 23.576785 Si / 1000 Ang^3
#
#
#
# Elastic Constant Matrix: (Units=GPa)
#
#
# Indices 1 2 3 4 5 6 
#
# 1 103.8197 17.3763 14.4410 0.0000 0.5160 0.0000
# 2 17.3763 54.1060 22.3354 0.0000 -11.1801 0.0000
# 3 14.4410 22.3354 115.7100 0.0000 -0.1058 0.0000
# 4 0.0000 0.0000 0.0000 27.9774 0.0000 -9.7970
# 5 0.5160 -11.1801 -0.1058 0.0000 42.0103 0.0000
# 6 0.0000 0.0000 0.0000 -9.7970 0.0000 28.4225
#
#
#
# Elastic Compliance Matrix: (Units=1/GPa)
#
#
# Indices 1 2 3 4 5 6 
#
# 1 0.010269 -0.003230 -0.000659 0.000000 -0.000987 0.000000
# 2 -0.003230 0.022370 -0.003909 0.000000 0.005983 0.000000
# 3 -0.000659 -0.003909 0.009478 0.000000 -0.001008 0.000000
# 4 0.000000 0.000000 0.000000 0.040650 0.000000 0.014012
# 5 -0.000987 0.005983 -0.001008 0.000000 0.025406 0.000000
# 6 0.000000 0.000000 0.000000 0.014012 0.000000 0.040013
#
#
# Mechanical properties :
#
#
# Convention : Reuss Voigt Hill
#
# Bulk Modulus (GPa) = 37.70695 42.43790 40.07242
# Shear Modulus (GPa) = 28.96494 34.31424 31.63959
#
# Velocity S-wave (km/s) = 3.50885 3.81914 3.66728
# Velocity P-wave (km/s) = 5.69596 6.12264 5.91315
#
# Compressibility (1/GPa) = 0.02652031
#
# Stress axis : x y z
#
# Youngs Moduli (GPa) = 97.37802 44.70337 105.50460
#
# Poissons Ratio (x) = 0.14439 0.06953
# Poissons Ratio (y) = 0.31453 0.41246
# Poissons Ratio (z) = 0.06418 0.17476
#
# Static dielectric constant tensor:
#      x y z
#    x 1.875480 0.000000 -0.087160 
#    y 0.000000 1.919630 0.000000 
#    z -0.087160 0.000000 1.845930 
# 
# From -- ./inp_files/46609.got.cif
#   From: 2010.05.17/outbox.cif.g08.bks.cpg/sg14_24_cif.got.tgz:46609.got - 2010.06.03 17:49:19.
