data_PCOD9240265
_publ_section_title
;
Structure prediction by ZEFSAII (Michael W. Deem and Ramdas Pophale) SiO2 
 PCOD9240265
Probable space group: P 21/C
;
_chemical_formula_sum "Si O2"
_cell_formula_units_Z 28
_cell_length_a 7.675779
_cell_length_b 12.130717
_cell_length_c 12.800780
_cell_angle_alpha 90.000000
_cell_angle_beta 110.711418
_cell_angle_gamma 90.000000
_cell_volume 1114.885999
_symmetry_space_group_name_H-M "P 21/C"
_symmetry_group_IT_number 14
_symmetry_cell_setting 'monoclinic'
loop_
_space_group_symop_operation_xyz
x,y,z
-x,1/2+y,1/2-z
-x,-y,-z
x,1/2-y,1/2+z
loop_
_atom_site_type_symbol
_atom_site_label
_atom_site_fract_x
_atom_site_fract_y
_atom_site_fract_z
Si Si1 0.921595 0.021770 0.113399
Si Si2 0.540298 0.481802 0.886680
Si Si3 0.575598 0.373610 0.487087
Si Si4 0.580585 0.277983 0.172128
Si Si5 0.743746 0.837308 0.800472
Si Si6 0.826198 0.782187 0.137441
Si Si7 0.133280 0.624236 0.165258
O O1 0.781120 0.083743 0.005913
O O2 0.871779 0.057126 0.225000
O O3 0.122228 0.068956 0.135143
O O4 0.915736 0.891497 0.112512
O O5 0.471768 0.596690 0.821809
O O6 0.397888 0.391059 0.812832
O O7 0.748945 0.446990 0.894332
O O8 0.500000 0.500000 0.000000
O O9 0.500000 0.500000 0.500000
O O10 0.638552 0.267334 0.572109
O O11 0.391638 0.319165 0.399622
O O12 0.385725 0.212125 0.139849
O O13 0.731105 0.228908 0.283332
O O14 0.866681 0.746592 0.767053
O O15 0.926771 0.676362 0.102494
#
# Coordination Sequence:
#
# PCOD9240265 Si02
#       7
#     4   4   4   4   4   4   4
#     4   9  18  36  60  87 116 154 202 246 294 363
#     4  11  22  38  59  89 124 158 201 253 305 362
#     4   9  19  36  59  83 114 150 194 246 296 350
#     4  10  20  38  57  82 117 157 198 246 301 359
#     4  10  21  36  59  86 115 158 200 237 296 368
#     4  10  18  36  58  85 117 150 193 249 301 349
#     4   9  20  36  58  86 118 159 201 241 301 371
#
# _framework density 25.114673
#
# number of rings (size 3 to 8) (size 9 to 14) (size 15 to 20)
#    0.000    2.286    0.000    2.571    0.000    1.143 
#    0.000   19.286    0.000    0.000    0.000    0.000 
#    0.000    0.000    0.000    0.000    0.000    0.000 
#
# Total GULP energy -155881.030549 kJ/mol
# GULP energy per Si atom -5567.179662 kJ/mol
# Density = 2.505751 g / cm^3
# Si number density = 25.114673 Si / 1000 Ang^3
#
#
#
# Elastic Constant Matrix: (Units=GPa)
#
#
# Indices 1 2 3 4 5 6 
#
# 1 116.8671 30.4787 37.6025 0.0000 -11.8014 0.0000
# 2 30.4787 128.2486 26.7476 0.0000 -5.7480 0.0000
# 3 37.6025 26.7476 46.3588 0.0000 -2.7041 0.0000
# 4 0.0000 0.0000 0.0000 30.2577 0.0000 7.0655
# 5 -11.8014 -5.7480 -2.7041 0.0000 31.2620 0.0000
# 6 0.0000 0.0000 0.0000 7.0655 0.0000 45.8812
#
#
#
# Elastic Compliance Matrix: (Units=1/GPa)
#
#
# Indices 1 2 3 4 5 6 
#
# 1 0.012063 -0.000805 -0.009109 0.000000 0.003618 0.000000
# 2 -0.000805 0.008962 -0.004462 0.000000 0.000958 0.000000
# 3 -0.009109 -0.004462 0.031444 0.000000 -0.001539 0.000000
# 4 0.000000 0.000000 0.000000 0.034282 0.000000 -0.005279
# 5 0.003618 0.000958 -0.001539 0.000000 0.033397 0.000000
# 6 0.000000 0.000000 0.000000 -0.005279 0.000000 0.022608
#
#
# Mechanical properties :
#
#
# Convention : Reuss Voigt Hill
#
# Bulk Modulus (GPa) = 42.16375 53.45915 47.81145
# Shear Modulus (GPa) = 27.86848 34.58987 31.22917
#
# Velocity S-wave (km/s) = 3.33475 3.71519 3.53010
# Velocity P-wave (km/s) = 5.62604 6.30363 5.97445
#
# Compressibility (1/GPa) = 0.02371706
#
# Stress axis : x y z
#
# Youngs Moduli (GPa) = 82.89926 111.57963 31.80243
#
# Poissons Ratio (x) = 0.08980 0.28969
# Poissons Ratio (y) = 0.06672 0.14191
# Poissons Ratio (z) = 0.75513 0.49789
#
# Static dielectric constant tensor:
#      x y z
#    x 2.078690 0.000000 -0.064430 
#    y 0.000000 1.982430 0.000000 
#    z -0.064430 0.000000 2.130050 
# 
# From -- ./inp_files/40419.got.cif
#   From: 2010.05.17/outbox.cif.g08.bks.cpg/sg14_21_cif.got.tgz:40419.got - 2010.06.03 17:49:19.
