data_PCOD9240245
_publ_section_title
;
Structure prediction by ZEFSAII (Michael W. Deem and Ramdas Pophale) SiO2 
 PCOD9240245
Probable space group: P 21/C
;
_chemical_formula_sum "Si O2"
_cell_formula_units_Z 20
_cell_length_a 8.241618
_cell_length_b 5.157758
_cell_length_c 26.490883
_cell_angle_alpha 90.000000
_cell_angle_beta 124.268395
_cell_angle_gamma 90.000000
_cell_volume 930.604019
_symmetry_space_group_name_H-M "P 21/C"
_symmetry_group_IT_number 14
_symmetry_cell_setting 'monoclinic'
loop_
_space_group_symop_operation_xyz
x,y,z
-x,1/2+y,1/2-z
-x,-y,-z
x,1/2-y,1/2+z
loop_
_atom_site_type_symbol
_atom_site_label
_atom_site_fract_x
_atom_site_fract_y
_atom_site_fract_z
Si Si1 0.128045 0.252218 0.911317
Si Si2 0.175620 0.762180 0.978274
Si Si3 0.544835 0.423233 0.727319
Si Si4 0.977094 0.262402 0.276692
Si Si5 0.776051 0.466035 0.407443
O O1 0.209355 0.494434 0.956375
O O2 0.118771 0.272174 0.849745
O O3 0.901936 0.213563 0.891146
O O4 0.229234 0.991925 0.949097
O O5 0.268830 0.815621 0.048876
O O6 0.939477 0.809372 0.947057
O O7 0.452486 0.208568 0.748139
O O8 0.761920 0.328807 0.754474
O O9 0.413150 0.433318 0.654091
O O10 0.033198 0.059781 0.242709
#
# Coordination Sequence:
#
# PCOD9240245 Si02
#       5
#     4   4   4   4   4
#     4  10  18  36  55  82 113 155 191 240 285 358
#     4   9  18  31  57  91 113 142 191 255 303 331
#     4  12  23  39  63  91 120 155 205 257 292 343
#     4  12  25  41  59  86 126 168 195 238 309 368
#     4   9  20  31  60  89 115 142 196 257 292 339
#
# _framework density 21.491415
#
# number of rings (size 3 to 8) (size 9 to 14) (size 15 to 20)
#    1.200    0.400    2.000    4.200    0.000    0.000 
#    0.000    0.000    0.000    7.200    0.000    0.000 
#    0.000    0.000    0.000    0.000    0.000    0.000 
#
# Total GULP energy -111646.561055 kJ/mol
# GULP energy per Si atom -5582.328053 kJ/mol
# Density = 2.144250 g / cm^3
# Si number density = 21.491415 Si / 1000 Ang^3
#
#
#
# Elastic Constant Matrix: (Units=GPa)
#
#
# Indices 1 2 3 4 5 6 
#
# 1 15.3647 -3.3317 6.9426 0.0000 -6.1591 0.0000
# 2 -3.3317 67.6764 -13.8913 0.0000 4.7124 0.0000
# 3 6.9426 -13.8913 99.0063 0.0000 -9.4658 0.0000
# 4 0.0000 0.0000 0.0000 12.5850 0.0000 -17.8843
# 5 -6.1591 4.7124 -9.4658 0.0000 19.3921 0.0000
# 6 0.0000 0.0000 0.0000 -17.8843 0.0000 21.6900
#
#
#
# Elastic Compliance Matrix: (Units=1/GPa)
#
#
# Indices 1 2 3 4 5 6 
#
# 1 0.075664 0.001571 -0.002962 0.000000 0.022204 0.000000
# 2 0.001571 0.015392 0.001825 0.000000 -0.002351 0.000000
# 3 -0.002962 0.001825 0.010942 0.000000 0.003957 0.000000
# 4 0.000000 0.000000 0.000000 -0.462675 0.000000 -0.381495
# 5 0.022204 -0.002351 0.003957 0.000000 0.061122 0.000000
# 6 0.000000 0.000000 0.000000 -0.381495 0.000000 -0.268455
#
#
# Mechanical properties :
#
#
# Convention : Reuss Voigt Hill
#
# Bulk Modulus (GPa) = 9.72155 17.94294 13.83225
# Shear Modulus (GPa) = -9.35302 23.55528 7.10113
#
# Velocity S-wave (km/s) = -2.08840 3.31423 1.81971
# Velocity P-wave (km/s) = 1.13223 4.79713 3.29625
#
# Compressibility (1/GPa) = 0.10286422
#
# Stress axis : x y z
#
# Youngs Moduli (GPa) = 13.21630 64.96991 91.38724
#
# Poissons Ratio (x) = -0.10205 0.27073
# Poissons Ratio (y) = -0.02076 -0.16675
# Poissons Ratio (z) = 0.03915 -0.11855
#
# Static dielectric constant tensor:
#      x y z
#    x 1.804290 0.000000 -0.001820 
#    y 0.000000 1.785320 0.000000 
#    z -0.001820 0.000000 1.774110 
# 
# From -- ./inp_files/79059.got.cif
#   From: 2010.05.17/outbox.cif.g08.bks.cpg/sg14_40_cif.got.tgz:79059.got - 2010.06.03 17:49:19.
