data_PCOD9240467
_publ_section_title
;
Structure prediction by ZEFSAII (Michael W. Deem and Ramdas Pophale) SiO2 
 PCOD9240467
Probable space group: P 21/C
;
_chemical_formula_sum "Si O2"
_cell_formula_units_Z 26
_cell_length_a 6.717102
_cell_length_b 17.050973
_cell_length_c 11.563106
_cell_angle_alpha 90.000000
_cell_angle_beta 42.985395
_cell_angle_gamma 90.000000
_cell_volume 902.963512
_symmetry_space_group_name_H-M "P 21/C"
_symmetry_group_IT_number 14
_symmetry_cell_setting 'monoclinic'
loop_
_space_group_symop_operation_xyz
x,y,z
-x,1/2+y,1/2-z
-x,-y,-z
x,1/2-y,1/2+z
loop_
_atom_site_type_symbol
_atom_site_label
_atom_site_fract_x
_atom_site_fract_y
_atom_site_fract_z
Si Si1 0.255614 0.266739 0.211451
Si Si2 0.500000 0.000000 0.500000
Si Si3 0.344003 0.837917 0.652569
Si Si4 0.282788 0.686221 0.786619
Si Si5 0.462100 0.032224 0.861097
Si Si6 0.027791 0.425393 0.331689
Si Si7 0.212458 0.387458 0.845142
O O1 0.474865 0.284246 0.225999
O O2 0.002285 0.331275 0.345355
O O3 0.186851 0.175471 0.253214
O O4 0.433659 0.289641 0.022643
O O5 0.707957 0.080500 0.392380
O O6 0.216084 0.055181 0.638860
O O7 0.152967 0.764332 0.781980
O O8 0.493095 0.871278 0.705755
O O9 0.432076 0.618086 0.645948
O O10 0.048447 0.638783 0.961242
O O11 0.731594 0.976814 0.711616
O O12 0.265164 0.049127 0.829886
O O13 0.251294 0.979526 0.030021
#
# Coordination Sequence:
#
# PCOD9240467 Si02
#       7
#     4   2   4   4   4   4   4
#     4   9  22  39  62  95 122 171 223 269 326 393
#     4  10  18  38  66  96 112 164 226 272 308 382
#     4  10  22  41  64  96 125 169 228 271 324 397
#     4  10  23  40  63  97 134 170 213 279 342 389
#     4  10  20  39  61  92 127 173 214 267 334 400
#     4   9  19  36  67  86 123 164 224 264 314 403
#     4  11  22  39  67  91 137 171 218 275 338 395
#
# _framework density 28.794077000000001
#
# number of rings (size 3 to 8) (size 9 to 14) (size 15 to 20)
#    0.000    2.154    1.538    0.462    4.308    3.692 
#    2.769    3.846    0.000    0.000    0.000    0.000 
#    0.000    0.000    0.000    0.000    0.000    0.000 
#
# Total GULP energy -145133.939278 kJ/mol
# GULP energy per Si atom -5582.074588 kJ/mol
# Density = 2.872854 g / cm^3
# Si number density = 28.794077 Si / 1000 Ang^3
#
#
#
# Elastic Constant Matrix: (Units=GPa)
#
#
# Indices 1 2 3 4 5 6 
#
# 1 79.4669 26.7685 -2.4304 0.0000 7.2428 0.0000
# 2 26.7685 207.0693 48.5585 0.0000 -1.3990 0.0000
# 3 -2.4304 48.5585 77.7819 0.0000 -2.9548 0.0000
# 4 0.0000 0.0000 0.0000 49.7825 0.0000 -4.8096
# 5 7.2428 -1.3990 -2.9548 0.0000 28.3145 0.0000
# 6 0.0000 0.0000 0.0000 -4.8096 0.0000 53.4768
#
#
#
# Elastic Compliance Matrix: (Units=1/GPa)
#
#
# Indices 1 2 3 4 5 6 
#
# 1 0.013682 -0.002181 0.001659 0.000000 -0.003435 0.000000
# 2 -0.002181 0.006005 -0.003800 0.000000 0.000458 0.000000
# 3 0.001659 -0.003800 0.015318 0.000000 0.000987 0.000000
# 4 0.000000 0.000000 0.000000 0.020263 0.000000 0.001822
# 5 -0.003435 0.000458 0.000987 0.000000 0.036322 0.000000
# 6 0.000000 0.000000 0.000000 0.001822 0.000000 0.018864
#
#
# Mechanical properties :
#
#
# Convention : Reuss Voigt Hill
#
# Bulk Modulus (GPa) = 37.93450 56.67904 47.30677
# Shear Modulus (GPa) = 39.09733 45.74285 42.42009
#
# Velocity S-wave (km/s) = 3.68887 3.99007 3.84242
# Velocity P-wave (km/s) = 5.59881 6.39958 6.01254
#
# Compressibility (1/GPa) = 0.02636123
#
# Stress axis : x y z
#
# Youngs Moduli (GPa) = 73.08739 166.51666 65.28280
#
# Poissons Ratio (x) = 0.36315 -0.10827
# Poissons Ratio (y) = 0.15940 0.24807
# Poissons Ratio (z) = -0.12122 0.63274
#
# Static dielectric constant tensor:
#      x y z
#    x 2.383930 0.000000 -0.127220 
#    y 0.000000 2.167270 0.000000 
#    z -0.127220 0.000000 1.916370 
# 
# From -- ./inp_files/41396.got.cif
#   From: 2010.05.17/outbox.cif.g08.bks.cpg/sg14_21_cif.got.tgz:41396.got - 2010.06.03 17:49:19.
