data_PCOD9240236
_publ_section_title
;
Structure prediction by ZEFSAII (Michael W. Deem and Ramdas Pophale) SiO2 
 PCOD9240236
Probable space group: P 21/C
;
_chemical_formula_sum "Si O2"
_cell_formula_units_Z 32
_cell_length_a 5.703682
_cell_length_b 11.336789
_cell_length_c 22.297156
_cell_angle_alpha 90.000000
_cell_angle_beta 65.718783
_cell_angle_gamma 90.000000
_cell_volume 1314.224870
_symmetry_space_group_name_H-M "P 21/C"
_symmetry_group_IT_number 14
_symmetry_cell_setting 'monoclinic'
loop_
_space_group_symop_operation_xyz
x,y,z
-x,1/2+y,1/2-z
-x,-y,-z
x,1/2-y,1/2+z
loop_
_atom_site_type_symbol
_atom_site_label
_atom_site_fract_x
_atom_site_fract_y
_atom_site_fract_z
Si Si1 0.339188 0.017686 0.360956
Si Si2 0.813291 0.311286 0.788982
Si Si3 0.516987 0.710037 0.491146
Si Si4 0.328889 0.503287 0.598650
Si Si5 0.877708 0.851599 0.154039
Si Si6 0.437916 0.694322 0.790276
Si Si7 0.300110 0.443643 0.725716
Si Si8 0.064709 0.304909 0.964181
O O1 0.578375 0.108106 0.336836
O O2 0.264318 0.020183 0.298388
O O3 0.130917 0.067070 0.428749
O O4 0.397791 0.878589 0.355471
O O5 0.770101 0.217895 0.740005
O O6 0.928233 0.240619 0.832957
O O7 0.015226 0.401757 0.740001
O O8 0.457268 0.603926 0.544757
O O9 0.605418 0.629845 0.425956
O O10 0.756240 0.782840 0.495570
O O11 0.243541 0.775554 0.505197
O O12 0.395886 0.522311 0.661153
O O13 0.027441 0.530454 0.622236
O O14 0.666574 0.866295 0.227596
O O15 0.818569 0.783975 0.098989
O O16 0.528232 0.826894 0.792604
#
# Coordination Sequence:
#
# PCOD9240236 Si02
#       8
#     4   4   4   4   4   4   4   4
#     4  11  20  32  59  83 115 161 194 246 317 359
#     4  10  18  36  49  88 121 157 189 242 315 362
#     4  10  25  41  61  91 119 166 202 253 296 370
#     4  10  21  39  60  86 120 157 205 244 313 356
#     4  10  19  33  56  84 124 151 189 252 296 380
#     4  10  21  33  52  90 119 152 199 240 317 371
#     4  10  21  36  54  87 118 157 194 255 308 364
#     4  11  21  40  59  84 125 154 205 243 299 365
#
# _framework density 24.348952000000001
#
# number of rings (size 3 to 8) (size 9 to 14) (size 15 to 20)
#    0.000    1.750    3.750    3.000    1.750    5.500 
#    6.750    0.000    0.000    1.500    0.000    0.000 
#    0.000    0.000    0.000    0.000    0.000    0.000 
#
# Total GULP energy -178464.446215 kJ/mol
# GULP energy per Si atom -5577.013944 kJ/mol
# Density = 2.429353 g / cm^3
# Si number density = 24.348952 Si / 1000 Ang^3
#
#
#
# Elastic Constant Matrix: (Units=GPa)
#
#
# Indices 1 2 3 4 5 6 
#
# 1 82.7220 -0.6544 7.6899 0.0000 9.7194 0.0000
# 2 -0.6544 13.6689 4.9454 0.0000 -4.3291 0.0000
# 3 7.6899 4.9454 66.8169 0.0000 10.0271 0.0000
# 4 0.0000 0.0000 0.0000 46.5979 0.0000 -0.6803
# 5 9.7194 -4.3291 10.0271 0.0000 20.0123 0.0000
# 6 0.0000 0.0000 0.0000 -0.6803 0.0000 8.3954
#
#
#
# Elastic Compliance Matrix: (Units=1/GPa)
#
#
# Indices 1 2 3 4 5 6 
#
# 1 0.012859 -0.001213 -0.000447 0.000000 -0.006283 0.000000
# 2 -0.001213 0.084054 -0.009622 0.000000 0.023593 0.000000
# 3 -0.000447 -0.009622 0.017311 0.000000 -0.010538 0.000000
# 4 0.000000 0.000000 0.000000 0.021486 0.000000 0.001741
# 5 -0.006283 0.023593 -0.010538 0.000000 0.063404 0.000000
# 6 0.000000 0.000000 0.000000 0.001741 0.000000 0.119254
#
#
# Mechanical properties :
#
#
# Convention : Reuss Voigt Hill
#
# Bulk Modulus (GPa) = 10.90985 20.79664 15.85325
# Shear Modulus (GPa) = 13.45945 25.08290 19.27117
#
# Velocity S-wave (km/s) = 2.35366 3.21307 2.81634
# Velocity P-wave (km/s) = 3.44625 4.72490 4.13530
#
# Compressibility (1/GPa) = 0.09166028
#
# Stress axis : x y z
#
# Youngs Moduli (GPa) = 77.76698 11.89711 57.76554
#
# Poissons Ratio (x) = 0.01443 0.02584
# Poissons Ratio (y) = 0.09430 0.55583
# Poissons Ratio (z) = 0.03478 0.11448
#
# Static dielectric constant tensor:
#      x y z
#    x 2.095780 0.000000 -0.005750 
#    y 0.000000 2.060220 0.000000 
#    z -0.005750 0.000000 1.930070 
# 
# From -- ./inp_files/71247.got.cif
#   From: 2010.05.17/outbox.cif.g08.bks.cpg/sg14_36_cif.got.tgz:71247.got - 2010.06.03 17:49:19.
