data_PCOD9240797
_publ_section_title
;
Structure prediction by ZEFSAII (Michael W. Deem and Ramdas Pophale) SiO2 
 PCOD9240797
Probable space group: P 21/C
;
_chemical_formula_sum "Si O2"
_cell_formula_units_Z 32
_cell_length_a 5.482536
_cell_length_b 24.411345
_cell_length_c 15.293194
_cell_angle_alpha 90.000000
_cell_angle_beta 123.605008
_cell_angle_gamma 90.000000
_cell_volume 1704.708446
_symmetry_space_group_name_H-M "P 21/C"
_symmetry_group_IT_number 14
_symmetry_cell_setting 'monoclinic'
loop_
_space_group_symop_operation_xyz
x,y,z
-x,1/2+y,1/2-z
-x,-y,-z
x,1/2-y,1/2+z
loop_
_atom_site_type_symbol
_atom_site_label
_atom_site_fract_x
_atom_site_fract_y
_atom_site_fract_z
Si Si1 0.644646 0.000695 0.432145
Si Si2 0.168889 0.698383 0.386815
Si Si3 0.455383 0.802540 0.508044
Si Si4 0.926217 0.763776 0.171474
Si Si5 0.459645 0.296021 0.252987
Si Si6 0.706092 0.382776 0.874014
Si Si7 0.344067 0.380536 0.088179
Si Si8 0.595367 0.826534 0.840621
O O1 0.557782 0.942341 0.373499
O O2 0.500000 0.000000 0.500000
O O3 0.570411 0.058158 0.371466
O O4 0.000000 0.000000 0.500000
O O5 0.231306 0.753059 0.454409
O O6 0.475232 0.672643 0.415223
O O7 0.048098 0.722014 0.270019
O O8 0.933994 0.660149 0.387299
O O9 0.771281 0.773278 0.567932
O O10 0.428195 0.835451 0.591599
O O11 0.428477 0.846129 0.425367
O O12 0.675801 0.794741 0.177313
O O13 0.188299 0.799437 0.184553
O O14 0.308766 0.343637 0.166717
O O15 0.409670 0.236574 0.196828
O O16 0.617681 0.364372 0.759975
O O17 0.047912 0.384182 0.970545
#
# Coordination Sequence:
#
# PCOD9240797 Si02
#       8
#     4   4   4   4   4   4   4   4
#     4  10  22  34  46  72 100 127 180 203 226 296
#     4  10  20  32  44  74  95 128 162 202 234 306
#     4  12  20  29  56  68 104 141 160 192 266 288
#     4  10  20  32  44  74  95 128 162 202 234 306
#     4  10  19  33  46  66 101 124 162 204 238 285
#     4  11  21  32  51  70 100 142 165 201 246 292
#     4  11  21  32  51  70 100 142 165 201 246 292
#     4  10  19  33  46  66 101 124 162 204 238 285
#
# _framework density 18.771540000000002
#
# number of rings (size 3 to 8) (size 9 to 14) (size 15 to 20)
#    0.000    1.500    6.250    3.000    0.000    0.000 
#    0.000    0.000    0.000    0.000    0.000    0.000 
#    0.000    6.000    0.000    0.000    0.000    0.000 
#
# Total GULP energy -178319.262869 kJ/mol
# GULP energy per Si atom -5572.476965 kJ/mol
# Density = 1.872881 g / cm^3
# Si number density = 18.771540 Si / 1000 Ang^3
#
#
#
# Elastic Constant Matrix: (Units=GPa)
#
#
# Indices 1 2 3 4 5 6 
#
# 1 131.4617 15.9533 2.0513 0.0000 4.6418 0.0000
# 2 15.9533 40.6401 14.4150 0.0000 -2.4648 0.0000
# 3 2.0513 14.4150 17.6348 0.0000 7.8081 0.0000
# 4 0.0000 0.0000 0.0000 18.9338 0.0000 -7.6989
# 5 4.6418 -2.4648 7.8081 0.0000 21.3343 0.0000
# 6 0.0000 0.0000 0.0000 -7.6989 0.0000 21.1726
#
#
#
# Elastic Compliance Matrix: (Units=1/GPa)
#
#
# Indices 1 2 3 4 5 6 
#
# 1 0.008346 -0.005497 0.005499 0.000000 -0.004464 0.000000
# 2 -0.005497 0.044473 -0.045968 0.000000 0.023158 0.000000
# 3 0.005499 -0.045968 0.115189 0.000000 -0.048665 0.000000
# 4 0.000000 0.000000 0.000000 0.061980 0.000000 0.022538
# 5 -0.004464 0.023158 -0.048665 0.000000 0.068331 0.000000
# 6 0.000000 0.000000 0.000000 0.022538 0.000000 0.055426
#
#
# Mechanical properties :
#
#
# Convention : Reuss Voigt Hill
#
# Bulk Modulus (GPa) = 13.14467 28.28621 20.71544
# Shear Modulus (GPa) = 10.61493 22.77594 16.69544
#
# Velocity S-wave (km/s) = 2.38056 3.48706 2.98552
# Velocity P-wave (km/s) = 3.81756 5.59590 4.78998
#
# Compressibility (1/GPa) = 0.07607646
#
# Stress axis : x y z
#
# Youngs Moduli (GPa) = 119.82208 22.48535 8.68140
#
# Poissons Ratio (x) = 0.12361 -0.04774
# Poissons Ratio (y) = 0.65871 0.39906
# Poissons Ratio (z) = -0.65894 1.03360
#
# Static dielectric constant tensor:
#      x y z
#    x 1.790900 0.000000 0.049050 
#    y 0.000000 1.652880 0.000000 
#    z 0.049050 0.000000 1.696030 
# 
# From -- ./inp_files/22113.got.cif
#   From: 2010.05.17/outbox.cif.g08.bks.cpg/sg14_12_cif.got.tgz:22113.got - 2010.06.03 17:49:19.
