data_PCOD9240771
_publ_section_title
;
Structure prediction by ZEFSAII (Michael W. Deem and Ramdas Pophale) SiO2 
 PCOD9240771
Probable space group: P 21/C
;
_chemical_formula_sum "Si O2"
_cell_formula_units_Z 28
_cell_length_a 5.190334
_cell_length_b 16.417444
_cell_length_c 12.623577
_cell_angle_alpha 90.000000
_cell_angle_beta 70.807056
_cell_angle_gamma 90.000000
_cell_volume 1015.890773
_symmetry_space_group_name_H-M "P 21/C"
_symmetry_group_IT_number 14
_symmetry_cell_setting 'monoclinic'
loop_
_space_group_symop_operation_xyz
x,y,z
-x,1/2+y,1/2-z
-x,-y,-z
x,1/2-y,1/2+z
loop_
_atom_site_type_symbol
_atom_site_label
_atom_site_fract_x
_atom_site_fract_y
_atom_site_fract_z
Si Si1 0.791229 0.679536 0.399496
Si Si2 0.566429 0.336208 0.096796
Si Si3 0.785601 0.455597 0.450160
Si Si4 0.896637 0.536462 0.229780
Si Si5 0.487554 0.409437 0.896164
Si Si6 0.945813 0.215968 0.949637
Si Si7 0.703516 0.249346 0.768534
O O1 0.628163 0.758973 0.392142
O O2 0.760324 0.606846 0.321861
O O3 0.792872 0.677497 0.527495
O O4 0.116273 0.699986 0.340122
O O5 0.454635 0.402368 0.028462
O O6 0.852927 0.304278 0.006891
O O7 0.604233 0.330965 0.218191
O O8 0.500000 0.500000 0.500000
O O9 0.888602 0.463172 0.315222
O O10 0.741913 0.361705 0.485185
O O11 0.000000 0.500000 0.500000
O O12 0.727061 0.538043 0.143347
O O13 0.208709 0.558148 0.165952
O O14 0.495529 0.315689 0.847874
O O15 0.927206 0.230167 0.827636
#
# Coordination Sequence:
#
# PCOD9240771 Si02
#       7
#     4   4   4   4   4   4   4
#     4  10  19  32  56  82 115 145 186 238 291 351
#     4  10  20  35  57  85 116 150 193 242 295 349
#     4  12  24  39  61  87 119 159 194 239 287 344
#     4  11  21  38  55  83 119 151 193 230 291 346
#     4  10  22  35  58  82 115 156 189 237 292 352
#     4  10  22  36  54  87 117 154 189 239 294 351
#     4   9  20  34  53  83 115 148 186 240 295 338
#
# _framework density 27.562018999999999
#
# number of rings (size 3 to 8) (size 9 to 14) (size 15 to 20)
#    0.000    1.714    2.857    1.714   10.000    0.000 
#    0.000    0.000    0.000    1.714    0.000    0.000 
#    0.000    0.000    0.000    0.000    0.000    0.000 
#
# Total GULP energy -156348.281225 kJ/mol
# GULP energy per Si atom -5583.867187 kJ/mol
# Density = 2.749929 g / cm^3
# Si number density = 27.562019 Si / 1000 Ang^3
#
#
#
# Elastic Constant Matrix: (Units=GPa)
#
#
# Indices 1 2 3 4 5 6 
#
# 1 108.5871 2.6105 32.2476 0.0000 36.9815 0.0000
# 2 2.6105 54.9753 19.6406 0.0000 0.4415 0.0000
# 3 32.2476 19.6406 132.9503 0.0000 52.0687 0.0000
# 4 0.0000 0.0000 0.0000 59.6079 0.0000 2.5942
# 5 36.9815 0.4415 52.0687 0.0000 64.6905 0.0000
# 6 0.0000 0.0000 0.0000 2.5942 0.0000 25.5551
#
#
#
# Elastic Compliance Matrix: (Units=1/GPa)
#
#
# Indices 1 2 3 4 5 6 
#
# 1 0.011453 -0.000412 -0.000225 0.000000 -0.006364 0.000000
# 2 -0.000412 0.019666 -0.004155 0.000000 0.003446 0.000000
# 3 -0.000225 -0.004155 0.011870 0.000000 -0.009397 0.000000
# 4 0.000000 0.000000 0.000000 0.016851 0.000000 -0.001711
# 5 -0.006364 0.003446 -0.009397 0.000000 0.026636 0.000000
# 6 0.000000 0.000000 0.000000 -0.001711 0.000000 0.039305
#
#
# Mechanical properties :
#
#
# Convention : Reuss Voigt Hill
#
# Bulk Modulus (GPa) = 29.93489 45.05667 37.49578
# Shear Modulus (GPa) = 34.12953 46.10497 40.11725
#
# Velocity S-wave (km/s) = 3.52274 4.09439 3.81928
# Velocity P-wave (km/s) = 5.23744 6.22374 5.75177
#
# Compressibility (1/GPa) = 0.03340584
#
# Stress axis : x y z
#
# Youngs Moduli (GPa) = 87.31223 50.84866 84.24384
#
# Poissons Ratio (x) = 0.02097 0.01894
# Poissons Ratio (y) = 0.03601 0.35001
# Poissons Ratio (z) = 0.01963 0.21126
#
# Static dielectric constant tensor:
#      x y z
#    x 2.381280 0.000000 -0.117870 
#    y 0.000000 2.236120 0.000000 
#    z -0.117870 0.000000 2.358590 
# 
# From -- ./inp_files/21562.got.cif
#   From: 2010.05.17/outbox.cif.g08.bks.cpg/sg14_11_cif.got.tgz:21562.got - 2010.06.03 17:49:19.
