data_PCOD9240089
_publ_section_title
;
Structure prediction by ZEFSAII (Michael W. Deem and Ramdas Pophale) SiO2 
 PCOD9240089
Probable space group: P 21/C
;
_chemical_formula_sum "Si O2"
_cell_formula_units_Z 32
_cell_length_a 13.918529
_cell_length_b 8.158281
_cell_length_c 10.927698
_cell_angle_alpha 90.000000
_cell_angle_beta 97.929994
_cell_angle_gamma 90.000000
_cell_volume 1228.988174
_symmetry_space_group_name_H-M "P 21/C"
_symmetry_group_IT_number 14
_symmetry_cell_setting 'monoclinic'
loop_
_space_group_symop_operation_xyz
x,y,z
-x,1/2+y,1/2-z
-x,-y,-z
x,1/2-y,1/2+z
loop_
_atom_site_type_symbol
_atom_site_label
_atom_site_fract_x
_atom_site_fract_y
_atom_site_fract_z
Si Si1 0.904937 0.244241 0.481384
Si Si2 0.011501 0.868098 0.756367
Si Si3 0.840742 0.825816 0.208601
Si Si4 0.461155 0.742200 0.613869
Si Si5 0.273045 0.936401 0.651737
Si Si6 0.328086 0.741892 0.402677
Si Si7 0.219819 0.464950 0.542474
Si Si8 0.373295 0.462686 0.770333
O O1 0.944215 0.254839 0.626011
O O2 0.971666 0.183957 0.382367
O O3 0.811907 0.123968 0.453117
O O4 0.876594 0.432175 0.444250
O O5 0.896603 0.839945 0.750363
O O6 0.073406 0.034672 0.779539
O O7 0.763741 0.897729 0.292182
O O8 0.797044 0.830152 0.064553
O O9 0.380068 0.888037 0.621876
O O10 0.440039 0.704721 0.466654
O O11 0.437761 0.592461 0.701328
O O12 0.563587 0.816002 0.666132
O O13 0.275773 0.816312 0.769662
O O14 0.278239 0.614704 0.486651
O O15 0.330264 0.934482 0.375247
O O16 0.288186 0.416427 0.664125
#
# Coordination Sequence:
#
# PCOD9240089 Si02
#       8
#     4   4   4   4   4   4   4   4
#     4  10  18  34  60  84 108 150 196 220 282 340
#     4  10  22  34  61  87 112 144 191 239 279 345
#     4   9  20  38  57  83 110 146 191 228 289 334
#     4  10  19  32  55  80 111 145 191 234 277 330
#     4   9  17  31  56  78 111 148 187 225 272 349
#     4   9  15  30  52  82 101 142 185 236 265 317
#     4   9  17  31  56  78 111 148 187 225 272 349
#     4  10  19  32  55  80 111 145 191 234 277 330
#
# _framework density 26.037680000000002
#
# number of rings (size 3 to 8) (size 9 to 14) (size 15 to 20)
#    0.000    2.500    3.750    1.125    0.000    4.000 
#    0.000   15.625    8.250    0.000    0.000    0.000 
#    0.000    0.000    0.000    0.000    0.000    0.000 
#
# Total GULP energy -178376.578034 kJ/mol
# GULP energy per Si atom -5574.268064 kJ/mol
# Density = 2.597842 g / cm^3
# Si number density = 26.037680 Si / 1000 Ang^3
#
#
#
# Elastic Constant Matrix: (Units=GPa)
#
#
# Indices 1 2 3 4 5 6 
#
# 1 61.5862 26.6138 20.4407 0.0000 17.3130 0.0000
# 2 26.6138 62.4746 19.9999 0.0000 4.1450 0.0000
# 3 20.4407 19.9999 104.3523 0.0000 31.1529 0.0000
# 4 0.0000 0.0000 0.0000 16.8389 0.0000 10.0698
# 5 17.3130 4.1450 31.1529 0.0000 30.6107 0.0000
# 6 0.0000 0.0000 0.0000 10.0698 0.0000 44.8024
#
#
#
# Elastic Compliance Matrix: (Units=1/GPa)
#
#
# Indices 1 2 3 4 5 6 
#
# 1 0.023744 -0.009604 0.001164 0.000000 -0.013314 0.000000
# 2 -0.009604 0.020983 -0.004185 0.000000 0.006850 0.000000
# 3 0.001164 -0.004185 0.014629 0.000000 -0.014980 0.000000
# 4 0.000000 0.000000 0.000000 0.068608 0.000000 -0.015420
# 5 -0.013314 0.006850 -0.014980 0.000000 0.054516 0.000000
# 6 0.000000 0.000000 0.000000 -0.015420 0.000000 0.025786
#
#
# Mechanical properties :
#
#
# Convention : Reuss Voigt Hill
#
# Bulk Modulus (GPa) = 29.32048 40.28023 34.80036
# Shear Modulus (GPa) = 20.41774 29.20766 24.81270
#
# Velocity S-wave (km/s) = 2.80333 3.35288 3.09034
# Velocity P-wave (km/s) = 4.66513 5.52201 5.11156
#
# Compressibility (1/GPa) = 0.03410586
#
# Stress axis : x y z
#
# Youngs Moduli (GPa) = 42.11584 47.65717 68.35719
#
# Poissons Ratio (x) = 0.45771 -0.07959
# Poissons Ratio (y) = 0.40449 0.28610
# Poissons Ratio (z) = -0.04904 0.19946
#
# Static dielectric constant tensor:
#      x y z
#    x 2.177830 0.000000 -0.107850 
#    y 0.000000 2.071500 0.000000 
#    z -0.107850 0.000000 2.163630 
# 
# From -- ./inp_files/32206.got.cif
#   From: 2010.05.17/outbox.cif.g08.bks.cpg/sg14_17_cif.got.tgz:32206.got - 2010.06.03 17:49:19.
