data_PCOD9240141
_publ_section_title
;
Structure prediction by ZEFSAII (Michael W. Deem and Ramdas Pophale) SiO2 
 PCOD9240141
Probable space group: P 21/C
;
_chemical_formula_sum "Si O2"
_cell_formula_units_Z 26
_cell_length_a 6.989766
_cell_length_b 14.510960
_cell_length_c 9.824095
_cell_angle_alpha 90.000000
_cell_angle_beta 95.587548
_cell_angle_gamma 90.000000
_cell_volume 991.705915
_symmetry_space_group_name_H-M "P 21/C"
_symmetry_group_IT_number 14
_symmetry_cell_setting 'monoclinic'
loop_
_space_group_symop_operation_xyz
x,y,z
-x,1/2+y,1/2-z
-x,-y,-z
x,1/2-y,1/2+z
loop_
_atom_site_type_symbol
_atom_site_label
_atom_site_fract_x
_atom_site_fract_y
_atom_site_fract_z
Si Si1 0.523754 0.974137 0.343652
Si Si2 0.792973 0.825877 0.999671
Si Si3 0.300824 0.523215 0.568902
Si Si4 0.212438 0.646720 0.161463
Si Si5 0.861336 0.660848 0.817861
Si Si6 0.666796 0.287286 0.553265
Si Si7 0.000000 0.000000 0.500000
O O1 0.347391 0.967341 0.231323
O O2 0.649721 0.882546 0.337565
O O3 0.500000 0.000000 0.500000
O O4 0.646914 0.060409 0.297688
O O5 0.858682 0.815034 0.159454
O O6 0.888768 0.752006 0.907928
O O7 0.563354 0.804664 0.969318
O O8 0.821975 0.932251 0.963021
O O9 0.500000 0.500000 0.500000
O O10 0.240167 0.621871 0.508758
O O11 0.249643 0.715086 0.288721
O O12 0.020757 0.590493 0.108447
O O13 0.288000 0.698466 0.032910
O O14 0.987787 0.574309 0.874220
#
# Coordination Sequence:
#
# PCOD9240141 Si02
#       7
#     4   4   4   4   4   4   2
#     4  11  21  34  57  91 129 162 190 250 305 367
#     4  11  21  37  65  98 124 155 193 260 318 357
#     4  10  18  35  55  89 133 156 183 236 326 360
#     4  11  23  40  63  88 126 163 206 248 297 371
#     4  11  23  40  63  88 126 163 206 248 297 371
#     4  11  21  37  65  98 124 155 193 260 318 357
#     4  10  26  48  60  80 120 180 208 244 296 356
#
# _framework density 26.217448999999998
#
# number of rings (size 3 to 8) (size 9 to 14) (size 15 to 20)
#    0.000    1.231    6.154    2.769    4.308    1.231 
#    0.000    0.000    0.000    2.769    0.000    0.000 
#    0.000    0.000    0.000    0.000    0.000    0.000 
#
# Total GULP energy -145092.714387 kJ/mol
# GULP energy per Si atom -5580.489015 kJ/mol
# Density = 2.615778 g / cm^3
# Si number density = 26.217449 Si / 1000 Ang^3
#
#
#
# Elastic Constant Matrix: (Units=GPa)
#
#
# Indices 1 2 3 4 5 6 
#
# 1 71.1951 9.8582 20.1037 0.0000 2.1408 0.0000
# 2 9.8582 149.3841 23.4065 0.0000 7.9002 0.0000
# 3 20.1037 23.4065 212.4395 0.0000 11.9297 0.0000
# 4 0.0000 0.0000 0.0000 54.6959 0.0000 11.8190
# 5 2.1408 7.9002 11.9297 0.0000 18.7400 0.0000
# 6 0.0000 0.0000 0.0000 11.8190 0.0000 25.6167
#
#
#
# Elastic Compliance Matrix: (Units=1/GPa)
#
#
# Indices 1 2 3 4 5 6 
#
# 1 0.014520 -0.000731 -0.001263 0.000000 -0.000546 0.000000
# 2 -0.000731 0.006962 -0.000558 0.000000 -0.002496 0.000000
# 3 -0.001263 -0.000558 0.005047 0.000000 -0.002834 0.000000
# 4 0.000000 0.000000 0.000000 0.020308 0.000000 -0.009369
# 5 -0.000546 -0.002496 -0.002834 0.000000 0.056280 0.000000
# 6 0.000000 0.000000 0.000000 -0.009369 0.000000 0.043360
#
#
# Mechanical properties :
#
#
# Convention : Reuss Voigt Hill
#
# Bulk Modulus (GPa) = 46.67337 59.97283 53.32310
# Shear Modulus (GPa) = 31.50145 45.12054 38.31100
#
# Velocity S-wave (km/s) = 3.47009 4.15301 3.82681
# Velocity P-wave (km/s) = 5.82206 6.77654 6.31735
#
# Compressibility (1/GPa) = 0.02142549
#
# Stress axis : x y z
#
# Youngs Moduli (GPa) = 68.86957 143.64067 198.12586
#
# Poissons Ratio (x) = 0.10507 0.25019
# Poissons Ratio (y) = 0.05038 0.11048
# Poissons Ratio (z) = 0.08697 0.08010
#
# Static dielectric constant tensor:
#      x y z
#    x 2.343810 0.000000 -0.239050 
#    y 0.000000 2.082890 0.000000 
#    z -0.239050 0.000000 2.561640 
# 
# From -- ./inp_files/12938.got.cif
#   From: 2010.05.17/outbox.cif.g08.bks.cpg/sg14_7_cif.got.tgz:12938.got - 2010.06.03 17:49:19.
