data_PCOD9240882
_publ_section_title
;
Structure prediction by ZEFSAII (Michael W. Deem and Ramdas Pophale) SiO2 
 PCOD9240882
Probable space group: P 21/C
;
_chemical_formula_sum "Si O2"
_cell_formula_units_Z 32
_cell_length_a 8.305521
_cell_length_b 15.829606
_cell_length_c 14.337354
_cell_angle_alpha 90.000000
_cell_angle_beta 119.322868
_cell_angle_gamma 90.000000
_cell_volume 1643.461979
_symmetry_space_group_name_H-M "P 21/C"
_symmetry_group_IT_number 14
_symmetry_cell_setting 'monoclinic'
loop_
_space_group_symop_operation_xyz
x,y,z
-x,1/2+y,1/2-z
-x,-y,-z
x,1/2-y,1/2+z
loop_
_atom_site_type_symbol
_atom_site_label
_atom_site_fract_x
_atom_site_fract_y
_atom_site_fract_z
Si Si1 0.542020 0.244548 0.163699
Si Si2 0.760753 0.100343 0.677266
Si Si3 0.092239 0.661840 0.169365
Si Si4 0.445687 0.246031 0.917967
Si Si5 0.835077 0.296827 0.009285
Si Si6 0.832262 0.832553 0.896092
Si Si7 0.888881 0.844369 0.126450
Si Si8 0.776536 0.584512 0.192232
O O1 0.626755 0.338056 0.197884
O O2 0.704860 0.178278 0.231858
O O3 0.355764 0.222426 0.164926
O O4 0.487202 0.239119 0.039858
O O5 0.794554 0.147013 0.588270
O O6 0.959314 0.096404 0.784446
O O7 0.688981 0.005902 0.647263
O O8 0.986808 0.751934 0.149965
O O9 0.965012 0.596106 0.187038
O O10 0.107844 0.647858 0.063475
O O11 0.292872 0.172887 0.862370
O O12 0.354373 0.337118 0.872728
O O13 0.646654 0.246901 0.928244
O O14 0.994941 0.228980 0.074344
O O15 0.821241 0.902957 0.813899
O O16 0.846488 0.865627 0.006505
#
# Coordination Sequence:
#
# PCOD9240882 Si02
#       8
#     4   4   4   4   4   4   4   4
#     4   9  18  35  56  76 101 138 183 223 258 313
#     4  10  21  35  53  80 114 140 170 224 280 320
#     4   9  18  33  52  76 104 139 183 216 255 318
#     4   9  17  32  55  75 100 135 177 220 261 311
#     4  10  19  33  56  79 102 141 185 225 261 309
#     4  10  19  34  58  77  99 142 189 224 260 314
#     4   8  17  34  54  76  99 132 181 226 260 312
#     4  11  21  33  52  81 115 144 170 216 277 328
#
# _framework density 19.471091000000001
#
# number of rings (size 3 to 8) (size 9 to 14) (size 15 to 20)
#    0.000    2.500    0.000    4.500    0.000    3.000 
#    0.000    2.500    0.000    6.750    0.000    0.000 
#    0.000    0.000    0.000    0.000    0.000    0.000 
#
# Total GULP energy -178398.303575 kJ/mol
# GULP energy per Si atom -5574.946987 kJ/mol
# Density = 1.942677 g / cm^3
# Si number density = 19.471091 Si / 1000 Ang^3
#
#
#
# Elastic Constant Matrix: (Units=GPa)
#
#
# Indices 1 2 3 4 5 6 
#
# 1 103.6156 8.1587 10.4954 0.0000 8.4194 0.0000
# 2 8.1587 30.8841 0.5836 0.0000 -5.9564 0.0000
# 3 10.4954 0.5836 61.7268 0.0000 0.1491 0.0000
# 4 0.0000 0.0000 0.0000 4.0736 0.0000 1.5233
# 5 8.4194 -5.9564 0.1491 0.0000 36.3456 0.0000
# 6 0.0000 0.0000 0.0000 1.5233 0.0000 10.9683
#
#
#
# Elastic Compliance Matrix: (Units=1/GPa)
#
#
# Indices 1 2 3 4 5 6 
#
# 1 0.010318 -0.003256 -0.001717 0.000000 -0.002917 0.000000
# 2 -0.003256 0.034470 0.000212 0.000000 0.006402 0.000000
# 3 -0.001717 0.000212 0.016489 0.000000 0.000365 0.000000
# 4 0.000000 0.000000 0.000000 0.258930 0.000000 -0.035960
# 5 -0.002917 0.006402 0.000365 0.000000 0.029237 0.000000
# 6 0.000000 0.000000 0.000000 -0.035960 0.000000 0.096166
#
#
# Mechanical properties :
#
#
# Convention : Reuss Voigt Hill
#
# Bulk Modulus (GPa) = 19.32098 26.07798 22.69948
# Shear Modulus (GPa) = 10.58462 22.07676 16.33069
#
# Velocity S-wave (km/s) = 2.33407 3.37088 2.89920
# Velocity P-wave (km/s) = 4.14829 5.34534 4.78440
#
# Compressibility (1/GPa) = 0.05175722
#
# Stress axis : x y z
#
# Youngs Moduli (GPa) = 96.91508 29.01074 60.64500
#
# Poissons Ratio (x) = 0.09446 0.10410
# Poissons Ratio (y) = 0.31555 -0.01287
# Poissons Ratio (z) = 0.16636 -0.00616
#
# Static dielectric constant tensor:
#      x y z
#    x 1.733550 0.000000 0.008010 
#    y 0.000000 1.636030 0.000000 
#    z 0.008010 0.000000 1.732050 
# 
# From -- ./inp_files/41248.got.cif
#   From: 2010.05.17/outbox.cif.g08.bks.cpg/sg14_21_cif.got.tgz:41248.got - 2010.06.03 17:49:19.
