data_PCOD9240419
_publ_section_title
;
Structure prediction by ZEFSAII (Michael W. Deem and Ramdas Pophale) SiO2 
 PCOD9240419
Probable space group: P 21/C
;
_chemical_formula_sum "Si O2"
_cell_formula_units_Z 30
_cell_length_a 10.693860
_cell_length_b 15.641000
_cell_length_c 8.872178
_cell_angle_alpha 90.000000
_cell_angle_beta 132.630348
_cell_angle_gamma 90.000000
_cell_volume 1091.824200
_symmetry_space_group_name_H-M "P 21/C"
_symmetry_group_IT_number 14
_symmetry_cell_setting 'monoclinic'
loop_
_space_group_symop_operation_xyz
x,y,z
-x,1/2+y,1/2-z
-x,-y,-z
x,1/2-y,1/2+z
loop_
_atom_site_type_symbol
_atom_site_label
_atom_site_fract_x
_atom_site_fract_y
_atom_site_fract_z
Si Si1 0.013485 0.826258 0.961498
Si Si2 0.583652 0.130652 0.537778
Si Si3 0.230835 0.470768 0.759640
Si Si4 0.836663 0.168936 0.244845
Si Si5 0.000000 0.500000 0.000000
Si Si6 0.315220 0.065760 0.667717
Si Si7 0.461900 0.604736 0.314183
Si Si8 0.666984 0.778141 0.130864
O O1 0.922722 0.916375 0.936398
O O2 0.842893 0.771809 0.776934
O O3 0.119343 0.836457 0.894542
O O4 0.117774 0.765055 0.160647
O O5 0.411604 0.073671 0.375708
O O6 0.639437 0.142647 0.411246
O O7 0.490465 0.213414 0.522652
O O8 0.723851 0.070607 0.730271
O O9 0.216017 0.457616 0.930967
O O10 0.955681 0.101965 0.430105
O O11 0.649125 0.136299 0.134620
O O12 0.807019 0.527446 0.805281
O O13 0.343703 0.164412 0.724456
O O14 0.467323 0.997415 0.798838
O O15 0.640125 0.652422 0.477319
#
# Coordination Sequence:
#
# PCOD9240419 Si02
#       8
#     4   4   4   4   2   4   4   4
#     4  11  22  39  67  92 126 165 228 260 319 397
#     4   9  21  35  58  89 122 161 200 260 327 380
#     4   9  18  37  60  88 121 159 207 260 319 384
#     4  11  24  41  63  94 126 173 215 275 323 397
#     4  10  18  38  60  88 122 170 214 256 330 392
#     4  10  19  38  60  93 118 165 210 263 319 392
#     4  10  24  38  60  88 129 161 209 263 329 381
#     4  11  22  36  65  91 121 158 219 268 313 383
#
# _framework density 27.476951
#
# number of rings (size 3 to 8) (size 9 to 14) (size 15 to 20)
#    0.000    1.867    2.667    0.400    9.333    0.000 
#    0.000    0.000    0.000    3.200    0.000    0.000 
#    0.000    0.000    0.000    0.000    0.000    0.000 
#
# Total GULP energy -167053.426119 kJ/mol
# GULP energy per Si atom -5568.447537 kJ/mol
# Density = 2.741441 g / cm^3
# Si number density = 27.476951 Si / 1000 Ang^3
#
#
#
# Elastic Constant Matrix: (Units=GPa)
#
#
# Indices 1 2 3 4 5 6 
#
# 1 53.1312 21.5059 -2.7042 0.0000 5.8166 0.0000
# 2 21.5059 158.3989 11.1944 0.0000 -9.5935 0.0000
# 3 -2.7042 11.1944 68.1676 0.0000 3.7256 0.0000
# 4 0.0000 0.0000 0.0000 59.8676 0.0000 13.7354
# 5 5.8166 -9.5935 3.7256 0.0000 19.1620 0.0000
# 6 0.0000 0.0000 0.0000 13.7354 0.0000 26.0886
#
#
#
# Elastic Compliance Matrix: (Units=1/GPa)
#
#
# Indices 1 2 3 4 5 6 
#
# 1 0.021296 -0.003547 0.001898 0.000000 -0.008609 0.000000
# 2 -0.003547 0.007210 -0.001598 0.000000 0.004997 0.000000
# 3 0.001898 -0.001598 0.015245 0.000000 -0.004340 0.000000
# 4 0.000000 0.000000 0.000000 0.018998 0.000000 -0.010003
# 5 -0.008609 0.004997 -0.004340 0.000000 0.058146 0.000000
# 6 0.000000 0.000000 0.000000 -0.010003 0.000000 0.043597
#
#
# Mechanical properties :
#
#
# Convention : Reuss Voigt Hill
#
# Bulk Modulus (GPa) = 26.84057 37.74333 32.29195
# Shear Modulus (GPa) = 27.26200 37.67040 32.46620
#
# Velocity S-wave (km/s) = 3.15330 3.70669 3.44114
# Velocity P-wave (km/s) = 4.80077 5.66442 5.25038
#
# Compressibility (1/GPa) = 0.03725704
#
# Stress axis : x y z
#
# Youngs Moduli (GPa) = 46.95691 138.68996 65.59693
#
# Poissons Ratio (x) = 0.49192 -0.12449
# Poissons Ratio (y) = 0.16655 0.10482
# Poissons Ratio (z) = -0.08912 0.22161
#
# Static dielectric constant tensor:
#      x y z
#    x 2.350280 0.000000 0.073590 
#    y 0.000000 2.261380 0.000000 
#    z 0.073590 0.000000 1.908400 
# 
# From -- ./inp_files/30054.got.cif
#   From: 2010.05.17/outbox.cif.g08.bks.cpg/sg14_16_cif.got.tgz:30054.got - 2010.06.03 17:49:19.
