data_PCOD9240114
_publ_section_title
;
Structure prediction by ZEFSAII (Michael W. Deem and Ramdas Pophale) SiO2 
 PCOD9240114
Probable space group: P 21/C
;
_chemical_formula_sum "Si O2"
_cell_formula_units_Z 28
_cell_length_a 7.019661
_cell_length_b 14.361190
_cell_length_c 12.411443
_cell_angle_alpha 90.000000
_cell_angle_beta 110.112124
_cell_angle_gamma 90.000000
_cell_volume 1174.909420
_symmetry_space_group_name_H-M "P 21/C"
_symmetry_group_IT_number 14
_symmetry_cell_setting 'monoclinic'
loop_
_space_group_symop_operation_xyz
x,y,z
-x,1/2+y,1/2-z
-x,-y,-z
x,1/2-y,1/2+z
loop_
_atom_site_type_symbol
_atom_site_label
_atom_site_fract_x
_atom_site_fract_y
_atom_site_fract_z
Si Si1 0.915013 0.404207 0.097125
Si Si2 0.383749 0.288639 0.882845
Si Si3 0.025239 0.206422 0.148280
Si Si4 0.979891 0.497347 0.668799
Si Si5 0.298866 0.437063 0.042135
Si Si6 0.314877 0.129155 0.017362
Si Si7 0.459551 0.452118 0.743673
O O1 0.881224 0.295432 0.109005
O O2 0.070163 0.408546 0.028352
O O3 0.031020 0.452237 0.218721
O O4 0.727340 0.470747 0.035901
O O5 0.167043 0.277815 0.780458
O O6 0.497849 0.354477 0.816928
O O7 0.377602 0.354141 0.985711
O O8 0.420434 0.187537 0.942008
O O9 0.913532 0.109464 0.145586
O O10 0.181598 0.192771 0.076967
O O11 0.144415 0.439486 0.436833
O O12 0.223993 0.484912 0.703074
O O13 0.416202 0.468070 0.171824
O O14 0.475587 0.072880 0.121562
#
# Coordination Sequence:
#
# PCOD9240114 Si02
#       7
#     4   4   4   4   4   4   4
#     4  11  21  35  63  86 114 160 201 247 290 354
#     4  10  18  34  63  81 116 153 197 231 298 358
#     4  10  19  34  56  89 114 153 201 234 296 349
#     4  10  20  37  64  86 117 158 200 246 295 354
#     4  11  22  39  58  86 123 156 198 249 298 350
#     4  10  19  37  61  89 115 160 191 249 293 359
#     4  10  22  38  58  88 120 157 195 243 299 353
#
# _framework density 23.831624000000001
#
# number of rings (size 3 to 8) (size 9 to 14) (size 15 to 20)
#    0.000    2.000    5.714    2.143    0.000    0.000 
#    0.000    5.000    0.000    0.000    0.000    0.000 
#    0.000    0.000    0.000    0.000    0.000    0.000 
#
# Total GULP energy -156193.029305 kJ/mol
# GULP energy per Si atom -5578.322475 kJ/mol
# Density = 2.377738 g / cm^3
# Si number density = 23.831624 Si / 1000 Ang^3
#
#
#
# Elastic Constant Matrix: (Units=GPa)
#
#
# Indices 1 2 3 4 5 6 
#
# 1 42.8763 2.0080 5.0046 0.0000 4.8606 0.0000
# 2 2.0080 121.6866 33.0643 0.0000 18.3901 0.0000
# 3 5.0046 33.0643 124.2672 0.0000 19.6960 0.0000
# 4 0.0000 0.0000 0.0000 34.4718 0.0000 2.3013
# 5 4.8606 18.3901 19.6960 0.0000 23.4337 0.0000
# 6 0.0000 0.0000 0.0000 2.3013 0.0000 7.4254
#
#
#
# Elastic Compliance Matrix: (Units=1/GPa)
#
#
# Indices 1 2 3 4 5 6 
#
# 1 0.023910 0.000448 -0.000277 0.000000 -0.005078 0.000000
# 2 0.000448 0.009589 -0.001571 0.000000 -0.006298 0.000000
# 3 -0.000277 -0.001571 0.009543 0.000000 -0.006730 0.000000
# 4 0.000000 0.000000 0.000000 0.029622 0.000000 -0.009180
# 5 -0.005078 -0.006298 -0.006730 0.000000 0.054326 0.000000
# 6 0.000000 0.000000 0.000000 -0.009180 0.000000 0.137518
#
#
# Mechanical properties :
#
#
# Convention : Reuss Voigt Hill
#
# Bulk Modulus (GPa) = 24.85003 40.99821 32.92412
# Shear Modulus (GPa) = 17.81119 29.64973 23.73046
#
# Velocity S-wave (km/s) = 2.73678 3.53105 3.15898
# Velocity P-wave (km/s) = 4.52069 5.81937 5.21065
#
# Compressibility (1/GPa) = 0.04024140
#
# Stress axis : x y z
#
# Youngs Moduli (GPa) = 41.82363 104.28487 104.78680
#
# Poissons Ratio (x) = -0.04675 0.02906
# Poissons Ratio (y) = -0.01875 0.16465
# Poissons Ratio (z) = 0.01160 0.16387
#
# Static dielectric constant tensor:
#      x y z
#    x 1.952310 0.000000 -0.046980 
#    y 0.000000 1.946770 0.000000 
#    z -0.046980 0.000000 1.914660 
# 
# From -- ./inp_files/40709.got.cif
#   From: 2010.05.17/outbox.cif.g08.bks.cpg/sg14_21_cif.got.tgz:40709.got - 2010.06.03 17:49:19.
