data_PCOD9240097
_publ_section_title
;
Structure prediction by ZEFSAII (Michael W. Deem and Ramdas Pophale) SiO2 
 PCOD9240097
Probable space group: P 21/C
;
_chemical_formula_sum "Si O2"
_cell_formula_units_Z 26
_cell_length_a 6.298176
_cell_length_b 22.146577
_cell_length_c 9.703233
_cell_angle_alpha 90.000000
_cell_angle_beta 124.445258
_cell_angle_gamma 90.000000
_cell_volume 1116.134327
_symmetry_space_group_name_H-M "P 21/C"
_symmetry_group_IT_number 14
_symmetry_cell_setting 'monoclinic'
loop_
_space_group_symop_operation_xyz
x,y,z
-x,1/2+y,1/2-z
-x,-y,-z
x,1/2-y,1/2+z
loop_
_atom_site_type_symbol
_atom_site_label
_atom_site_fract_x
_atom_site_fract_y
_atom_site_fract_z
Si Si1 0.162537 0.699580 0.175634
Si Si2 0.743183 0.608602 0.729504
Si Si3 0.400859 0.507204 0.185380
Si Si4 0.612526 0.705773 0.889180
Si Si5 0.239764 0.587843 0.377458
Si Si6 0.300903 0.883783 0.461818
Si Si7 0.000000 0.000000 0.000000
O O1 0.391002 0.745564 0.288688
O O2 0.146098 0.653087 0.295784
O O3 0.231459 0.658177 0.068207
O O4 0.885415 0.729294 0.046001
O O5 0.724901 0.559136 0.846603
O O6 0.670520 0.672845 0.766065
O O7 0.533930 0.591550 0.539624
O O8 0.033128 0.608127 0.780612
O O9 0.253159 0.543395 0.252414
O O10 0.378042 0.550235 0.044538
O O11 0.696835 0.500155 0.335375
O O12 0.505778 0.653653 0.950863
O O13 0.063169 0.558897 0.427259
#
# Coordination Sequence:
#
# PCOD9240097 Si02
#       7
#     4   4   4   4   4   4   2
#     4  10  25  44  62  91 127 166 216 258 312 378
#     4  10  22  38  62  99 123 161 214 255 312 383
#     4  10  21  40  62  92 130 163 200 264 316 380
#     4  11  25  42  64  92 123 169 214 257 311 374
#     4  10  22  40  64  93 128 163 206 262 318 372
#     4  10  23  42  64  89 125 171 205 262 325 361
#     4  10  18  34  60  92 120 154 208 244 312 376
#
# _framework density 23.294689000000002
#
# number of rings (size 3 to 8) (size 9 to 14) (size 15 to 20)
#    0.000    1.846    0.000    3.231    4.308    6.769 
#    5.538    0.000    0.000    0.000    0.000    0.000 
#    0.000    0.000    0.000    0.000    0.000    0.000 
#
# Total GULP energy -145024.906360 kJ/mol
# GULP energy per Si atom -5577.881014 kJ/mol
# Density = 2.324167 g / cm^3
# Si number density = 23.294689 Si / 1000 Ang^3
#
#
#
# Elastic Constant Matrix: (Units=GPa)
#
#
# Indices 1 2 3 4 5 6 
#
# 1 50.8926 31.5177 33.8678 0.0000 22.0771 0.0000
# 2 31.5177 108.1431 41.4488 0.0000 15.2215 0.0000
# 3 33.8678 41.4488 84.9753 0.0000 29.9354 0.0000
# 4 0.0000 0.0000 0.0000 30.0037 0.0000 9.7666
# 5 22.0771 15.2215 29.9354 0.0000 37.2967 0.0000
# 6 0.0000 0.0000 0.0000 9.7666 0.0000 33.2985
#
#
#
# Elastic Compliance Matrix: (Units=1/GPa)
#
#
# Indices 1 2 3 4 5 6 
#
# 1 0.032189 -0.005405 -0.005936 0.000000 -0.012083 0.000000
# 2 -0.005405 0.012283 -0.004459 0.000000 0.001766 0.000000
# 3 -0.005936 -0.004459 0.020119 0.000000 -0.010814 0.000000
# 4 0.000000 0.000000 0.000000 0.036847 0.000000 -0.010807
# 5 -0.012083 0.001766 -0.010814 0.000000 0.041924 0.000000
# 6 0.000000 0.000000 0.000000 -0.010807 0.000000 0.033201
#
#
# Mechanical properties :
#
#
# Convention : Reuss Voigt Hill
#
# Bulk Modulus (GPa) = 30.31234 50.85328 40.58281
# Shear Modulus (GPa) = 22.81449 29.26489 26.03969
#
# Velocity S-wave (km/s) = 3.13291 3.54826 3.34704
# Velocity P-wave (km/s) = 5.11152 6.21810 5.69176
#
# Compressibility (1/GPa) = 0.03298986
#
# Stress axis : x y z
#
# Youngs Moduli (GPa) = 31.06695 81.41442 49.70536
#
# Poissons Ratio (x) = 0.44007 0.29504
# Poissons Ratio (y) = 0.16793 0.22163
# Poissons Ratio (z) = 0.18441 0.36302
#
# Static dielectric constant tensor:
#      x y z
#    x 1.897310 0.000000 -0.029600 
#    y 0.000000 1.861170 0.000000 
#    z -0.029600 0.000000 1.883430 
# 
# From -- ./inp_files/22155.got.cif
#   From: 2010.05.17/outbox.cif.g08.bks.cpg/sg14_12_cif.got.tgz:22155.got - 2010.06.03 17:49:19.
