data_PCOD9240683
_publ_section_title
;
Structure prediction by ZEFSAII (Michael W. Deem and Ramdas Pophale) SiO2 
 PCOD9240683
Probable space group: P 21/C
;
_chemical_formula_sum "Si O2"
_cell_formula_units_Z 32
_cell_length_a 12.579440
_cell_length_b 5.226206
_cell_length_c 26.623157
_cell_angle_alpha 90.000000
_cell_angle_beta 83.847472
_cell_angle_gamma 90.000000
_cell_volume 1740.197991
_symmetry_space_group_name_H-M "P 21/C"
_symmetry_group_IT_number 14
_symmetry_cell_setting 'monoclinic'
loop_
_space_group_symop_operation_xyz
x,y,z
-x,1/2+y,1/2-z
-x,-y,-z
x,1/2-y,1/2+z
loop_
_atom_site_type_symbol
_atom_site_label
_atom_site_fract_x
_atom_site_fract_y
_atom_site_fract_z
Si Si1 0.223564 0.534412 0.275975
Si Si2 0.613543 0.739327 0.668447
Si Si3 0.644306 0.013795 0.393588
Si Si4 0.575070 0.248881 0.495857
Si Si5 0.219821 0.271384 0.677209
Si Si6 0.615790 0.333855 0.292202
Si Si7 0.417990 0.738196 0.896077
Si Si8 0.996817 0.516943 0.282163
O O1 0.280055 0.320227 0.306265
O O2 0.197286 0.438666 0.221037
O O3 0.314667 0.742458 0.258949
O O4 0.107424 0.599987 0.303739
O O5 0.510545 0.699992 0.710290
O O6 0.597025 0.510218 0.629238
O O7 0.615765 0.006805 0.638850
O O8 0.641198 0.203038 0.441280
O O9 0.629292 0.167614 0.342425
O O10 0.750337 0.850371 0.377552
O O11 0.542853 0.822976 0.400708
O O12 0.500000 0.500000 0.500000
O O13 0.635630 0.242119 0.546147
O O14 0.500000 0.000000 0.500000
O O15 0.327452 0.405480 0.693363
O O16 0.115475 0.449546 0.683265
O O17 0.008296 0.224634 0.263111
#
# Coordination Sequence:
#
# PCOD9240683 Si02
#       8
#     4   4   4   4   4   4   4   4
#     4  10  23  33  51  74 103 147 180 211 260 314
#     4  11  23  33  51  73 110 141 180 204 256 317
#     4   9  19  31  50  78 104 133 171 215 270 318
#     4  10  19  32  54  76 106 141 172 212 274 327
#     4  10  19  34  51  74 104 136 175 224 264 305
#     4  10  19  32  48  73 107 136 168 215 257 312
#     4  10  20  35  48  76 106 140 170 215 255 320
#     4  10  20  36  53  72 100 136 182 228 264 301
#
# _framework density 18.388712000000002
#
# number of rings (size 3 to 8) (size 9 to 14) (size 15 to 20)
#    0.000    2.000    2.500    2.250    5.250    0.000 
#    0.000    0.000    0.000    0.000    0.000    1.750 
#    0.000    0.000    0.000    0.000    0.000    0.000 
#
# Total GULP energy -178159.962005 kJ/mol
# GULP energy per Si atom -5567.498813 kJ/mol
# Density = 1.834686 g / cm^3
# Si number density = 18.388712 Si / 1000 Ang^3
#
#
#
# Elastic Constant Matrix: (Units=GPa)
#
#
# Indices 1 2 3 4 5 6 
#
# 1 71.6013 -7.7832 20.4453 0.0000 -1.5281 0.0000
# 2 -7.7832 70.7415 19.7568 0.0000 -3.4482 0.0000
# 3 20.4453 19.7568 68.2935 0.0000 -3.0067 0.0000
# 4 0.0000 0.0000 0.0000 27.3547 0.0000 -1.2199
# 5 -1.5281 -3.4482 -3.0067 0.0000 10.5949 0.0000
# 6 0.0000 0.0000 0.0000 -1.2199 0.0000 23.8067
#
#
#
# Elastic Compliance Matrix: (Units=1/GPa)
#
#
# Indices 1 2 3 4 5 6 
#
# 1 0.016010 0.003444 -0.005710 0.000000 0.001810 0.000000
# 2 0.003444 0.016271 -0.005553 0.000000 0.004217 0.000000
# 3 -0.005710 -0.005553 0.018068 0.000000 0.002497 0.000000
# 4 0.000000 0.000000 0.000000 0.036640 0.000000 0.001878
# 5 0.001810 0.004217 0.002497 0.000000 0.096727 0.000000
# 6 0.000000 0.000000 0.000000 0.001878 0.000000 0.042101
#
#
# Mechanical properties :
#
#
# Convention : Reuss Voigt Hill
#
# Bulk Modulus (GPa) = 28.80757 30.60822 29.70789
# Shear Modulus (GPa) = 19.76093 24.23242 21.99668
#
# Velocity S-wave (km/s) = 3.28170 3.63407 3.46237
# Velocity P-wave (km/s) = 5.48264 5.85576 5.67227
#
# Compressibility (1/GPa) = 0.03471310
#
# Stress axis : x y z
#
# Youngs Moduli (GPa) = 62.46260 61.45830 55.34574
#
# Poissons Ratio (x) = -0.21168 0.31600
# Poissons Ratio (y) = -0.21513 0.30731
# Poissons Ratio (z) = 0.35663 0.34125
#
# Static dielectric constant tensor:
#      x y z
#    x 1.718120 0.000000 -0.046720 
#    y 0.000000 1.716140 0.000000 
#    z -0.046720 0.000000 1.687240 
# 
# From -- ./inp_files/76849.got.cif
#   From: 2010.05.17/outbox.cif.g08.bks.cpg/sg14_39_cif.got.tgz:76849.got - 2010.06.03 17:49:19.
