data_PCOD9240050
_publ_section_title
;
Structure prediction by ZEFSAII (Michael W. Deem and Ramdas Pophale) SiO2 
 PCOD9240050
Probable space group: P 21/C
;
_chemical_formula_sum "Si O2"
_cell_formula_units_Z 24
_cell_length_a 5.278075
_cell_length_b 10.920915
_cell_length_c 22.133995
_cell_angle_alpha 90.000000
_cell_angle_beta 57.131878
_cell_angle_gamma 90.000000
_cell_volume 1071.601516
_symmetry_space_group_name_H-M "P 21/C"
_symmetry_group_IT_number 14
_symmetry_cell_setting 'monoclinic'
loop_
_space_group_symop_operation_xyz
x,y,z
-x,1/2+y,1/2-z
-x,-y,-z
x,1/2-y,1/2+z
loop_
_atom_site_type_symbol
_atom_site_label
_atom_site_fract_x
_atom_site_fract_y
_atom_site_fract_z
Si Si1 0.640192 0.742601 0.190541
Si Si2 0.909794 0.555289 0.432510
Si Si3 0.378829 0.229973 0.608354
Si Si4 0.988266 0.379045 0.251973
Si Si5 0.540992 0.920743 0.805286
Si Si6 0.087922 0.803203 0.030363
O O1 0.315007 0.799449 0.218451
O O2 0.572119 0.612469 0.231332
O O3 0.822850 0.821778 0.217499
O O4 0.850789 0.739227 0.104630
O O5 0.800307 0.659661 0.401060
O O6 0.752308 0.421598 0.457818
O O7 0.243263 0.511882 0.366690
O O8 0.937431 0.626304 0.492843
O O9 0.502258 0.295203 0.652649
O O10 0.661574 0.210087 0.527918
O O11 0.170421 0.126662 0.664818
O O12 0.847226 0.511057 0.283596
#
# Coordination Sequence:
#
# PCOD9240050 Si02
#       6
#     4   4   4   4   4   4
#     4  11  23  38  60  88 118 156 195 244 290 350
#     4  10  18  34  57  85 117 148 192 245 299 341
#     4  10  21  36  56  86 119 154 190 245 296 346
#     4  11  23  39  61  85 120 156 195 242 291 349
#     4  10  21  37  59  87 116 156 201 237 291 350
#     4  10  21  32  56  87 117 152 191 245 296 342
#
# _framework density 22.396384999999999
#
# number of rings (size 3 to 8) (size 9 to 14) (size 15 to 20)
#    0.000    1.667    3.333    1.500    2.333    0.000 
#    0.000    0.833    0.000    1.000    0.000    0.000 
#    0.000    0.000    0.000    0.000    0.000    0.000 
#
# Total GULP energy -133798.123366 kJ/mol
# GULP energy per Si atom -5574.921807 kJ/mol
# Density = 2.234541 g / cm^3
# Si number density = 22.396385 Si / 1000 Ang^3
#
#
#
# Elastic Constant Matrix: (Units=GPa)
#
#
# Indices 1 2 3 4 5 6 
#
# 1 59.9486 1.5124 17.7475 0.0000 8.4254 0.0000
# 2 1.5124 8.8163 30.3960 0.0000 -0.2379 0.0000
# 3 17.7475 30.3960 197.3261 0.0000 0.8083 0.0000
# 4 0.0000 0.0000 0.0000 42.3709 0.0000 4.6031
# 5 8.4254 -0.2379 0.8083 0.0000 18.0705 0.0000
# 6 0.0000 0.0000 0.0000 4.6031 0.0000 20.7434
#
#
#
# Elastic Compliance Matrix: (Units=1/GPa)
#
#
# Indices 1 2 3 4 5 6 
#
# 1 0.018443 0.004710 -0.002350 0.000000 -0.008432 0.000000
# 2 0.004710 0.243521 -0.037947 0.000000 0.002708 0.000000
# 3 -0.002350 -0.037947 0.011124 0.000000 0.000098 0.000000
# 4 0.000000 0.000000 0.000000 0.024184 0.000000 -0.005367
# 5 -0.008432 0.002708 0.000098 0.000000 0.059302 0.000000
# 6 0.000000 0.000000 0.000000 -0.005367 0.000000 0.049399
#
#
# Mechanical properties :
#
#
# Convention : Reuss Voigt Hill
#
# Bulk Modulus (GPa) = 4.95258 40.60030 22.77644
# Shear Modulus (GPa) = 9.18358 30.66595 19.92476
#
# Velocity S-wave (km/s) = 2.02716 3.70433 2.98592
# Velocity P-wave (km/s) = 2.77404 6.03850 4.69887
#
# Compressibility (1/GPa) = 0.20191495
#
# Stress axis : x y z
#
# Youngs Moduli (GPa) = 54.22161 4.10642 89.89612
#
# Poissons Ratio (x) = -0.01934 0.21123
# Poissons Ratio (y) = -0.25538 3.41125
# Poissons Ratio (z) = 0.12741 0.15582
#
# Static dielectric constant tensor:
#      x y z
#    x 1.915720 0.000000 -0.023760 
#    y 0.000000 1.918110 0.000000 
#    z -0.023760 0.000000 1.906820 
# 
# From -- ./inp_files/37211.got.cif
#   From: 2010.05.17/outbox.cif.g08.bks.cpg/sg14_19_cif.got.tgz:37211.got - 2010.06.03 17:49:19.
