data_PCOD9240343
_publ_section_title
;
Structure prediction by ZEFSAII (Michael W. Deem and Ramdas Pophale) SiO2 
 PCOD9240343
Probable space group: P 21/C
;
_chemical_formula_sum "Si O2"
_cell_formula_units_Z 28
_cell_length_a 18.009512
_cell_length_b 5.705771
_cell_length_c 26.527589
_cell_angle_alpha 90.000000
_cell_angle_beta 150.773671
_cell_angle_gamma 90.000000
_cell_volume 1330.962647
_symmetry_space_group_name_H-M "P 21/C"
_symmetry_group_IT_number 14
_symmetry_cell_setting 'monoclinic'
loop_
_space_group_symop_operation_xyz
x,y,z
-x,1/2+y,1/2-z
-x,-y,-z
x,1/2-y,1/2+z
loop_
_atom_site_type_symbol
_atom_site_label
_atom_site_fract_x
_atom_site_fract_y
_atom_site_fract_z
Si Si1 0.800355 0.103662 0.475186
Si Si2 0.599305 0.369501 0.491305
Si Si3 0.691298 0.340095 0.652947
Si Si4 0.615228 0.548941 0.188669
Si Si5 0.288024 0.095763 0.033592
Si Si6 0.858695 0.938446 0.334640
Si Si7 0.620090 0.178291 0.269166
O O1 0.802025 0.357600 0.504504
O O2 0.673935 0.132480 0.357002
O O3 0.966862 0.081129 0.548565
O O4 0.774369 0.852843 0.487957
O O5 0.694128 0.284834 0.595584
O O6 0.436144 0.458400 0.415205
O O7 0.541721 0.181674 0.416377
O O8 0.682511 0.570759 0.508882
O O9 0.840724 0.433411 0.769643
O O10 0.629583 0.133935 0.651527
O O11 0.770086 0.694930 0.277832
O O12 0.608542 0.440615 0.240391
O O13 0.455016 0.076172 0.158445
O O14 0.751424 0.072641 0.310733
#
# Coordination Sequence:
#
# PCOD9240343 Si02
#       7
#     4   4   4   4   4   4   4
#     4  12  29  42  65  97 141 179 211 278 346 394
#     4  10  19  37  64 101 123 174 215 288 323 395
#     4   9  19  36  67  94 129 162 233 270 338 373
#     4  10  18  36  69  96 131 159 232 285 321 391
#     4  12  25  44  64  98 136 171 227 270 336 402
#     4  10  23  42  64  97 129 172 227 275 326 408
#     4  11  23  43  68  92 129 177 233 272 323 395
#
# _framework density 21.037406000000001
#
# number of rings (size 3 to 8) (size 9 to 14) (size 15 to 20)
#    0.000    1.429    4.286    2.571    6.000    0.571 
#    0.000    1.429    0.000    0.000    0.000    0.000 
#    0.000    0.000    0.000    0.000    0.000    0.000 
#
# Total GULP energy -156038.739970 kJ/mol
# GULP energy per Si atom -5572.812142 kJ/mol
# Density = 2.098952 g / cm^3
# Si number density = 21.037406 Si / 1000 Ang^3
#
#
#
# Elastic Constant Matrix: (Units=GPa)
#
#
# Indices 1 2 3 4 5 6 
#
# 1 42.5687 24.5629 18.5808 0.0000 5.4875 0.0000
# 2 24.5629 91.6455 20.0621 0.0000 0.7567 0.0000
# 3 18.5808 20.0621 43.3373 0.0000 2.8018 0.0000
# 4 0.0000 0.0000 0.0000 9.4351 0.0000 -0.6474
# 5 5.4875 0.7567 2.8018 0.0000 36.1531 0.0000
# 6 0.0000 0.0000 0.0000 -0.6474 0.0000 26.9571
#
#
#
# Elastic Compliance Matrix: (Units=1/GPa)
#
#
# Indices 1 2 3 4 5 6 
#
# 1 0.032286 -0.006283 -0.010679 0.000000 -0.003941 0.000000
# 2 -0.006283 0.013366 -0.003555 0.000000 0.000949 0.000000
# 3 -0.010679 -0.003555 0.029337 0.000000 -0.000578 0.000000
# 4 0.000000 0.000000 0.000000 0.106162 0.000000 0.002550
# 5 -0.003941 0.000949 -0.000578 0.000000 0.028283 0.000000
# 6 0.000000 0.000000 0.000000 0.002550 0.000000 0.037157
#
#
# Mechanical properties :
#
#
# Convention : Reuss Voigt Hill
#
# Bulk Modulus (GPa) = 29.45142 33.77367 31.61254
# Shear Modulus (GPa) = 16.72552 22.13209 19.42881
#
# Velocity S-wave (km/s) = 2.82270 3.24703 3.04227
# Velocity P-wave (km/s) = 4.96522 5.49059 5.23450
#
# Compressibility (1/GPa) = 0.03395423
#
# Stress axis : x y z
#
# Youngs Moduli (GPa) = 30.97282 74.81664 34.08702
#
# Poissons Ratio (x) = 0.47008 0.36403
# Poissons Ratio (y) = 0.19460 0.12118
# Poissons Ratio (z) = 0.33077 0.26598
#
# Static dielectric constant tensor:
#      x y z
#    x 1.792310 0.000000 -0.035560 
#    y 0.000000 1.878090 0.000000 
#    z -0.035560 0.000000 1.741830 
# 
# From -- ./inp_files/77719.got.cif
#   From: 2010.05.17/outbox.cif.g08.bks.cpg/sg14_39_cif.got.tgz:77719.got - 2010.06.03 17:49:19.
