data_PCOD9240021
_publ_section_title
;
Structure prediction by ZEFSAII (Michael W. Deem and Ramdas Pophale) SiO2 
 PCOD9240021
Probable space group: P 21/C
;
_chemical_formula_sum "Si O2"
_cell_formula_units_Z 24
_cell_length_a 19.025726
_cell_length_b 9.109399
_cell_length_c 16.742600
_cell_angle_alpha 90.000000
_cell_angle_beta 28.356988
_cell_angle_gamma 90.000000
_cell_volume 1378.206531
_symmetry_space_group_name_H-M "P 21/C"
_symmetry_group_IT_number 14
_symmetry_cell_setting 'monoclinic'
loop_
_space_group_symop_operation_xyz
x,y,z
-x,1/2+y,1/2-z
-x,-y,-z
x,1/2-y,1/2+z
loop_
_atom_site_type_symbol
_atom_site_label
_atom_site_fract_x
_atom_site_fract_y
_atom_site_fract_z
Si Si1 0.249997 0.035656 0.910728
Si Si2 0.249998 0.791756 0.782366
Si Si3 0.002091 0.242571 0.086181
Si Si4 0.749992 0.946708 0.737774
Si Si5 0.250002 0.932475 0.089391
Si Si6 0.497914 0.257429 0.090363
O O1 0.393139 0.127230 0.738989
O O2 0.250001 0.882438 0.863066
O O3 0.106855 0.127229 0.025271
O O4 0.249996 0.010328 0.004913
O O5 0.106301 0.826658 0.871943
O O6 0.250002 0.615215 0.792132
O O7 0.393690 0.826659 0.584548
O O8 0.893720 0.329735 0.254338
O O9 0.108015 0.359908 0.936367
O O10 0.608001 0.859912 0.847614
O O11 0.749990 0.959746 0.833804
O O12 0.393722 0.829730 0.958211
#
# Coordination Sequence:
#
# PCOD9240021 Si02
#       6
#     4   4   4   4   4   4
#     4  11  22  34  54  83 106 130 174 227 262 292
#     4  10  18  34  56  76 104 142 174 210 256 314
#     4   9  20  37  54  76 106 141 176 208 256 318
#     4   9  18  36  58  75 102 146 180 201 250 324
#     4  10  20  34  54  78 106 136 172 216 262 306
#     4   9  20  37  54  76 106 141 176 208 256 318
#
# _framework density 17.413937000000001
#
# number of rings (size 3 to 8) (size 9 to 14) (size 15 to 20)
#    0.000    2.667    0.000    5.000    0.000    5.333 
#    0.000    5.000    0.000    0.000    0.000    0.000 
#    0.000    0.000    0.000    0.000    0.000    0.000 
#
# Total GULP energy -133876.698439 kJ/mol
# GULP energy per Si atom -5578.195768 kJ/mol
# Density = 1.737430 g / cm^3
# Si number density = 17.413937 Si / 1000 Ang^3
#
#
#
# Elastic Constant Matrix: (Units=GPa)
#
#
# Indices 1 2 3 4 5 6 
#
# 1 110.6553 76.5188 77.4498 0.0000 11.1509 0.0000
# 2 76.5188 75.0672 57.2535 0.0000 19.6967 0.0000
# 3 77.4498 57.2535 109.6526 0.0000 -10.1424 0.0000
# 4 0.0000 0.0000 0.0000 10.9558 0.0000 12.6583
# 5 11.1509 19.6967 -10.1424 0.0000 32.9201 0.0000
# 6 0.0000 0.0000 0.0000 12.6583 0.0000 23.3289
#
#
#
# Elastic Compliance Matrix: (Units=1/GPa)
#
#
# Indices 1 2 3 4 5 6 
#
# 1 0.037057 -0.031457 -0.009439 0.000000 0.003361 0.000000
# 2 -0.031457 0.065700 -0.015168 0.000000 -0.033328 0.000000
# 3 -0.009439 -0.015168 0.025570 0.000000 0.020151 0.000000
# 4 0.000000 0.000000 0.000000 0.244653 0.000000 -0.132749
# 5 0.003361 -0.033328 0.020151 0.000000 0.055387 0.000000
# 6 0.000000 0.000000 0.000000 -0.132749 0.000000 0.114895
#
#
# Mechanical properties :
#
#
# Convention : Reuss Voigt Hill
#
# Bulk Modulus (GPa) = 61.72928 79.75769 70.74349
# Shear Modulus (GPa) = 7.56669 19.05116 13.30892
#
# Velocity S-wave (km/s) = 2.08677 3.31118 2.76754
# Velocity P-wave (km/s) = 6.42894 7.77940 7.13619
#
# Compressibility (1/GPa) = 0.01619977
#
# Stress axis : x y z
#
# Youngs Moduli (GPa) = 26.98514 15.22063 39.10803
#
# Poissons Ratio (x) = 0.47880 0.36913
# Poissons Ratio (y) = 0.84887 0.59320
# Poissons Ratio (z) = 0.25470 0.23087
#
# Static dielectric constant tensor:
#      x y z
#    x 1.570190 0.000000 -0.024000 
#    y 0.000000 1.583600 0.000000 
#    z -0.024000 0.000000 1.593660 
# 
# From -- ./inp_files/34394.got.cif
#   From: 2010.05.17/outbox.cif.g08.bks.cpg/sg14_18_cif.got.tgz:34394.got - 2010.06.03 17:49:19.
