data_PCOD9240600
_publ_section_title
;
Structure prediction by ZEFSAII (Michael W. Deem and Ramdas Pophale) SiO2 
 PCOD9240600
Probable space group: P 21/C
;
_chemical_formula_sum "Si O2"
_cell_formula_units_Z 32
_cell_length_a 16.172984
_cell_length_b 20.413850
_cell_length_c 15.828387
_cell_angle_alpha 90.000000
_cell_angle_beta 17.684518
_cell_angle_gamma 90.000000
_cell_volume 1587.466852
_symmetry_space_group_name_H-M "P 21/C"
_symmetry_group_IT_number 14
_symmetry_cell_setting 'monoclinic'
loop_
_space_group_symop_operation_xyz
x,y,z
-x,1/2+y,1/2-z
-x,-y,-z
x,1/2-y,1/2+z
loop_
_atom_site_type_symbol
_atom_site_label
_atom_site_fract_x
_atom_site_fract_y
_atom_site_fract_z
Si Si1 0.361700 0.785579 0.683728
Si Si2 0.100872 0.670536 0.045647
Si Si3 0.185075 0.051769 0.771317
Si Si4 0.368301 0.149061 0.877771
Si Si5 0.356159 0.916317 0.787856
Si Si6 0.814335 0.819830 0.128614
Si Si7 0.129890 0.976452 0.460329
Si Si8 0.335858 0.499933 0.465375
O O1 0.428679 0.843008 0.686552
O O2 0.628279 0.772415 0.367710
O O3 0.220130 0.726696 0.870745
O O4 0.130291 0.810789 0.843496
O O5 0.806432 0.678894 0.374479
O O6 0.315395 0.662229 0.913635
O O7 0.101006 0.601849 0.996133
O O8 0.458768 0.036963 0.453083
O O9 0.259726 0.108154 0.764612
O O10 0.965266 0.078339 0.917452
O O11 0.000000 0.000000 0.000000
O O12 0.260971 0.179723 0.895781
O O13 0.331993 0.069941 0.919222
O O14 0.402205 0.941517 0.837114
O O15 0.441061 0.993806 0.177668
O O16 0.000000 0.000000 0.500000
O O17 0.954900 0.006430 0.707583
#
# Coordination Sequence:
#
# PCOD9240600 Si02
#       8
#     4   4   4   4   4   4   4   4
#     4  10  21  37  54  77 114 151 182 222 280 338
#     4  10  21  38  58  77 107 147 183 229 280 329
#     4  10  19  30  49  77 111 145 173 208 259 318
#     4  10  20  35  57  81 104 139 185 227 273 324
#     4  10  20  33  51  77 110 145 174 212 269 329
#     4  10  20  34  54  80 110 143 185 229 264 330
#     4  10  21  38  59  81 105 139 186 237 285 325
#     4  10  20  35  57  82 110 139 176 228 277 331
#
# _framework density 20.157902
#
# number of rings (size 3 to 8) (size 9 to 14) (size 15 to 20)
#    0.000    2.000    0.000    3.750    0.000    4.000 
#    0.000    3.750    0.000    0.000    0.000    0.000 
#    0.000    0.000    0.000    0.000    0.000    0.000 
#
# Total GULP energy -178531.752426 kJ/mol
# GULP energy per Si atom -5579.117263 kJ/mol
# Density = 2.011202 g / cm^3
# Si number density = 20.157902 Si / 1000 Ang^3
#
#
#
# Elastic Constant Matrix: (Units=GPa)
#
#
# Indices 1 2 3 4 5 6 
#
# 1 80.0048 36.5903 -3.2813 0.0000 4.8425 0.0000
# 2 36.5903 51.8515 10.1725 0.0000 11.2805 0.0000
# 3 -3.2813 10.1725 86.7023 0.0000 -5.1523 0.0000
# 4 0.0000 0.0000 0.0000 23.9393 0.0000 0.7986
# 5 4.8425 11.2805 -5.1523 0.0000 16.6116 0.0000
# 6 0.0000 0.0000 0.0000 0.7986 0.0000 13.5220
#
#
#
# Elastic Compliance Matrix: (Units=1/GPa)
#
#
# Indices 1 2 3 4 5 6 
#
# 1 0.019345 -0.015472 0.002890 0.000000 0.005764 0.000000
# 2 -0.015472 0.036187 -0.006137 0.000000 -0.021967 0.000000
# 3 0.002890 -0.006137 0.012797 0.000000 0.007294 0.000000
# 4 0.000000 0.000000 0.000000 0.041855 0.000000 -0.002472
# 5 0.005764 -0.021967 0.007294 0.000000 0.075698 0.000000
# 6 0.000000 0.000000 0.000000 -0.002472 0.000000 0.074100
#
#
# Mechanical properties :
#
#
# Convention : Reuss Voigt Hill
#
# Bulk Modulus (GPa) = 32.37207 33.94683 33.15945
# Shear Modulus (GPa) = 16.24876 22.48639 19.36758
#
# Velocity S-wave (km/s) = 2.84222 3.34355 3.10303
# Velocity P-wave (km/s) = 5.18315 5.63762 5.41516
#
# Compressibility (1/GPa) = 0.03089083
#
# Stress axis : x y z
#
# Youngs Moduli (GPa) = 51.69249 27.63417 78.14629
#
# Poissons Ratio (x) = 0.42756 -0.22584
# Poissons Ratio (y) = 0.79980 0.47956
# Poissons Ratio (z) = -0.14939 0.16958
#
# Static dielectric constant tensor:
#      x y z
#    x 1.708550 0.000000 0.002810 
#    y 0.000000 1.733120 0.000000 
#    z 0.002810 0.000000 1.722580 
# 
# From -- ./inp_files/47648.got.cif
#   From: 2010.05.17/outbox.cif.g08.bks.cpg/sg14_24_cif.got.tgz:47648.got - 2010.06.03 17:49:19.
