data_PCOD9240441
_publ_section_title
;
Structure prediction by ZEFSAII (Michael W. Deem and Ramdas Pophale) SiO2 
 PCOD9240441
Probable space group: P 21/C
;
_chemical_formula_sum "Si O2"
_cell_formula_units_Z 24
_cell_length_a 18.404161
_cell_length_b 8.062202
_cell_length_c 14.334557
_cell_angle_alpha 90.000000
_cell_angle_beta 30.404942
_cell_angle_gamma 90.000000
_cell_volume 1076.458552
_symmetry_space_group_name_H-M "P 21/C"
_symmetry_group_IT_number 14
_symmetry_cell_setting 'monoclinic'
loop_
_space_group_symop_operation_xyz
x,y,z
-x,1/2+y,1/2-z
-x,-y,-z
x,1/2-y,1/2+z
loop_
_atom_site_type_symbol
_atom_site_label
_atom_site_fract_x
_atom_site_fract_y
_atom_site_fract_z
Si Si1 0.478744 0.590948 0.125492
Si Si2 0.354818 0.229227 0.771144
Si Si3 0.168948 0.162750 0.320551
Si Si4 0.085932 0.858480 0.848373
Si Si5 0.347784 0.674963 0.641613
Si Si6 0.226297 0.375940 0.088513
O O1 0.379344 0.454038 0.284724
O O2 0.406183 0.765011 0.177930
O O3 0.500000 0.500000 0.000000
O O4 0.618055 0.606167 0.034489
O O5 0.270601 0.214526 0.767364
O O6 0.508935 0.317189 0.581316
O O7 0.255875 0.330432 0.950324
O O8 0.157557 0.227803 0.227187
O O9 0.013962 0.194790 0.539481
O O10 0.258438 0.994158 0.233710
O O11 0.233293 0.810759 0.735325
O O12 0.134399 0.956267 0.702357
O O13 0.000000 0.000000 0.000000
#
# Coordination Sequence:
#
# PCOD9240441 Si02
#       6
#     4   4   4   4   4   4
#     4  10  18  38  62  92 130 167 209 271 335 377
#     4  11  23  38  66  96 127 165 222 275 324 380
#     4  11  23  40  62  96 132 169 219 265 321 400
#     4  10  21  42  64  84 127 177 210 258 330 397
#     4  11  21  39  67  95 127 170 218 273 330 379
#     4  11  22  39  66  96 128 174 219 268 334 390
#
# _framework density 22.295331999999998
#
# number of rings (size 3 to 8) (size 9 to 14) (size 15 to 20)
#    0.000    1.333    6.667    2.000    2.333    0.000 
#    0.000    5.000    0.000    0.000    0.000    0.000 
#    0.000    0.000    0.000    0.000    0.000    0.000 
#
# Total GULP energy -133751.691259 kJ/mol
# GULP energy per Si atom -5572.987136 kJ/mol
# Density = 2.224459 g / cm^3
# Si number density = 22.295332 Si / 1000 Ang^3
#
#
#
# Elastic Constant Matrix: (Units=GPa)
#
#
# Indices 1 2 3 4 5 6 
#
# 1 31.3301 -3.5149 18.3513 0.0000 -1.5680 0.0000
# 2 -3.5149 84.1651 33.1296 0.0000 4.0994 0.0000
# 3 18.3513 33.1296 109.8710 0.0000 -4.0585 0.0000
# 4 0.0000 0.0000 0.0000 22.4630 0.0000 -8.9447
# 5 -1.5680 4.0994 -4.0585 0.0000 29.2006 0.0000
# 6 0.0000 0.0000 0.0000 -8.9447 0.0000 29.1852
#
#
#
# Elastic Compliance Matrix: (Units=1/GPa)
#
#
# Indices 1 2 3 4 5 6 
#
# 1 0.036820 0.004469 -0.007486 0.000000 0.000309 0.000000
# 2 0.004469 0.014204 -0.005120 0.000000 -0.002466 0.000000
# 3 -0.007486 -0.005120 0.011969 0.000000 0.001980 0.000000
# 4 0.000000 0.000000 0.000000 0.050706 0.000000 0.015540
# 5 0.000309 -0.002466 0.001980 0.000000 0.034884 0.000000
# 6 0.000000 0.000000 0.000000 0.015540 0.000000 0.039027
#
#
# Mechanical properties :
#
#
# Convention : Reuss Voigt Hill
#
# Bulk Modulus (GPa) = 21.40488 35.69980 28.55234
# Shear Modulus (GPa) = 22.78355 27.99643 25.38999
#
# Velocity S-wave (km/s) = 3.20018 3.54744 3.37828
# Velocity P-wave (km/s) = 4.82456 5.72941 5.29634
#
# Compressibility (1/GPa) = 0.04671832
#
# Stress axis : x y z
#
# Youngs Moduli (GPa) = 27.15916 70.40430 83.54861
#
# Poissons Ratio (x) = -0.31466 0.62545
# Poissons Ratio (y) = -0.12138 0.42780
# Poissons Ratio (z) = 0.20332 0.36050
#
# Static dielectric constant tensor:
#      x y z
#    x 1.776950 0.000000 -0.008320 
#    y 0.000000 1.984250 0.000000 
#    z -0.008320 0.000000 1.928360 
# 
# From -- ./inp_files/48485.got.cif
#   From: 2010.05.17/outbox.cif.g08.bks.cpg/sg14_25_cif.got.tgz:48485.got - 2010.06.03 17:49:19.
