data_PCOD9240901
_publ_section_title
;
Structure prediction by ZEFSAII (Michael W. Deem and Ramdas Pophale) SiO2 
 PCOD9240901
Probable space group: P 21/C
;
_chemical_formula_sum "Si O2"
_cell_formula_units_Z 28
_cell_length_a 5.308514
_cell_length_b 25.964412
_cell_length_c 9.210153
_cell_angle_alpha 90.000000
_cell_angle_beta 90.356245
_cell_angle_gamma 90.000000
_cell_volume 1269.433365
_symmetry_space_group_name_H-M "P 21/C"
_symmetry_group_IT_number 14
_symmetry_cell_setting 'monoclinic'
loop_
_space_group_symop_operation_xyz
x,y,z
-x,1/2+y,1/2-z
-x,-y,-z
x,1/2-y,1/2+z
loop_
_atom_site_type_symbol
_atom_site_label
_atom_site_fract_x
_atom_site_fract_y
_atom_site_fract_z
Si Si1 0.735077 0.608185 0.395277
Si Si2 0.713799 0.679539 0.811768
Si Si3 0.978267 0.102375 0.809570
Si Si4 0.628916 0.287289 0.954898
Si Si5 0.750998 0.000616 0.899205
Si Si6 0.386404 0.826251 0.032834
Si Si7 0.122034 0.289444 0.758087
O O1 0.828153 0.592818 0.556964
O O2 0.879584 0.658415 0.337620
O O3 0.746445 0.553930 0.313354
O O4 0.455402 0.630624 0.416183
O O5 0.617320 0.680821 0.645649
O O6 0.874733 0.627053 0.825603
O O7 0.859302 0.734495 0.827481
O O8 0.469795 0.677813 0.913960
O O9 0.827764 0.151498 0.868184
O O10 0.795311 0.052693 0.804583
O O11 0.654892 0.230304 0.025443
O O12 0.883914 0.293510 0.864801
O O13 0.387035 0.290861 0.846794
O O14 0.500000 0.000000 0.000000
O O15 0.000000 0.000000 0.000000
#
# Coordination Sequence:
#
# PCOD9240901 Si02
#       7
#     4   4   4   4   4   4   4
#     4  10  21  36  56  86 118 143 185 237 283 339
#     4  10  22  36  54  81 115 148 188 231 272 336
#     4  10  20  35  59  85 114 147 186 233 290 327
#     4  11  24  37  54  83 114 151 190 219 276 341
#     4  10  20  34  57  86 113 143 182 235 289 331
#     4  10  19  33  57  81 111 147 181 228 284 332
#     4  11  24  36  57  82 113 155 182 227 285 330
#
# _framework density 22.057086999999999
#
# number of rings (size 3 to 8) (size 9 to 14) (size 15 to 20)
#    0.000    1.714    4.286    0.000    4.000    0.000 
#    0.000    0.000    0.000    1.714    0.000    0.000 
#    0.000    0.000    0.000    0.000    0.000    0.000 
#
# Total GULP energy -155932.913685 kJ/mol
# GULP energy per Si atom -5569.032632 kJ/mol
# Density = 2.200688 g / cm^3
# Si number density = 22.057087 Si / 1000 Ang^3
#
#
#
# Elastic Constant Matrix: (Units=GPa)
#
#
# Indices 1 2 3 4 5 6 
#
# 1 112.3874 19.9506 18.3100 0.0000 -19.6807 0.0000
# 2 19.9506 94.3390 12.0232 0.0000 -4.3241 0.0000
# 3 18.3100 12.0232 43.1489 0.0000 -16.2082 0.0000
# 4 0.0000 0.0000 0.0000 21.6020 0.0000 -11.4166
# 5 -19.6807 -4.3241 -16.2082 0.0000 36.6038 0.0000
# 6 0.0000 0.0000 0.0000 -11.4166 0.0000 28.4362
#
#
#
# Elastic Compliance Matrix: (Units=1/GPa)
#
#
# Indices 1 2 3 4 5 6 
#
# 1 0.010331 -0.001695 -0.002279 0.000000 0.004345 0.000000
# 2 -0.001695 0.011269 -0.002714 0.000000 -0.000782 0.000000
# 3 -0.002279 -0.002714 0.029170 0.000000 0.011370 0.000000
# 4 0.000000 0.000000 0.000000 0.058760 0.000000 0.023591
# 5 0.004345 -0.000782 0.011370 0.000000 0.034598 0.000000
# 6 0.000000 0.000000 0.000000 0.023591 0.000000 0.044638
#
#
# Mechanical properties :
#
#
# Convention : Reuss Voigt Hill
#
# Bulk Modulus (GPa) = 26.74370 38.93810 32.84090
# Shear Modulus (GPa) = 23.29838 30.63452 26.96645
#
# Velocity S-wave (km/s) = 3.25357 3.73080 3.50033
# Velocity P-wave (km/s) = 5.12497 6.02081 5.59086
#
# Compressibility (1/GPa) = 0.03739198
#
# Stress axis : x y z
#
# Youngs Moduli (GPa) = 96.79670 88.74188 34.28145
#
# Poissons Ratio (x) = 0.15043 0.07814
# Poissons Ratio (y) = 0.16408 0.09306
# Poissons Ratio (z) = 0.22064 0.24089
#
# Static dielectric constant tensor:
#      x y z
#    x 1.989930 0.000000 0.044860 
#    y 0.000000 1.952600 0.000000 
#    z 0.044860 0.000000 1.869640 
# 
# From -- ./inp_files/21727.got.cif
#   From: 2010.05.17/outbox.cif.g08.bks.cpg/sg14_11_cif.got.tgz:21727.got - 2010.06.03 17:49:19.
