data_PCOD9240687
_publ_section_title
;
Structure prediction by ZEFSAII (Michael W. Deem and Ramdas Pophale) SiO2 
 PCOD9240687
Probable space group: P 21/C
;
_chemical_formula_sum "Si O2"
_cell_formula_units_Z 28
_cell_length_a 10.951896
_cell_length_b 5.397528
_cell_length_c 25.480008
_cell_angle_alpha 90.000000
_cell_angle_beta 61.505448
_cell_angle_gamma 90.000000
_cell_volume 1323.746116
_symmetry_space_group_name_H-M "P 21/C"
_symmetry_group_IT_number 14
_symmetry_cell_setting 'monoclinic'
loop_
_space_group_symop_operation_xyz
x,y,z
-x,1/2+y,1/2-z
-x,-y,-z
x,1/2-y,1/2+z
loop_
_atom_site_type_symbol
_atom_site_label
_atom_site_fract_x
_atom_site_fract_y
_atom_site_fract_z
Si Si1 0.923241 0.592764 0.716887
Si Si2 0.318068 0.246623 0.028563
Si Si3 0.603398 0.248267 0.538920
Si Si4 0.424717 0.744135 0.330963
Si Si5 0.221078 0.735707 0.686615
Si Si6 0.680188 0.743618 0.199809
Si Si7 0.242736 0.241624 0.651383
O O1 0.841655 0.328436 0.744779
O O2 0.834527 0.723382 0.690450
O O3 0.885010 0.713120 0.781614
O O4 0.084743 0.664832 0.679879
O O5 0.458031 0.242934 0.036278
O O6 0.205214 0.241466 0.098211
O O7 0.319917 0.499802 0.996169
O O8 0.319047 0.000643 0.993757
O O9 0.579779 0.237532 0.605605
O O10 0.574782 0.756350 0.271269
O O11 0.359083 0.481623 0.327125
O O12 0.345430 0.984105 0.323677
O O13 0.311083 0.491338 0.659692
O O14 0.305429 0.968050 0.646909
#
# Coordination Sequence:
#
# PCOD9240687 Si02
#       7
#     4   4   4   4   4   4   4
#     4  10  20  34  52  81 110 141 163 224 258 328
#     4  10  20  33  54  78  99 143 173 210 283 299
#     4  10  20  35  52  74 108 132 180 225 246 319
#     4  10  21  38  48  82 103 145 176 217 241 324
#     4  10  20  31  52  77 116 127 173 211 276 306
#     4  10  22  33  57  73 110 141 181 199 268 308
#     4  10  19  32  49  79 108 135 163 214 265 324
#
# _framework density 21.152090999999999
#
# number of rings (size 3 to 8) (size 9 to 14) (size 15 to 20)
#    0.857    1.143    1.429    2.571    2.000    0.000 
#    2.571    0.000    0.000    0.000    0.000   20.000 
#    0.000    0.000    0.000    0.000    0.000    0.000 
#
# Total GULP energy -155879.761177 kJ/mol
# GULP energy per Si atom -5567.134328 kJ/mol
# Density = 2.110395 g / cm^3
# Si number density = 21.152091 Si / 1000 Ang^3
#
#
#
# Elastic Constant Matrix: (Units=GPa)
#
#
# Indices 1 2 3 4 5 6 
#
# 1 53.5532 16.9019 13.2486 0.0000 11.1874 0.0000
# 2 16.9019 200.9729 69.5241 0.0000 14.0140 0.0000
# 3 13.2486 69.5241 118.1400 0.0000 27.1016 0.0000
# 4 0.0000 0.0000 0.0000 35.7389 0.0000 3.9019
# 5 11.1874 14.0140 27.1016 0.0000 15.7190 0.0000
# 6 0.0000 0.0000 0.0000 3.9019 0.0000 12.8238
#
#
#
# Elastic Compliance Matrix: (Units=1/GPa)
#
#
# Indices 1 2 3 4 5 6 
#
# 1 0.022546 -0.001520 0.002872 0.000000 -0.019643 0.000000
# 2 -0.001520 0.006366 -0.004172 0.000000 0.002600 0.000000
# 3 0.002872 -0.004172 0.016896 0.000000 -0.027455 0.000000
# 4 0.000000 0.000000 0.000000 0.028942 0.000000 -0.008806
# 5 -0.019643 0.002600 -0.027455 0.000000 0.122616 0.000000
# 6 0.000000 0.000000 0.000000 -0.008806 0.000000 0.080659
#
#
# Mechanical properties :
#
#
# Convention : Reuss Voigt Hill
#
# Bulk Modulus (GPa) = 24.89558 63.55726 44.22642
# Shear Modulus (GPa) = 16.83199 31.05579 23.94389
#
# Velocity S-wave (km/s) = 2.82398 3.83588 3.36815
# Velocity P-wave (km/s) = 4.73588 7.05207 6.00667
#
# Compressibility (1/GPa) = 0.04016777
#
# Stress axis : x y z
#
# Youngs Moduli (GPa) = 44.35449 157.09422 59.18578
#
# Poissons Ratio (x) = 0.23879 -0.17000
# Poissons Ratio (y) = 0.06742 0.24692
# Poissons Ratio (z) = -0.12740 0.65540
#
# Static dielectric constant tensor:
#      x y z
#    x 1.842000 0.000000 -0.064610 
#    y 0.000000 1.964370 0.000000 
#    z -0.064610 0.000000 1.829060 
# 
# From -- ./inp_files/66463.got.cif
#   From: 2010.05.17/outbox.cif.g08.bks.cpg/sg14_34_cif.got.tgz:66463.got - 2010.06.03 17:49:19.
