data_PCOD9240120
_publ_section_title
;
Structure prediction by ZEFSAII (Michael W. Deem and Ramdas Pophale) SiO2 
 PCOD9240120
Probable space group: P 21/C
;
_chemical_formula_sum "Si O2"
_cell_formula_units_Z 26
_cell_length_a 9.086535
_cell_length_b 19.153621
_cell_length_c 12.617140
_cell_angle_alpha 90.000000
_cell_angle_beta 147.281992
_cell_angle_gamma 90.000000
_cell_volume 1186.887768
_symmetry_space_group_name_H-M "P 21/C"
_symmetry_group_IT_number 14
_symmetry_cell_setting 'monoclinic'
loop_
_space_group_symop_operation_xyz
x,y,z
-x,1/2+y,1/2-z
-x,-y,-z
x,1/2-y,1/2+z
loop_
_atom_site_type_symbol
_atom_site_label
_atom_site_fract_x
_atom_site_fract_y
_atom_site_fract_z
Si Si1 0.685133 0.807207 0.336624
Si Si2 0.579817 0.567853 0.935559
Si Si3 0.000000 0.000000 0.000000
Si Si4 0.672976 0.322241 0.805908
Si Si5 0.889914 0.988214 0.175658
Si Si6 0.507788 0.616862 0.527590
Si Si7 0.401576 0.421728 0.808557
O O1 0.638752 0.869934 0.392872
O O2 0.534348 0.740141 0.292240
O O3 0.536033 0.828258 0.137792
O O4 0.007823 0.801161 0.505533
O O5 0.372639 0.508130 0.764834
O O6 0.514400 0.588305 0.017777
O O7 0.841989 0.519067 0.108418
O O8 0.078798 0.084339 0.100740
O O9 0.919732 0.970425 0.071983
O O10 0.604323 0.351166 0.648196
O O11 0.592043 0.381455 0.843644
O O12 0.796761 0.919446 0.180373
O O13 0.675877 0.050919 0.053640
#
# Coordination Sequence:
#
# PCOD9240120 Si02
#       7
#     4   4   2   4   4   4   4
#     4  12  29  47  72 100 145 195 237 298 354 428
#     4  10  22  42  70 104 138 180 235 295 359 418
#     4  10  18  34  64 106 136 176 220 280 356 412
#     4  12  28  49  69 102 145 193 244 289 355 433
#     4  10  20  39  72 104 138 170 232 294 352 427
#     4  11  24  44  71 104 135 187 230 295 359 418
#     4  10  22  41  69 102 142 182 232 299 352 427
#
# _framework density 21.906030999999999
#
# number of rings (size 3 to 8) (size 9 to 14) (size 15 to 20)
#    0.000    1.231    3.077    1.846    4.308    6.154 
#    2.769    0.000    0.000    0.000    0.000    0.000 
#    0.000    0.000    0.000    0.000    0.000    0.000 
#
# Total GULP energy -144897.798339 kJ/mol
# GULP energy per Si atom -5572.992244 kJ/mol
# Density = 2.185617 g / cm^3
# Si number density = 21.906031 Si / 1000 Ang^3
#
#
#
# Elastic Constant Matrix: (Units=GPa)
#
#
# Indices 1 2 3 4 5 6 
#
# 1 108.3558 43.5717 22.7762 0.0000 4.3921 0.0000
# 2 43.5717 63.0135 9.6485 0.0000 3.7249 0.0000
# 3 22.7762 9.6485 89.2364 0.0000 3.9330 0.0000
# 4 0.0000 0.0000 0.0000 13.6309 0.0000 19.6771
# 5 4.3921 3.7249 3.9330 0.0000 40.7991 0.0000
# 6 0.0000 0.0000 0.0000 19.6771 0.0000 2.1896
#
#
#
# Elastic Compliance Matrix: (Units=1/GPa)
#
#
# Indices 1 2 3 4 5 6 
#
# 1 0.013291 -0.008796 -0.002424 0.000000 -0.000394 0.000000
# 2 -0.008796 0.022028 -0.000090 0.000000 -0.001056 0.000000
# 3 -0.002424 -0.000090 0.011873 0.000000 -0.000875 0.000000
# 4 0.000000 0.000000 0.000000 -0.006128 0.000000 0.055065
# 5 -0.000394 -0.001056 -0.000875 0.000000 0.024734 0.000000
# 6 0.000000 0.000000 0.000000 0.055065 0.000000 -0.038145
#
#
# Mechanical properties :
#
#
# Convention : Reuss Voigt Hill
#
# Bulk Modulus (GPa) = 40.69652 45.84430 43.27041
# Shear Modulus (GPa) = 85.52176 23.63120 54.57648
#
# Velocity S-wave (km/s) = 6.25500 3.28800 4.99680
# Velocity P-wave (km/s) = 8.41337 5.94876 7.28603
#
# Compressibility (1/GPa) = 0.02457213
#
# Stress axis : x y z
#
# Youngs Moduli (GPa) = 75.23648 45.39671 84.22327
#
# Poissons Ratio (x) = 0.39931 0.20416
# Poissons Ratio (y) = 0.66179 0.00759
# Poissons Ratio (z) = 0.18237 0.00409
#
# Static dielectric constant tensor:
#      x y z
#    x 1.846380 0.000000 0.110230 
#    y 0.000000 1.841220 0.000000 
#    z 0.110230 0.000000 2.026610 
# 
# From -- ./inp_files/26558.got.cif
#   From: 2010.05.17/outbox.cif.g08.bks.cpg/sg14_14_cif.got.tgz:26558.got - 2010.06.03 17:49:19.
