data_PCOD9240008
_publ_section_title
;
Structure prediction by ZEFSAII (Michael W. Deem and Ramdas Pophale) SiO2 
 PCOD9240008
Probable space group: P 21/C
;
_chemical_formula_sum "Si O2"
_cell_formula_units_Z 28
_cell_length_a 12.295639
_cell_length_b 12.823493
_cell_length_c 15.067442
_cell_angle_alpha 90.000000
_cell_angle_beta 28.959914
_cell_angle_gamma 90.000000
_cell_volume 1150.322445
_symmetry_space_group_name_H-M "P 21/C"
_symmetry_group_IT_number 14
_symmetry_cell_setting 'monoclinic'
loop_
_space_group_symop_operation_xyz
x,y,z
-x,1/2+y,1/2-z
-x,-y,-z
x,1/2-y,1/2+z
loop_
_atom_site_type_symbol
_atom_site_label
_atom_site_fract_x
_atom_site_fract_y
_atom_site_fract_z
Si Si1 0.413360 0.160914 0.431269
Si Si2 0.464400 0.613994 0.688152
Si Si3 0.413357 0.660915 0.931271
Si Si4 0.999999 0.708125 0.000001
Si Si5 0.878479 0.114404 0.204229
Si Si6 0.121523 0.114405 0.795769
Si Si7 0.464402 0.113993 0.188151
O O1 0.399916 0.286466 0.442278
O O2 0.643669 0.127317 0.316952
O O3 0.201893 0.120725 0.637279
O O4 0.437421 0.122820 0.313850
O O5 0.437418 0.622820 0.813852
O O6 0.547063 0.500000 0.603974
O O7 0.214447 0.637379 0.831481
O O8 0.643666 0.627318 0.816954
O O9 0.399915 0.786466 0.942279
O O10 0.201890 0.620726 0.137281
O O11 0.025676 0.789495 0.063731
O O12 0.785552 0.637378 0.168519
O O13 0.974321 0.789496 0.936272
O O14 0.977475 1.000000 0.116439
#
# Coordination Sequence:
#
# PCOD9240008 Si02
#       7
#     4   4   4   4   4   4   4
#     4   9  19  33  55  76  95 127 175 206 242 296
#     4  10  19  35  52  73 103 134 162 204 247 292
#     4   9  19  33  55  76  95 127 175 206 242 296
#     4  10  22  32  48  76 106 134 166 194 244 310
#     4  10  18  34  54  76 100 128 164 213 251 282
#     4  10  18  34  54  76 100 128 164 213 251 282
#     4  10  19  35  52  73 103 134 162 204 247 292
#
# _framework density 24.341000999999999
#
# number of rings (size 3 to 8) (size 9 to 14) (size 15 to 20)
#    0.000    2.286    0.000    4.286    0.000    1.143 
#    0.000   14.286    0.000    0.000    0.000    0.000 
#    0.000    0.000    0.000    0.000    0.000    0.000 
#
# Total GULP energy -156644.638567 kJ/mol
# GULP energy per Si atom -5594.451377 kJ/mol
# Density = 2.428560 g / cm^3
# Si number density = 24.341001 Si / 1000 Ang^3
#
#
#
# Elastic Constant Matrix: (Units=GPa)
#
#
# Indices 1 2 3 4 5 6 
#
# 1 40.3956 7.1483 -1.5886 0.0000 -3.9322 0.0000
# 2 7.1483 193.1321 1.3875 0.0000 -0.0597 0.0000
# 3 -1.5886 1.3875 47.8052 0.0000 8.3988 0.0000
# 4 0.0000 0.0000 0.0000 11.6007 0.0000 2.3004
# 5 -3.9322 -0.0597 8.3988 0.0000 29.1971 0.0000
# 6 0.0000 0.0000 0.0000 2.3004 0.0000 8.7929
#
#
#
# Elastic Compliance Matrix: (Units=1/GPa)
#
#
# Indices 1 2 3 4 5 6 
#
# 1 0.025255 -0.000936 0.000283 0.000000 0.003318 0.000000
# 2 -0.000936 0.005214 -0.000171 0.000000 -0.000066 0.000000
# 3 0.000283 -0.000171 0.022040 0.000000 -0.006302 0.000000
# 4 0.000000 0.000000 0.000000 0.090918 0.000000 -0.023786
# 5 0.003318 -0.000066 -0.006302 0.000000 0.036509 0.000000
# 6 0.000000 0.000000 0.000000 -0.023786 0.000000 0.119952
#
#
# Mechanical properties :
#
#
# Convention : Reuss Voigt Hill
#
# Bulk Modulus (GPa) = 19.66095 32.80302 26.23199
# Shear Modulus (GPa) = 15.69919 28.21053 21.95486
#
# Velocity S-wave (km/s) = 2.54238 3.40806 3.00654
# Velocity P-wave (km/s) = 4.08816 5.38444 4.78044
#
# Compressibility (1/GPa) = 0.05086224
#
# Stress axis : x y z
#
# Youngs Moduli (GPa) = 39.59630 191.80441 45.37248
#
# Poissons Ratio (x) = 0.17948 -0.01286
# Poissons Ratio (y) = 0.03705 0.00775
# Poissons Ratio (z) = -0.01123 0.03276
#
# Static dielectric constant tensor:
#      x y z
#    x 1.967640 0.000000 -0.008080 
#    y 0.000000 1.912020 0.000000 
#    z -0.008080 0.000000 1.886170 
# 
# From -- ./inp_files/59256.got.cif
#   From: 2010.05.17/outbox.cif.g08.bks.cpg/sg14_30_cif.got.tgz:59256.got - 2010.06.03 17:49:19.
