data_PCOD9240997
_publ_section_title
;
Structure prediction by ZEFSAII (Michael W. Deem and Ramdas Pophale) SiO2 
 PCOD9240997
Probable space group: P 21/C
;
_chemical_formula_sum "Si O2"
_cell_formula_units_Z 28
_cell_length_a 14.280954
_cell_length_b 8.856465
_cell_length_c 13.474117
_cell_angle_alpha 90.000000
_cell_angle_beta 143.224406
_cell_angle_gamma 90.000000
_cell_volume 1020.268504
_symmetry_space_group_name_H-M "P 21/C"
_symmetry_group_IT_number 14
_symmetry_cell_setting 'monoclinic'
loop_
_space_group_symop_operation_xyz
x,y,z
-x,1/2+y,1/2-z
-x,-y,-z
x,1/2-y,1/2+z
loop_
_atom_site_type_symbol
_atom_site_label
_atom_site_fract_x
_atom_site_fract_y
_atom_site_fract_z
Si Si1 0.802139 0.227961 0.912477
Si Si2 0.390679 0.503932 0.027102
Si Si3 0.487058 0.917187 0.824226
Si Si4 0.291826 0.840126 0.937909
Si Si5 0.748719 0.936599 0.774390
Si Si6 0.808169 0.730796 0.517831
Si Si7 0.007356 0.024318 0.675962
O O1 0.645910 0.313198 0.742574
O O2 0.848723 0.084932 0.886639
O O3 0.756006 0.165751 0.984352
O O4 0.935958 0.351114 0.042948
O O5 0.406788 0.510130 0.159086
O O6 0.573343 0.506599 0.154182
O O7 0.322255 0.668054 0.940613
O O8 0.283004 0.396185 0.866870
O O9 0.636457 0.816819 0.915416
O O10 0.555254 0.057493 0.941435
O O11 0.154431 0.926272 0.765210
O O12 0.794568 0.806318 0.889303
O O13 0.930374 0.618259 0.676157
O O14 0.880526 0.896386 0.592673
#
# Coordination Sequence:
#
# PCOD9240997 Si02
#       7
#     4   4   4   4   4   4   4
#     4  11  20  33  58  85 113 143 193 239 282 337
#     4   9  19  34  61  77 118 148 185 237 286 340
#     4   9  20  33  59  84 110 139 194 239 281 326
#     4  10  19  37  54  88 109 149 188 237 282 338
#     4  10  19  37  56  85 112 151 187 233 293 335
#     4  10  19  34  54  83 112 145 186 233 284 335
#     4  11  20  34  56  83 114 147 189 236 282 334
#
# _framework density 27.443754999999999
#
# number of rings (size 3 to 8) (size 9 to 14) (size 15 to 20)
#    0.000    2.000    5.714    0.000    6.000    0.000 
#    0.000    2.143    0.000    0.000    0.000    0.000 
#    0.000    0.000    0.000    0.000    0.000    0.000 
#
# Total GULP energy -156840.662881 kJ/mol
# GULP energy per Si atom -5601.452246 kJ/mol
# Density = 2.738129 g / cm^3
# Si number density = 27.443755 Si / 1000 Ang^3
#
#
#
# Elastic Constant Matrix: (Units=GPa)
#
#
# Indices 1 2 3 4 5 6 
#
# 1 68.1834 18.7819 53.7685 0.0000 -2.7517 0.0000
# 2 18.7819 83.8849 69.4390 0.0000 17.3416 0.0000
# 3 53.7685 69.4390 175.4148 0.0000 5.8986 0.0000
# 4 0.0000 0.0000 0.0000 62.3311 0.0000 11.5638
# 5 -2.7517 17.3416 5.8986 0.0000 40.2162 0.0000
# 6 0.0000 0.0000 0.0000 11.5638 0.0000 30.5051
#
#
#
# Elastic Compliance Matrix: (Units=1/GPa)
#
#
# Indices 1 2 3 4 5 6 
#
# 1 0.019543 0.000305 -0.006182 0.000000 0.002112 0.000000
# 2 0.000305 0.019702 -0.007645 0.000000 -0.007353 0.000000
# 3 -0.006182 -0.007645 0.010578 0.000000 0.001322 0.000000
# 4 0.000000 0.000000 0.000000 0.017257 0.000000 -0.006542
# 5 0.002112 -0.007353 0.001322 0.000000 0.027987 0.000000
# 6 0.000000 0.000000 0.000000 -0.006542 0.000000 0.035261
#
#
# Mechanical properties :
#
#
# Convention : Reuss Voigt Hill
#
# Bulk Modulus (GPa) = 43.90288 67.94021 55.92155
# Shear Modulus (GPa) = 30.30964 38.97673 34.64318
#
# Velocity S-wave (km/s) = 3.32690 3.77270 3.55679
# Velocity P-wave (km/s) = 5.54886 6.61722 6.10645
#
# Compressibility (1/GPa) = 0.02277755
#
# Stress axis : x y z
#
# Youngs Moduli (GPa) = 51.17023 50.75724 94.53865
#
# Poissons Ratio (x) = -0.01549 0.58445
# Poissons Ratio (y) = -0.01562 0.72278
# Poissons Ratio (z) = 0.31634 0.38805
#
# Static dielectric constant tensor:
#      x y z
#    x 2.311060 0.000000 -0.006070 
#    y 0.000000 2.205200 0.000000 
#    z -0.006070 0.000000 2.123460 
# 
# From -- ./inp_files/61074.got.cif
#   From: 2010.05.17/outbox.cif.g08.bks.cpg/sg14_31_cif.got.tgz:61074.got - 2010.06.03 17:49:19.
