data_PCOD9240466
_publ_section_title
;
Structure prediction by ZEFSAII (Michael W. Deem and Ramdas Pophale) SiO2 
 PCOD9240466
Probable space group: P 21/C
;
_chemical_formula_sum "Si O2"
_cell_formula_units_Z 32
_cell_length_a 18.655888
_cell_length_b 13.297452
_cell_length_c 17.472335
_cell_angle_alpha 90.000000
_cell_angle_beta 162.591345
_cell_angle_gamma 90.000000
_cell_volume 1296.806045
_symmetry_space_group_name_H-M "P 21/C"
_symmetry_group_IT_number 14
_symmetry_cell_setting 'monoclinic'
loop_
_space_group_symop_operation_xyz
x,y,z
-x,1/2+y,1/2-z
-x,-y,-z
x,1/2-y,1/2+z
loop_
_atom_site_type_symbol
_atom_site_label
_atom_site_fract_x
_atom_site_fract_y
_atom_site_fract_z
Si Si1 0.089115 0.804673 0.289501
Si Si2 0.410148 0.288460 0.157834
Si Si3 0.915841 0.780001 0.458468
Si Si4 0.653936 0.314735 0.258046
Si Si5 0.715914 0.587001 0.207224
Si Si6 0.032101 0.994678 0.902309
Si Si7 0.219421 0.904585 0.678416
Si Si8 0.442317 0.411334 0.333265
O O1 0.352690 0.781778 0.590485
O O2 0.849844 0.758818 0.086847
O O3 0.088626 0.751101 0.204401
O O4 0.046823 0.924580 0.240546
O O5 0.433441 0.316268 0.093043
O O6 0.468206 0.385535 0.270720
O O7 0.888323 0.683759 0.378645
O O8 0.673937 0.808114 0.254639
O O9 0.962812 0.873485 0.450204
O O10 0.859156 0.385086 0.505194
O O11 0.701266 0.200617 0.280305
O O12 0.548390 0.373707 0.077539
O O13 0.757438 0.550408 0.335504
O O14 0.820506 0.515004 0.249016
O O15 0.265508 0.994535 0.667255
O O16 0.350085 0.927878 0.893004
#
# Coordination Sequence:
#
# PCOD9240466 Si02
#       8
#     4   4   4   4   4   4   4   4
#     4  10  24  44  68  97 131 186 227 270 346 422
#     4  11  26  46  68  95 143 181 227 284 350 412
#     4  10  18  38  66  94 131 167 226 291 329 405
#     4  12  25  40  68  98 143 172 225 297 350 413
#     4  10  21  38  64 102 128 170 226 282 357 406
#     4  10  23  40  69  96 133 177 225 285 343 417
#     4  11  21  38  65  95 126 172 234 279 334 405
#     4  10  22  40  63  92 128 181 224 277 337 412
#
# _framework density 24.676010999999999
#
# number of rings (size 3 to 8) (size 9 to 14) (size 15 to 20)
#    0.000    1.500    3.750    0.750    3.500    1.000 
#    0.000    0.000    0.000    0.000    0.000    0.000 
#    0.000    0.000    0.000    0.000    0.000    0.000 
#
# Total GULP energy -178460.963966 kJ/mol
# GULP energy per Si atom -5576.905124 kJ/mol
# Density = 2.461985 g / cm^3
# Si number density = 24.676011 Si / 1000 Ang^3
#
#
#
# Elastic Constant Matrix: (Units=GPa)
#
#
# Indices 1 2 3 4 5 6 
#
# 1 81.4526 23.3192 19.8900 0.0000 11.9661 0.0000
# 2 23.3192 102.2385 32.0466 0.0000 4.7479 0.0000
# 3 19.8900 32.0466 79.0677 0.0000 2.5990 0.0000
# 4 0.0000 0.0000 0.0000 25.4089 0.0000 3.6118
# 5 11.9661 4.7479 2.5990 0.0000 30.8971 0.0000
# 6 0.0000 0.0000 0.0000 3.6118 0.0000 26.3178
#
#
#
# Elastic Compliance Matrix: (Units=1/GPa)
#
#
# Indices 1 2 3 4 5 6 
#
# 1 0.014261 -0.002232 -0.002519 0.000000 -0.004968 0.000000
# 2 -0.002232 0.011610 -0.004125 0.000000 -0.000573 0.000000
# 3 -0.002519 -0.004125 0.014942 0.000000 0.000353 0.000000
# 4 0.000000 0.000000 0.000000 0.040139 0.000000 -0.005509
# 5 -0.004968 -0.000573 0.000353 0.000000 0.034348 0.000000
# 6 0.000000 0.000000 0.000000 -0.005509 0.000000 0.038753
#
#
# Mechanical properties :
#
#
# Convention : Reuss Voigt Hill
#
# Bulk Modulus (GPa) = 43.36748 45.91895 44.64321
# Shear Modulus (GPa) = 27.85623 29.02497 28.44060
#
# Velocity S-wave (km/s) = 3.36352 3.43336 3.39862
# Velocity P-wave (km/s) = 5.71816 5.86229 5.79067
#
# Compressibility (1/GPa) = 0.02305875
#
# Stress axis : x y z
#
# Youngs Moduli (GPa) = 70.11994 86.13389 66.92762
#
# Poissons Ratio (x) = 0.19228 0.16862
# Poissons Ratio (y) = 0.15653 0.27609
# Poissons Ratio (z) = 0.17666 0.35532
#
# Static dielectric constant tensor:
#      x y z
#    x 1.978210 0.000000 -0.006200 
#    y 0.000000 2.037870 0.000000 
#    z -0.006200 0.000000 2.054980 
# 
# From -- ./inp_files/60739.got.cif
#   From: 2010.05.17/outbox.cif.g08.bks.cpg/sg14_31_cif.got.tgz:60739.got - 2010.06.03 17:49:19.
