data_PCOD9240357
_publ_section_title
;
Structure prediction by ZEFSAII (Michael W. Deem and Ramdas Pophale) SiO2 
 PCOD9240357
Probable space group: P 21/C
;
_chemical_formula_sum "Si O2"
_cell_formula_units_Z 22
_cell_length_a 4.945161
_cell_length_b 8.206562
_cell_length_c 24.079356
_cell_angle_alpha 90.000000
_cell_angle_beta 95.625008
_cell_angle_gamma 90.000000
_cell_volume 972.501443
_symmetry_space_group_name_H-M "P 21/C"
_symmetry_group_IT_number 14
_symmetry_cell_setting 'monoclinic'
loop_
_space_group_symop_operation_xyz
x,y,z
-x,1/2+y,1/2-z
-x,-y,-z
x,1/2-y,1/2+z
loop_
_atom_site_type_symbol
_atom_site_label
_atom_site_fract_x
_atom_site_fract_y
_atom_site_fract_z
Si Si1 0.843210 0.292715 0.504555
Si Si2 0.738029 0.607189 0.295191
Si Si3 0.486540 0.883909 0.421796
Si Si4 0.757152 0.154291 0.699423
Si Si5 0.733307 0.529886 0.417355
Si Si6 0.000000 0.500000 0.000000
O O1 0.742395 0.122630 0.533595
O O2 0.658698 0.384380 0.457178
O O3 0.975152 0.412966 0.551800
O O4 0.078899 0.192154 0.478760
O O5 0.459163 0.708549 0.285394
O O6 0.786645 0.486838 0.245237
O O7 0.740117 0.502580 0.352245
O O8 0.967636 0.745982 0.305672
O O9 0.354452 0.921282 0.360320
O O10 0.551589 0.690130 0.421302
O O11 0.754673 0.977548 0.442879
#
# Coordination Sequence:
#
# PCOD9240357 Si02
#       6
#     4   4   4   4   4   2
#     4  10  18  37  57  89 122 163 201 267 317 394
#     4  11  23  45  64 101 124 180 221 282 330 405
#     4  10  20  38  60  86 126 172 206 270 322 395
#     4  11  24  43  71  92 138 169 232 275 339 387
#     4   9  20  35  62  84 119 161 219 252 322 394
#     4  10  22  34  54  90 128 160 208 254 334 380
#
# _framework density 22.622077000000001
#
# number of rings (size 3 to 8) (size 9 to 14) (size 15 to 20)
#    0.000    1.818    1.818    2.182    0.000    1.455 
#    3.273    0.000    0.000    0.000    0.000    0.000 
#    0.000    0.000    0.000    0.000    0.000    0.000 
#
# Total GULP energy -122480.865430 kJ/mol
# GULP energy per Si atom -5567.312065 kJ/mol
# Density = 2.257059 g / cm^3
# Si number density = 22.622077 Si / 1000 Ang^3
#
#
#
# Elastic Constant Matrix: (Units=GPa)
#
#
# Indices 1 2 3 4 5 6 
#
# 1 74.7267 -5.4459 19.7145 0.0000 2.3642 0.0000
# 2 -5.4459 57.5193 58.4804 0.0000 3.5438 0.0000
# 3 19.7145 58.4804 175.6705 0.0000 7.6327 0.0000
# 4 0.0000 0.0000 0.0000 45.9845 0.0000 4.9871
# 5 2.3642 3.5438 7.6327 0.0000 22.5349 0.0000
# 6 0.0000 0.0000 0.0000 4.9871 0.0000 32.8534
#
#
#
# Elastic Compliance Matrix: (Units=1/GPa)
#
#
# Indices 1 2 3 4 5 6 
#
# 1 0.014583 0.004634 -0.003127 0.000000 -0.001200 0.000000
# 2 0.004634 0.027784 -0.009701 0.000000 -0.001570 0.000000
# 3 -0.003127 -0.009701 0.009330 0.000000 -0.001306 0.000000
# 4 0.000000 0.000000 0.000000 0.022110 0.000000 -0.003356
# 5 -0.001200 -0.001570 -0.001306 0.000000 0.045191 0.000000
# 6 0.000000 0.000000 0.000000 -0.003356 0.000000 0.030948
#
#
# Mechanical properties :
#
#
# Convention : Reuss Voigt Hill
#
# Bulk Modulus (GPa) = 28.32225 50.37937 39.35081
# Shear Modulus (GPa) = 28.07361 35.95240 32.01300
#
# Velocity S-wave (km/s) = 3.52658 3.99088 3.76589
# Velocity P-wave (km/s) = 5.39715 6.59958 6.02842
#
# Compressibility (1/GPa) = 0.03530793
#
# Stress axis : x y z
#
# Youngs Moduli (GPa) = 68.57425 35.99183 107.18526
#
# Poissons Ratio (x) = -0.16678 0.33517
# Poissons Ratio (y) = -0.31776 1.03982
# Poissons Ratio (z) = 0.21443 0.34916
#
# Static dielectric constant tensor:
#      x y z
#    x 2.046130 0.000000 -0.100590 
#    y 0.000000 1.901820 0.000000 
#    z -0.100590 0.000000 1.878130 
# 
# From -- ./inp_files/62960.got.cif
#   From: 2010.05.17/outbox.cif.g08.bks.cpg/sg14_32_cif.got.tgz:62960.got - 2010.06.03 17:49:19.
