data_PCOD9240855
_publ_section_title
;
Structure prediction by ZEFSAII (Michael W. Deem and Ramdas Pophale) SiO2 
 PCOD9240855
Probable space group: P 21/C
;
_chemical_formula_sum "Si O2"
_cell_formula_units_Z 28
_cell_length_a 10.243307
_cell_length_b 13.279019
_cell_length_c 10.742185
_cell_angle_alpha 90.000000
_cell_angle_beta 56.635544
_cell_angle_gamma 90.000000
_cell_volume 1220.347956
_symmetry_space_group_name_H-M "P 21/C"
_symmetry_group_IT_number 14
_symmetry_cell_setting 'monoclinic'
loop_
_space_group_symop_operation_xyz
x,y,z
-x,1/2+y,1/2-z
-x,-y,-z
x,1/2-y,1/2+z
loop_
_atom_site_type_symbol
_atom_site_label
_atom_site_fract_x
_atom_site_fract_y
_atom_site_fract_z
Si Si1 0.739366 0.932178 0.155967
Si Si2 0.174535 0.810140 0.449666
Si Si3 0.027538 0.332491 0.279636
Si Si4 0.796681 0.367798 0.731593
Si Si5 0.475019 0.675045 0.935088
Si Si6 0.717586 0.828805 0.903070
Si Si7 0.978118 0.537928 0.180185
O O1 0.890536 0.880220 0.139359
O O2 0.604389 0.905553 0.326372
O O3 0.764904 0.051718 0.138407
O O4 0.698549 0.882750 0.045603
O O5 0.152772 0.741186 0.341848
O O6 0.357582 0.817135 0.380432
O O7 0.086993 0.916887 0.512868
O O8 0.103511 0.740763 0.597333
O O9 0.162830 0.265048 0.145952
O O10 0.974054 0.421553 0.217788
O O11 0.637215 0.358130 0.893898
O O12 0.929494 0.417986 0.746790
O O13 0.564116 0.778380 0.924115
O O14 0.809989 0.907850 0.766413
#
# Coordination Sequence:
#
# PCOD9240855 Si02
#       7
#     4   4   4   4   4   4   4
#     4  10  19  34  57  78  99 133 176 216 250 293
#     4  10  19  33  55  78 105 134 168 211 257 303
#     4   9  19  35  56  79 100 130 175 217 250 295
#     4  10  19  34  57  78  99 133 176 216 250 293
#     4  10  21  34  49  76 110 138 165 206 257 308
#     4  10  19  33  55  78 105 134 168 211 257 303
#     4   9  19  35  56  79 100 130 175 217 250 295
#
# _framework density 22.944275000000001
#
# number of rings (size 3 to 8) (size 9 to 14) (size 15 to 20)
#    0.000    2.286    0.000    3.000    0.000    3.429 
#    0.000    2.857    0.000   37.714    0.000    0.000 
#    0.000    0.000    0.000    0.000    0.000    0.000 
#
# Total GULP energy -156453.522987 kJ/mol
# GULP energy per Si atom -5587.625821 kJ/mol
# Density = 2.289205 g / cm^3
# Si number density = 22.944275 Si / 1000 Ang^3
#
#
#
# Elastic Constant Matrix: (Units=GPa)
#
#
# Indices 1 2 3 4 5 6 
#
# 1 54.3246 8.7575 2.0371 0.0000 -16.2763 0.0000
# 2 8.7575 104.3151 5.9980 0.0000 -17.8138 0.0000
# 3 2.0371 5.9980 64.0612 0.0000 -6.4332 0.0000
# 4 0.0000 0.0000 0.0000 22.5625 0.0000 9.0155
# 5 -16.2763 -17.8138 -6.4332 0.0000 33.3305 0.0000
# 6 0.0000 0.0000 0.0000 9.0155 0.0000 23.1024
#
#
#
# Elastic Compliance Matrix: (Units=1/GPa)
#
#
# Indices 1 2 3 4 5 6 
#
# 1 0.021572 -0.000024 0.000380 0.000000 0.010595 0.000000
# 2 -0.000024 0.010561 -0.000431 0.000000 0.005550 0.000000
# 3 0.000380 -0.000431 0.015943 0.000000 0.003033 0.000000
# 4 0.000000 0.000000 0.000000 0.052509 0.000000 -0.020491
# 5 0.010595 0.005550 0.003033 0.000000 0.038728 0.000000
# 6 0.000000 0.000000 0.000000 -0.020491 0.000000 0.051282
#
#
# Mechanical properties :
#
#
# Convention : Reuss Voigt Hill
#
# Bulk Modulus (GPa) = 20.86498 28.47626 24.67062
# Shear Modulus (GPa) = 24.18752 29.52630 26.85691
#
# Velocity S-wave (km/s) = 3.25034 3.59119 3.42501
# Velocity P-wave (km/s) = 4.81662 5.44367 5.13971
#
# Compressibility (1/GPa) = 0.04792720
#
# Stress axis : x y z
#
# Youngs Moduli (GPa) = 46.35689 94.68982 62.72402
#
# Poissons Ratio (x) = 0.00223 -0.02385
# Poissons Ratio (y) = 0.00109 0.02702
# Poissons Ratio (z) = -0.01763 0.04079
#
# Static dielectric constant tensor:
#      x y z
#    x 1.860210 0.000000 0.036400 
#    y 0.000000 1.866020 0.000000 
#    z 0.036400 0.000000 1.889250 
# 
# From -- ./inp_files/32576.got.cif
#   From: 2010.05.17/outbox.cif.g08.bks.cpg/sg14_17_cif.got.tgz:32576.got - 2010.06.03 17:49:19.
