data_PCOD9240429
_publ_section_title
;
Structure prediction by ZEFSAII (Michael W. Deem and Ramdas Pophale) SiO2 
 PCOD9240429
Probable space group: P 21/C
;
_chemical_formula_sum "Si O2"
_cell_formula_units_Z 32
_cell_length_a 13.760581
_cell_length_b 12.724668
_cell_length_c 13.831919
_cell_angle_alpha 90.000000
_cell_angle_beta 149.053301
_cell_angle_gamma 90.000000
_cell_volume 1245.466073
_symmetry_space_group_name_H-M "P 21/C"
_symmetry_group_IT_number 14
_symmetry_cell_setting 'monoclinic'
loop_
_space_group_symop_operation_xyz
x,y,z
-x,1/2+y,1/2-z
-x,-y,-z
x,1/2-y,1/2+z
loop_
_atom_site_type_symbol
_atom_site_label
_atom_site_fract_x
_atom_site_fract_y
_atom_site_fract_z
Si Si1 0.909740 0.648959 0.511336
Si Si2 0.909850 0.182505 0.097634
Si Si3 0.544316 0.609648 0.123026
Si Si4 0.622861 0.811861 0.282899
Si Si5 0.757559 0.950468 0.564838
Si Si6 0.303908 0.788965 0.267952
Si Si7 0.060409 0.092767 0.740845
Si Si8 0.297146 0.900943 0.891143
O O1 0.761194 0.579350 0.324326
O O2 0.825820 0.766809 0.421173
O O3 0.881082 0.615522 0.597719
O O4 0.126768 0.653911 0.669863
O O5 0.832547 0.162237 0.139895
O O6 0.071797 0.095230 0.225484
O O7 0.012721 0.292015 0.163563
O O8 0.735605 0.181426 0.875678
O O9 0.400475 0.517095 0.017064
O O10 0.492629 0.669889 0.980747
O O11 0.512307 0.700303 0.177862
O O12 0.665767 0.858927 0.423108
O O13 0.505604 0.892019 0.116637
O O14 0.866113 0.027436 0.582640
O O15 0.293228 0.666271 0.289592
O O16 0.212384 0.017857 0.819104
#
# Coordination Sequence:
#
# PCOD9240429 Si02
#       8
#     4   4   4   4   4   4   4   4
#     4  10  18  38  62  85 121 166 196 256 303 353
#     4  11  23  38  64  94 118 171 206 252 319 370
#     4   9  20  35  59  85 122 160 200 253 306 358
#     4   9  19  35  62  88 122 163 205 251 311 363
#     4  11  19  37  63  93 123 162 209 255 308 372
#     4  11  21  42  62  88 133 159 206 261 305 370
#     4  11  19  37  65  90 122 162 213 252 312 371
#     4  10  21  40  63  88 125 166 204 258 313 361
#
# _framework density 25.693192
#
# number of rings (size 3 to 8) (size 9 to 14) (size 15 to 20)
#    0.750    1.000    3.750    2.250    0.000    1.000 
#    2.250    0.625    0.000    2.250    0.000    0.000 
#    0.000    0.000    0.000    0.000    0.000    0.000 
#
# Total GULP energy -178874.632420 kJ/mol
# GULP energy per Si atom -5589.832263 kJ/mol
# Density = 2.563471 g / cm^3
# Si number density = 25.693192 Si / 1000 Ang^3
#
#
#
# Elastic Constant Matrix: (Units=GPa)
#
#
# Indices 1 2 3 4 5 6 
#
# 1 43.2586 2.0059 0.8514 0.0000 -0.8094 0.0000
# 2 2.0059 83.2558 -5.9372 0.0000 3.2365 0.0000
# 3 0.8514 -5.9372 123.3259 0.0000 5.7252 0.0000
# 4 0.0000 0.0000 0.0000 29.0760 0.0000 -0.5114
# 5 -0.8094 3.2365 5.7252 0.0000 23.1522 0.0000
# 6 0.0000 0.0000 0.0000 -0.5114 0.0000 21.9598
#
#
#
# Elastic Compliance Matrix: (Units=1/GPa)
#
#
# Indices 1 2 3 4 5 6 
#
# 1 0.023168 -0.000612 -0.000234 0.000000 0.000953 0.000000
# 2 -0.000612 0.012148 0.000677 0.000000 -0.001887 0.000000
# 3 -0.000234 0.000677 0.008242 0.000000 -0.002141 0.000000
# 4 0.000000 0.000000 0.000000 0.034407 0.000000 0.000801
# 5 0.000953 -0.001887 -0.002141 0.000000 0.044019 0.000000
# 6 0.000000 0.000000 0.000000 0.000801 0.000000 0.045556
#
#
# Mechanical properties :
#
#
# Convention : Reuss Voigt Hill
#
# Bulk Modulus (GPa) = 23.13773 27.07561 25.10667
# Shear Modulus (GPa) = 27.42977 31.69895 29.56436
#
# Velocity S-wave (km/s) = 3.27094 3.51629 3.39583
# Velocity P-wave (km/s) = 4.82601 5.20064 5.01682
#
# Compressibility (1/GPa) = 0.04321945
#
# Stress axis : x y z
#
# Youngs Moduli (GPa) = 43.16375 82.32137 121.32725
#
# Poissons Ratio (x) = 0.05037 0.02835
# Poissons Ratio (y) = 0.02641 -0.08209
# Poissons Ratio (z) = 0.01009 -0.05570
#
# Static dielectric constant tensor:
#      x y z
#    x 2.071950 0.000000 -0.003260 
#    y 0.000000 2.036680 0.000000 
#    z -0.003260 0.000000 2.020570 
# 
# From -- ./inp_files/49024.got.cif
#   From: 2010.05.17/outbox.cif.g08.bks.cpg/sg14_25_cif.got.tgz:49024.got - 2010.06.03 17:49:19.
