data_PCOD9240327
_publ_section_title
;
Structure prediction by ZEFSAII (Michael W. Deem and Ramdas Pophale) SiO2 
 PCOD9240327
Probable space group: P 21/C
;
_chemical_formula_sum "Si O2"
_cell_formula_units_Z 32
_cell_length_a 13.119571
_cell_length_b 19.664265
_cell_length_c 9.780473
_cell_angle_alpha 90.000000
_cell_angle_beta 30.680694
_cell_angle_gamma 90.000000
_cell_volume 1287.487179
_symmetry_space_group_name_H-M "P 21/C"
_symmetry_group_IT_number 14
_symmetry_cell_setting 'monoclinic'
loop_
_space_group_symop_operation_xyz
x,y,z
-x,1/2+y,1/2-z
-x,-y,-z
x,1/2-y,1/2+z
loop_
_atom_site_type_symbol
_atom_site_label
_atom_site_fract_x
_atom_site_fract_y
_atom_site_fract_z
Si Si1 0.149361 0.245893 0.266395
Si Si2 0.906973 0.268646 0.293879
Si Si3 0.280379 0.567545 0.838143
Si Si4 0.511254 0.176410 0.367712
Si Si5 0.641045 0.350182 0.000377
Si Si6 0.972135 0.595770 0.568042
Si Si7 0.890467 0.514900 0.405307
Si Si8 0.460351 0.946850 0.852903
O O1 0.096952 0.326696 0.343888
O O2 0.035540 0.227633 0.258584
O O3 0.064220 0.206841 0.496986
O O4 0.386944 0.255032 0.978462
O O5 0.747659 0.314467 0.559817
O O6 0.759550 0.219851 0.381152
O O7 0.377335 0.494835 0.763927
O O8 0.330486 0.585433 0.625253
O O9 0.390026 0.619607 0.814135
O O10 0.044414 0.559586 0.138390
O O11 0.486172 0.161549 0.557812
O O12 0.452431 0.112544 0.341831
O O13 0.801711 0.403098 0.752453
O O14 0.852955 0.554527 0.590060
O O15 0.993830 0.553663 0.681475
O O16 0.689539 0.493707 0.561821
#
# Coordination Sequence:
#
# PCOD9240327 Si02
#       8
#     4   4   4   4   4   4   4   4
#     4  11  25  42  66  98 127 172 221 279 337 405
#     4  11  24  47  66  94 135 166 230 285 340 402
#     4  10  24  39  60 101 138 171 225 270 334 401
#     4  12  25  43  72  97 131 182 230 275 342 405
#     4  10  22  43  65  93 132 175 222 284 335 396
#     4   9  18  38  60  95 125 167 225 257 320 393
#     4  10  18  36  65  88 131 177 208 269 319 383
#     4  11  23  40  64  99 137 177 218 275 332 401
#
# _framework density 24.854617999999999
#
# number of rings (size 3 to 8) (size 9 to 14) (size 15 to 20)
#    0.000    1.500    3.750    1.125    5.250    0.500 
#    0.000    0.000    0.000    0.000    0.000    0.000 
#    0.000    0.000    0.000    0.000    0.000    0.000 
#
# Total GULP energy -178820.795364 kJ/mol
# GULP energy per Si atom -5588.149855 kJ/mol
# Density = 2.479805 g / cm^3
# Si number density = 24.854618 Si / 1000 Ang^3
#
#
#
# Elastic Constant Matrix: (Units=GPa)
#
#
# Indices 1 2 3 4 5 6 
#
# 1 70.4462 -16.8910 4.7305 0.0000 -0.6296 0.0000
# 2 -16.8910 47.4271 -3.1728 0.0000 -6.4848 0.0000
# 3 4.7305 -3.1728 61.6173 0.0000 -18.2755 0.0000
# 4 0.0000 0.0000 0.0000 21.5065 0.0000 4.9507
# 5 -0.6296 -6.4848 -18.2755 0.0000 22.7882 0.0000
# 6 0.0000 0.0000 0.0000 4.9507 0.0000 32.5334
#
#
#
# Elastic Compliance Matrix: (Units=1/GPa)
#
#
# Indices 1 2 3 4 5 6 
#
# 1 0.015623 0.005782 -0.000375 0.000000 0.001776 0.000000
# 2 0.005782 0.024821 0.003906 0.000000 0.010355 0.000000
# 3 -0.000375 0.003906 0.022024 0.000000 0.018764 0.000000
# 4 0.000000 0.000000 0.000000 0.048186 0.000000 -0.007333
# 5 0.001776 0.010355 0.018764 0.000000 0.061926 0.000000
# 6 0.000000 0.000000 0.000000 -0.007333 0.000000 0.031854
#
#
# Mechanical properties :
#
#
# Convention : Reuss Voigt Hill
#
# Bulk Modulus (GPa) = 12.33150 16.53601 14.43375
# Shear Modulus (GPa) = 23.49185 28.35387 25.92286
#
# Velocity S-wave (km/s) = 3.07770 3.38122 3.23302
# Velocity P-wave (km/s) = 4.19546 4.68093 4.44482
#
# Compressibility (1/GPa) = 0.08109315
#
# Stress axis : x y z
#
# Youngs Moduli (GPa) = 64.00996 40.28801 45.40417
#
# Poissons Ratio (x) = -0.23293 0.01702
# Poissons Ratio (y) = -0.37009 -0.17733
# Poissons Ratio (z) = 0.02399 -0.15735
#
# Static dielectric constant tensor:
#      x y z
#    x 1.947940 0.000000 -0.027400 
#    y 0.000000 1.958480 0.000000 
#    z -0.027400 0.000000 2.084510 
# 
# From -- ./inp_files/14522.got.cif
#   From: 2010.05.17/outbox.cif.g08.bks.cpg/sg14_8_cif.got.tgz:14522.got - 2010.06.03 17:49:19.
