data_PCOD9240516
_publ_section_title
;
Structure prediction by ZEFSAII (Michael W. Deem and Ramdas Pophale) SiO2 
 PCOD9240516
Probable space group: P 21/C
;
_chemical_formula_sum "Si O2"
_cell_formula_units_Z 18
_cell_length_a 11.461981
_cell_length_b 6.900396
_cell_length_c 15.053673
_cell_angle_alpha 90.000000
_cell_angle_beta 148.428877
_cell_angle_gamma 90.000000
_cell_volume 623.361234
_symmetry_space_group_name_H-M "P 21/C"
_symmetry_group_IT_number 14
_symmetry_cell_setting 'monoclinic'
loop_
_space_group_symop_operation_xyz
x,y,z
-x,1/2+y,1/2-z
-x,-y,-z
x,1/2-y,1/2+z
loop_
_atom_site_type_symbol
_atom_site_label
_atom_site_fract_x
_atom_site_fract_y
_atom_site_fract_z
Si Si1 0.989111 0.529607 0.386289
Si Si2 0.555782 0.136654 0.877669
Si Si3 0.500000 0.500000 0.000000
Si Si4 0.316465 0.094196 0.534096
Si Si5 0.108118 0.029336 0.667005
O O1 0.759670 0.444394 0.204068
O O2 0.971678 0.758134 0.360988
O O3 0.000000 0.500000 0.500000
O O4 0.227967 0.501013 0.494000
O O5 0.595136 0.364406 0.932715
O O6 0.368357 0.042710 0.817729
O O7 0.447575 0.147682 0.708270
O O8 0.397164 0.324294 0.994769
O O9 0.051697 0.102309 0.376069
O O10 0.000000 0.000000 0.500000
#
# Coordination Sequence:
#
# PCOD9240516 Si02
#       5
#     4   4   2   4   4
#     4  11  21  38  67  91 126 172 208 257 324 392
#     4  10  18  40  64  91 123 172 205 260 321 384
#     4  12  22  40  62 100 124 170 214 266 312 396
#     4  10  21  36  68  90 130 164 216 262 317 387
#     4   9  19  37  65  92 125 166 212 262 319 380
#
# _framework density 28.875715
#
# number of rings (size 3 to 8) (size 9 to 14) (size 15 to 20)
#    0.000    1.778    4.444    0.000    0.000    0.000 
#    0.000   14.444    0.000    0.000    0.000    0.000 
#    0.000    0.000    0.000    0.000    0.000    0.000 
#
# Total GULP energy -100316.847184 kJ/mol
# GULP energy per Si atom -5573.158177 kJ/mol
# Density = 2.880999 g / cm^3
# Si number density = 28.875715 Si / 1000 Ang^3
#
#
#
# Elastic Constant Matrix: (Units=GPa)
#
#
# Indices 1 2 3 4 5 6 
#
# 1 108.3429 -12.6204 78.3874 0.0000 30.0839 0.0000
# 2 -12.6204 62.5680 37.5846 0.0000 -7.0308 0.0000
# 3 78.3874 37.5846 208.3643 0.0000 22.8244 0.0000
# 4 0.0000 0.0000 0.0000 46.1379 0.0000 3.6973
# 5 30.0839 -7.0308 22.8244 0.0000 83.7397 0.0000
# 6 0.0000 0.0000 0.0000 3.6973 0.0000 34.3075
#
#
#
# Elastic Compliance Matrix: (Units=1/GPa)
#
#
# Indices 1 2 3 4 5 6 
#
# 1 0.015945 0.006997 -0.006904 0.000000 -0.003259 0.000000
# 2 0.006997 0.021501 -0.006631 0.000000 0.001099 0.000000
# 3 -0.006904 -0.006631 0.008640 0.000000 -0.000431 0.000000
# 4 0.000000 0.000000 0.000000 0.021863 0.000000 -0.002356
# 5 -0.003259 0.001099 -0.000431 0.000000 0.013322 0.000000
# 6 0.000000 0.000000 0.000000 -0.002356 0.000000 0.029402
#
#
# Mechanical properties :
#
#
# Convention : Reuss Voigt Hill
#
# Bulk Modulus (GPa) = 30.29377 65.10871 47.70124
# Shear Modulus (GPa) = 37.10543 51.23194 44.16869
#
# Velocity S-wave (km/s) = 3.58859 4.21672 3.91527
# Velocity P-wave (km/s) = 5.26160 6.80474 6.08231
#
# Compressibility (1/GPa) = 0.03301009
#
# Stress axis : x y z
#
# Youngs Moduli (GPa) = 62.71639 46.51030 115.74364
#
# Poissons Ratio (x) = -0.32543 0.79905
# Poissons Ratio (y) = -0.43882 0.76749
# Poissons Ratio (z) = 0.43297 0.30841
#
# Static dielectric constant tensor:
#      x y z
#    x 1.448780 0.000000 0.001460 
#    y 0.000000 2.234720 0.000000 
#    z 0.001460 0.000000 2.267500 
# 
# From -- ./inp_files/22816.got.cif
#   From: 2010.05.17/outbox.cif.g08.bks.cpg/sg14_12_cif.got.tgz:22816.got - 2010.06.03 17:49:19.
