data_PCOD9240385
_publ_section_title
;
Structure prediction by ZEFSAII (Michael W. Deem and Ramdas Pophale) SiO2 
 PCOD9240385
Probable space group: P 21/C
;
_chemical_formula_sum "Si O2"
_cell_formula_units_Z 32
_cell_length_a 12.785424
_cell_length_b 11.694595
_cell_length_c 16.464137
_cell_angle_alpha 90.000000
_cell_angle_beta 142.187974
_cell_angle_gamma 90.000000
_cell_volume 1509.216009
_symmetry_space_group_name_H-M "P 21/C"
_symmetry_group_IT_number 14
_symmetry_cell_setting 'monoclinic'
loop_
_space_group_symop_operation_xyz
x,y,z
-x,1/2+y,1/2-z
-x,-y,-z
x,1/2-y,1/2+z
loop_
_atom_site_type_symbol
_atom_site_label
_atom_site_fract_x
_atom_site_fract_y
_atom_site_fract_z
Si Si1 0.704532 0.125187 0.624156
Si Si2 0.378880 0.458495 0.325199
Si Si3 0.820813 0.648762 0.650715
Si Si4 0.808003 0.540990 0.949988
Si Si5 0.834865 0.193411 0.540104
Si Si6 0.848671 0.346680 0.770655
Si Si7 0.669504 0.607503 0.031158
Si Si8 0.220082 0.929920 0.952001
O O1 0.694319 0.176322 0.525785
O O2 0.823601 0.210865 0.748458
O O3 0.520576 0.124128 0.552891
O O4 0.753047 0.993277 0.637215
O O5 0.320238 0.398885 0.372474
O O6 0.263089 0.417431 0.179068
O O7 0.322282 0.590928 0.301521
O O8 0.574688 0.436473 0.426216
O O9 0.769484 0.775030 0.595999
O O10 0.834290 0.562558 0.582909
O O11 0.994169 0.656165 0.807812
O O12 0.678578 0.569216 0.943505
O O13 0.818210 0.402108 0.960819
O O14 0.987298 0.600261 0.083890
O O15 0.833246 0.328305 0.519539
O O16 0.855857 0.388063 0.681265
#
# Coordination Sequence:
#
# PCOD9240385 Si02
#       8
#     4   4   4   4   4   4   4   4
#     4   9  19  34  59  85 115 155 202 251 280 366
#     4  11  22  37  61  91 124 151 205 254 307 360
#     4  11  20  35  66  88 114 161 204 249 293 362
#     4  11  22  39  59  91 122 158 198 257 313 365
#     4  10  20  35  59  87 117 152 201 252 300 347
#     4  10  18  37  63  87 115 156 208 251 298 355
#     4  10  20  36  59  90 120 161 203 242 311 355
#     4  10  20  37  58  89 116 152 205 252 283 362
#
# _framework density 21.203061000000002
#
# number of rings (size 3 to 8) (size 9 to 14) (size 15 to 20)
#    0.000    1.750    2.500    5.625    1.750    0.000 
#    4.500    0.000    0.000    0.750    0.000    0.000 
#    0.000    0.000    0.000    0.000    0.000    0.000 
#
# Total GULP energy -178493.361840 kJ/mol
# GULP energy per Si atom -5577.917558 kJ/mol
# Density = 2.115480 g / cm^3
# Si number density = 21.203061 Si / 1000 Ang^3
#
#
#
# Elastic Constant Matrix: (Units=GPa)
#
#
# Indices 1 2 3 4 5 6 
#
# 1 51.2665 10.8648 11.3127 0.0000 8.2805 0.0000
# 2 10.8648 165.8585 30.6905 0.0000 3.3697 0.0000
# 3 11.3127 30.6905 83.8587 0.0000 2.7098 0.0000
# 4 0.0000 0.0000 0.0000 17.5188 0.0000 11.3965
# 5 8.2805 3.3697 2.7098 0.0000 28.8101 0.0000
# 6 0.0000 0.0000 0.0000 11.3965 0.0000 22.6192
#
#
#
# Elastic Compliance Matrix: (Units=1/GPa)
#
#
# Indices 1 2 3 4 5 6 
#
# 1 0.021132 -0.000831 -0.002361 0.000000 -0.005755 0.000000
# 2 -0.000831 0.006508 -0.002260 0.000000 -0.000310 0.000000
# 3 -0.002361 -0.002260 0.013080 0.000000 -0.000287 0.000000
# 4 0.000000 0.000000 0.000000 0.084913 0.000000 -0.042783
# 5 -0.005755 -0.000310 -0.000287 0.000000 0.036427 0.000000
# 6 0.000000 0.000000 0.000000 -0.042783 0.000000 0.065766
#
#
# Mechanical properties :
#
#
# Convention : Reuss Voigt Hill
#
# Bulk Modulus (GPa) = 33.53711 45.19109 39.36410
# Shear Modulus (GPa) = 20.10713 30.33066 25.21889
#
# Velocity S-wave (km/s) = 3.08281 3.78628 3.45251
# Velocity P-wave (km/s) = 5.34070 6.36194 5.87356
#
# Compressibility (1/GPa) = 0.02981771
#
# Stress axis : x y z
#
# Youngs Moduli (GPa) = 47.32075 153.65504 76.45487
#
# Poissons Ratio (x) = 0.12762 0.18050
# Poissons Ratio (y) = 0.03930 0.17277
# Poissons Ratio (z) = 0.11172 0.34722
#
# Static dielectric constant tensor:
#      x y z
#    x 1.807030 0.000000 0.023700 
#    y 0.000000 1.863720 0.000000 
#    z 0.023700 0.000000 1.751440 
# 
# From -- ./inp_files/59425.got.cif
#   From: 2010.05.17/outbox.cif.g08.bks.cpg/sg14_30_cif.got.tgz:59425.got - 2010.06.03 17:49:19.
