data_PCOD9240227
_publ_section_title
;
Structure prediction by ZEFSAII (Michael W. Deem and Ramdas Pophale) SiO2 
 PCOD9240227
Probable space group: P 21/C
;
_chemical_formula_sum "Si O2"
_cell_formula_units_Z 32
_cell_length_a 18.788863
_cell_length_b 11.661443
_cell_length_c 16.283977
_cell_angle_alpha 90.000000
_cell_angle_beta 152.401267
_cell_angle_gamma 90.000000
_cell_volume 1652.926288
_symmetry_space_group_name_H-M "P 21/C"
_symmetry_group_IT_number 14
_symmetry_cell_setting 'monoclinic'
loop_
_space_group_symop_operation_xyz
x,y,z
-x,1/2+y,1/2-z
-x,-y,-z
x,1/2-y,1/2+z
loop_
_atom_site_type_symbol
_atom_site_label
_atom_site_fract_x
_atom_site_fract_y
_atom_site_fract_z
Si Si1 0.919504 0.396407 0.834979
Si Si2 0.274698 0.805488 0.543385
Si Si3 0.811444 0.807334 0.697848
Si Si4 0.213959 0.560731 0.465038
Si Si5 0.815957 0.713606 0.391154
Si Si6 0.628026 0.820330 0.863387
Si Si7 0.945037 0.046271 0.790018
Si Si8 0.912149 0.136144 0.503671
O O1 0.801216 0.388323 0.640939
O O2 0.973319 0.528263 0.887493
O O3 0.847933 0.353822 0.846575
O O4 0.073297 0.322245 0.981724
O O5 0.257443 0.674600 0.558026
O O6 0.446442 0.814489 0.687269
O O7 0.221358 0.879836 0.567298
O O8 0.156362 0.853322 0.353869
O O9 0.757759 0.785420 0.737383
O O10 0.708539 0.753968 0.518995
O O11 0.841603 0.942933 0.718067
O O12 0.975667 0.741462 0.859319
O O13 0.324934 0.453359 0.579300
O O14 0.050725 0.511755 0.327852
O O15 0.693922 0.712957 0.340719
O O16 0.931208 0.604437 0.522152
#
# Coordination Sequence:
#
# PCOD9240227 Si02
#       8
#     4   4   4   4   4   4   4   4
#     4  10  18  35  64  89 114 145 214 269 297 348
#     4  12  24  40  61  92 126 170 201 252 320 377
#     4  11  21  41  64  88 123 163 209 259 314 362
#     4  11  21  41  62  86 121 160 211 254 303 369
#     4  10  22  40  63  92 120 163 209 265 305 363
#     4  11  26  41  59  89 133 168 201 245 324 389
#     4  11  21  37  66  89 116 158 217 257 301 357
#     4  10  20  35  61  91 114 154 208 263 305 350
#
# _framework density 19.359607
#
# number of rings (size 3 to 8) (size 9 to 14) (size 15 to 20)
#    0.000    1.250    5.000    1.875    1.750    0.000 
#    2.250    1.250    0.000    0.000    0.000    0.000 
#    0.000    0.000    0.000    0.000    0.000    0.000 
#
# Total GULP energy -178344.218447 kJ/mol
# GULP energy per Si atom -5573.256826 kJ/mol
# Density = 1.931554 g / cm^3
# Si number density = 19.359607 Si / 1000 Ang^3
#
#
#
# Elastic Constant Matrix: (Units=GPa)
#
#
# Indices 1 2 3 4 5 6 
#
# 1 112.2397 17.1051 47.9782 0.0000 11.5992 0.0000
# 2 17.1051 91.2466 10.0843 0.0000 6.8975 0.0000
# 3 47.9782 10.0843 46.0836 0.0000 5.8987 0.0000
# 4 0.0000 0.0000 0.0000 9.0243 0.0000 -1.0372
# 5 11.5992 6.8975 5.8987 0.0000 18.5081 0.0000
# 6 0.0000 0.0000 0.0000 -1.0372 0.0000 21.3850
#
#
#
# Elastic Compliance Matrix: (Units=1/GPa)
#
#
# Indices 1 2 3 4 5 6 
#
# 1 0.016573 -0.000927 -0.016437 0.000000 -0.004803 0.000000
# 2 -0.000927 0.011511 -0.001125 0.000000 -0.003350 0.000000
# 3 -0.016437 -0.001125 0.039289 0.000000 -0.001801 0.000000
# 4 0.000000 0.000000 0.000000 0.111434 0.000000 0.005405
# 5 -0.004803 -0.003350 -0.001801 0.000000 0.058863 0.000000
# 6 0.000000 0.000000 0.000000 0.005405 0.000000 0.047024
#
#
# Mechanical properties :
#
#
# Convention : Reuss Voigt Hill
#
# Bulk Modulus (GPa) = 32.89988 44.43390 38.66689
# Shear Modulus (GPa) = 15.06917 21.41030 18.23973
#
# Velocity S-wave (km/s) = 2.79298 3.32915 3.07278
# Velocity P-wave (km/s) = 5.23755 6.14649 5.71014
#
# Compressibility (1/GPa) = 0.03039525
#
# Stress axis : x y z
#
# Youngs Moduli (GPa) = 60.33783 86.87590 25.45230
#
# Poissons Ratio (x) = 0.08055 0.41836
# Poissons Ratio (y) = 0.05595 0.02863
# Poissons Ratio (z) = 0.99178 0.09771
#
# Static dielectric constant tensor:
#      x y z
#    x 1.745920 0.000000 -0.084950 
#    y 0.000000 1.736690 0.000000 
#    z -0.084950 0.000000 1.707360 
# 
# From -- ./inp_files/49041.got.cif
#   From: 2010.05.17/outbox.cif.g08.bks.cpg/sg14_25_cif.got.tgz:49041.got - 2010.06.03 17:49:19.
