data_PCOD9240618
_publ_section_title
;
Structure prediction by ZEFSAII (Michael W. Deem and Ramdas Pophale) SiO2 
 PCOD9240618
Probable space group: P 21/C
;
_chemical_formula_sum "Si O2"
_cell_formula_units_Z 32
_cell_length_a 23.881470
_cell_length_b 7.007880
_cell_length_c 7.042138
_cell_angle_alpha 90.000000
_cell_angle_beta 71.273316
_cell_angle_gamma 90.000000
_cell_volume 1116.169450
_symmetry_space_group_name_H-M "P 21/C"
_symmetry_group_IT_number 14
_symmetry_cell_setting 'monoclinic'
loop_
_space_group_symop_operation_xyz
x,y,z
-x,1/2+y,1/2-z
-x,-y,-z
x,1/2-y,1/2+z
loop_
_atom_site_type_symbol
_atom_site_label
_atom_site_fract_x
_atom_site_fract_y
_atom_site_fract_z
Si Si1 0.803827 0.994874 0.335041
Si Si2 0.822269 0.450375 0.369550
Si Si3 0.301238 0.518234 0.600334
Si Si4 0.317304 0.977209 0.631734
Si Si5 0.566104 0.047523 0.379670
Si Si6 0.926502 0.973663 0.290017
Si Si7 0.426916 0.987488 0.058408
Si Si8 0.056097 0.904176 0.162613
O O1 0.811427 0.220341 0.375584
O O2 0.735728 0.933677 0.430727
O O3 0.859838 0.894415 0.372310
O O4 0.812483 0.990112 0.097984
O O5 0.768908 0.526941 0.295326
O O6 0.892133 0.489996 0.260329
O O7 0.308301 0.748933 0.615732
O O8 0.309411 0.485586 0.365154
O O9 0.357171 0.439760 0.661527
O O10 0.386003 0.027611 0.523621
O O11 0.577327 0.272016 0.360839
O O12 0.573829 0.969353 0.163768
O O13 0.500000 0.000000 0.500000
O O14 0.925950 0.185277 0.375796
O O15 0.937981 0.998308 0.049679
O O16 0.987868 0.890224 0.300971
O O17 0.500000 0.000000 0.000000
#
# Coordination Sequence:
#
# PCOD9240618 Si02
#       8
#     4   4   4   4   4   4   4   4
#     4   8  13  23  39  59  82 107 137 174 212 248
#     4   8  13  23  39  59  82 107 137 174 212 248
#     4   8  14  24  40  61  83 108 139 176 215 252
#     4   8  14  24  40  61  83 108 139 176 215 252
#     4  10  19  31  47  68  92 118 148 182 222 266
#     4   9  17  28  43  64  88 114 143 175 212 253
#     4  10  19  31  47  68  92 118 148 182 222 266
#     4   9  17  28  43  64  88 114 143 175 212 253
#
# _framework density 28.669483
#
# number of rings (size 3 to 8) (size 9 to 14) (size 15 to 20)
#    0.000    3.250    0.000    0.750    0.000    1.500 
#    0.000    0.000    0.000    1.500    0.000    3.500 
#    0.000    0.000    0.000    0.000    0.000    0.000 
#
# Total GULP energy -178361.753437 kJ/mol
# GULP energy per Si atom -5573.804795 kJ/mol
# Density = 2.860423 g / cm^3
# Si number density = 28.669483 Si / 1000 Ang^3
#
#
#
# Elastic Constant Matrix: (Units=GPa)
#
#
# Indices 1 2 3 4 5 6 
#
# 1 440.3349 15.0670 61.8503 0.0000 -9.4522 0.0000
# 2 15.0670 87.6495 2.3048 0.0000 4.4291 0.0000
# 3 61.8503 2.3048 74.4074 0.0000 4.4112 0.0000
# 4 0.0000 0.0000 0.0000 15.2224 0.0000 -12.1394
# 5 -9.4522 4.4291 4.4112 0.0000 48.1121 0.0000
# 6 0.0000 0.0000 0.0000 -12.1394 0.0000 20.1181
#
#
#
# Elastic Compliance Matrix: (Units=1/GPa)
#
#
# Indices 1 2 3 4 5 6 
#
# 1 0.002611 -0.000429 -0.002202 0.000000 0.000754 0.000000
# 2 -0.000429 0.011539 0.000068 0.000000 -0.001153 0.000000
# 3 -0.002202 0.000068 0.015377 0.000000 -0.001849 0.000000
# 4 0.000000 0.000000 0.000000 0.126624 0.000000 0.076406
# 5 0.000754 -0.001153 -0.001849 0.000000 0.021209 0.000000
# 6 0.000000 0.000000 0.000000 0.076406 0.000000 0.095810
#
#
# Mechanical properties :
#
#
# Convention : Reuss Voigt Hill
#
# Bulk Modulus (GPa) = 40.98198 84.53732 62.75965
# Shear Modulus (GPa) = 17.45617 51.56849 34.51233
#
# Velocity S-wave (km/s) = 2.47022 4.24574 3.47335
# Velocity P-wave (km/s) = 4.73937 7.32024 6.16634
#
# Compressibility (1/GPa) = 0.02440097
#
# Stress axis : x y z
#
# Youngs Moduli (GPa) = 382.97134 86.66026 65.03067
#
# Poissons Ratio (x) = 0.03718 0.14319
# Poissons Ratio (y) = 0.16432 -0.00439
# Poissons Ratio (z) = 0.84328 -0.00586
#
# Static dielectric constant tensor:
#      x y z
#    x -8.353620 0.000000 30.297240 
#    y 0.000000 2.289800 0.000000 
#    z 30.297240 0.000000 -83.648590 
# 
# From -- ./inp_files/19329.got.cif
#   From: 2010.05.17/outbox.cif.g08.bks.cpg/sg14_10_cif.got.tgz:19329.got - 2010.06.03 17:49:19.
