data_PCOD9240760
_publ_section_title
;
Structure prediction by ZEFSAII (Michael W. Deem and Ramdas Pophale) SiO2 
 PCOD9240760
Probable space group: P 21/C
;
_chemical_formula_sum "Si O2"
_cell_formula_units_Z 32
_cell_length_a 10.802577
_cell_length_b 8.635773
_cell_length_c 23.340739
_cell_angle_alpha 90.000000
_cell_angle_beta 51.277731
_cell_angle_gamma 90.000000
_cell_volume 1698.799357
_symmetry_space_group_name_H-M "P 21/C"
_symmetry_group_IT_number 14
_symmetry_cell_setting 'monoclinic'
loop_
_space_group_symop_operation_xyz
x,y,z
-x,1/2+y,1/2-z
-x,-y,-z
x,1/2-y,1/2+z
loop_
_atom_site_type_symbol
_atom_site_label
_atom_site_fract_x
_atom_site_fract_y
_atom_site_fract_z
Si Si1 0.564867 0.212552 0.439484
Si Si2 0.293562 0.536525 0.003000
Si Si3 0.259120 0.544782 0.215570
Si Si4 0.922328 0.856371 0.789487
Si Si5 0.997907 0.452893 0.161591
Si Si6 0.464185 0.819674 0.355951
Si Si7 0.338260 0.680166 0.766189
Si Si8 0.575736 0.988966 0.872041
O O1 0.645468 0.181178 0.476669
O O2 0.687482 0.141805 0.356597
O O3 0.522747 0.385496 0.433906
O O4 0.409180 0.106904 0.483417
O O5 0.123739 0.492362 0.076471
O O6 0.332035 0.578016 0.926651
O O7 0.069372 0.548711 0.275541
O O8 0.359436 0.388629 0.183690
O O9 0.326900 0.643260 0.248605
O O10 0.940284 0.685155 0.812722
O O11 0.746000 0.925477 0.845801
O O12 0.959137 0.895559 0.711693
O O13 0.839308 0.387275 0.178798
O O14 0.430479 0.824568 0.298623
O O15 0.467070 0.652690 0.384609
O O16 0.405899 0.584325 0.692794
#
# Coordination Sequence:
#
# PCOD9240760 Si02
#       8
#     4   4   4   4   4   4   4   4
#     4   9  19  35  51  78 111 139 175 222 281 334
#     4  10  21  35  55  76 113 152 174 217 289 340
#     4   9  17  34  56  75 110 144 174 230 280 319
#     4  10  19  32  55  82 107 133 181 231 284 320
#     4  10  20  36  55  80 109 146 179 233 282 332
#     4  11  21  34  55  82 109 153 187 214 274 339
#     4   9  20  36  55  79 110 145 188 232 264 320
#     4  10  21  34  56  87 109 137 187 241 269 317
#
# _framework density 18.836834
#
# number of rings (size 3 to 8) (size 9 to 14) (size 15 to 20)
#    0.000    2.250    1.250    2.250    3.500    1.000 
#    0.000    0.000    0.000    0.750    0.000    0.000 
#    0.000    0.000    0.000    0.000    0.000    0.000 
#
# Total GULP energy -178244.707849 kJ/mol
# GULP energy per Si atom -5570.147120 kJ/mol
# Density = 1.879396 g / cm^3
# Si number density = 18.836834 Si / 1000 Ang^3
#
#
#
# Elastic Constant Matrix: (Units=GPa)
#
#
# Indices 1 2 3 4 5 6 
#
# 1 50.9946 19.3285 8.7569 0.0000 14.3901 0.0000
# 2 19.3285 77.4617 14.7530 0.0000 5.8047 0.0000
# 3 8.7569 14.7530 54.6323 0.0000 0.0962 0.0000
# 4 0.0000 0.0000 0.0000 21.0483 0.0000 5.6162
# 5 14.3901 5.8047 0.0962 0.0000 24.9684 0.0000
# 6 0.0000 0.0000 0.0000 5.6162 0.0000 15.0379
#
#
#
# Elastic Compliance Matrix: (Units=1/GPa)
#
#
# Indices 1 2 3 4 5 6 
#
# 1 0.025815 -0.004880 -0.002796 0.000000 -0.013733 0.000000
# 2 -0.004880 0.014784 -0.003209 0.000000 -0.000612 0.000000
# 3 -0.002796 -0.003209 0.019615 0.000000 0.002282 0.000000
# 4 0.000000 0.000000 0.000000 0.052768 0.000000 -0.019707
# 5 -0.013733 -0.000612 0.002282 0.000000 0.048099 0.000000
# 6 0.000000 0.000000 0.000000 -0.019707 0.000000 0.073859
#
#
# Mechanical properties :
#
#
# Convention : Reuss Voigt Hill
#
# Bulk Modulus (GPa) = 26.01159 29.86282 27.93721
# Shear Modulus (GPa) = 18.55123 21.56094 20.05609
#
# Velocity S-wave (km/s) = 3.14162 3.38689 3.26656
# Velocity P-wave (km/s) = 5.19601 5.58413 5.39356
#
# Compressibility (1/GPa) = 0.03844440
#
# Stress axis : x y z
#
# Youngs Moduli (GPa) = 38.73745 67.63926 50.98158
#
# Poissons Ratio (x) = 0.33007 0.14254
# Poissons Ratio (y) = 0.18903 0.16361
# Poissons Ratio (z) = 0.10830 0.21706
#
# Static dielectric constant tensor:
#      x y z
#    x 1.645420 0.000000 -0.008720 
#    y 0.000000 1.701030 0.000000 
#    z -0.008720 0.000000 1.666170 
# 
# From -- ./inp_files/72980.got.cif
#   From: 2010.05.17/outbox.cif.g08.bks.cpg/sg14_37_cif.got.tgz:72980.got - 2010.06.03 17:49:19.
