data_PCOD9240373
_publ_section_title
;
Structure prediction by ZEFSAII (Michael W. Deem and Ramdas Pophale) SiO2 
 PCOD9240373
Probable space group: P 21/C
;
_chemical_formula_sum "Si O2"
_cell_formula_units_Z 20
_cell_length_a 7.035156
_cell_length_b 7.173458
_cell_length_c 17.509463
_cell_angle_alpha 90.000000
_cell_angle_beta 94.326993
_cell_angle_gamma 90.000000
_cell_volume 881.120857
_symmetry_space_group_name_H-M "P 21/C"
_symmetry_group_IT_number 14
_symmetry_cell_setting 'monoclinic'
loop_
_space_group_symop_operation_xyz
x,y,z
-x,1/2+y,1/2-z
-x,-y,-z
x,1/2-y,1/2+z
loop_
_atom_site_type_symbol
_atom_site_label
_atom_site_fract_x
_atom_site_fract_y
_atom_site_fract_z
Si Si1 0.119798 0.888580 0.775397
Si Si2 0.590590 0.843330 0.154801
Si Si3 0.824509 0.509703 0.150666
Si Si4 0.177094 0.986103 0.107358
Si Si5 0.148410 0.240037 0.974884
O O1 0.297120 0.027322 0.782630
O O2 0.821774 0.195721 0.683359
O O3 0.012499 0.888839 0.691382
O O4 0.955233 0.969261 0.825198
O O5 0.374290 0.897334 0.138902
O O6 0.642805 0.629042 0.173313
O O7 0.702539 0.868285 0.077024
O O8 0.836086 0.551571 0.059936
O O9 0.202773 0.180036 0.061326
O O10 0.059115 0.846143 0.049054
#
# Coordination Sequence:
#
# PCOD9240373 Si02
#       5
#     4   4   4   4   4
#     4  11  20  39  56  81 116 151 190 233 288 336
#     4   9  20  37  58  82 114 148 188 232 284 336
#     4  10  20  40  57  79 119 153 180 242 290 329
#     4  10  18  37  61  86 109 152 191 233 277 347
#     4   8  19  36  62  79 118 149 184 233 295 325
#
# _framework density 22.698361999999999
#
# number of rings (size 3 to 8) (size 9 to 14) (size 15 to 20)
#    1.200    1.200    2.000    0.600    0.000    0.800 
#   10.800    1.000    0.000    0.000    0.000    0.000 
#    0.000    0.000    0.000    0.000    0.000    0.000 
#
# Total GULP energy -111541.285329 kJ/mol
# GULP energy per Si atom -5577.064266 kJ/mol
# Density = 2.264670 g / cm^3
# Si number density = 22.698362 Si / 1000 Ang^3
#
#
#
# Elastic Constant Matrix: (Units=GPa)
#
#
# Indices 1 2 3 4 5 6 
#
# 1 151.5277 30.4123 12.5181 0.0000 18.4690 0.0000
# 2 30.4123 53.1543 -6.2160 0.0000 1.2884 0.0000
# 3 12.5181 -6.2160 28.9946 0.0000 -0.7741 0.0000
# 4 0.0000 0.0000 0.0000 26.0743 0.0000 3.9782
# 5 18.4690 1.2884 -0.7741 0.0000 20.3582 0.0000
# 6 0.0000 0.0000 0.0000 3.9782 0.0000 5.5686
#
#
#
# Elastic Compliance Matrix: (Units=1/GPa)
#
#
# Indices 1 2 3 4 5 6 
#
# 1 0.009184 -0.005688 -0.005403 0.000000 -0.008177 0.000000
# 2 -0.005688 0.022843 0.007460 0.000000 0.003999 0.000000
# 3 -0.005403 0.007460 0.038579 0.000000 0.005897 0.000000
# 4 0.000000 0.000000 0.000000 0.043044 0.000000 -0.030750
# 5 -0.008177 0.003999 0.005897 0.000000 0.056510 0.000000
# 6 0.000000 0.000000 0.000000 -0.030750 0.000000 0.201546
#
#
# Mechanical properties :
#
#
# Convention : Reuss Voigt Hill
#
# Bulk Modulus (GPa) = 15.78704 34.12282 24.95493
# Shear Modulus (GPa) = 12.49741 23.53104 18.01423
#
# Velocity S-wave (km/s) = 2.34900 3.22325 2.82021
# Velocity P-wave (km/s) = 3.78515 5.37757 4.65003
#
# Compressibility (1/GPa) = 0.06334311
#
# Stress axis : x y z
#
# Youngs Moduli (GPa) = 108.88257 43.77663 25.92108
#
# Poissons Ratio (x) = 0.24902 0.14005
# Poissons Ratio (y) = 0.61937 -0.19337
# Poissons Ratio (z) = 0.58830 -0.32657
#
# Static dielectric constant tensor:
#      x y z
#    x 1.793780 0.000000 -0.013870 
#    y 0.000000 1.903850 0.000000 
#    z -0.013870 0.000000 1.889460 
# 
# From -- ./inp_files/53083.got.cif
#   From: 2010.05.17/outbox.cif.g08.bks.cpg/sg14_27_cif.got.tgz:53083.got - 2010.06.03 17:49:19.
