data_PCOD9240485
_publ_section_title
;
Structure prediction by ZEFSAII (Michael W. Deem and Ramdas Pophale) SiO2 
 PCOD9240485
Probable space group: P 21/C
;
_chemical_formula_sum "Si O2"
_cell_formula_units_Z 24
_cell_length_a 11.455516
_cell_length_b 16.265116
_cell_length_c 14.320664
_cell_angle_alpha 90.000000
_cell_angle_beta 30.733143
_cell_angle_gamma 90.000000
_cell_volume 1363.609619
_symmetry_space_group_name_H-M "P 21/C"
_symmetry_group_IT_number 14
_symmetry_cell_setting 'monoclinic'
loop_
_space_group_symop_operation_xyz
x,y,z
-x,1/2+y,1/2-z
-x,-y,-z
x,1/2-y,1/2+z
loop_
_atom_site_type_symbol
_atom_site_label
_atom_site_fract_x
_atom_site_fract_y
_atom_site_fract_z
Si Si1 0.301424 0.917011 0.286381
Si Si2 0.610906 0.627507 0.881113
Si Si3 0.744857 0.628075 0.581093
Si Si4 0.874547 0.936378 0.712722
Si Si5 0.393044 0.207289 0.001772
Si Si6 0.136568 0.532188 0.220382
O O1 0.526060 0.926229 0.197146
O O2 0.076753 0.910985 0.503383
O O3 0.360565 0.833468 0.189888
O O4 0.272507 0.994081 0.237901
O O5 0.697858 0.653248 0.718815
O O6 0.604561 0.704338 0.954715
O O7 0.774741 0.555479 0.806079
O O8 0.358468 0.588235 0.048533
O O9 0.736202 0.700744 0.509626
O O10 0.973926 0.576565 0.407658
O O11 0.990800 0.973091 0.725791
O O12 0.731507 0.858093 0.845028
#
# Coordination Sequence:
#
# PCOD9240485 Si02
#       6
#     4   4   4   4   4   4
#     4   9  19  36  60  84 113 146 189 239 280 331
#     4  11  21  40  55  86 116 154 188 229 291 343
#     4   9  20  39  57  84 115 147 189 242 278 340
#     4  10  18  39  60  85 111 150 192 235 284 333
#     4   9  21  36  56  84 114 145 189 238 278 330
#     4  10  21  36  61  79 120 152 186 234 283 348
#
# _framework density 17.600345000000001
#
# number of rings (size 3 to 8) (size 9 to 14) (size 15 to 20)
#    1.000    1.333    1.667    1.000    0.000    1.333 
#   12.000    0.000    0.000    0.000    0.000    0.000 
#    0.000    0.000    0.000    0.000    0.000    0.000 
#
# Total GULP energy -133668.290432 kJ/mol
# GULP energy per Si atom -5569.512101 kJ/mol
# Density = 1.756029 g / cm^3
# Si number density = 17.600345 Si / 1000 Ang^3
#
#
#
# Elastic Constant Matrix: (Units=GPa)
#
#
# Indices 1 2 3 4 5 6 
#
# 1 48.1464 35.6795 16.3759 0.0000 11.3384 0.0000
# 2 35.6795 74.4653 27.2380 0.0000 20.4569 0.0000
# 3 16.3759 27.2380 83.1779 0.0000 22.8088 0.0000
# 4 0.0000 0.0000 0.0000 6.6497 0.0000 6.5575
# 5 11.3384 20.4569 22.8088 0.0000 28.9016 0.0000
# 6 0.0000 0.0000 0.0000 6.5575 0.0000 12.2613
#
#
#
# Elastic Compliance Matrix: (Units=1/GPa)
#
#
# Indices 1 2 3 4 5 6 
#
# 1 0.032400 -0.014717 -0.001187 0.000000 -0.001357 0.000000
# 2 -0.014717 0.023897 -0.002390 0.000000 -0.009255 0.000000
# 3 -0.001187 -0.002390 0.015885 0.000000 -0.010378 0.000000
# 4 0.000000 0.000000 0.000000 0.318198 0.000000 -0.170177
# 5 -0.001357 -0.009255 -0.010378 0.000000 0.049874 0.000000
# 6 0.000000 0.000000 0.000000 -0.170177 0.000000 0.172570
#
#
# Mechanical properties :
#
#
# Convention : Reuss Voigt Hill
#
# Bulk Modulus (GPa) = 28.09584 40.48628 34.29106
# Shear Modulus (GPa) = 7.56112 17.99561 12.77837
#
# Velocity S-wave (km/s) = 2.07493 3.20106 2.69742
# Velocity P-wave (km/s) = 4.66244 6.05932 5.40619
#
# Compressibility (1/GPa) = 0.03559245
#
# Stress axis : x y z
#
# Youngs Moduli (GPa) = 30.86467 41.84556 62.95290
#
# Poissons Ratio (x) = 0.61584 0.07475
# Poissons Ratio (y) = 0.45423 0.15048
# Poissons Ratio (z) = 0.03665 0.10002
#
# Static dielectric constant tensor:
#      x y z
#    x 1.602030 0.000000 0.006720 
#    y 0.000000 1.562010 0.000000 
#    z 0.006720 0.000000 1.614360 
# 
# From -- ./inp_files/44856.got.cif
#   From: 2010.05.17/outbox.cif.g08.bks.cpg/sg14_23_cif.got.tgz:44856.got - 2010.06.03 17:49:19.
