data_PCOD9240003
_publ_section_title
;
Structure prediction by ZEFSAII (Michael W. Deem and Ramdas Pophale) SiO2 
 PCOD9240003
Probable space group: P 21/C
;
_chemical_formula_sum "Si O2"
_cell_formula_units_Z 28
_cell_length_a 11.752185
_cell_length_b 12.568043
_cell_length_c 13.572631
_cell_angle_alpha 90.000000
_cell_angle_beta 35.011788
_cell_angle_gamma 90.000000
_cell_volume 1150.188974
_symmetry_space_group_name_H-M "P 21/C"
_symmetry_group_IT_number 14
_symmetry_cell_setting 'monoclinic'
loop_
_space_group_symop_operation_xyz
x,y,z
-x,1/2+y,1/2-z
-x,-y,-z
x,1/2-y,1/2+z
loop_
_atom_site_type_symbol
_atom_site_label
_atom_site_fract_x
_atom_site_fract_y
_atom_site_fract_z
Si Si1 0.354435 0.002277 0.239853
Si Si2 0.703810 0.943278 0.210546
Si Si3 0.801901 0.224497 0.622896
Si Si4 0.202748 0.456448 0.645224
Si Si5 0.566919 0.620666 0.121913
Si Si6 0.872024 0.778381 0.946683
Si Si7 0.035606 0.602312 0.616663
O O1 0.246953 0.898264 0.358002
O O2 0.215606 0.049082 0.252798
O O3 0.409627 0.091242 0.279189
O O4 0.564713 0.958634 0.050207
O O5 0.718088 0.837338 0.133150
O O6 0.816540 0.921658 0.232091
O O7 0.499421 0.005693 0.372225
O O8 0.831246 0.027653 0.053765
O O9 0.601762 0.292818 0.782363
O O10 0.904309 0.279690 0.456665
O O11 0.945553 0.244520 0.614490
O O12 0.089930 0.367468 0.662676
O O13 0.109037 0.564847 0.670301
O O14 0.769551 0.682660 0.960860
#
# Coordination Sequence:
#
# PCOD9240003 Si02
#       7
#     4   4   4   4   4   4   4
#     4  11  21  31  54  82 112 136 176 231 276 313
#     4   8  14  27  48  76  95 130 181 218 256 304
#     4  10  19  34  53  83 105 143 186 225 263 319
#     4  10  18  34  52  82 104 142 178 219 274 326
#     4  11  17  32  53  79 107 141 181 228 265 319
#     4  10  19  33  56  78 108 142 187 221 266 324
#     4   8  14  29  54  73 100 133 183 221 254 320
#
# _framework density 24.343826
#
# number of rings (size 3 to 8) (size 9 to 14) (size 15 to 20)
#    0.000    2.286    5.714    2.571    0.000    0.571 
#    0.000    2.857    0.000    0.000    0.000    7.000 
#    0.000    0.000    0.000    0.000    0.000    0.000 
#
# Total GULP energy -156387.784130 kJ/mol
# GULP energy per Si atom -5585.278005 kJ/mol
# Density = 2.428842 g / cm^3
# Si number density = 24.343826 Si / 1000 Ang^3
#
#
#
# Elastic Constant Matrix: (Units=GPa)
#
#
# Indices 1 2 3 4 5 6 
#
# 1 152.2275 31.6533 22.0047 0.0000 -28.4539 0.0000
# 2 31.6533 96.0074 37.0540 0.0000 -12.9998 0.0000
# 3 22.0047 37.0540 46.5216 0.0000 -20.2777 0.0000
# 4 0.0000 0.0000 0.0000 9.9971 0.0000 14.0086
# 5 -28.4539 -12.9998 -20.2777 0.0000 30.1174 0.0000
# 6 0.0000 0.0000 0.0000 14.0086 0.0000 20.6448
#
#
#
# Elastic Compliance Matrix: (Units=1/GPa)
#
#
# Indices 1 2 3 4 5 6 
#
# 1 0.008281 -0.002122 0.001110 0.000000 0.007655 0.000000
# 2 -0.002122 0.015689 -0.013325 0.000000 -0.004204 0.000000
# 3 0.001110 -0.013325 0.041801 0.000000 0.023441 0.000000
# 4 0.000000 0.000000 0.000000 2.034470 0.000000 -1.380494
# 5 0.007655 -0.004204 0.023441 0.000000 0.054403 0.000000
# 6 0.000000 0.000000 0.000000 -1.380494 0.000000 0.985176
#
#
# Mechanical properties :
#
#
# Convention : Reuss Voigt Hill
#
# Bulk Modulus (GPa) = 26.95676 52.90894 39.93285
# Shear Modulus (GPa) = 1.57190 25.75483 13.66337
#
# Velocity S-wave (km/s) = 0.80443 3.25616 2.37168
# Velocity P-wave (km/s) = 3.45835 5.99316 4.89276
#
# Compressibility (1/GPa) = 0.03709645
#
# Stress axis : x y z
#
# Youngs Moduli (GPa) = 120.76278 63.73915 23.92284
#
# Poissons Ratio (x) = 0.13525 -0.02655
# Poissons Ratio (y) = 0.25626 0.31877
# Poissons Ratio (z) = -0.13403 0.84932
#
# Static dielectric constant tensor:
#      x y z
#    x 1.913880 0.000000 0.029790 
#    y 0.000000 1.967360 0.000000 
#    z 0.029790 0.000000 2.052510 
# 
# From -- ./inp_files/57529.got.cif
#   From: 2010.05.17/outbox.cif.g08.bks.cpg/sg14_29_cif.got.tgz:57529.got - 2010.06.03 17:49:19.
