data_PCOD9240967
_publ_section_title
;
Structure prediction by ZEFSAII (Michael W. Deem and Ramdas Pophale) SiO2 
 PCOD9240967
Probable space group: P 21/C
;
_chemical_formula_sum "Si O2"
_cell_formula_units_Z 32
_cell_length_a 11.923305
_cell_length_b 6.486826
_cell_length_c 22.249712
_cell_angle_alpha 90.000000
_cell_angle_beta 47.189834
_cell_angle_gamma 90.000000
_cell_volume 1262.461446
_symmetry_space_group_name_H-M "P 21/C"
_symmetry_group_IT_number 14
_symmetry_cell_setting 'monoclinic'
loop_
_space_group_symop_operation_xyz
x,y,z
-x,1/2+y,1/2-z
-x,-y,-z
x,1/2-y,1/2+z
loop_
_atom_site_type_symbol
_atom_site_label
_atom_site_fract_x
_atom_site_fract_y
_atom_site_fract_z
Si Si1 0.111287 0.135131 0.918417
Si Si2 0.254646 0.059363 0.457409
Si Si3 0.618666 0.189040 0.968617
Si Si4 0.564450 0.234009 0.826905
Si Si5 0.274241 0.765992 0.342380
Si Si6 0.198891 0.030338 0.181759
Si Si7 0.382726 0.421335 0.119933
Si Si8 0.016961 0.472289 0.863405
O O1 0.148361 0.319186 0.949546
O O2 0.054699 0.248561 0.878768
O O3 0.246108 0.975846 0.857476
O O4 0.000000 0.000000 0.000000
O O5 0.396500 0.216337 0.412944
O O6 0.287510 0.862333 0.403336
O O7 0.155777 0.018611 0.552743
O O8 0.611424 0.385512 0.927155
O O9 0.780597 0.085929 0.889847
O O10 0.542770 0.295700 0.054878
O O11 0.500000 0.000000 0.000000
O O12 0.579022 0.183747 0.751914
O O13 0.640231 0.460194 0.809556
O O14 0.663963 0.069078 0.827204
O O15 0.132641 0.867576 0.355600
O O16 0.247977 0.265128 0.155265
O O17 0.054773 0.014771 0.278685
#
# Coordination Sequence:
#
# PCOD9240967 Si02
#       8
#     4   4   4   4   4   4   4   4
#     4  11  18  33  52  65  90 139 183 216 260 299
#     4  11  22  33  47  73 100 138 181 221 263 310
#     4   8  15  29  55  83 103 126 161 211 261 317
#     4  10  22  32  47  75 106 136 168 222 267 312
#     4  10  20  35  48  67  99 137 182 220 256 301
#     4   9  18  33  52  78 104 131 171 215 263 315
#     4   9  16  32  52  79 106 129 164 208 266 318
#     4  10  19  34  50  71  99 132 181 224 253 310
#
# _framework density 25.347308000000002
#
# number of rings (size 3 to 8) (size 9 to 14) (size 15 to 20)
#    0.000    2.250    2.500    1.500    1.750    1.000 
#    0.000    0.000    0.000    0.000   19.500    0.000 
#    0.000    0.000    0.000    0.000    0.000    0.000 
#
# Total GULP energy -178448.914759 kJ/mol
# GULP energy per Si atom -5576.528586 kJ/mol
# Density = 2.528962 g / cm^3
# Si number density = 25.347308 Si / 1000 Ang^3
#
#
#
# Elastic Constant Matrix: (Units=GPa)
#
#
# Indices 1 2 3 4 5 6 
#
# 1 49.7881 24.5580 27.9798 0.0000 -0.7856 0.0000
# 2 24.5580 115.3532 50.0897 0.0000 3.3315 0.0000
# 3 27.9798 50.0897 175.8996 0.0000 3.9655 0.0000
# 4 0.0000 0.0000 0.0000 31.0639 0.0000 0.9173
# 5 -0.7856 3.3315 3.9655 0.0000 30.3297 0.0000
# 6 0.0000 0.0000 0.0000 0.9173 0.0000 7.5337
#
#
#
# Elastic Compliance Matrix: (Units=1/GPa)
#
#
# Indices 1 2 3 4 5 6 
#
# 1 0.023524 -0.003891 -0.002665 0.000000 0.001385 0.000000
# 2 -0.003891 0.010551 -0.002364 0.000000 -0.000951 0.000000
# 3 -0.002665 -0.002364 0.006798 0.000000 -0.000698 0.000000
# 4 0.000000 0.000000 0.000000 0.032308 0.000000 -0.003934
# 5 0.001385 -0.000951 -0.000698 0.000000 0.033203 0.000000
# 6 0.000000 0.000000 0.000000 -0.003934 0.000000 0.133216
#
#
# Mechanical properties :
#
#
# Convention : Reuss Voigt Hill
#
# Bulk Modulus (GPa) = 43.41640 60.69954 52.05797
# Shear Modulus (GPa) = 18.85954 29.67969 24.26961
#
# Velocity S-wave (km/s) = 2.73068 3.42558 3.09768
# Velocity P-wave (km/s) = 5.20653 6.29645 5.77725
#
# Compressibility (1/GPa) = 0.02303277
#
# Stress axis : x y z
#
# Youngs Moduli (GPa) = 42.51000 94.77340 147.10184
#
# Poissons Ratio (x) = 0.36875 0.39205
# Poissons Ratio (y) = 0.16540 0.34780
# Poissons Ratio (z) = 0.11329 0.22408
#
# Static dielectric constant tensor:
#      x y z
#    x 2.098330 0.000000 -0.004110 
#    y 0.000000 2.025490 0.000000 
#    z -0.004110 0.000000 2.103770 
# 
# From -- ./inp_files/80330.got.cif
#   From: 2010.05.17/outbox.cif.g08.bks.cpg/sg14_41_cif.got.tgz:80330.got - 2010.06.03 17:49:19.
