data_PCOD9240699
_publ_section_title
;
Structure prediction by ZEFSAII (Michael W. Deem and Ramdas Pophale) SiO2 
 PCOD9240699
Probable space group: P 21/C
;
_chemical_formula_sum "Si O2"
_cell_formula_units_Z 32
_cell_length_a 13.904941
_cell_length_b 20.308837
_cell_length_c 8.593904
_cell_angle_alpha 90.000000
_cell_angle_beta 51.826602
_cell_angle_gamma 90.000000
_cell_volume 1907.861167
_symmetry_space_group_name_H-M "P 21/C"
_symmetry_group_IT_number 14
_symmetry_cell_setting 'monoclinic'
loop_
_space_group_symop_operation_xyz
x,y,z
-x,1/2+y,1/2-z
-x,-y,-z
x,1/2-y,1/2+z
loop_
_atom_site_type_symbol
_atom_site_label
_atom_site_fract_x
_atom_site_fract_y
_atom_site_fract_z
Si Si1 0.360015 0.421616 0.650371
Si Si2 0.133532 0.346265 0.015369
Si Si3 0.360016 0.578384 0.629597
Si Si4 0.782298 0.724768 0.770309
Si Si5 0.640345 0.177027 0.594874
Si Si6 0.640345 0.677027 0.624436
Si Si7 0.782297 0.275232 0.665097
Si Si8 0.133533 0.846264 0.217564
O O1 0.251368 0.391417 0.862590
O O2 0.350806 0.500000 0.649194
O O3 0.500000 0.404745 0.562459
O O4 0.345148 0.387633 0.496081
O O5 0.145299 0.283867 0.886619
O O6 0.144237 0.317325 0.178174
O O7 1.000000 0.377642 0.125769
O O8 0.345148 0.612368 0.813622
O O9 0.251369 0.608583 0.634671
O O10 0.725149 0.681405 0.690186
O O11 0.677881 0.762280 0.974816
O O12 0.500000 0.183280 0.687808
O O13 0.677881 0.237720 0.669422
O O14 0.725148 0.181405 0.359518
O O15 0.855764 0.317326 0.466650
O O16 0.854700 0.216134 0.677221
#
# Coordination Sequence:
#
# PCOD9240699 Si02
#       8
#     4   4   4   4   4   4   4   4
#     4   9  19  35  52  71  96 128 166 204 241 283
#     4  10  19  32  51  73  99 129 159 195 240 290
#     4   9  19  35  52  71  96 128 166 204 241 283
#     4   9  18  29  46  74 101 124 155 196 244 290
#     4   9  16  28  48  72  98 126 157 197 242 289
#     4   9  16  28  48  72  98 126 157 197 242 289
#     4   9  18  29  46  74 101 124 155 196 244 290
#     4  10  19  32  51  73  99 129 159 195 240 290
#
# _framework density 16.772708999999999
#
# number of rings (size 3 to 8) (size 9 to 14) (size 15 to 20)
#    0.000    2.750    0.000    1.500    0.000    7.500 
#    0.000    2.500    0.000    6.000    0.000    0.000 
#    0.000    0.000    0.000    0.000    0.000    0.000 
#
# Total GULP energy -178216.979518 kJ/mol
# GULP energy per Si atom -5569.280610 kJ/mol
# Density = 1.673453 g / cm^3
# Si number density = 16.772709 Si / 1000 Ang^3
#
#
#
# Elastic Constant Matrix: (Units=GPa)
#
#
# Indices 1 2 3 4 5 6 
#
# 1 75.2140 37.5906 68.4737 0.0000 -14.0451 0.0000
# 2 37.5906 60.0749 36.2607 0.0000 -13.2899 0.0000
# 3 68.4737 36.2607 72.6847 0.0000 -11.2677 0.0000
# 4 0.0000 0.0000 0.0000 9.4817 0.0000 2.4450
# 5 -14.0451 -13.2899 -11.2677 0.0000 30.4134 0.0000
# 6 0.0000 0.0000 0.0000 2.4450 0.0000 9.2370
#
#
#
# Elastic Compliance Matrix: (Units=1/GPa)
#
#
# Indices 1 2 3 4 5 6 
#
# 1 0.098631 -0.006207 -0.088248 0.000000 0.010141 0.000000
# 2 -0.006207 0.025432 -0.005900 0.000000 0.006061 0.000000
# 3 -0.088248 -0.005900 0.098793 0.000000 -0.006730 0.000000
# 4 0.000000 0.000000 0.000000 0.113192 0.000000 -0.029961
# 5 0.010141 0.006061 -0.006730 0.000000 0.037718 0.000000
# 6 0.000000 0.000000 0.000000 -0.029961 0.000000 0.116191
#
#
# Mechanical properties :
#
#
# Convention : Reuss Voigt Hill
#
# Bulk Modulus (GPa) = 45.15574 54.73594 49.94584
# Shear Modulus (GPa) = 7.16282 14.20301 10.68291
#
# Velocity S-wave (km/s) = 2.06877 2.91313 2.52647
# Velocity P-wave (km/s) = 5.71725 6.63475 6.19301
#
# Compressibility (1/GPa) = 0.02214558
#
# Stress axis : x y z
#
# Youngs Moduli (GPa) = 10.13883 39.32047 10.12214
#
# Poissons Ratio (x) = 0.24406 0.89326
# Poissons Ratio (y) = 0.06293 0.05973
# Poissons Ratio (z) = 0.89473 0.23201
#
# Static dielectric constant tensor:
#      x y z
#    x 1.575670 0.000000 -0.020570 
#    y 0.000000 1.544180 0.000000 
#    z -0.020570 0.000000 1.573610 
# 
# From -- ./inp_files/10691.got.cif
#   From: 2010.05.17/outbox.cif.g08.bks.cpg/sg14_6_cif.got.tgz:10691.got - 2010.06.03 17:49:19.
