data_PCOD9240091
_publ_section_title
;
Structure prediction by ZEFSAII (Michael W. Deem and Ramdas Pophale) SiO2 
 PCOD9240091
Probable space group: P 21/C
;
_chemical_formula_sum "Si O2"
_cell_formula_units_Z 26
_cell_length_a 14.815542
_cell_length_b 14.149451
_cell_length_c 8.595544
_cell_angle_alpha 90.000000
_cell_angle_beta 38.032517
_cell_angle_gamma 90.000000
_cell_volume 1110.165607
_symmetry_space_group_name_H-M "P 21/C"
_symmetry_group_IT_number 14
_symmetry_cell_setting 'monoclinic'
loop_
_space_group_symop_operation_xyz
x,y,z
-x,1/2+y,1/2-z
-x,-y,-z
x,1/2-y,1/2+z
loop_
_atom_site_type_symbol
_atom_site_label
_atom_site_fract_x
_atom_site_fract_y
_atom_site_fract_z
Si Si1 0.715080 0.711178 0.126213
Si Si2 0.500000 0.500000 0.000000
Si Si3 0.069891 0.385469 0.682674
Si Si4 0.743795 0.393579 0.098203
Si Si5 0.219613 0.441496 0.201126
Si Si6 0.698410 0.546254 0.401763
Si Si7 0.542258 0.154844 0.610314
O O1 0.689426 0.637087 0.300321
O O2 0.561257 0.758435 0.286940
O O3 0.828675 0.795945 0.996545
O O4 0.787591 0.653411 0.888555
O O5 0.374394 0.438159 0.078520
O O6 0.612099 0.398640 0.870323
O O7 0.094007 0.450330 0.499335
O O8 0.147670 0.440076 0.719834
O O9 0.902312 0.356350 0.933442
O O10 0.774804 0.476898 0.933404
O O11 0.676547 0.450146 0.336337
O O12 0.638239 0.330023 0.134419
O O13 0.567824 0.561413 0.705089
#
# Coordination Sequence:
#
# PCOD9240091 Si02
#       7
#     4   2   4   4   4   4   4
#     4  10  21  37  62  82 112 156 202 231 296 349
#     4  10  18  34  60  86 106 142 200 238 280 332
#     4  11  19  35  59  82 117 150 190 237 289 352
#     4  10  22  35  56  86 117 148 193 242 292 336
#     4  10  20  37  60  83 112 156 197 233 285 357
#     4  10  20  37  60  82 112 156 199 238 283 355
#     4  10  20  35  59  84 117 147 195 247 285 346
#
# _framework density 23.419927999999999
#
# number of rings (size 3 to 8) (size 9 to 14) (size 15 to 20)
#    0.000    1.846    3.077    3.231    0.000    0.000 
#    0.000    3.077    6.769    0.000    0.000    0.000 
#    0.000    0.000    0.000    0.000    0.000    0.000 
#
# Total GULP energy -144764.996067 kJ/mol
# GULP energy per Si atom -5567.884464 kJ/mol
# Density = 2.336662 g / cm^3
# Si number density = 23.419928 Si / 1000 Ang^3
#
#
#
# Elastic Constant Matrix: (Units=GPa)
#
#
# Indices 1 2 3 4 5 6 
#
# 1 118.2234 18.4351 24.1762 0.0000 -6.1193 0.0000
# 2 18.4351 43.4612 9.3789 0.0000 2.4347 0.0000
# 3 24.1762 9.3789 46.0831 0.0000 1.9237 0.0000
# 4 0.0000 0.0000 0.0000 5.9191 0.0000 -0.1924
# 5 -6.1193 2.4347 1.9237 0.0000 34.5279 0.0000
# 6 0.0000 0.0000 0.0000 -0.1924 0.0000 23.3078
#
#
#
# Elastic Compliance Matrix: (Units=1/GPa)
#
#
# Indices 1 2 3 4 5 6 
#
# 1 0.010063 -0.003385 -0.004686 0.000000 0.002283 0.000000
# 2 -0.003385 0.025275 -0.003276 0.000000 -0.002200 0.000000
# 3 -0.004686 -0.003276 0.024908 0.000000 -0.001987 0.000000
# 4 0.000000 0.000000 0.000000 0.168991 0.000000 0.001395
# 5 0.002283 -0.002200 -0.001987 0.000000 0.029633 0.000000
# 6 0.000000 0.000000 0.000000 0.001395 0.000000 0.042916
#
#
# Mechanical properties :
#
#
# Convention : Reuss Voigt Hill
#
# Bulk Modulus (GPa) = 26.62983 34.63866 30.63425
# Shear Modulus (GPa) = 14.83698 23.13612 18.98655
#
# Velocity S-wave (km/s) = 2.51971 3.14647 2.85037
# Velocity P-wave (km/s) = 4.45652 5.29365 4.89302
#
# Compressibility (1/GPa) = 0.03755188
#
# Stress axis : x y z
#
# Youngs Moduli (GPa) = 99.37616 39.56457 40.14803
#
# Poissons Ratio (x) = 0.13393 0.18811
# Poissons Ratio (y) = 0.33640 0.13154
# Poissons Ratio (z) = 0.46563 0.12962
#
# Static dielectric constant tensor:
#      x y z
#    x 3.392640 0.000000 1.733770 
#    y 0.000000 1.758700 0.000000 
#    z 1.733770 0.000000 4.098260 
# 
# From -- ./inp_files/9161.got.cif
#   From: 2010.05.17/outbox.cif.g08.bks.cpg/sg14_5_cif.got.tgz:9161.got - 2010.06.03 17:49:19.
