data_PCOD9240189
_publ_section_title
;
Structure prediction by ZEFSAII (Michael W. Deem and Ramdas Pophale) SiO2 
 PCOD9240189
Probable space group: P 21/C
;
_chemical_formula_sum "Si O2"
_cell_formula_units_Z 32
_cell_length_a 28.802466
_cell_length_b 8.674337
_cell_length_c 22.803359
_cell_angle_alpha 90.000000
_cell_angle_beta 163.561061
_cell_angle_gamma 90.000000
_cell_volume 1612.282073
_symmetry_space_group_name_H-M "P 21/C"
_symmetry_group_IT_number 14
_symmetry_cell_setting 'monoclinic'
loop_
_space_group_symop_operation_xyz
x,y,z
-x,1/2+y,1/2-z
-x,-y,-z
x,1/2-y,1/2+z
loop_
_atom_site_type_symbol
_atom_site_label
_atom_site_fract_x
_atom_site_fract_y
_atom_site_fract_z
Si Si1 0.594084 0.382650 0.340062
Si Si2 0.780723 0.569837 0.120412
Si Si3 0.089482 0.075697 0.346222
Si Si4 0.057143 0.854495 0.030461
Si Si5 0.353069 0.337662 0.686635
Si Si6 0.288655 0.755716 0.900918
Si Si7 0.670410 0.445967 0.234462
Si Si8 0.234245 0.733687 0.051498
O O1 0.627332 0.536432 0.341979
O O2 0.689761 0.368882 0.517402
O O3 0.647431 0.243112 0.361442
O O4 0.399167 0.369797 0.114419
O O5 0.889036 0.528096 0.195346
O O6 0.746570 0.412851 0.114105
O O7 0.893201 0.684996 0.295143
O O8 0.217521 0.212746 0.508984
O O9 0.910834 0.145016 0.139143
O O10 0.146306 0.929691 0.452584
O O11 0.145328 0.728953 0.178991
O O12 0.194749 0.916397 0.151859
O O13 0.000000 0.000000 0.000000
O O14 0.296996 0.422363 0.677902
O O15 0.531955 0.260405 0.911084
O O16 0.670649 0.293253 0.275912
O O17 0.500000 0.500000 0.000000
#
# Coordination Sequence:
#
# PCOD9240189 Si02
#       8
#     4   4   4   4   4   4   4   4
#     4  10  20  37  61  94 122 161 214 266 323 378
#     4  10  20  35  58  90 127 161 209 262 314 383
#     4  12  22  40  61  96 124 161 213 268 328 371
#     4  10  21  35  59  92 126 166 210 262 316 387
#     4  10  22  35  62  94 123 167 213 273 321 380
#     4  10  18  35  60  92 121 159 213 265 315 375
#     4  11  21  40  62  90 128 171 222 252 317 394
#     4  11  24  38  63  94 128 164 211 271 318 379
#
# _framework density 19.847643000000001
#
# number of rings (size 3 to 8) (size 9 to 14) (size 15 to 20)
#    0.000    1.500    5.000    1.500    1.750    0.000 
#    0.000    0.625    0.000    0.750    3.250    0.000 
#    0.000    0.000    0.000    0.000    0.000    0.000 
#
# Total GULP energy -178423.430746 kJ/mol
# GULP energy per Si atom -5575.732211 kJ/mol
# Density = 1.980247 g / cm^3
# Si number density = 19.847643 Si / 1000 Ang^3
#
#
#
# Elastic Constant Matrix: (Units=GPa)
#
#
# Indices 1 2 3 4 5 6 
#
# 1 87.9104 5.4077 21.7885 0.0000 0.3450 0.0000
# 2 5.4077 45.7267 35.0001 0.0000 -12.1738 0.0000
# 3 21.7885 35.0001 123.9498 0.0000 -14.8104 0.0000
# 4 0.0000 0.0000 0.0000 26.0633 0.0000 -1.8156
# 5 0.3450 -12.1738 -14.8104 0.0000 33.8253 0.0000
# 6 0.0000 0.0000 0.0000 -1.8156 0.0000 19.9218
#
#
#
# Elastic Compliance Matrix: (Units=1/GPa)
#
#
# Indices 1 2 3 4 5 6 
#
# 1 0.011932 0.000003 -0.002229 0.000000 -0.001097 0.000000
# 2 0.000003 0.029541 -0.007462 0.000000 0.007364 0.000000
# 3 -0.002229 -0.007462 0.010814 0.000000 0.002072 0.000000
# 4 0.000000 0.000000 0.000000 0.038613 0.000000 0.003519
# 5 -0.001097 0.007364 0.002072 0.000000 0.033133 0.000000
# 6 0.000000 0.000000 0.000000 0.003519 0.000000 0.050517
#
#
# Mechanical properties :
#
#
# Convention : Reuss Voigt Hill
#
# Bulk Modulus (GPa) = 30.38519 42.44218 36.41368
# Shear Modulus (GPa) = 24.40251 28.98811 26.69531
#
# Velocity S-wave (km/s) = 3.51021 3.82584 3.67142
# Velocity P-wave (km/s) = 5.63660 6.39894 6.02983
#
# Compressibility (1/GPa) = 0.03291077
#
# Stress axis : x y z
#
# Youngs Moduli (GPa) = 83.80911 33.85127 92.46913
#
# Poissons Ratio (x) = -0.00012 0.20615
# Poissons Ratio (y) = -0.00029 0.69003
# Poissons Ratio (z) = 0.18685 0.25261
#
# Static dielectric constant tensor:
#      x y z
#    x 1.737800 0.000000 -0.019740 
#    y 0.000000 1.709000 0.000000 
#    z -0.019740 0.000000 1.761420 
# 
# From -- ./inp_files/70525.got.cif
#   From: 2010.05.17/outbox.cif.g08.bks.cpg/sg14_36_cif.got.tgz:70525.got - 2010.06.03 17:49:19.
