data_PCOD9240701
_publ_section_title
;
Structure prediction by ZEFSAII (Michael W. Deem and Ramdas Pophale) SiO2 
 PCOD9240701
Probable space group: P 21/C
;
_chemical_formula_sum "Si O2"
_cell_formula_units_Z 32
_cell_length_a 5.109487
_cell_length_b 12.613583
_cell_length_c 22.649641
_cell_angle_alpha 90.000000
_cell_angle_beta 103.037243
_cell_angle_gamma 90.000000
_cell_volume 1422.118393
_symmetry_space_group_name_H-M "P 21/C"
_symmetry_group_IT_number 14
_symmetry_cell_setting 'monoclinic'
loop_
_space_group_symop_operation_xyz
x,y,z
-x,1/2+y,1/2-z
-x,-y,-z
x,1/2-y,1/2+z
loop_
_atom_site_type_symbol
_atom_site_label
_atom_site_fract_x
_atom_site_fract_y
_atom_site_fract_z
Si Si1 0.152851 0.607958 0.741596
Si Si2 0.007822 0.251985 0.070808
Si Si3 0.904671 0.339895 0.813861
Si Si4 0.669660 0.607948 0.258402
Si Si5 0.276960 0.160114 0.686142
Si Si6 0.616238 0.883292 0.071544
Si Si7 0.133789 0.751988 0.570806
Si Si8 0.473154 0.883295 0.928456
O O1 0.126990 0.714149 0.702135
O O2 0.209150 0.500004 0.709151
O O3 0.419670 0.621660 0.794845
O O4 0.898396 0.606638 0.771576
O O5 0.139241 0.345309 0.115589
O O6 0.237630 0.161717 0.074424
O O7 0.759206 0.202216 0.094594
O O8 0.914927 0.282381 0.000001
O O9 0.644754 0.393374 0.771581
O O10 0.908066 0.345315 0.884414
O O11 0.170012 0.378348 0.794846
O O12 0.722707 0.714139 0.297863
O O13 0.429974 0.797781 0.094592
O O14 0.911211 0.838279 0.074423
O O15 0.598510 0.999998 0.098512
O O16 0.477348 0.891589 1.000000
#
# Coordination Sequence:
#
# PCOD9240701 Si02
#       8
#     4   4   4   4   4   4   4   4
#     4  10  21  38  59  80 107 142 180 229 272 307
#     4  10  19  32  51  75 108 143 171 215 271 318
#     4  10  21  37  57  84 109 138 185 221 264 329
#     4  10  21  38  59  80 107 142 180 229 272 307
#     4  10  21  37  57  84 109 138 185 221 264 329
#     4   9  17  28  43  68 103 142 178 208 252 318
#     4  10  19  32  51  75 108 143 171 215 271 318
#     4   9  17  28  43  68 103 142 178 208 252 318
#
# _framework density 22.501643000000001
#
# number of rings (size 3 to 8) (size 9 to 14) (size 15 to 20)
#    0.000    2.250    0.000    3.000    0.000    5.000 
#    0.000    0.000    0.000    4.500    0.000    0.000 
#    0.000    0.000    0.000    0.000    0.000    0.000 
#
# Total GULP energy -178786.273403 kJ/mol
# GULP energy per Si atom -5587.071044 kJ/mol
# Density = 2.245043 g / cm^3
# Si number density = 22.501643 Si / 1000 Ang^3
#
#
#
# Elastic Constant Matrix: (Units=GPa)
#
#
# Indices 1 2 3 4 5 6 
#
# 1 75.6693 8.4000 9.3790 0.0000 1.3396 0.0000
# 2 8.4000 60.7870 -0.6869 0.0000 0.4185 0.0000
# 3 9.3790 -0.6869 68.5044 0.0000 -1.0062 0.0000
# 4 0.0000 0.0000 0.0000 2.6391 0.0000 0.9390
# 5 1.3396 0.4185 -1.0062 0.0000 18.6144 0.0000
# 6 0.0000 0.0000 0.0000 0.9390 0.0000 23.2018
#
#
#
# Elastic Compliance Matrix: (Units=1/GPa)
#
#
# Indices 1 2 3 4 5 6 
#
# 1 0.013682 -0.001905 -0.001908 0.000000 -0.001045 0.000000
# 2 -0.001905 0.016720 0.000425 0.000000 -0.000216 0.000000
# 3 -0.001908 0.000425 0.014877 0.000000 0.000932 0.000000
# 4 0.000000 0.000000 0.000000 0.384450 0.000000 -0.015559
# 5 -0.001045 -0.000216 0.000932 0.000000 0.053852 0.000000
# 6 0.000000 0.000000 0.000000 -0.015559 0.000000 0.043730
#
#
# Mechanical properties :
#
#
# Convention : Reuss Voigt Hill
#
# Bulk Modulus (GPa) = 25.97115 26.57166 26.27140
# Shear Modulus (GPa) = 9.14210 21.41564 15.27887
#
# Velocity S-wave (km/s) = 2.01784 3.08837 2.60861
# Velocity P-wave (km/s) = 4.12260 4.95497 4.55783
#
# Compressibility (1/GPa) = 0.03850427
#
# Stress axis : x y z
#
# Youngs Moduli (GPa) = 73.08970 59.80708 67.21910
#
# Poissons Ratio (x) = 0.11393 0.12823
# Poissons Ratio (y) = 0.13924 -0.02859
# Poissons Ratio (z) = 0.13943 -0.02544
#
# Static dielectric constant tensor:
#      x y z
#    x 1.794900 0.000000 -0.002960 
#    y 0.000000 1.886220 0.000000 
#    z -0.002960 0.000000 1.859850 
# 
# From -- ./inp_files/71319.got.cif
#   From: 2010.05.17/outbox.cif.g08.bks.cpg/sg14_36_cif.got.tgz:71319.got - 2010.06.03 17:49:19.
