data_PCOD9240623
_publ_section_title
;
Structure prediction by ZEFSAII (Michael W. Deem and Ramdas Pophale) SiO2 
 PCOD9240623
Probable space group: P 21/C
;
_chemical_formula_sum "Si O2"
_cell_formula_units_Z 32
_cell_length_a 10.961240
_cell_length_b 9.402483
_cell_length_c 14.114120
_cell_angle_alpha 90.000000
_cell_angle_beta 74.560660
_cell_angle_gamma 90.000000
_cell_volume 1402.147868
_symmetry_space_group_name_H-M "P 21/C"
_symmetry_group_IT_number 14
_symmetry_cell_setting 'monoclinic'
loop_
_space_group_symop_operation_xyz
x,y,z
-x,1/2+y,1/2-z
-x,-y,-z
x,1/2-y,1/2+z
loop_
_atom_site_type_symbol
_atom_site_label
_atom_site_fract_x
_atom_site_fract_y
_atom_site_fract_z
Si Si1 0.628166 0.322786 0.333581
Si Si2 0.877077 0.347811 0.769825
Si Si3 0.633174 0.647282 0.333295
Si Si4 0.137016 0.655027 0.455293
Si Si5 0.379695 0.352147 0.895239
Si Si6 0.131221 0.331945 0.232111
Si Si7 0.385486 0.824392 0.394390
Si Si8 0.145399 0.165621 0.949596
O O1 0.753331 0.233901 0.330920
O O2 0.633726 0.484837 0.367065
O O3 0.502643 0.241392 0.391602
O O4 0.621521 0.328066 0.219579
O O5 0.865755 0.353919 0.658124
O O6 0.885113 0.509589 0.805631
O O7 0.001611 0.255337 0.761297
O O8 0.628061 0.640777 0.218717
O O9 0.759062 0.733953 0.333183
O O10 0.509331 0.732490 0.390659
O O11 0.258039 0.748230 0.454931
O O12 0.148965 0.493601 0.492124
O O13 0.999495 0.715901 0.510525
O O14 0.392800 0.513564 0.926658
O O15 0.252967 0.275158 0.957410
O O16 0.171017 0.354367 0.332838
#
# Coordination Sequence:
#
# PCOD9240623 Si02
#       8
#     4   4   4   4   4   4   4   4
#     4   9  16  27  44  66  92 121 154 191 230 272
#     4  10  19  31  48  70  96 124 155 191 231 275
#     4   9  16  27  44  66  92 121 154 191 230 272
#     4   9  18  32  49  69  94 125 158 190 227 274
#     4   9  16  26  43  68  94 119 151 192 234 272
#     4  10  19  31  48  70  96 124 155 191 231 275
#     4   9  16  26  43  68  94 119 151 192 234 272
#     4   9  18  32  49  69  94 125 158 190 227 274
#
# _framework density 22.822130000000001
#
# number of rings (size 3 to 8) (size 9 to 14) (size 15 to 20)
#    0.000    2.750    0.000    2.250    0.000    7.500 
#    0.000    0.000    0.000    1.500    0.000   10.500 
#    0.000    0.000    0.000    0.000    0.000    0.000 
#
# Total GULP energy -178893.313957 kJ/mol
# GULP energy per Si atom -5590.416061 kJ/mol
# Density = 2.277019 g / cm^3
# Si number density = 22.822130 Si / 1000 Ang^3
#
#
#
# Elastic Constant Matrix: (Units=GPa)
#
#
# Indices 1 2 3 4 5 6 
#
# 1 116.2390 103.7420 21.5827 0.0000 -58.9226 0.0000
# 2 103.7420 227.5227 26.3386 0.0000 -57.7328 0.0000
# 3 21.5827 26.3386 64.7117 0.0000 -10.2025 0.0000
# 4 0.0000 0.0000 0.0000 14.2474 0.0000 -14.8897
# 5 -58.9226 -57.7328 -10.2025 0.0000 61.4730 0.0000
# 6 0.0000 0.0000 0.0000 -14.8897 0.0000 27.7526
#
#
#
# Elastic Compliance Matrix: (Units=1/GPa)
#
#
# Indices 1 2 3 4 5 6 
#
# 1 0.022019 -0.005903 -0.002555 0.000000 0.015138 0.000000
# 2 -0.005903 0.007505 -0.000890 0.000000 0.001243 0.000000
# 3 -0.002555 -0.000890 0.016583 0.000000 -0.000532 0.000000
# 4 0.000000 0.000000 0.000000 0.159774 0.000000 0.085721
# 5 0.015138 0.001243 -0.000532 0.000000 0.031856 0.000000
# 6 0.000000 0.000000 0.000000 0.085721 0.000000 0.082023
#
#
# Mechanical properties :
#
#
# Convention : Reuss Voigt Hill
#
# Bulk Modulus (GPa) = 36.47974 79.08891 57.78432
# Shear Modulus (GPa) = 14.38462 37.81527 26.09995
#
# Velocity S-wave (km/s) = 2.51329 4.07499 3.38542
# Velocity P-wave (km/s) = 4.94381 7.54125 6.37619
#
# Compressibility (1/GPa) = 0.02741248
#
# Stress axis : x y z
#
# Youngs Moduli (GPa) = 45.41488 133.24318 60.30091
#
# Poissons Ratio (x) = 0.78655 0.15404
# Poissons Ratio (y) = 0.26809 0.05367
# Poissons Ratio (z) = 0.11602 0.11858
#
# Static dielectric constant tensor:
#      x y z
#    x 1.830330 0.000000 0.066850 
#    y 0.000000 1.819380 0.000000 
#    z 0.066850 0.000000 1.888570 
# 
# From -- ./inp_files/66860.got.cif
#   From: 2010.05.17/outbox.cif.g08.bks.cpg/sg14_34_cif.got.tgz:66860.got - 2010.06.03 17:49:19.
