data_PCOD9240326
_publ_section_title
;
Structure prediction by ZEFSAII (Michael W. Deem and Ramdas Pophale) SiO2 
 PCOD9240326
Probable space group: P 21/C
;
_chemical_formula_sum "Si O2"
_cell_formula_units_Z 28
_cell_length_a 11.969677
_cell_length_b 9.560780
_cell_length_c 13.437066
_cell_angle_alpha 90.000000
_cell_angle_beta 127.783929
_cell_angle_gamma 90.000000
_cell_volume 1215.309712
_symmetry_space_group_name_H-M "P 21/C"
_symmetry_group_IT_number 14
_symmetry_cell_setting 'monoclinic'
loop_
_space_group_symop_operation_xyz
x,y,z
-x,1/2+y,1/2-z
-x,-y,-z
x,1/2-y,1/2+z
loop_
_atom_site_type_symbol
_atom_site_label
_atom_site_fract_x
_atom_site_fract_y
_atom_site_fract_z
Si Si1 0.754534 0.834704 0.795257
Si Si2 0.433390 0.892890 0.823156
Si Si3 0.855715 0.086735 0.953464
Si Si4 0.270120 0.503701 0.418069
Si Si5 0.418802 0.354828 0.177134
Si Si6 0.825684 0.696670 0.118345
Si Si7 0.996617 0.157854 0.461952
O O1 0.620506 0.737870 0.745635
O O2 0.792279 0.874215 0.704095
O O3 0.880323 0.739753 0.909503
O O4 0.742218 0.977992 0.848625
O O5 0.455095 0.731685 0.804851
O O6 0.311660 0.924040 0.837426
O O7 0.418103 0.989244 0.717411
O O8 0.580335 0.949408 0.953579
O O9 0.866148 0.241577 0.915835
O O10 0.817472 0.092749 0.049028
O O11 0.000000 0.000000 0.000000
O O12 0.181561 0.360837 0.359018
O O13 0.295943 0.339939 0.027560
O O14 0.966375 0.663220 0.134465
O O15 0.000000 0.000000 0.500000
#
# Coordination Sequence:
#
# PCOD9240326 Si02
#       7
#     4   4   4   4   4   4   4
#     4  10  19  37  64  82 116 161 198 244 303 363
#     4  10  20  36  63  86 120 155 203 247 302 358
#     4  10  18  38  65  85 117 163 204 241 298 371
#     4  10  18  36  65  88 110 163 208 237 296 372
#     4  10  20  38  58  89 118 159 195 253 304 355
#     4  10  19  37  61  84 116 155 203 240 305 357
#     4  10  22  39  57  91 122 153 198 255 304 353
#
# _framework density 23.039394999999999
#
# number of rings (size 3 to 8) (size 9 to 14) (size 15 to 20)
#    0.000    2.000    7.143    0.000    0.000    1.143 
#    5.143    2.143    0.000    0.000    0.000    0.000 
#    0.000    0.000    0.000    0.000    0.000    0.000 
#
# Total GULP energy -156255.657822 kJ/mol
# GULP energy per Si atom -5580.559208 kJ/mol
# Density = 2.298696 g / cm^3
# Si number density = 23.039395 Si / 1000 Ang^3
#
#
#
# Elastic Constant Matrix: (Units=GPa)
#
#
# Indices 1 2 3 4 5 6 
#
# 1 124.8934 26.1779 32.0795 0.0000 -37.1706 0.0000
# 2 26.1779 119.2501 20.0241 0.0000 -13.3026 0.0000
# 3 32.0795 20.0241 66.2919 0.0000 -32.8177 0.0000
# 4 0.0000 0.0000 0.0000 18.9443 0.0000 -7.0059
# 5 -37.1706 -13.3026 -32.8177 0.0000 41.4403 0.0000
# 6 0.0000 0.0000 0.0000 -7.0059 0.0000 28.1366
#
#
#
# Elastic Compliance Matrix: (Units=1/GPa)
#
#
# Indices 1 2 3 4 5 6 
#
# 1 0.011144 -0.001347 -0.000414 0.000000 0.009236 0.000000
# 2 -0.001347 0.009032 -0.002038 0.000000 0.000077 0.000000
# 3 -0.000414 -0.002038 0.025319 0.000000 0.019026 0.000000
# 4 0.000000 0.000000 0.000000 0.058140 0.000000 0.014477
# 5 0.009236 0.000077 0.019026 0.000000 0.047507 0.000000
# 6 0.000000 0.000000 0.000000 0.014477 0.000000 0.039146
#
#
# Mechanical properties :
#
#
# Convention : Reuss Voigt Hill
#
# Bulk Modulus (GPa) = 26.38648 51.88872 39.13760
# Shear Modulus (GPa) = 23.75087 33.18117 28.46602
#
# Velocity S-wave (km/s) = 3.21422 3.79910 3.51883
# Velocity P-wave (km/s) = 5.02519 6.46644 5.79083
#
# Compressibility (1/GPa) = 0.03789820
#
# Stress axis : x y z
#
# Youngs Moduli (GPa) = 89.73302 110.71445 39.49555
#
# Poissons Ratio (x) = 0.14909 0.01634
# Poissons Ratio (y) = 0.12083 0.08051
# Poissons Ratio (z) = 0.03713 0.22568
#
# Static dielectric constant tensor:
#      x y z
#    x 2.026790 0.000000 0.068240 
#    y 0.000000 1.859310 0.000000 
#    z 0.068240 0.000000 1.933100 
# 
# From -- ./inp_files/43477.got.cif
#   From: 2010.05.17/outbox.cif.g08.bks.cpg/sg14_22_cif.got.tgz:43477.got - 2010.06.03 17:49:19.
