data_PCOD9240535
_publ_section_title
;
Structure prediction by ZEFSAII (Michael W. Deem and Ramdas Pophale) SiO2 
 PCOD9240535
Probable space group: P 21/C
;
_chemical_formula_sum "Si O2"
_cell_formula_units_Z 20
_cell_length_a 15.712289
_cell_length_b 11.398136
_cell_length_c 13.963447
_cell_angle_alpha 90.000000
_cell_angle_beta 27.290366
_cell_angle_gamma 90.000000
_cell_volume 1146.582737
_symmetry_space_group_name_H-M "P 21/C"
_symmetry_group_IT_number 14
_symmetry_cell_setting 'monoclinic'
loop_
_space_group_symop_operation_xyz
x,y,z
-x,1/2+y,1/2-z
-x,-y,-z
x,1/2-y,1/2+z
loop_
_atom_site_type_symbol
_atom_site_label
_atom_site_fract_x
_atom_site_fract_y
_atom_site_fract_z
Si Si1 0.217631 0.970641 0.782368
Si Si2 0.683526 0.238431 0.453379
Si Si3 0.962067 0.136777 0.537934
Si Si4 0.644902 0.733780 0.855097
Si Si5 0.683524 0.261568 0.679573
O O1 0.266031 0.889347 0.642095
O O2 0.266035 0.889347 0.825836
O O3 0.323750 0.093627 0.676249
O O4 0.000000 0.000000 0.000000
O O5 0.837871 0.323094 0.252410
O O6 0.482813 0.266703 0.608132
O O7 0.682986 0.250000 0.567015
O O8 0.837876 0.176907 0.571844
O O9 0.156822 0.204925 0.343179
O O10 0.000000 0.000000 0.500000
O O11 0.517186 0.766707 0.073756
#
# Coordination Sequence:
#
# PCOD9240535 Si02
#       5
#     4   4   4   4   4
#     4  10  18  41  66  80 119 158 190 242 292 347
#     4  10  22  37  60  92 114 147 202 240 285 345
#     4  10  22  42  58  79 125 157 183 239 298 339
#     4  10  20  43  61  81 121 158 191 236 294 348
#     4  10  22  37  60  92 114 147 202 240 285 345
#
# _framework density 17.443137
#
# number of rings (size 3 to 8) (size 9 to 14) (size 15 to 20)
#    0.000    2.400    4.000    2.400    0.000    6.400 
#   14.400    0.000    0.000    0.000    0.000    0.000 
#    0.000    0.000    0.000    0.000    0.000    0.000 
#
# Total GULP energy -111527.090419 kJ/mol
# GULP energy per Si atom -5576.354521 kJ/mol
# Density = 1.740344 g / cm^3
# Si number density = 17.443137 Si / 1000 Ang^3
#
#
#
# Elastic Constant Matrix: (Units=GPa)
#
#
# Indices 1 2 3 4 5 6 
#
# 1 158.4711 56.9990 102.7523 0.0000 36.3823 0.0000
# 2 56.9990 140.6454 57.3058 0.0000 -0.2266 0.0000
# 3 102.7523 57.3058 118.2798 0.0000 -6.9405 0.0000
# 4 0.0000 0.0000 0.0000 18.6235 0.0000 -6.9407
# 5 36.3823 -0.2266 -6.9405 0.0000 34.7716 0.0000
# 6 0.0000 0.0000 0.0000 -6.9407 0.0000 9.1521
#
#
#
# Elastic Compliance Matrix: (Units=1/GPa)
#
#
# Indices 1 2 3 4 5 6 
#
# 1 0.059648 -0.001772 -0.055269 0.000000 -0.073454 0.000000
# 2 -0.001772 0.008934 -0.002708 0.000000 0.001372 0.000000
# 3 -0.055269 -0.002708 0.061897 0.000000 0.070166 0.000000
# 4 0.000000 0.000000 0.000000 0.074851 0.000000 0.056765
# 5 -0.073454 0.001372 0.070166 0.000000 0.119630 0.000000
# 6 0.000000 0.000000 0.000000 0.056765 0.000000 0.152312
#
#
# Mechanical properties :
#
#
# Convention : Reuss Voigt Hill
#
# Bulk Modulus (GPa) = 91.07425 94.61228 92.84326
# Shear Modulus (GPa) = 8.32734 25.86539 17.09637
#
# Velocity S-wave (km/s) = 2.18732 3.85494 3.13408
# Velocity P-wave (km/s) = 7.66189 8.61233 8.15098
#
# Compressibility (1/GPa) = 0.01098005
#
# Stress axis : x y z
#
# Youngs Moduli (GPa) = 16.76507 111.93120 16.15581
#
# Poissons Ratio (x) = 0.19838 0.89291
# Poissons Ratio (y) = 0.02971 0.04375
# Poissons Ratio (z) = 0.92659 0.30314
#
# Static dielectric constant tensor:
#      x y z
#    x 2.275300 0.000000 0.350650 
#    y 0.000000 1.597810 0.000000 
#    z 0.350650 0.000000 1.796680 
# 
# From -- ./inp_files/48735.got.cif
#   From: 2010.05.17/outbox.cif.g08.bks.cpg/sg14_25_cif.got.tgz:48735.got - 2010.06.03 17:49:19.
