data_PCOD9240588
_publ_section_title
;
Structure prediction by ZEFSAII (Michael W. Deem and Ramdas Pophale) SiO2 
 PCOD9240588
Probable space group: P 21/C
;
_chemical_formula_sum "Si O2"
_cell_formula_units_Z 32
_cell_length_a 20.508142
_cell_length_b 17.897113
_cell_length_c 5.348170
_cell_angle_alpha 90.000000
_cell_angle_beta 46.429751
_cell_angle_gamma 90.000000
_cell_volume 1422.233103
_symmetry_space_group_name_H-M "P 21/C"
_symmetry_group_IT_number 14
_symmetry_cell_setting 'monoclinic'
loop_
_space_group_symop_operation_xyz
x,y,z
-x,1/2+y,1/2-z
-x,-y,-z
x,1/2-y,1/2+z
loop_
_atom_site_type_symbol
_atom_site_label
_atom_site_fract_x
_atom_site_fract_y
_atom_site_fract_z
Si Si1 0.027940 0.298315 0.187005
Si Si2 0.514324 0.549860 0.213337
Si Si3 0.840975 0.893948 0.383990
Si Si4 0.826367 0.300156 0.725339
Si Si5 0.199526 0.961768 0.192553
Si Si6 0.301059 0.057701 0.543657
Si Si7 0.991298 0.450518 0.776006
Si Si8 0.669086 0.094368 0.811292
O O1 0.030144 0.243761 0.419955
O O2 0.116438 0.348292 0.999831
O O3 0.927736 0.335360 0.466129
O O4 0.500000 0.500000 0.500000
O O5 0.436340 0.613501 0.412358
O O6 0.500000 0.500000 0.000000
O O7 0.617429 0.577392 0.983422
O O8 0.821350 0.976839 0.539463
O O9 0.748547 0.877272 0.481770
O O10 0.925270 0.895741 0.972150
O O11 0.819134 0.252140 0.490842
O O12 0.743115 0.358143 0.964630
O O13 0.107747 0.915471 0.433018
O O14 0.285588 0.912783 0.036048
O O15 0.223234 0.013769 0.899354
O O16 0.334605 0.991148 0.275121
O O17 0.000000 0.500000 0.500000
O O18 0.000000 0.500000 0.000000
#
# Coordination Sequence:
#
# PCOD9240588 Si02
#       8
#     4   4   4   4   4   4   4   4
#     4  10  23  41  58  80 109 153 201 243 285 339
#     4  10  20  35  55  84 119 148 180 222 284 353
#     4  10  21  35  53  80 113 150 187 238 284 344
#     4  10  23  41  61  84 112 152 202 242 280 337
#     4  10  19  32  53  83 116 146 183 228 291 349
#     4  10  20  34  56  87 119 150 187 231 296 357
#     4  10  19  30  45  74 109 139 168 211 272 331
#     4  10  21  36  58  85 117 153 187 241 295 351
#
# _framework density 22.499828000000001
#
# number of rings (size 3 to 8) (size 9 to 14) (size 15 to 20)
#    0.000    2.000    2.500    0.750    3.500    1.000 
#    2.250    0.000    0.000    1.500    0.000    0.000 
#    0.000    0.000    0.000    0.000    0.000    0.000 
#
# Total GULP energy -178308.959341 kJ/mol
# GULP energy per Si atom -5572.154979 kJ/mol
# Density = 2.244862 g / cm^3
# Si number density = 22.499828 Si / 1000 Ang^3
#
#
#
# Elastic Constant Matrix: (Units=GPa)
#
#
# Indices 1 2 3 4 5 6 
#
# 1 177.6466 44.9738 59.3320 0.0000 -15.4510 0.0000
# 2 44.9738 42.1012 17.1168 0.0000 -5.5204 0.0000
# 3 59.3320 17.1168 66.5417 0.0000 4.9925 0.0000
# 4 0.0000 0.0000 0.0000 29.2114 0.0000 8.4016
# 5 -15.4510 -5.5204 4.9925 0.0000 53.7721 0.0000
# 6 0.0000 0.0000 0.0000 8.4016 0.0000 33.3873
#
#
#
# Elastic Compliance Matrix: (Units=1/GPa)
#
#
# Indices 1 2 3 4 5 6 
#
# 1 0.010280 -0.007585 -0.007430 0.000000 0.002865 0.000000
# 2 -0.007585 0.032748 -0.001761 0.000000 0.001346 0.000000
# 3 -0.007430 -0.001761 0.022436 0.000000 -0.004399 0.000000
# 4 0.000000 0.000000 0.000000 0.036904 0.000000 -0.009287
# 5 0.002865 0.001346 -0.004399 0.000000 0.019967 0.000000
# 6 0.000000 0.000000 0.000000 -0.009287 0.000000 0.032288
#
#
# Mechanical properties :
#
#
# Convention : Reuss Voigt Hill
#
# Bulk Modulus (GPa) = 31.33746 58.79274 45.06510
# Shear Modulus (GPa) = 25.14911 34.26530 29.70720
#
# Velocity S-wave (km/s) = 3.34690 3.90669 3.63758
# Velocity P-wave (km/s) = 5.37529 6.82178 6.14127
#
# Compressibility (1/GPa) = 0.03191070
#
# Stress axis : x y z
#
# Youngs Moduli (GPa) = 97.27404 30.53656 44.57037
#
# Poissons Ratio (x) = 0.23162 0.33117
# Poissons Ratio (y) = 0.73784 0.07851
# Poissons Ratio (z) = 0.72276 0.05379
#
# Static dielectric constant tensor:
#      x y z
#    x 1.812720 0.000000 -0.150690 
#    y 0.000000 1.845780 0.000000 
#    z -0.150690 0.000000 1.880930 
# 
# From -- ./inp_files/4426.got.cif
#   From: 2010.05.17/outbox.cif.g08.bks.cpg/sg14_3_cif.got.tgz:4426.got - 2010.06.03 17:49:19.
