data_PCOD9240523
_publ_section_title
;
Structure prediction by ZEFSAII (Michael W. Deem and Ramdas Pophale) SiO2 
 PCOD9240523
Probable space group: P 21/C
;
_chemical_formula_sum "Si O2"
_cell_formula_units_Z 22
_cell_length_a 8.720978
_cell_length_b 8.066538
_cell_length_c 25.641471
_cell_angle_alpha 90.000000
_cell_angle_beta 151.233576
_cell_angle_gamma 90.000000
_cell_volume 868.074679
_symmetry_space_group_name_H-M "P 21/C"
_symmetry_group_IT_number 14
_symmetry_cell_setting 'monoclinic'
loop_
_space_group_symop_operation_xyz
x,y,z
-x,1/2+y,1/2-z
-x,-y,-z
x,1/2-y,1/2+z
loop_
_atom_site_type_symbol
_atom_site_label
_atom_site_fract_x
_atom_site_fract_y
_atom_site_fract_z
Si Si1 0.687777 0.606110 0.012620
Si Si2 0.257407 0.805059 0.812378
Si Si3 0.821728 0.375722 0.308379
Si Si4 0.499823 0.205052 0.405520
Si Si5 0.333958 0.562692 0.624293
Si Si6 0.500000 0.000000 0.000000
O O1 0.462386 0.759310 0.924983
O O2 0.713277 0.456080 0.980690
O O3 0.500000 0.500000 0.000000
O O4 0.004815 0.700754 0.123440
O O5 0.341906 0.663915 0.794882
O O6 0.882847 0.824433 0.709105
O O7 0.391940 0.964750 0.824071
O O8 0.654691 0.442706 0.310235
O O9 0.119693 0.489646 0.384252
O O10 0.610972 0.256377 0.381299
O O11 0.530954 0.349188 0.459430
O O12 0.000000 0.500000 0.500000
#
# Coordination Sequence:
#
# PCOD9240523 Si02
#       6
#     4   4   4   4   4   2
#     4  12  23  44  70 107 143 186 248 305 355 437
#     4  11  25  46  72 108 145 196 250 295 375 448
#     4  11  25  46  73 108 146 194 245 307 375 436
#     4  11  24  41  73 107 142 198 243 302 365 450
#     4  12  24  48  73 105 150 194 242 309 375 441
#     4  10  18  40  68 102 140 192 234 282 376 432
#
# _framework density 25.343443000000001
#
# number of rings (size 3 to 8) (size 9 to 14) (size 15 to 20)
#    0.000    0.727    7.273    1.091    0.000    3.636 
#    3.273    1.818    0.000    0.000    0.000    0.000 
#    0.000    0.000    0.000    0.000    0.000    0.000 
#
# Total GULP energy -122501.426211 kJ/mol
# GULP energy per Si atom -5568.246646 kJ/mol
# Density = 2.528576 g / cm^3
# Si number density = 25.343443 Si / 1000 Ang^3
#
#
#
# Elastic Constant Matrix: (Units=GPa)
#
#
# Indices 1 2 3 4 5 6 
#
# 1 86.6604 0.0183 -5.4764 0.0000 -15.1183 0.0000
# 2 0.0183 64.4439 -4.1159 0.0000 5.6773 0.0000
# 3 -5.4764 -4.1159 55.5442 0.0000 -17.7602 0.0000
# 4 0.0000 0.0000 0.0000 46.2029 0.0000 -7.1977
# 5 -15.1183 5.6773 -17.7602 0.0000 29.1794 0.0000
# 6 0.0000 0.0000 0.0000 -7.1977 0.0000 48.1219
#
#
#
# Elastic Compliance Matrix: (Units=1/GPa)
#
#
# Indices 1 2 3 4 5 6 
#
# 1 0.013533 -0.000586 0.004432 0.000000 0.009823 0.000000
# 2 -0.000586 0.015816 0.000041 0.000000 -0.003356 0.000000
# 3 0.004432 0.000041 0.023809 0.000000 0.016780 0.000000
# 4 0.000000 0.000000 0.000000 0.022160 0.000000 0.003315
# 5 0.009823 -0.003356 0.016780 0.000000 0.050226 0.000000
# 6 0.000000 0.000000 0.000000 0.003315 0.000000 0.021276
#
#
# Mechanical properties :
#
#
# Convention : Reuss Voigt Hill
#
# Bulk Modulus (GPa) = 16.41187 20.83340 18.62263
# Shear Modulus (GPa) = 31.37603 39.11568 35.24585
#
# Velocity S-wave (km/s) = 3.52239 3.93291 3.73329
# Velocity P-wave (km/s) = 4.79925 5.37233 5.09386
#
# Compressibility (1/GPa) = 0.06093153
#
# Stress axis : x y z
#
# Youngs Moduli (GPa) = 73.89243 63.22789 42.00106
#
# Poissons Ratio (x) = 0.03706 -0.18614
# Poissons Ratio (y) = 0.04331 -0.00173
# Poissons Ratio (z) = -0.32748 -0.00260
#
# Static dielectric constant tensor:
#      x y z
#    x 1.823540 0.000000 -0.086090 
#    y 0.000000 1.881960 0.000000 
#    z -0.086090 0.000000 1.971940 
# 
# From -- ./inp_files/76426.got.cif
#   From: 2010.05.17/outbox.cif.g08.bks.cpg/sg14_39_cif.got.tgz:76426.got - 2010.06.03 17:49:19.
