data_PCOD9240529
_publ_section_title
;
Structure prediction by ZEFSAII (Michael W. Deem and Ramdas Pophale) SiO2 
 PCOD9240529
Probable space group: P 21/C
;
_chemical_formula_sum "Si O2"
_cell_formula_units_Z 30
_cell_length_a 10.899975
_cell_length_b 11.153902
_cell_length_c 10.583070
_cell_angle_alpha 90.000000
_cell_angle_beta 79.710553
_cell_angle_gamma 90.000000
_cell_volume 1265.968444
_symmetry_space_group_name_H-M "P 21/C"
_symmetry_group_IT_number 14
_symmetry_cell_setting 'monoclinic'
loop_
_space_group_symop_operation_xyz
x,y,z
-x,1/2+y,1/2-z
-x,-y,-z
x,1/2-y,1/2+z
loop_
_atom_site_type_symbol
_atom_site_label
_atom_site_fract_x
_atom_site_fract_y
_atom_site_fract_z
Si Si1 0.133411 0.303023 0.756835
Si Si2 0.231555 0.483714 0.925987
Si Si3 0.286191 0.065725 0.773425
Si Si4 0.687714 0.348399 0.303980
Si Si5 0.658855 0.915646 0.946703
Si Si6 0.151349 0.863171 0.673832
Si Si7 0.495113 0.701754 0.879334
Si Si8 0.500000 0.500000 0.000000
O O1 0.171593 0.362959 0.883677
O O2 0.188400 0.168554 0.750605
O O3 0.208257 0.373690 0.634321
O O4 0.988049 0.324887 0.767290
O O5 0.228211 0.578626 0.812563
O O6 0.161141 0.543861 0.055944
O O7 0.376707 0.459187 0.929174
O O8 0.409487 0.084080 0.660383
O O9 0.222252 0.937852 0.770319
O O10 0.334035 0.089015 0.904707
O O11 0.630447 0.450792 0.403672
O O12 0.775402 0.259316 0.362681
O O13 0.586870 0.288932 0.228974
O O14 0.567066 0.819959 0.899609
O O15 0.437483 0.639483 0.011824
#
# Coordination Sequence:
#
# PCOD9240529 Si02
#       8
#     4   4   4   4   4   4   4   2
#     4  10  25  44  68  95 136 181 231 287 341 408
#     4  10  22  43  69  97 133 180 222 283 344 409
#     4  11  25  42  70 101 129 180 231 279 349 411
#     4  10  26  41  66 100 136 177 222 285 346 405
#     4  10  24  46  67  99 140 176 228 285 350 409
#     4  12  26  42  68  98 136 180 240 277 347 414
#     4  10  22  43  70 100 134 178 220 279 349 411
#     4  10  18  40  72  98 132 164 222 278 332 410
#
# _framework density 23.697271000000001
#
# number of rings (size 3 to 8) (size 9 to 14) (size 15 to 20)
#    0.000    1.600    1.333    1.200    9.333    7.467 
#    0.000    0.000    0.000    0.000    0.000    0.000 
#    0.000    0.000    0.000    0.000    0.000    0.000 
#
# Total GULP energy -167484.072693 kJ/mol
# GULP energy per Si atom -5582.802423 kJ/mol
# Density = 2.364334 g / cm^3
# Si number density = 23.697271 Si / 1000 Ang^3
#
#
#
# Elastic Constant Matrix: (Units=GPa)
#
#
# Indices 1 2 3 4 5 6 
#
# 1 105.6659 55.7451 -2.1229 0.0000 -3.1404 0.0000
# 2 55.7451 97.1283 26.7426 0.0000 10.3795 0.0000
# 3 -2.1229 26.7426 65.2445 0.0000 -10.5486 0.0000
# 4 0.0000 0.0000 0.0000 30.4294 0.0000 1.4817
# 5 -3.1404 10.3795 -10.5486 0.0000 22.0399 0.0000
# 6 0.0000 0.0000 0.0000 1.4817 0.0000 21.7265
#
#
#
# Elastic Compliance Matrix: (Units=1/GPa)
#
#
# Indices 1 2 3 4 5 6 
#
# 1 0.017034 -0.013335 0.008051 0.000000 0.012561 0.000000
# 2 -0.013335 0.023679 -0.013277 0.000000 -0.019406 0.000000
# 3 0.008051 -0.013277 0.024092 0.000000 0.018930 0.000000
# 4 0.000000 0.000000 0.000000 0.032972 0.000000 -0.002249
# 5 0.012561 -0.019406 0.018930 0.000000 0.065361 0.000000
# 6 0.000000 0.000000 0.000000 -0.002249 0.000000 0.046180
#
#
# Mechanical properties :
#
#
# Convention : Reuss Voigt Hill
#
# Bulk Modulus (GPa) = 36.12504 47.64093 41.88298
# Shear Modulus (GPa) = 19.55664 27.35075 23.45369
#
# Velocity S-wave (km/s) = 2.87587 3.40100 3.14940
# Velocity P-wave (km/s) = 5.12884 5.96406 5.56215
#
# Compressibility (1/GPa) = 0.02768163
#
# Stress axis : x y z
#
# Youngs Moduli (GPa) = 58.70600 42.23225 41.50839
#
# Poissons Ratio (x) = 0.56318 -0.33418
# Poissons Ratio (y) = 0.78286 0.55110
# Poissons Ratio (z) = -0.47264 0.56071
#
# Static dielectric constant tensor:
#      x y z
#    x 2.738910 0.000000 -1.542350 
#    y 0.000000 2.513460 0.000000 
#    z -1.542350 0.000000 4.733530 
# 
# From -- ./inp_files/29126.got.cif
#   From: 2010.05.17/outbox.cif.g08.bks.cpg/sg14_15_cif.got.tgz:29126.got - 2010.06.03 17:49:19.
