data_PCOD9240444
_publ_section_title
;
Structure prediction by ZEFSAII (Michael W. Deem and Ramdas Pophale) SiO2 
 PCOD9240444
Probable space group: P 21/C
;
_chemical_formula_sum "Si O2"
_cell_formula_units_Z 32
_cell_length_a 5.140504
_cell_length_b 16.903465
_cell_length_c 15.474831
_cell_angle_alpha 90.000000
_cell_angle_beta 76.309607
_cell_angle_gamma 90.000000
_cell_volume 1306.441185
_symmetry_space_group_name_H-M "P 21/C"
_symmetry_group_IT_number 14
_symmetry_cell_setting 'monoclinic'
loop_
_space_group_symop_operation_xyz
x,y,z
-x,1/2+y,1/2-z
-x,-y,-z
x,1/2-y,1/2+z
loop_
_atom_site_type_symbol
_atom_site_label
_atom_site_fract_x
_atom_site_fract_y
_atom_site_fract_z
Si Si1 0.199119 0.913391 0.715285
Si Si2 0.024237 0.736963 0.152144
Si Si3 0.213343 0.293538 0.002878
Si Si4 0.680968 0.288770 0.570438
Si Si5 0.131446 0.425068 0.145204
Si Si6 0.610319 0.935388 0.838988
Si Si7 0.576014 0.690752 0.774374
Si Si8 0.717637 0.391122 0.336030
O O1 0.230417 0.829391 0.666377
O O2 0.430986 0.935879 0.765047
O O3 0.914709 0.912819 0.789182
O O4 0.172030 0.981463 0.644114
O O5 0.141673 0.823709 0.118263
O O6 0.845841 0.759353 0.248993
O O7 0.834177 0.697893 0.095353
O O8 0.995824 0.224145 0.037236
O O9 0.496391 0.264858 0.020136
O O10 0.110877 0.373073 0.060328
O O11 0.545432 0.374339 0.587229
O O12 0.632672 0.249353 0.668563
O O13 0.391130 0.385291 0.168664
O O14 0.902211 0.408589 0.236083
O O15 0.633548 0.023850 0.875910
O O16 0.528955 0.657123 0.683658
#
# Coordination Sequence:
#
# PCOD9240444 Si02
#       8
#     4   4   4   4   4   4   4   4
#     4  11  22  37  64  97 124 153 211 259 313 359
#     4  11  25  38  61  95 125 168 202 261 306 380
#     4  11  25  40  61  91 132 168 201 243 319 376
#     4  11  22  41  64  87 122 166 210 251 299 375
#     4   9  20  37  59  91 123 161 200 253 307 372
#     4  11  22  39  65  97 116 157 215 270 298 356
#     4  10  18  38  63  85 119 158 209 253 303 351
#     4  10  20  38  65  88 121 159 213 264 307 355
#
# _framework density 24.494022000000001
#
# number of rings (size 3 to 8) (size 9 to 14) (size 15 to 20)
#    0.000    1.500    3.750    1.500    3.500    0.500 
#    0.000    1.250    0.000    4.500    0.000    0.000 
#    0.000    0.000    0.000    0.000    0.000    0.000 
#
# Total GULP energy -178580.576265 kJ/mol
# GULP energy per Si atom -5580.643008 kJ/mol
# Density = 2.443827 g / cm^3
# Si number density = 24.494022 Si / 1000 Ang^3
#
#
#
# Elastic Constant Matrix: (Units=GPa)
#
#
# Indices 1 2 3 4 5 6 
#
# 1 91.6769 -4.0052 10.3005 0.0000 11.3567 0.0000
# 2 -4.0052 118.6088 20.8916 0.0000 5.4993 0.0000
# 3 10.3005 20.8916 35.0461 0.0000 12.2317 0.0000
# 4 0.0000 0.0000 0.0000 24.2133 0.0000 2.8894
# 5 11.3567 5.4993 12.2317 0.0000 29.6772 0.0000
# 6 0.0000 0.0000 0.0000 2.8894 0.0000 29.2126
#
#
#
# Elastic Compliance Matrix: (Units=1/GPa)
#
#
# Indices 1 2 3 4 5 6 
#
# 1 0.011708 0.001060 -0.002851 0.000000 -0.003502 0.000000
# 2 0.001060 0.009527 -0.006112 0.000000 0.000348 0.000000
# 3 -0.002851 -0.006112 0.037656 0.000000 -0.013297 0.000000
# 4 0.000000 0.000000 0.000000 0.041793 0.000000 -0.004134
# 5 -0.003502 0.000348 -0.013297 0.000000 0.040452 0.000000
# 6 0.000000 0.000000 0.000000 -0.004134 0.000000 0.034641
#
#
# Mechanical properties :
#
#
# Convention : Reuss Voigt Hill
#
# Bulk Modulus (GPa) = 23.20989 33.30062 28.25526
# Shear Modulus (GPa) = 24.27822 31.16361 27.72091
#
# Velocity S-wave (km/s) = 3.15173 3.57079 3.36779
# Velocity P-wave (km/s) = 4.76874 5.53405 5.16558
#
# Compressibility (1/GPa) = 0.04308507
#
# Stress axis : x y z
#
# Youngs Moduli (GPa) = 85.40955 104.96073 26.55598
#
# Poissons Ratio (x) = -0.11125 0.07571
# Poissons Ratio (y) = -0.09052 0.16232
# Poissons Ratio (z) = 0.24349 0.64157
#
# Static dielectric constant tensor:
#      x y z
#    x 2.002040 0.000000 -0.014420 
#    y 0.000000 1.965980 0.000000 
#    z -0.014420 0.000000 2.056140 
# 
# From -- ./inp_files/53619.got.cif
#   From: 2010.05.17/outbox.cif.g08.bks.cpg/sg14_27_cif.got.tgz:53619.got - 2010.06.03 17:49:19.
