data_PCOD9240151
_publ_section_title
;
Structure prediction by ZEFSAII (Michael W. Deem and Ramdas Pophale) SiO2 
 PCOD9240151
Probable space group: P 21/C
;
_chemical_formula_sum "Si O2"
_cell_formula_units_Z 28
_cell_length_a 5.392432
_cell_length_b 8.663076
_cell_length_c 23.093158
_cell_angle_alpha 90.000000
_cell_angle_beta 96.205510
_cell_angle_gamma 90.000000
_cell_volume 1072.476852
_symmetry_space_group_name_H-M "P 21/C"
_symmetry_group_IT_number 14
_symmetry_cell_setting 'monoclinic'
loop_
_space_group_symop_operation_xyz
x,y,z
-x,1/2+y,1/2-z
-x,-y,-z
x,1/2-y,1/2+z
loop_
_atom_site_type_symbol
_atom_site_label
_atom_site_fract_x
_atom_site_fract_y
_atom_site_fract_z
Si Si1 0.717508 0.904717 0.194998
Si Si2 0.204003 0.761777 0.912422
Si Si3 0.419301 0.874300 0.722016
Si Si4 0.227660 0.255169 0.425978
Si Si5 0.926239 0.047037 0.697309
Si Si6 0.261895 0.702179 0.041963
Si Si7 0.278621 0.076092 0.052365
O O1 0.634641 0.076654 0.212447
O O2 0.484927 0.800080 0.209285
O O3 0.782969 0.857949 0.131818
O O4 0.951469 0.869615 0.243277
O O5 0.463706 0.856176 0.916807
O O6 0.144624 0.659385 0.856016
O O7 0.958848 0.865851 0.918007
O O8 0.233634 0.669473 0.973784
O O9 0.167119 0.940713 0.687366
O O10 0.676341 0.956376 0.708294
O O11 0.473678 0.150332 0.427629
O O12 0.252679 0.354875 0.486378
O O13 0.982609 0.156561 0.430533
O O14 0.276035 0.890710 0.050227
#
# Coordination Sequence:
#
# PCOD9240151 Si02
#       7
#     4   4   4   4   4   4   4
#     4  10  26  45  67  95 131 173 222 271 332 389
#     4  10  18  35  57  83 128 158 211 260 321 376
#     4  10  25  45  64  93 131 167 226 268 325 387
#     4  10  20  34  60  85 130 162 207 268 331 371
#     4  10  24  41  65  93 124 173 215 268 322 390
#     4  10  20  35  55  95 128 169 211 270 319 385
#     4  10  19  35  56  95 128 168 213 270 318 384
#
# _framework density 26.107792
#
# number of rings (size 3 to 8) (size 9 to 14) (size 15 to 20)
#    0.857    1.143    0.000    5.143    4.000    1.143 
#   10.286    0.000    0.000   20.571    0.000    0.000 
#    0.000    0.000    0.000    0.000    0.000    0.000 
#
# Total GULP energy -156724.733945 kJ/mol
# GULP energy per Si atom -5597.311927 kJ/mol
# Density = 2.604837 g / cm^3
# Si number density = 26.107792 Si / 1000 Ang^3
#
#
#
# Elastic Constant Matrix: (Units=GPa)
#
#
# Indices 1 2 3 4 5 6 
#
# 1 231.0614 27.1043 59.7145 0.0000 -6.3139 0.0000
# 2 27.1043 60.5526 37.6802 0.0000 4.7271 0.0000
# 3 59.7145 37.6802 139.3790 0.0000 30.8271 0.0000
# 4 0.0000 0.0000 0.0000 43.1694 0.0000 3.1711
# 5 -6.3139 4.7271 30.8271 0.0000 36.6683 0.0000
# 6 0.0000 0.0000 0.0000 3.1711 0.0000 26.8727
#
#
#
# Elastic Compliance Matrix: (Units=1/GPa)
#
#
# Indices 1 2 3 4 5 6 
#
# 1 0.005229 -0.000901 -0.002729 0.000000 0.003311 0.000000
# 2 -0.000901 0.020183 -0.005479 0.000000 0.001850 0.000000
# 3 -0.002729 -0.005479 0.012005 0.000000 -0.009856 0.000000
# 4 0.000000 0.000000 0.000000 0.023367 0.000000 -0.002757
# 5 0.003311 0.001850 -0.009856 0.000000 0.035889 0.000000
# 6 0.000000 0.000000 0.000000 -0.002757 0.000000 0.037538
#
#
# Mechanical properties :
#
#
# Convention : Reuss Voigt Hill
#
# Bulk Modulus (GPa) = 52.08705 75.55454 63.82080
# Shear Modulus (GPa) = 31.48003 41.77502 36.62753
#
# Velocity S-wave (km/s) = 3.47619 4.00446 3.74964
# Velocity P-wave (km/s) = 6.00882 7.09812 6.57606
#
# Compressibility (1/GPa) = 0.01919863
#
# Stress axis : x y z
#
# Youngs Moduli (GPa) = 191.22939 49.54622 83.29676
#
# Poissons Ratio (x) = 0.04464 0.22733
# Poissons Ratio (y) = 0.17228 0.45642
# Poissons Ratio (z) = 0.52190 0.27149
#
# Static dielectric constant tensor:
#      x y z
#    x 2.099640 0.000000 0.007100 
#    y 0.000000 2.105240 0.000000 
#    z 0.007100 0.000000 2.030960 
# 
# From -- ./inp_files/75652.got.cif
#   From: 2010.05.17/outbox.cif.g08.bks.cpg/sg14_38_cif.got.tgz:75652.got - 2010.06.03 17:49:19.
