data_PCOD9240764
_publ_section_title
;
Structure prediction by ZEFSAII (Michael W. Deem and Ramdas Pophale) SiO2 
 PCOD9240764
Probable space group: P 21/C
;
_chemical_formula_sum "Si O2"
_cell_formula_units_Z 30
_cell_length_a 31.798266
_cell_length_b 4.919449
_cell_length_c 18.603576
_cell_angle_alpha 90.000000
_cell_angle_beta 150.097907
_cell_angle_gamma 90.000000
_cell_volume 1450.769455
_symmetry_space_group_name_H-M "P 21/C"
_symmetry_group_IT_number 14
_symmetry_cell_setting 'monoclinic'
loop_
_space_group_symop_operation_xyz
x,y,z
-x,1/2+y,1/2-z
-x,-y,-z
x,1/2-y,1/2+z
loop_
_atom_site_type_symbol
_atom_site_label
_atom_site_fract_x
_atom_site_fract_y
_atom_site_fract_z
Si Si1 0.557161 0.431725 0.694763
Si Si2 0.998869 0.175810 0.198773
Si Si3 0.181087 0.700567 0.064312
Si Si4 0.602727 0.562470 0.455924
Si Si5 0.655041 0.061095 0.620300
Si Si6 0.179448 0.299765 0.459767
Si Si7 0.500000 0.000000 0.500000
Si Si8 0.651793 0.574817 0.365129
O O1 0.496386 0.401198 0.673689
O O2 0.508256 0.277050 0.560870
O O3 0.581443 0.746496 0.716167
O O4 0.638608 0.241978 0.828572
O O5 0.007136 0.367910 0.282188
O O6 0.088339 0.219027 0.292757
O O7 0.910864 0.273039 0.034591
O O8 0.256008 0.818914 0.222544
O O9 0.196135 0.406809 0.051094
O O10 0.173619 0.901966 0.985083
O O11 0.621574 0.256558 0.507636
O O12 0.628220 0.619807 0.412503
O O13 0.654329 0.761632 0.585343
O O14 0.590384 0.076200 0.590597
O O15 0.258096 0.311697 0.523119
#
# Coordination Sequence:
#
# PCOD9240764 Si02
#       8
#     4   4   4   4   4   4   2   4
#     4  11  23  37  56  77 106 141 175 223 269 315
#     4   8  16  30  50  78 108 131 161 210 269 324
#     4  10  19  34  55  81 107 135 170 212 278 326
#     4  11  24  38  52  74 106 147 185 217 255 309
#     4  11  22  36  55  76 108 142 177 224 268 316
#     4  10  19  32  55  83 106 132 169 222 266 313
#     4  10  22  36  54  84 108 130 174 226 280 314
#     4  12  22  37  56  76 105 143 186 216 255 316
#
# _framework density 20.67868
#
# number of rings (size 3 to 8) (size 9 to 14) (size 15 to 20)
#    0.000    1.600    0.000    6.400    0.000    5.867 
#    0.000    0.000    0.000    1.600    0.000    0.000 
#    0.000    0.000    0.000    0.000    0.000    0.000 
#
# Total GULP energy -167163.910476 kJ/mol
# GULP energy per Si atom -5572.130349 kJ/mol
# Density = 2.063161 g / cm^3
# Si number density = 20.678680 Si / 1000 Ang^3
#
#
#
# Elastic Constant Matrix: (Units=GPa)
#
#
# Indices 1 2 3 4 5 6 
#
# 1 62.4003 5.8657 26.7557 0.0000 15.6892 0.0000
# 2 5.8657 87.6614 -1.6855 0.0000 8.4392 0.0000
# 3 26.7557 -1.6855 84.8163 0.0000 31.1921 0.0000
# 4 0.0000 0.0000 0.0000 29.8760 0.0000 2.4722
# 5 15.6892 8.4392 31.1921 0.0000 33.3608 0.0000
# 6 0.0000 0.0000 0.0000 2.4722 0.0000 21.3089
#
#
#
# Elastic Compliance Matrix: (Units=1/GPa)
#
#
# Indices 1 2 3 4 5 6 
#
# 1 0.019154 -0.000908 -0.004316 0.000000 -0.004743 0.000000
# 2 -0.000908 0.011965 0.002256 0.000000 -0.004709 0.000000
# 3 -0.004316 0.002256 0.019294 0.000000 -0.016581 0.000000
# 4 0.000000 0.000000 0.000000 0.033796 0.000000 -0.003921
# 5 -0.004743 -0.004709 -0.016581 0.000000 0.048900 0.000000
# 6 0.000000 0.000000 0.000000 -0.003921 0.000000 0.047384
#
#
# Mechanical properties :
#
#
# Convention : Reuss Voigt Hill
#
# Bulk Modulus (GPa) = 22.48343 32.97221 27.72782
# Shear Modulus (GPa) = 24.84409 30.50529 27.67469
#
# Velocity S-wave (km/s) = 3.46993 3.84501 3.66227
# Velocity P-wave (km/s) = 5.19136 5.97426 5.59652
#
# Compressibility (1/GPa) = 0.04447720
#
# Stress axis : x y z
#
# Youngs Moduli (GPa) = 52.20845 83.57700 51.82857
#
# Poissons Ratio (x) = 0.07589 0.22370
# Poissons Ratio (y) = 0.04741 -0.11693
# Poissons Ratio (z) = 0.22534 -0.18855
#
# Static dielectric constant tensor:
#      x y z
#    x 1.729450 0.000000 0.039560 
#    y 0.000000 1.733570 0.000000 
#    z 0.039560 0.000000 1.829860 
# 
# From -- ./inp_files/62456.got.cif
#   From: 2010.05.17/outbox.cif.g08.bks.cpg/sg14_32_cif.got.tgz:62456.got - 2010.06.03 17:49:19.
