data_PCOD9240660
_publ_section_title
;
Structure prediction by ZEFSAII (Michael W. Deem and Ramdas Pophale) SiO2 
 PCOD9240660
Probable space group: P 21/C
;
_chemical_formula_sum "Si O2"
_cell_formula_units_Z 32
_cell_length_a 5.802112
_cell_length_b 12.137498
_cell_length_c 17.295504
_cell_angle_alpha 90.000000
_cell_angle_beta 84.053906
_cell_angle_gamma 90.000000
_cell_volume 1211.450299
_symmetry_space_group_name_H-M "P 21/C"
_symmetry_group_IT_number 14
_symmetry_cell_setting 'monoclinic'
loop_
_space_group_symop_operation_xyz
x,y,z
-x,1/2+y,1/2-z
-x,-y,-z
x,1/2-y,1/2+z
loop_
_atom_site_type_symbol
_atom_site_label
_atom_site_fract_x
_atom_site_fract_y
_atom_site_fract_z
Si Si1 0.538123 0.613896 0.326571
Si Si2 0.451062 0.118720 0.796264
Si Si3 0.479516 0.868447 0.004143
Si Si4 0.068073 0.259522 0.267453
Si Si5 0.332797 0.649623 0.175727
Si Si6 0.020947 0.670806 0.895553
Si Si7 0.514410 0.927957 0.388049
Si Si8 0.017551 0.133529 0.990386
O O1 0.571687 0.483343 0.332827
O O2 0.491797 0.663460 0.412137
O O3 0.743423 0.680366 0.279730
O O4 0.342453 0.612555 0.266308
O O5 0.174952 0.138420 0.810818
O O6 0.552595 0.231910 0.823421
O O7 0.477397 0.107524 0.702608
O O8 0.225333 0.835466 0.041608
O O9 0.716828 0.835744 0.037935
O O10 0.500000 0.000000 0.000000
O O11 0.933936 0.176238 0.327983
O O12 0.945128 0.315909 0.198148
O O13 0.453665 0.560514 0.117900
O O14 0.252447 0.609054 0.921382
O O15 0.006724 0.793758 0.930531
O O16 0.762142 0.615550 0.914846
O O17 0.000000 0.000000 0.000000
#
# Coordination Sequence:
#
# PCOD9240660 Si02
#       8
#     4   4   4   4   4   4   4   4
#     4  10  20  32  51  77 102 154 177 226 274 329
#     4   9  20  32  45  72 105 140 193 215 265 314
#     4  10  20  34  51  78 108 138 171 219 274 334
#     4  10  19  31  53  67 108 148 180 224 268 318
#     4  10  20  33  49  71 108 148 186 226 256 322
#     4  11  19  34  50  75 104 143 177 216 270 326
#     4  10  22  31  51  73 102 144 188 214 259 321
#     4  10  20  33  53  76 106 137 165 218 274 326
#
# _framework density 26.414622999999999
#
# number of rings (size 3 to 8) (size 9 to 14) (size 15 to 20)
#    0.000    2.000    2.500    1.500    7.000    1.000 
#    0.000    0.000    0.000    0.000    0.000    0.000 
#    0.000   24.000    0.000    0.000    0.000    0.000 
#
# Total GULP energy -178368.696001 kJ/mol
# GULP energy per Si atom -5574.021750 kJ/mol
# Density = 2.635450 g / cm^3
# Si number density = 26.414623 Si / 1000 Ang^3
#
#
#
# Elastic Constant Matrix: (Units=GPa)
#
#
# Indices 1 2 3 4 5 6 
#
# 1 202.8294 32.2854 23.6616 0.0000 -2.6347 0.0000
# 2 32.2854 108.1730 2.9798 0.0000 -11.2997 0.0000
# 3 23.6616 2.9798 78.2177 0.0000 7.4317 0.0000
# 4 0.0000 0.0000 0.0000 33.9751 0.0000 -0.5261
# 5 -2.6347 -11.2997 7.4317 0.0000 25.4022 0.0000
# 6 0.0000 0.0000 0.0000 -0.5261 0.0000 34.1700
#
#
#
# Elastic Compliance Matrix: (Units=1/GPa)
#
#
# Indices 1 2 3 4 5 6 
#
# 1 0.005363 -0.001520 -0.001597 0.000000 0.000347 0.000000
# 2 -0.001520 0.010175 -0.000353 0.000000 0.004472 0.000000
# 3 -0.001597 -0.000353 0.013693 0.000000 -0.004329 0.000000
# 4 0.000000 0.000000 0.000000 0.029440 0.000000 0.000453
# 5 0.000347 0.004472 -0.004329 0.000000 0.042658 0.000000
# 6 0.000000 0.000000 0.000000 0.000453 0.000000 0.029272
#
#
# Mechanical properties :
#
#
# Convention : Reuss Voigt Hill
#
# Bulk Modulus (GPa) = 44.86300 56.34151 50.60225
# Shear Modulus (GPa) = 34.48923 40.72901 37.60912
#
# Velocity S-wave (km/s) = 3.61735 3.93098 3.77742
# Velocity P-wave (km/s) = 5.87094 6.47915 6.18253
#
# Compressibility (1/GPa) = 0.02229009
#
# Stress axis : x y z
#
# Youngs Moduli (GPa) = 186.45826 98.27964 73.03120
#
# Poissons Ratio (x) = 0.14942 0.11667
# Poissons Ratio (y) = 0.28349 0.02575
# Poissons Ratio (z) = 0.29786 0.03465
#
# Static dielectric constant tensor:
#      x y z
#    x 2.254540 0.000000 0.030190 
#    y 0.000000 2.118170 0.000000 
#    z 0.030190 0.000000 2.141200 
# 
# From -- ./inp_files/71258.got.cif
#   From: 2010.05.17/outbox.cif.g08.bks.cpg/sg14_36_cif.got.tgz:71258.got - 2010.06.03 17:49:19.
