data_PCOD9240564
_publ_section_title
;
Structure prediction by ZEFSAII (Michael W. Deem and Ramdas Pophale) SiO2 
 PCOD9240564
Probable space group: P 21/C
;
_chemical_formula_sum "Si O2"
_cell_formula_units_Z 28
_cell_length_a 9.705511
_cell_length_b 11.067749
_cell_length_c 14.886342
_cell_angle_alpha 90.000000
_cell_angle_beta 138.403992
_cell_angle_gamma 90.000000
_cell_volume 1061.576831
_symmetry_space_group_name_H-M "P 21/C"
_symmetry_group_IT_number 14
_symmetry_cell_setting 'monoclinic'
loop_
_space_group_symop_operation_xyz
x,y,z
-x,1/2+y,1/2-z
-x,-y,-z
x,1/2-y,1/2+z
loop_
_atom_site_type_symbol
_atom_site_label
_atom_site_fract_x
_atom_site_fract_y
_atom_site_fract_z
Si Si1 0.455260 0.065735 0.073480
Si Si2 0.593682 0.269452 0.909425
Si Si3 0.096866 0.412237 0.913244
Si Si4 0.729372 0.269246 0.177279
Si Si5 0.098219 0.914454 0.974734
Si Si6 0.712957 0.551091 0.183060
Si Si7 0.764280 0.910662 0.316695
O O1 0.511052 0.205492 0.097955
O O2 0.607365 0.022489 0.227186
O O3 0.235501 0.011518 0.988045
O O4 0.500000 0.000000 0.000000
O O5 0.711717 0.256259 0.061275
O O6 0.494555 0.401692 0.869140
O O7 0.758720 0.199563 0.926193
O O8 0.383438 0.190243 0.798871
O O9 0.924514 0.310664 0.804397
O O10 0.969422 0.540190 0.865004
O O11 0.257414 0.423514 0.908838
O O12 0.739689 0.408185 0.208635
O O13 0.905171 0.878431 0.820543
O O14 0.000000 0.000000 0.000000
O O15 0.183554 0.384811 0.054820
#
# Coordination Sequence:
#
# PCOD9240564 Si02
#       7
#     4   4   4   4   4   4   4
#     4  10  18  45  84 114 163 222 273 336 420 491
#     4  11  24  50  78 111 165 217 267 351 415 489
#     4  10  22  43  77 122 162 216 284 340 420 496
#     4  11  23  45  78 118 159 220 272 336 410 515
#     4  11  25  51  83 120 156 218 283 336 418 503
#     4  12  27  45  80 123 166 220 280 342 427 513
#     4   9  20  41  80 117 159 217 277 355 405 477
#
# _framework density 26.375859999999999
#
# number of rings (size 3 to 8) (size 9 to 14) (size 15 to 20)
#    0.000    1.429    4.286    1.286    2.000    1.143 
#   12.857    1.429    0.000    0.857    0.000    0.000 
#    0.000    0.000    0.000    0.000    0.000    0.000 
#
# Total GULP energy -156514.053663 kJ/mol
# GULP energy per Si atom -5589.787631 kJ/mol
# Density = 2.631583 g / cm^3
# Si number density = 26.375860 Si / 1000 Ang^3
#
#
#
# Elastic Constant Matrix: (Units=GPa)
#
#
# Indices 1 2 3 4 5 6 
#
# 1 155.6838 58.6781 40.5806 0.0000 0.1613 0.0000
# 2 58.6781 161.3533 44.0141 0.0000 14.0890 0.0000
# 3 40.5806 44.0141 152.8075 0.0000 -5.6722 0.0000
# 4 0.0000 0.0000 0.0000 23.4474 0.0000 23.8686
# 5 0.1613 14.0890 -5.6722 0.0000 33.4714 0.0000
# 6 0.0000 0.0000 0.0000 23.8686 0.0000 41.0875
#
#
#
# Elastic Compliance Matrix: (Units=1/GPa)
#
#
# Indices 1 2 3 4 5 6 
#
# 1 0.007709 -0.002522 -0.001291 0.000000 0.000806 0.000000
# 2 -0.002522 0.007905 -0.001741 0.000000 -0.003610 0.000000
# 3 -0.001291 -0.001741 0.007463 0.000000 0.002004 0.000000
# 4 0.000000 0.000000 0.000000 0.104366 0.000000 -0.060628
# 5 0.000806 -0.003610 0.002004 0.000000 0.031732 0.000000
# 6 0.000000 0.000000 0.000000 -0.060628 0.000000 0.059559
#
#
# Mechanical properties :
#
#
# Convention : Reuss Voigt Hill
#
# Bulk Modulus (GPa) = 83.54847 84.04339 83.79593
# Shear Modulus (GPa) = 21.38291 41.37271 31.37781
#
# Velocity S-wave (km/s) = 2.85037 3.96483 3.45286
# Velocity P-wave (km/s) = 6.52516 7.27274 6.90907
#
# Compressibility (1/GPa) = 0.01196910
#
# Stress axis : x y z
#
# Youngs Moduli (GPa) = 129.71082 126.50428 133.99494
#
# Poissons Ratio (x) = 0.31902 0.17300
# Poissons Ratio (y) = 0.32710 0.23331
# Poissons Ratio (z) = 0.16747 0.22027
#
# Static dielectric constant tensor:
#      x y z
#    x 2.117120 0.000000 -0.026470 
#    y 0.000000 2.137110 0.000000 
#    z -0.026470 0.000000 2.074840 
# 
# From -- ./inp_files/55798.got.cif
#   From: 2010.05.17/outbox.cif.g08.bks.cpg/sg14_28_cif.got.tgz:55798.got - 2010.06.03 17:49:19.
