data_PCOD9240462
_publ_section_title
;
Structure prediction by ZEFSAII (Michael W. Deem and Ramdas Pophale) SiO2 
 PCOD9240462
Probable space group: P 21/C
;
_chemical_formula_sum "Si O2"
_cell_formula_units_Z 28
_cell_length_a 9.433713
_cell_length_b 12.338405
_cell_length_c 13.907438
_cell_angle_alpha 90.000000
_cell_angle_beta 51.605064
_cell_angle_gamma 90.000000
_cell_volume 1268.719033
_symmetry_space_group_name_H-M "P 21/C"
_symmetry_group_IT_number 14
_symmetry_cell_setting 'monoclinic'
loop_
_space_group_symop_operation_xyz
x,y,z
-x,1/2+y,1/2-z
-x,-y,-z
x,1/2-y,1/2+z
loop_
_atom_site_type_symbol
_atom_site_label
_atom_site_fract_x
_atom_site_fract_y
_atom_site_fract_z
Si Si1 0.886742 0.955005 0.333513
Si Si2 0.752654 0.970429 0.905963
Si Si3 0.607992 0.301847 0.400265
Si Si4 0.786883 0.164560 0.465326
Si Si5 0.266358 0.316473 0.424109
Si Si6 0.094174 0.811993 0.377133
Si Si7 0.801409 0.758085 0.759337
O O1 0.802407 0.845976 0.327986
O O2 0.001510 0.921878 0.379334
O O3 0.761982 0.051433 0.421060
O O4 0.037593 0.994984 0.194585
O O5 0.728754 0.864015 0.847228
O O6 0.637869 0.070803 0.912049
O O7 0.727706 0.936284 0.028451
O O8 0.634799 0.242846 0.489196
O O9 0.434993 0.268069 0.411863
O O10 0.779149 0.271276 0.261555
O O11 0.789380 0.161983 0.578551
O O12 0.988814 0.209379 0.353500
O O13 0.284153 0.284141 0.304934
O O14 0.069836 0.269744 0.534562
#
# Coordination Sequence:
#
# PCOD9240462 Si02
#       7
#     4   4   4   4   4   4   4
#     4  10  18  38  66  90 123 160 213 261 314 378
#     4  10  20  40  64  88 132 162 206 266 310 379
#     4  11  23  43  60  97 127 166 216 259 316 375
#     4  10  20  37  63  90 121 169 206 261 316 372
#     4  11  23  39  66  93 124 169 213 254 323 373
#     4  10  20  40  63  89 126 163 210 254 314 377
#     4  10  20  39  62  95 123 165 210 259 315 373
#
# _framework density 22.069503999999998
#
# number of rings (size 3 to 8) (size 9 to 14) (size 15 to 20)
#    0.000    1.714    4.286    1.714    0.000    2.857 
#    5.143    0.714    0.000    0.000    0.000    0.000 
#    0.000    0.000    0.000    0.000    0.000    0.000 
#
# Total GULP energy -156208.083246 kJ/mol
# GULP energy per Si atom -5578.860116 kJ/mol
# Density = 2.201927 g / cm^3
# Si number density = 22.069504 Si / 1000 Ang^3
#
#
#
# Elastic Constant Matrix: (Units=GPa)
#
#
# Indices 1 2 3 4 5 6 
#
# 1 102.2508 50.5589 33.8827 0.0000 28.6510 0.0000
# 2 50.5589 109.2579 25.4059 0.0000 25.0301 0.0000
# 3 33.8827 25.4059 60.9794 0.0000 23.8330 0.0000
# 4 0.0000 0.0000 0.0000 22.0026 0.0000 -4.4508
# 5 28.6510 25.0301 23.8330 0.0000 38.8308 0.0000
# 6 0.0000 0.0000 0.0000 -4.4508 0.0000 27.8496
#
#
#
# Elastic Compliance Matrix: (Units=1/GPa)
#
#
# Indices 1 2 3 4 5 6 
#
# 1 0.015057 -0.004728 -0.004270 0.000000 -0.005441 0.000000
# 2 -0.004728 0.012480 -0.001042 0.000000 -0.003917 0.000000
# 3 -0.004270 -0.001042 0.023301 0.000000 -0.010480 0.000000
# 4 0.000000 0.000000 0.000000 0.046968 0.000000 0.007506
# 5 -0.005441 -0.003917 -0.010480 0.000000 0.038724 0.000000
# 6 0.000000 0.000000 0.000000 0.007506 0.000000 0.037107
#
#
# Mechanical properties :
#
#
# Convention : Reuss Voigt Hill
#
# Bulk Modulus (GPa) = 32.51054 54.68701 43.59878
# Shear Modulus (GPa) = 24.51337 28.57929 26.54633
#
# Velocity S-wave (km/s) = 3.33638 3.60247 3.47198
# Velocity P-wave (km/s) = 5.44104 6.49130 5.98923
#
# Compressibility (1/GPa) = 0.03075926
#
# Stress axis : x y z
#
# Youngs Moduli (GPa) = 66.41226 80.12719 42.91611
#
# Poissons Ratio (x) = 0.37887 0.18325
# Poissons Ratio (y) = 0.31402 0.04470
# Poissons Ratio (z) = 0.28357 0.08346
#
# Static dielectric constant tensor:
#      x y z
#    x 1.802230 0.000000 -0.030950 
#    y 0.000000 1.816170 0.000000 
#    z -0.030950 0.000000 1.870280 
# 
# From -- ./inp_files/39967.got.cif
#   From: 2010.05.17/outbox.cif.g08.bks.cpg/sg14_20_cif.got.tgz:39967.got - 2010.06.03 17:49:19.
