data_PCOD9240995
_publ_section_title
;
Structure prediction by ZEFSAII (Michael W. Deem and Ramdas Pophale) SiO2 
 PCOD9240995
Probable space group: P 21/C
;
_chemical_formula_sum "Si O2"
_cell_formula_units_Z 24
_cell_length_a 14.681922
_cell_length_b 9.897256
_cell_length_c 13.736726
_cell_angle_alpha 90.000000
_cell_angle_beta 29.163542
_cell_angle_gamma 90.000000
_cell_volume 972.704726
_symmetry_space_group_name_H-M "P 21/C"
_symmetry_group_IT_number 14
_symmetry_cell_setting 'monoclinic'
loop_
_space_group_symop_operation_xyz
x,y,z
-x,1/2+y,1/2-z
-x,-y,-z
x,1/2-y,1/2+z
loop_
_atom_site_type_symbol
_atom_site_label
_atom_site_fract_x
_atom_site_fract_y
_atom_site_fract_z
Si Si1 0.097815 0.712484 0.914145
Si Si2 0.355186 0.705405 0.500790
Si Si3 0.760750 0.643564 0.139498
Si Si4 0.112891 0.430441 0.489010
Si Si5 0.597699 0.359761 0.761982
Si Si6 0.765808 0.509001 0.933860
O O1 0.187471 0.669259 0.727957
O O2 0.277370 0.735836 0.814446
O O3 0.904094 0.629933 0.096000
O O4 0.010707 0.864682 0.982588
O O5 0.362237 0.634022 0.390398
O O6 0.327865 0.864600 0.504065
O O7 0.549608 0.665909 0.369747
O O8 0.776540 0.534296 0.039543
O O9 0.814530 0.785778 0.036130
O O10 0.300501 0.509646 0.288370
O O11 0.971795 0.501325 0.695884
O O12 0.375276 0.377577 0.978882
#
# Coordination Sequence:
#
# PCOD9240995 Si02
#       6
#     4   4   4   4   4   4
#     4   9  20  34  52  81 107 134 175 224 262 307
#     4  10  20  35  54  79 107 140 177 215 261 314
#     4   9  19  34  51  76 112 137 171 220 261 307
#     4   9  19  31  53  78 106 133 175 218 265 303
#     4  11  20  34  57  79 104 141 177 215 268 310
#     4  10  19  34  54  79 106 143 174 214 262 316
#
# _framework density 24.673469000000001
#
# number of rings (size 3 to 8) (size 9 to 14) (size 15 to 20)
#    1.000    1.333    1.667    1.500    0.000    4.000 
#    0.000    0.833    0.000    4.000    0.000    0.000 
#    0.000    0.000    0.000    0.000    0.000    0.000 
#
# Total GULP energy -133644.155279 kJ/mol
# GULP energy per Si atom -5568.506470 kJ/mol
# Density = 2.461731 g / cm^3
# Si number density = 24.673469 Si / 1000 Ang^3
#
#
#
# Elastic Constant Matrix: (Units=GPa)
#
#
# Indices 1 2 3 4 5 6 
#
# 1 165.4602 -131.4737 -56.7099 0.0000 55.8766 0.0000
# 2 -131.4737 210.4983 66.1720 0.0000 -91.7731 0.0000
# 3 -56.7099 66.1720 106.1307 0.0000 -50.1308 0.0000
# 4 0.0000 0.0000 0.0000 23.0100 0.0000 3.0426
# 5 55.8766 -91.7731 -50.1308 0.0000 81.5213 0.0000
# 6 0.0000 0.0000 0.0000 3.0426 0.0000 14.7879
#
#
#
# Elastic Compliance Matrix: (Units=1/GPa)
#
#
# Indices 1 2 3 4 5 6 
#
# 1 0.012531 0.007770 0.002714 0.000000 0.001827 0.000000
# 2 0.007770 0.014259 0.000462 0.000000 0.011010 0.000000
# 3 0.002714 0.000462 0.014025 0.000000 0.007285 0.000000
# 4 0.000000 0.000000 0.000000 0.044675 0.000000 -0.009192
# 5 0.001827 0.011010 0.007285 0.000000 0.027889 0.000000
# 6 0.000000 0.000000 0.000000 -0.009192 0.000000 0.069514
#
#
# Mechanical properties :
#
#
# Convention : Reuss Voigt Hill
#
# Bulk Modulus (GPa) = 15.94679 26.45177 21.19928
# Shear Modulus (GPa) = 27.48736 64.13725 45.81230
#
# Velocity S-wave (km/s) = 3.34135 5.10400 4.31367
# Velocity P-wave (km/s) = 4.62205 6.74377 5.78108
#
# Compressibility (1/GPa) = 0.06270854
#
# Stress axis : x y z
#
# Youngs Moduli (GPa) = 79.80204 70.13346 71.29896
#
# Poissons Ratio (x) = -0.54494 -0.19353
# Poissons Ratio (y) = -0.62006 -0.03297
# Poissons Ratio (z) = -0.21661 -0.03243
#
# Static dielectric constant tensor:
#      x y z
#    x 2.065110 0.000000 -0.055610 
#    y 0.000000 2.106140 0.000000 
#    z -0.055610 0.000000 1.862580 
# 
# From -- ./inp_files/46867.got.cif
#   From: 2010.05.17/outbox.cif.g08.bks.cpg/sg14_24_cif.got.tgz:46867.got - 2010.06.03 17:49:19.
