data_PCOD9240819
_publ_section_title
;
Structure prediction by ZEFSAII (Michael W. Deem and Ramdas Pophale) SiO2 
 PCOD9240819
Probable space group: P 21/C
;
_chemical_formula_sum "Si O2"
_cell_formula_units_Z 28
_cell_length_a 25.992380
_cell_length_b 9.271547
_cell_length_c 10.121581
_cell_angle_alpha 90.000000
_cell_angle_beta 29.354719
_cell_angle_gamma 90.000000
_cell_volume 1195.730403
_symmetry_space_group_name_H-M "P 21/C"
_symmetry_group_IT_number 14
_symmetry_cell_setting 'monoclinic'
loop_
_space_group_symop_operation_xyz
x,y,z
-x,1/2+y,1/2-z
-x,-y,-z
x,1/2-y,1/2+z
loop_
_atom_site_type_symbol
_atom_site_label
_atom_site_fract_x
_atom_site_fract_y
_atom_site_fract_z
Si Si1 0.221103 0.904137 0.202593
Si Si2 0.191549 0.659592 0.064717
Si Si3 0.503266 0.250661 0.984606
Si Si4 0.568115 0.511177 0.686826
Si Si5 0.642527 0.978818 0.722671
Si Si6 0.030770 0.069146 0.256509
Si Si7 0.987096 0.771816 0.438554
O O1 0.231357 0.793237 0.060525
O O2 0.231926 0.835194 0.324309
O O3 0.097809 0.946674 0.469903
O O4 0.320231 0.011821 0.982666
O O5 0.067361 0.665930 0.333858
O O6 0.236605 0.516502 0.031318
O O7 0.510474 0.367708 0.084646
O O8 0.394279 0.168229 0.258274
O O9 0.516461 0.355201 0.829800
O O10 0.585709 0.120365 0.792188
O O11 0.595721 0.533715 0.474513
O O12 0.063623 0.175447 0.063626
O O13 0.063616 0.144440 0.322500
O O14 0.056713 0.899017 0.210480
#
# Coordination Sequence:
#
# PCOD9240819 Si02
#       7
#     4   4   4   4   4   4   4
#     4   9  17  32  54  74 106 139 175 216 268 314
#     4   9  17  32  54  77 102 139 174 216 261 321
#     4  10  20  32  50  76 100 137 175 219 259 319
#     4  10  19  33  52  72 105 137 173 218 269 312
#     4  10  19  33  52  74 104 134 177 219 260 314
#     4   9  18  33  57  79 109 140 180 224 268 325
#     4   9  18  33  57  80 107 140 179 220 272 320
#
# _framework density 23.416651000000002
#
# number of rings (size 3 to 8) (size 9 to 14) (size 15 to 20)
#    0.000    2.571    1.429    0.857    0.000    0.571 
#    0.000    1.429   37.714    0.000    0.000    0.000 
#    0.000    0.000    0.000    0.000    0.000    0.000 
#
# Total GULP energy -155898.565333 kJ/mol
# GULP energy per Si atom -5567.805905 kJ/mol
# Density = 2.336335 g / cm^3
# Si number density = 23.416651 Si / 1000 Ang^3
#
#
#
# Elastic Constant Matrix: (Units=GPa)
#
#
# Indices 1 2 3 4 5 6 
#
# 1 70.9082 17.4264 7.1022 0.0000 12.9665 0.0000
# 2 17.4264 103.3589 25.2341 0.0000 0.3726 0.0000
# 3 7.1022 25.2341 25.3496 0.0000 -0.2759 0.0000
# 4 0.0000 0.0000 0.0000 23.0293 0.0000 -33.1012
# 5 12.9665 0.3726 -0.2759 0.0000 22.0192 0.0000
# 6 0.0000 0.0000 0.0000 -33.1012 0.0000 -87.6324
#
#
#
# Elastic Compliance Matrix: (Units=1/GPa)
#
#
# Indices 1 2 3 4 5 6 
#
# 1 0.016689 -0.002128 -0.002665 0.000000 -0.009825 0.000000
# 2 -0.002128 0.013056 -0.012390 0.000000 0.000877 0.000000
# 3 -0.002665 -0.012390 0.052555 0.000000 0.002437 0.000000
# 4 0.000000 0.000000 0.000000 0.028143 0.000000 -0.010630
# 5 -0.009825 0.000877 0.002437 0.000000 0.051217 0.000000
# 6 0.000000 0.000000 0.000000 -0.010630 0.000000 -0.007396
#
#
# Mechanical properties :
#
#
# Convention : Reuss Voigt Hill
#
# Bulk Modulus (GPa) = 20.86185 33.23803 27.04994
# Shear Modulus (GPa) = 24.43699 1.47348 12.95524
#
# Velocity S-wave (km/s) = 3.23394 0.79411 2.35468
# Velocity P-wave (km/s) = 4.78256 3.88147 4.35538
#
# Compressibility (1/GPa) = 0.04793440
#
# Stress axis : x y z
#
# Youngs Moduli (GPa) = 59.91879 76.59545 19.02760
#
# Poissons Ratio (x) = 0.16298 0.05070
# Poissons Ratio (y) = 0.12750 0.23576
# Poissons Ratio (z) = 0.15966 0.94905
#
# Static dielectric constant tensor:
#      x y z
#    x 1.968560 0.000000 -0.054660 
#    y 0.000000 1.898920 0.000000 
#    z -0.054660 0.000000 1.941060 
# 
# From -- ./inp_files/19705.got.cif
#   From: 2010.05.17/outbox.cif.g08.bks.cpg/sg14_10_cif.got.tgz:19705.got - 2010.06.03 17:49:19.
