data_PCOD9240126
_publ_section_title
;
Structure prediction by ZEFSAII (Michael W. Deem and Ramdas Pophale) SiO2 
 PCOD9240126
Probable space group: P 21/C
;
_chemical_formula_sum "Si O2"
_cell_formula_units_Z 32
_cell_length_a 21.474234
_cell_length_b 11.026007
_cell_length_c 15.439071
_cell_angle_alpha 90.000000
_cell_angle_beta 157.648864
_cell_angle_gamma 90.000000
_cell_volume 1390.152975
_symmetry_space_group_name_H-M "P 21/C"
_symmetry_group_IT_number 14
_symmetry_cell_setting 'monoclinic'
loop_
_space_group_symop_operation_xyz
x,y,z
-x,1/2+y,1/2-z
-x,-y,-z
x,1/2-y,1/2+z
loop_
_atom_site_type_symbol
_atom_site_label
_atom_site_fract_x
_atom_site_fract_y
_atom_site_fract_z
Si Si1 0.668245 0.091080 0.517086
Si Si2 0.015407 0.807170 0.136772
Si Si3 0.678338 0.833449 0.991362
Si Si4 0.160148 0.562948 0.240861
Si Si5 0.320152 0.554287 0.260117
Si Si6 0.563778 0.205414 0.558109
Si Si7 0.227341 0.182757 0.546134
Si Si8 0.681655 0.859111 0.623930
O O1 0.512215 0.155256 0.275251
O O2 0.670281 0.142602 0.619430
O O3 0.828842 0.105987 0.665877
O O4 0.640538 0.948739 0.493367
O O5 0.100789 0.690380 0.201296
O O6 0.921753 0.752796 0.098839
O O7 0.865630 0.875604 0.895431
O O8 0.769998 0.737113 0.047443
O O9 0.687972 0.780149 0.100381
O O10 0.754772 0.967686 0.084833
O O11 0.265778 0.570257 0.289934
O O12 0.000000 0.500000 0.000000
O O13 0.500000 0.500000 0.500000
O O14 0.336150 0.696078 0.256157
O O15 0.223535 0.457464 0.075585
O O16 0.405031 0.269454 0.308809
O O17 0.464545 0.121487 0.496748
#
# Coordination Sequence:
#
# PCOD9240126 Si02
#       8
#     4   4   4   4   4   4   4   4
#     4  11  24  40  66  93 132 167 216 279 333 386
#     4  11  22  43  68  93 123 179 220 268 325 403
#     4  11  25  41  61  96 134 171 212 277 334 379
#     4  12  21  41  71  94 127 172 225 270 318 394
#     4  10  18  34  66  97 121 168 216 269 313 394
#     4   9  19  37  63  93 122 169 221 258 324 393
#     4   9  20  38  59  91 136 164 207 274 328 379
#     4  11  23  42  64  93 130 171 221 268 325 402
#
# _framework density 23.019048999999999
#
# number of rings (size 3 to 8) (size 9 to 14) (size 15 to 20)
#    0.000    1.500    3.750    2.250    1.750    1.000 
#    2.250    3.750    0.000    0.000    0.000    0.000 
#    0.000    0.000    0.000    0.000    0.000    0.000 
#
# Total GULP energy -178341.306026 kJ/mol
# GULP energy per Si atom -5573.165813 kJ/mol
# Density = 2.296666 g / cm^3
# Si number density = 23.019049 Si / 1000 Ang^3
#
#
#
# Elastic Constant Matrix: (Units=GPa)
#
#
# Indices 1 2 3 4 5 6 
#
# 1 104.9856 22.8861 36.3027 0.0000 33.6973 0.0000
# 2 22.8861 62.2023 -4.9421 0.0000 8.0401 0.0000
# 3 36.3027 -4.9421 53.3071 0.0000 24.8187 0.0000
# 4 0.0000 0.0000 0.0000 30.7243 0.0000 -2.8451
# 5 33.6973 8.0401 24.8187 0.0000 32.1008 0.0000
# 6 0.0000 0.0000 0.0000 -2.8451 0.0000 16.3082
#
#
#
# Elastic Compliance Matrix: (Units=1/GPa)
#
#
# Indices 1 2 3 4 5 6 
#
# 1 0.016412 -0.005166 -0.006620 0.000000 -0.010816 0.000000
# 2 -0.005166 0.019313 0.007868 0.000000 -0.005497 0.000000
# 3 -0.006620 0.007868 0.033872 0.000000 -0.021209 0.000000
# 4 0.000000 0.000000 0.000000 0.033082 0.000000 0.005771
# 5 -0.010816 -0.005497 -0.021209 0.000000 0.060281 0.000000
# 6 0.000000 0.000000 0.000000 0.005771 0.000000 0.062326
#
#
# Mechanical properties :
#
#
# Convention : Reuss Voigt Hill
#
# Bulk Modulus (GPa) = 16.19155 36.55429 26.37292
# Shear Modulus (GPa) = 19.70766 26.90988 23.30877
#
# Velocity S-wave (km/s) = 2.92917 3.42281 3.18557
# Velocity P-wave (km/s) = 4.29992 5.61563 5.00123
#
# Compressibility (1/GPa) = 0.06176059
#
# Stress axis : x y z
#
# Youngs Moduli (GPa) = 60.93049 51.77808 29.52319
#
# Poissons Ratio (x) = 0.26751 0.19545
# Poissons Ratio (y) = 0.31480 -0.23230
# Poissons Ratio (z) = 0.40337 -0.40741
#
# Static dielectric constant tensor:
#      x y z
#    x 1.858450 0.000000 -0.023230 
#    y 0.000000 1.871300 0.000000 
#    z -0.023230 0.000000 1.818020 
# 
# From -- ./inp_files/62014.got.cif
#   From: 2010.05.17/outbox.cif.g08.bks.cpg/sg14_32_cif.got.tgz:62014.got - 2010.06.03 17:49:19.
