data_PCOD9240432
_publ_section_title
;
Structure prediction by ZEFSAII (Michael W. Deem and Ramdas Pophale) SiO2 
 PCOD9240432
Probable space group: P 21/C
;
_chemical_formula_sum "Si O2"
_cell_formula_units_Z 26
_cell_length_a 12.956126
_cell_length_b 10.108699
_cell_length_c 9.143949
_cell_angle_alpha 90.000000
_cell_angle_beta 63.528093
_cell_angle_gamma 90.000000
_cell_volume 1072.016599
_symmetry_space_group_name_H-M "P 21/C"
_symmetry_group_IT_number 14
_symmetry_cell_setting 'monoclinic'
loop_
_space_group_symop_operation_xyz
x,y,z
-x,1/2+y,1/2-z
-x,-y,-z
x,1/2-y,1/2+z
loop_
_atom_site_type_symbol
_atom_site_label
_atom_site_fract_x
_atom_site_fract_y
_atom_site_fract_z
Si Si1 0.239508 0.422697 0.954951
Si Si2 0.064362 0.731216 0.720864
Si Si3 0.814175 0.735467 0.274057
Si Si4 0.403031 0.885878 0.197935
Si Si5 0.776362 0.150008 0.148333
Si Si6 0.000000 0.500000 0.000000
Si Si7 0.350367 0.045913 0.947687
O O1 0.220474 0.289174 0.870175
O O2 0.354667 0.497532 0.834280
O O3 0.222803 0.371343 0.128388
O O4 0.135003 0.513291 0.965326
O O5 0.147699 0.673793 0.545008
O O6 0.134464 0.836703 0.773898
O O7 0.951273 0.790433 0.709526
O O8 0.020845 0.615458 0.856124
O O9 0.746237 0.621357 0.400386
O O10 0.319649 0.762743 0.271467
O O11 0.537030 0.864934 0.148762
O O12 0.392055 0.931975 0.035769
O O13 0.704479 0.019207 0.159147
#
# Coordination Sequence:
#
# PCOD9240432 Si02
#       7
#     4   4   4   4   4   2   4
#     4  10  20  39  62  89 122 165 213 249 321 377
#     4  11  22  38  67  96 133 163 217 260 326 386
#     4  10  22  39  61  95 123 166 205 264 317 382
#     4  10  22  43  67  87 125 183 205 263 325 394
#     4  12  22  42  65  99 123 174 215 267 322 394
#     4  10  18  38  62  86 122 174 196 244 316 396
#     4  10  23  43  65  90 130 169 218 259 329 392
#
# _framework density 24.253356
#
# number of rings (size 3 to 8) (size 9 to 14) (size 15 to 20)
#    0.000    1.538    3.077    2.769    2.154    0.615 
#    2.769    0.769    0.000    0.000    0.000    0.000 
#    0.000    0.000    0.000    0.000    0.000    0.000 
#
# Total GULP energy -145134.420025 kJ/mol
# GULP energy per Si atom -5582.093078 kJ/mol
# Density = 2.419815 g / cm^3
# Si number density = 24.253356 Si / 1000 Ang^3
#
#
#
# Elastic Constant Matrix: (Units=GPa)
#
#
# Indices 1 2 3 4 5 6 
#
# 1 116.1101 25.9920 57.5054 0.0000 -3.6266 0.0000
# 2 25.9920 39.8784 20.8558 0.0000 5.9945 0.0000
# 3 57.5054 20.8558 84.6140 0.0000 1.8532 0.0000
# 4 0.0000 0.0000 0.0000 37.1070 0.0000 -0.2029
# 5 -3.6266 5.9945 1.8532 0.0000 45.6160 0.0000
# 6 0.0000 0.0000 0.0000 -0.2029 0.0000 27.0252
#
#
#
# Elastic Compliance Matrix: (Units=1/GPa)
#
#
# Indices 1 2 3 4 5 6 
#
# 1 0.013892 -0.005062 -0.008240 0.000000 0.002104 0.000000
# 2 -0.005062 0.031200 -0.004155 0.000000 -0.004334 0.000000
# 3 -0.008240 -0.004155 0.018461 0.000000 -0.000859 0.000000
# 4 0.000000 0.000000 0.000000 0.026950 0.000000 0.000202
# 5 0.002104 -0.004334 -0.000859 0.000000 0.022694 0.000000
# 6 0.000000 0.000000 0.000000 0.000202 0.000000 0.037004
#
#
# Mechanical properties :
#
#
# Convention : Reuss Voigt Hill
#
# Bulk Modulus (GPa) = 34.91643 49.92321 42.41982
# Shear Modulus (GPa) = 25.68552 31.03292 28.35922
#
# Velocity S-wave (km/s) = 3.25784 3.58093 3.42320
# Velocity P-wave (km/s) = 5.34594 6.14216 5.75783
#
# Compressibility (1/GPa) = 0.02863981
#
# Stress axis : x y z
#
# Youngs Moduli (GPa) = 71.98226 32.05136 54.16699
#
# Poissons Ratio (x) = 0.16224 0.44633
# Poissons Ratio (y) = 0.36435 0.22508
# Poissons Ratio (z) = 0.59313 0.13318
#
# Static dielectric constant tensor:
#      x y z
#    x 1.910770 0.000000 0.030860 
#    y 0.000000 3.195710 0.000000 
#    z 0.030860 0.000000 1.673010 
# 
# From -- ./inp_files/15465.got.cif
#   From: 2010.05.17/outbox.cif.g08.bks.cpg/sg14_8_cif.got.tgz:15465.got - 2010.06.03 17:49:19.
