data_PCOD9240369
_publ_section_title
;
Structure prediction by ZEFSAII (Michael W. Deem and Ramdas Pophale) SiO2 
 PCOD9240369
Probable space group: P 21/C
;
_chemical_formula_sum "Si O2"
_cell_formula_units_Z 32
_cell_length_a 18.713690
_cell_length_b 8.864476
_cell_length_c 23.201354
_cell_angle_alpha 90.000000
_cell_angle_beta 21.229532
_cell_angle_gamma 90.000000
_cell_volume 1393.671554
_symmetry_space_group_name_H-M "P 21/C"
_symmetry_group_IT_number 14
_symmetry_cell_setting 'monoclinic'
loop_
_space_group_symop_operation_xyz
x,y,z
-x,1/2+y,1/2-z
-x,-y,-z
x,1/2-y,1/2+z
loop_
_atom_site_type_symbol
_atom_site_label
_atom_site_fract_x
_atom_site_fract_y
_atom_site_fract_z
Si Si1 0.353500 0.827943 0.571925
Si Si2 0.329665 0.622055 0.884559
Si Si3 0.654007 0.566942 0.234242
Si Si4 0.491912 0.215956 0.926064
Si Si5 0.780810 0.299789 0.437364
Si Si6 0.132915 0.139333 0.742973
Si Si7 0.792595 0.848105 0.186666
Si Si8 0.634772 0.422568 0.719189
O O1 0.378294 0.761433 0.616457
O O2 0.217129 0.731668 0.631588
O O3 0.567859 0.837949 0.380782
O O4 0.272713 0.994808 0.636865
O O5 0.263987 0.504505 0.885783
O O6 0.531878 0.553324 0.758650
O O7 0.333543 0.781497 0.847749
O O8 0.199628 0.647356 0.039132
O O9 0.586285 0.435674 0.329302
O O10 0.439961 0.642578 0.383145
O O11 0.806740 0.689249 0.143282
O O12 0.501476 0.340224 0.868208
O O13 0.267046 0.221767 0.118873
O O14 0.952475 0.396307 0.336389
O O15 0.080352 0.153032 0.850300
O O16 0.790880 0.987053 0.142791
#
# Coordination Sequence:
#
# PCOD9240369 Si02
#       8
#     4   4   4   4   4   4   4   4
#     4  10  19  38  57  80 117 154 195 228 282 361
#     4  11  20  36  59  85 110 150 196 248 267 348
#     4  10  22  37  61  82 113 147 213 231 280 335
#     4  10  20  36  63  86 106 161 194 234 275 360
#     4  11  23  35  56  90 121 148 184 247 300 331
#     4  11  21  35  57  87 124 146 183 241 305 347
#     4  10  18  37  60  85 107 160 192 235 276 352
#     4  11  17  35  62  81 109 144 205 230 279 321
#
# _framework density 22.960932
#
# number of rings (size 3 to 8) (size 9 to 14) (size 15 to 20)
#    0.000    1.500    6.250    0.750    1.750    4.500 
#    0.000    1.250    0.000    0.000    0.000    0.000 
#    0.000    0.000    0.000    0.000    0.000    0.000 
#
# Total GULP energy -178450.109209 kJ/mol
# GULP energy per Si atom -5576.565913 kJ/mol
# Density = 2.290867 g / cm^3
# Si number density = 22.960932 Si / 1000 Ang^3
#
#
#
# Elastic Constant Matrix: (Units=GPa)
#
#
# Indices 1 2 3 4 5 6 
#
# 1 171.4980 39.7491 32.7957 0.0000 2.6226 0.0000
# 2 39.7491 75.2441 8.6531 0.0000 3.0733 0.0000
# 3 32.7957 8.6531 20.0864 0.0000 -1.1773 0.0000
# 4 0.0000 0.0000 0.0000 5.5820 0.0000 20.3806
# 5 2.6226 3.0733 -1.1773 0.0000 24.7976 0.0000
# 6 0.0000 0.0000 0.0000 20.3806 0.0000 35.1398
#
#
#
# Elastic Compliance Matrix: (Units=1/GPa)
#
#
# Indices 1 2 3 4 5 6 
#
# 1 0.009230 -0.003245 -0.013744 0.000000 -0.001227 0.000000
# 2 -0.003245 0.015226 -0.001355 0.000000 -0.001608 0.000000
# 3 -0.013744 -0.001355 0.073108 0.000000 0.005092 0.000000
# 4 0.000000 0.000000 0.000000 -0.160298 0.000000 0.092970
# 5 -0.001227 -0.001608 0.005092 0.000000 0.040897 0.000000
# 6 0.000000 0.000000 0.000000 0.092970 0.000000 -0.025464
#
#
# Mechanical properties :
#
#
# Convention : Reuss Voigt Hill
#
# Bulk Modulus (GPa) = 16.42706 47.69158 32.05932
# Shear Modulus (GPa) = 516.52114 25.47927 271.00021
#
# Velocity S-wave (km/s) = 15.01482 3.33480 10.87579
# Velocity P-wave (km/s) = 17.54318 5.97023 13.10356
#
# Compressibility (1/GPa) = 0.06087518
#
# Stress axis : x y z
#
# Youngs Moduli (GPa) = 108.33922 65.67724 13.67844
#
# Poissons Ratio (x) = 0.21315 0.18800
# Poissons Ratio (y) = 0.35160 0.01853
# Poissons Ratio (z) = 1.48905 0.08897
#
# Static dielectric constant tensor:
#      x y z
#    x 1.926400 0.000000 -0.005150 
#    y 0.000000 1.912090 0.000000 
#    z -0.005150 0.000000 1.906850 
# 
# From -- ./inp_files/74174.got.cif
#   From: 2010.05.17/outbox.cif.g08.bks.cpg/sg14_38_cif.got.tgz:74174.got - 2010.06.03 17:49:19.
