data_PCOD9240047
_publ_section_title
;
Structure prediction by ZEFSAII (Michael W. Deem and Ramdas Pophale) SiO2 
 PCOD9240047
Probable space group: P 21/C
;
_chemical_formula_sum "Si O2"
_cell_formula_units_Z 32
_cell_length_a 15.783630
_cell_length_b 24.023398
_cell_length_c 8.846121
_cell_angle_alpha 90.000000
_cell_angle_beta 147.211145
_cell_angle_gamma 90.000000
_cell_volume 1816.471172
_symmetry_space_group_name_H-M "P 21/C"
_symmetry_group_IT_number 14
_symmetry_cell_setting 'monoclinic'
loop_
_space_group_symop_operation_xyz
x,y,z
-x,1/2+y,1/2-z
-x,-y,-z
x,1/2-y,1/2+z
loop_
_atom_site_type_symbol
_atom_site_label
_atom_site_fract_x
_atom_site_fract_y
_atom_site_fract_z
Si Si1 0.564321 0.040538 0.966918
Si Si2 0.185025 0.291394 0.811180
Si Si3 0.364250 0.206612 0.883890
Si Si4 0.384315 0.885883 0.688049
Si Si5 0.384998 0.114182 0.465971
Si Si6 0.563984 0.959398 0.725554
Si Si7 0.636413 0.206631 0.792050
Si Si8 0.815654 0.208550 0.756987
O O1 0.647904 0.086630 0.196768
O O2 0.427952 0.070214 0.662976
O O3 0.500000 0.000000 0.000000
O O4 0.650179 0.999922 0.975275
O O5 0.274227 0.236489 0.885109
O O6 0.000338 0.285541 0.522390
O O7 0.243039 0.301587 0.067703
O O8 0.250368 0.343297 0.812536
O O9 0.456505 0.150590 0.060447
O O10 0.500296 0.249999 0.038545
O O11 0.427420 0.929817 0.620077
O O12 0.249613 0.843376 0.437542
O O13 0.352721 0.086755 0.253987
O O14 0.544244 0.150613 0.692165
O O15 0.500000 0.000000 0.500000
O O16 0.757507 0.198387 0.839242
O O17 0.726493 0.236551 0.063300
#
# Coordination Sequence:
#
# PCOD9240047 Si02
#       8
#     4   4   4   4   4   4   4   4
#     4   9  18  32  56  86 101 125 183 237 261 301
#     4  11  22  34  51  81 115 144 172 211 264 322
#     4  10  20  34  54  78 109 143 182 214 251 315
#     4  10  18  34  57  82 105 141 176 220 265 311
#     4  10  18  34  57  82 105 141 176 220 265 311
#     4   9  18  32  56  86 101 125 183 237 261 301
#     4  10  20  34  54  78 109 143 182 214 251 315
#     4  11  22  34  51  81 115 144 172 211 264 322
#
# _framework density 17.616574
#
# number of rings (size 3 to 8) (size 9 to 14) (size 15 to 20)
#    0.000    2.000    2.500    3.000    3.500    0.000 
#    0.000    0.000    0.000    7.500    0.000    0.000 
#    0.000    0.000    0.000    0.000    0.000    0.000 
#
# Total GULP energy -178215.200024 kJ/mol
# GULP energy per Si atom -5569.225001 kJ/mol
# Density = 1.757648 g / cm^3
# Si number density = 17.616574 Si / 1000 Ang^3
#
#
#
# Elastic Constant Matrix: (Units=GPa)
#
#
# Indices 1 2 3 4 5 6 
#
# 1 79.4537 29.4520 33.1490 0.0000 -9.3528 0.0000
# 2 29.4520 74.7550 22.4500 0.0000 -5.2586 0.0000
# 3 33.1490 22.4500 75.6739 0.0000 6.4925 0.0000
# 4 0.0000 0.0000 0.0000 9.7810 0.0000 -17.5858
# 5 -9.3528 -5.2586 6.4925 0.0000 28.8457 0.0000
# 6 0.0000 0.0000 0.0000 -17.5858 0.0000 33.1061
#
#
#
# Elastic Compliance Matrix: (Units=1/GPa)
#
#
# Indices 1 2 3 4 5 6 
#
# 1 0.018000 -0.004487 -0.007122 0.000000 0.006621 0.000000
# 2 -0.004487 0.016208 -0.003030 0.000000 0.002182 0.000000
# 3 -0.007122 -0.003030 0.017823 0.000000 -0.006873 0.000000
# 4 0.000000 0.000000 0.000000 2.275465 0.000000 1.208717
# 5 0.006621 0.002182 -0.006873 0.000000 0.038759 0.000000
# 6 0.000000 0.000000 0.000000 1.208717 0.000000 0.672271
#
#
# Mechanical properties :
#
#
# Convention : Reuss Voigt Hill
#
# Bulk Modulus (GPa) = 43.94982 44.44271 44.19626
# Shear Modulus (GPa) = 1.62581 24.00201 12.81391
#
# Velocity S-wave (km/s) = 0.96171 3.69517 2.69992
# Velocity P-wave (km/s) = 5.12204 6.59456 5.90439
#
# Compressibility (1/GPa) = 0.02275322
#
# Stress axis : x y z
#
# Youngs Moduli (GPa) = 55.55585 61.69667 56.10763
#
# Poissons Ratio (x) = 0.27684 0.39958
# Poissons Ratio (y) = 0.24928 0.17001
# Poissons Ratio (z) = 0.39566 0.18695
#
# Static dielectric constant tensor:
#      x y z
#    x 1.622900 0.000000 -0.048460 
#    y 0.000000 1.683060 0.000000 
#    z -0.048460 0.000000 1.558680 
# 
# From -- ./inp_files/17054.got.cif
#   From: 2010.05.17/outbox.cif.g08.bks.cpg/sg14_9_cif.got.tgz:17054.got - 2010.06.03 17:49:19.
