data_PCOD9240628
_publ_section_title
;
Structure prediction by ZEFSAII (Michael W. Deem and Ramdas Pophale) SiO2 
 PCOD9240628
Probable space group: P 21/C
;
_chemical_formula_sum "Si O2"
_cell_formula_units_Z 32
_cell_length_a 11.942044
_cell_length_b 26.013972
_cell_length_c 5.426033
_cell_angle_alpha 90.000000
_cell_angle_beta 96.961991
_cell_angle_gamma 90.000000
_cell_volume 1673.222722
_symmetry_space_group_name_H-M "P 21/C"
_symmetry_group_IT_number 14
_symmetry_cell_setting 'monoclinic'
loop_
_space_group_symop_operation_xyz
x,y,z
-x,1/2+y,1/2-z
-x,-y,-z
x,1/2-y,1/2+z
loop_
_atom_site_type_symbol
_atom_site_label
_atom_site_fract_x
_atom_site_fract_y
_atom_site_fract_z
Si Si1 0.686313 0.767709 0.985459
Si Si2 0.380643 0.458074 0.213090
Si Si3 0.234158 0.377695 0.448509
Si Si4 0.971388 0.872353 0.405394
Si Si5 0.942318 0.726766 0.136320
Si Si6 0.915989 0.550797 0.246695
Si Si7 0.363001 0.975160 0.211062
Si Si8 0.126389 0.934083 0.146343
O O1 0.630869 0.760252 0.238374
O O2 0.700364 0.828323 0.930591
O O3 0.808403 0.739568 0.073222
O O4 0.310219 0.407272 0.266777
O O5 0.514793 0.449200 0.223539
O O6 0.366182 0.492842 0.455993
O O7 0.347062 0.488594 0.952424
O O8 0.122871 0.351050 0.303028
O O9 0.179510 0.419138 0.621370
O O10 0.968709 0.833506 0.629887
O O11 0.919007 0.926554 0.475925
O O12 0.085994 0.887200 0.305013
O O13 0.990588 0.750037 0.397406
O O14 0.898087 0.490415 0.244556
O O15 0.039280 0.564326 0.393882
O O16 0.259581 0.936104 0.148408
#
# Coordination Sequence:
#
# PCOD9240628 Si02
#       8
#     4   4   4   4   4   4   4   4
#     4  10  19  31  48  73 105 137 165 217 268 316
#     4  10  22  36  58  77  98 146 177 227 257 314
#     4  11  20  31  53  78 107 139 181 215 269 326
#     4  11  21  30  52  75 110 144 176 209 272 323
#     4  10  19  34  49  70 104 138 170 216 258 315
#     4  10  20  32  46  77 110 145 176 209 262 316
#     4  10  21  40  54  74 108 138 186 216 264 297
#     4  10  21  32  49  75 109 148 173 221 251 317
#
# _framework density 19.124769000000001
#
# number of rings (size 3 to 8) (size 9 to 14) (size 15 to 20)
#    0.000    1.750    3.750    2.625    3.500    0.000 
#    0.000    0.000    0.000    0.000    0.000    1.750 
#    0.000    0.000    0.000    0.000    0.000    0.000 
#
# Total GULP energy -178246.069277 kJ/mol
# GULP energy per Si atom -5570.189665 kJ/mol
# Density = 1.908124 g / cm^3
# Si number density = 19.124769 Si / 1000 Ang^3
#
#
#
# Elastic Constant Matrix: (Units=GPa)
#
#
# Indices 1 2 3 4 5 6 
#
# 1 96.2795 18.0894 15.8317 0.0000 -3.7170 0.0000
# 2 18.0894 63.0024 9.5279 0.0000 -8.1536 0.0000
# 3 15.8317 9.5279 88.7970 0.0000 -7.6299 0.0000
# 4 0.0000 0.0000 0.0000 32.5553 0.0000 -9.5126
# 5 -3.7170 -8.1536 -7.6299 0.0000 19.5636 0.0000
# 6 0.0000 0.0000 0.0000 -9.5126 0.0000 11.5663
#
#
#
# Elastic Compliance Matrix: (Units=1/GPa)
#
#
# Indices 1 2 3 4 5 6 
#
# 1 0.011222 -0.002937 -0.001663 0.000000 0.000259 0.000000
# 2 -0.002937 0.017679 -0.000816 0.000000 0.006492 0.000000
# 3 -0.001663 -0.000816 0.011991 0.000000 0.004021 0.000000
# 4 0.000000 0.000000 0.000000 0.040434 0.000000 0.033254
# 5 0.000259 0.006492 0.004021 0.000000 0.055439 0.000000
# 6 0.000000 0.000000 0.000000 0.033254 0.000000 0.113808
#
#
# Mechanical properties :
#
#
# Convention : Reuss Voigt Hill
#
# Bulk Modulus (GPa) = 33.26606 37.21964 35.24285
# Shear Modulus (GPa) = 18.42135 26.37903 22.40019
#
# Velocity S-wave (km/s) = 3.10694 3.71794 3.42609
# Velocity P-wave (km/s) = 5.50480 6.15910 5.84112
#
# Compressibility (1/GPa) = 0.03006067
#
# Stress axis : x y z
#
# Youngs Moduli (GPa) = 89.11269 56.56361 83.39466
#
# Poissons Ratio (x) = 0.16612 0.13871
# Poissons Ratio (y) = 0.26172 0.06801
# Poissons Ratio (z) = 0.14822 0.04613
#
# Static dielectric constant tensor:
#      x y z
#    x 1.681470 0.000000 -0.019660 
#    y 0.000000 1.718410 0.000000 
#    z -0.019660 0.000000 1.772170 
# 
# From -- ./inp_files/3168.got.cif
#   From: 2010.05.17/outbox.cif.g08.bks.cpg/sg14_2_cif.got.tgz:3168.got - 2010.06.03 17:49:19.
