data_PCOD9240254
_publ_section_title
;
Structure prediction by ZEFSAII (Michael W. Deem and Ramdas Pophale) SiO2 
 PCOD9240254
Probable space group: P 21/C
;
_chemical_formula_sum "Si O2"
_cell_formula_units_Z 32
_cell_length_a 16.326045
_cell_length_b 10.588527
_cell_length_c 14.240140
_cell_angle_alpha 90.000000
_cell_angle_beta 38.297686
_cell_angle_gamma 90.000000
_cell_volume 1525.616811
_symmetry_space_group_name_H-M "P 21/C"
_symmetry_group_IT_number 14
_symmetry_cell_setting 'monoclinic'
loop_
_space_group_symop_operation_xyz
x,y,z
-x,1/2+y,1/2-z
-x,-y,-z
x,1/2-y,1/2+z
loop_
_atom_site_type_symbol
_atom_site_label
_atom_site_fract_x
_atom_site_fract_y
_atom_site_fract_z
Si Si1 0.829585 0.957616 0.410956
Si Si2 0.099207 0.618020 0.589434
Si Si3 0.321042 0.596030 0.095690
Si Si4 0.961230 0.117328 0.447697
Si Si5 0.807314 0.873423 0.040571
Si Si6 0.242823 0.311875 0.606572
Si Si7 0.389362 0.324358 0.126453
Si Si8 0.916433 0.281128 0.187314
O O1 0.720437 0.054149 0.472086
O O2 0.886458 0.005917 0.458493
O O3 0.778282 0.817118 0.436346
O O4 0.956974 0.952356 0.227860
O O5 0.097205 0.752565 0.542173
O O6 0.170717 0.520477 0.455539
O O7 0.124077 0.652134 0.677677
O O8 0.344048 0.461199 0.126135
O O9 0.200007 0.684412 0.234579
O O10 0.458957 0.668058 0.981504
O O11 0.937895 0.124865 0.580007
O O12 0.114367 0.139828 0.279072
O O13 0.705959 0.804904 0.199531
O O14 0.745668 0.900832 0.992680
O O15 0.946324 0.796533 0.918428
O O16 0.356405 0.279213 0.577203
#
# Coordination Sequence:
#
# PCOD9240254 Si02
#       8
#     4   4   4   4   4   4   4   4
#     4  10  18  36  57  82 120 145 188 244 289 336
#     4  11  20  35  58  90 118 145 190 254 286 338
#     4  10  20  42  59  86 118 148 205 249 277 350
#     4  11  20  34  57  90 116 154 186 243 302 337
#     4  12  21  38  60  91 117 157 195 243 294 347
#     4  10  20  36  58  86 122 149 194 244 285 348
#     4  10  23  38  63  84 115 164 196 241 291 339
#     4  12  22  35  62  89 118 155 191 244 299 343
#
# _framework density 20.975123
#
# number of rings (size 3 to 8) (size 9 to 14) (size 15 to 20)
#    0.000    1.250    7.500    0.750    0.000    1.500 
#    4.500    2.500    0.000    0.750    0.000    0.000 
#    0.000    0.000    0.000    0.000    0.000    0.000 
#
# Total GULP energy -178165.883087 kJ/mol
# GULP energy per Si atom -5567.683846 kJ/mol
# Density = 2.092738 g / cm^3
# Si number density = 20.975123 Si / 1000 Ang^3
#
#
#
# Elastic Constant Matrix: (Units=GPa)
#
#
# Indices 1 2 3 4 5 6 
#
# 1 133.5231 22.1345 47.9344 0.0000 -10.2597 0.0000
# 2 22.1345 45.4860 6.8684 0.0000 -2.7914 0.0000
# 3 47.9344 6.8684 51.3280 0.0000 -8.1487 0.0000
# 4 0.0000 0.0000 0.0000 17.9648 0.0000 6.4696
# 5 -10.2597 -2.7914 -8.1487 0.0000 27.1465 0.0000
# 6 0.0000 0.0000 0.0000 6.4696 0.0000 17.0634
#
#
#
# Elastic Compliance Matrix: (Units=1/GPa)
#
#
# Indices 1 2 3 4 5 6 
#
# 1 0.012041 -0.004211 -0.010529 0.000000 0.000957 0.000000
# 2 -0.004211 0.023967 0.000907 0.000000 0.001145 0.000000
# 3 -0.010529 0.000907 0.030007 0.000000 0.005121 0.000000
# 4 0.000000 0.000000 0.000000 0.064467 0.000000 -0.024442
# 5 0.000957 0.001145 0.005121 0.000000 0.038854 0.000000
# 6 0.000000 0.000000 0.000000 -0.024442 0.000000 0.067872
#
#
# Mechanical properties :
#
#
# Convention : Reuss Voigt Hill
#
# Bulk Modulus (GPa) = 26.07612 42.69019 34.38315
# Shear Modulus (GPa) = 18.00778 22.66160 20.33469
#
# Velocity S-wave (km/s) = 2.93325 3.29052 3.11700
# Velocity P-wave (km/s) = 4.89192 5.90200 5.42054
#
# Compressibility (1/GPa) = 0.03834927
#
# Stress axis : x y z
#
# Youngs Moduli (GPa) = 83.05013 41.72378 33.32509
#
# Poissons Ratio (x) = 0.17569 0.35089
# Poissons Ratio (y) = 0.34970 -0.03023
# Poissons Ratio (z) = 0.87447 -0.03784
#
# Static dielectric constant tensor:
#      x y z
#    x 1.816040 0.000000 0.026620 
#    y 0.000000 1.959170 0.000000 
#    z 0.026620 0.000000 1.729420 
# 
# From -- ./inp_files/47133.got.cif
#   From: 2010.05.17/outbox.cif.g08.bks.cpg/sg14_24_cif.got.tgz:47133.got - 2010.06.03 17:49:19.
