data_PCOD9240664
_publ_section_title
;
Structure prediction by ZEFSAII (Michael W. Deem and Ramdas Pophale) SiO2 
 PCOD9240664
Probable space group: P 21/C
;
_chemical_formula_sum "Si O2"
_cell_formula_units_Z 28
_cell_length_a 13.261565
_cell_length_b 15.616304
_cell_length_c 5.496349
_cell_angle_alpha 90.000000
_cell_angle_beta 88.871625
_cell_angle_gamma 90.000000
_cell_volume 1138.054626
_symmetry_space_group_name_H-M "P 21/C"
_symmetry_group_IT_number 14
_symmetry_cell_setting 'monoclinic'
loop_
_space_group_symop_operation_xyz
x,y,z
-x,1/2+y,1/2-z
-x,-y,-z
x,1/2-y,1/2+z
loop_
_atom_site_type_symbol
_atom_site_label
_atom_site_fract_x
_atom_site_fract_y
_atom_site_fract_z
Si Si1 0.226304 0.657806 0.144667
Si Si2 0.626694 0.979537 0.715148
Si Si3 0.854784 0.149498 0.854664
Si Si4 0.583984 0.081418 0.217368
Si Si5 0.770776 0.758557 0.157951
Si Si6 0.923746 0.586041 0.664370
Si Si7 0.145332 0.421984 0.829521
O O1 0.176848 0.612374 0.381414
O O2 0.177170 0.751136 0.125814
O O3 0.343696 0.660230 0.214887
O O4 0.204345 0.616965 0.881981
O O5 0.536215 0.911655 0.762500
O O6 0.737342 0.940618 0.714575
O O7 0.611133 0.017456 0.442694
O O8 0.611677 0.044338 0.947423
O O9 0.972916 0.137979 0.813615
O O10 0.711978 0.752996 0.411646
O O11 0.829208 0.847733 0.150639
O O12 0.855370 0.682493 0.155365
O O13 0.918075 0.544939 0.396739
O O14 0.899131 0.541605 0.919459
#
# Coordination Sequence:
#
# PCOD9240664 Si02
#       7
#     4   4   4   4   4   4   4
#     4  10  21  34  58  85 113 140 195 238 270 328
#     4  10  21  38  64  83 105 152 192 230 294 330
#     4  10  21  33  58  88 108 156 182 220 287 336
#     4  10  21  40  62  84 107 144 199 240 275 339
#     4   8  16  25  44  69 105 133 173 210 252 315
#     4  10  19  31  53  83 113 146 189 211 268 347
#     4  10  19  31  53  82 113 139 182 239 264 327
#
# _framework density 24.603390000000001
#
# number of rings (size 3 to 8) (size 9 to 14) (size 15 to 20)
#    0.000    2.286    0.000    2.571   12.000    0.000 
#    0.000    0.000   18.857   17.143    0.000    0.000 
#    0.000    0.000    0.000    0.000    0.000    0.000 
#
# Total GULP energy -156340.327610 kJ/mol
# GULP energy per Si atom -5583.583129 kJ/mol
# Density = 2.454739 g / cm^3
# Si number density = 24.603390 Si / 1000 Ang^3
#
#
#
# Elastic Constant Matrix: (Units=GPa)
#
#
# Indices 1 2 3 4 5 6 
#
# 1 147.0609 13.2188 40.1134 0.0000 9.0106 0.0000
# 2 13.2188 60.5597 11.5988 0.0000 0.1212 0.0000
# 3 40.1134 11.5988 265.1775 0.0000 2.5385 0.0000
# 4 0.0000 0.0000 0.0000 24.4758 0.0000 13.1495
# 5 9.0106 0.1212 2.5385 0.0000 34.6086 0.0000
# 6 0.0000 0.0000 0.0000 13.1495 0.0000 22.1981
#
#
#
# Elastic Compliance Matrix: (Units=1/GPa)
#
#
# Indices 1 2 3 4 5 6 
#
# 1 0.007318 -0.001397 -0.001028 0.000000 -0.001825 0.000000
# 2 -0.001397 0.016919 -0.000532 0.000000 0.000343 0.000000
# 3 -0.001028 -0.000532 0.003950 0.000000 -0.000020 0.000000
# 4 0.000000 0.000000 0.000000 0.059929 0.000000 -0.035500
# 5 -0.001825 0.000343 -0.000020 0.000000 0.029370 0.000000
# 6 0.000000 0.000000 0.000000 -0.035500 0.000000 0.066078
#
#
# Mechanical properties :
#
#
# Convention : Reuss Voigt Hill
#
# Bulk Modulus (GPa) = 44.89878 66.96225 55.93051
# Shear Modulus (GPa) = 25.39334 43.44764 34.42049
#
# Velocity S-wave (km/s) = 3.21613 4.20685 3.74440
# Velocity P-wave (km/s) = 5.66392 7.13250 6.44020
#
# Compressibility (1/GPa) = 0.02227232
#
# Stress axis : x y z
#
# Youngs Moduli (GPa) = 136.65356 59.10621 253.15890
#
# Poissons Ratio (x) = 0.08255 0.26035
# Poissons Ratio (y) = 0.19086 0.13469
# Poissons Ratio (z) = 0.14053 0.03145
#
# Static dielectric constant tensor:
#      x y z
#    x 1.891000 0.000000 -0.006930 
#    y 0.000000 2.087910 0.000000 
#    z -0.006930 0.000000 2.119330 
# 
# From -- ./inp_files/2884.got.cif
#   From: 2010.05.17/outbox.cif.g08.bks.cpg/sg14_2_cif.got.tgz:2884.got - 2010.06.03 17:49:19.
