data_PCOD9240489
_publ_section_title
;
Structure prediction by ZEFSAII (Michael W. Deem and Ramdas Pophale) SiO2 
 PCOD9240489
Probable space group: P 21/C
;
_chemical_formula_sum "Si O2"
_cell_formula_units_Z 28
_cell_length_a 12.302654
_cell_length_b 14.611012
_cell_length_c 11.233477
_cell_angle_alpha 90.000000
_cell_angle_beta 143.061614
_cell_angle_gamma 90.000000
_cell_volume 1213.489085
_symmetry_space_group_name_H-M "P 21/C"
_symmetry_group_IT_number 14
_symmetry_cell_setting 'monoclinic'
loop_
_space_group_symop_operation_xyz
x,y,z
-x,1/2+y,1/2-z
-x,-y,-z
x,1/2-y,1/2+z
loop_
_atom_site_type_symbol
_atom_site_label
_atom_site_fract_x
_atom_site_fract_y
_atom_site_fract_z
Si Si1 0.924794 0.500109 0.301093
Si Si2 0.188417 0.386715 0.188955
Si Si3 0.284450 0.033840 0.020974
Si Si4 0.778319 0.095878 0.349316
Si Si5 0.556272 0.144820 0.921226
Si Si6 0.304051 0.830283 0.474298
Si Si7 0.614417 0.909340 0.629177
O O1 0.850593 0.396983 0.213101
O O2 0.774210 0.580324 0.173754
O O3 0.000000 0.500000 0.500000
O O4 0.087268 0.515136 0.353363
O O5 0.267316 0.401630 0.391537
O O6 0.187985 0.487549 0.129715
O O7 0.343433 0.332657 0.252444
O O8 0.978253 0.357280 0.014655
O O9 0.310362 0.083019 0.169961
O O10 0.424858 0.950859 0.132352
O O11 0.650333 0.121861 0.129023
O O12 0.675958 0.120714 0.380808
O O13 0.684799 0.224074 0.982237
O O14 0.460144 0.834156 0.509079
O O15 0.500000 0.000000 0.500000
#
# Coordination Sequence:
#
# PCOD9240489 Si02
#       7
#     4   4   4   4   4   4   4
#     4   9  19  36  59  83 114 163 204 237 295 375
#     4  10  20  40  66  89 115 161 221 250 298 375
#     4  10  18  39  62  83 115 164 208 245 297 363
#     4  10  21  40  66  86 121 166 210 253 300 381
#     4  11  24  38  59  97 124 153 201 269 313 355
#     4  11  21  39  57  89 126 154 197 261 318 351
#     4   9  19  34  58  85 116 162 203 237 290 379
#
# _framework density 23.073961000000001
#
# number of rings (size 3 to 8) (size 9 to 14) (size 15 to 20)
#    0.000    2.000    1.429    3.429    0.000    3.429 
#    7.714    0.000    0.000    0.000    0.000    0.000 
#    0.000    0.000    0.000    0.000    0.000    0.000 
#
# Total GULP energy -155914.050606 kJ/mol
# GULP energy per Si atom -5568.358950 kJ/mol
# Density = 2.302144 g / cm^3
# Si number density = 23.073961 Si / 1000 Ang^3
#
#
#
# Elastic Constant Matrix: (Units=GPa)
#
#
# Indices 1 2 3 4 5 6 
#
# 1 77.1056 -0.0376 6.0930 0.0000 30.5791 0.0000
# 2 -0.0376 38.9261 2.9804 0.0000 -0.0754 0.0000
# 3 6.0930 2.9804 38.5846 0.0000 9.3158 0.0000
# 4 0.0000 0.0000 0.0000 9.3285 0.0000 8.3650
# 5 30.5791 -0.0754 9.3158 0.0000 49.3656 0.0000
# 6 0.0000 0.0000 0.0000 8.3650 0.0000 18.3908
#
#
#
# Elastic Compliance Matrix: (Units=1/GPa)
#
#
# Indices 1 2 3 4 5 6 
#
# 1 0.017194 0.000008 -0.000151 0.000000 -0.010622 0.000000
# 2 0.000008 0.025852 -0.002102 0.000000 0.000432 0.000000
# 3 -0.000151 -0.002102 0.027327 0.000000 -0.005066 0.000000
# 4 0.000000 0.000000 0.000000 0.181038 0.000000 -0.082345
# 5 -0.010622 0.000432 -0.005066 0.000000 0.027793 0.000000
# 6 0.000000 0.000000 0.000000 -0.082345 0.000000 0.091829
#
#
# Mechanical properties :
#
#
# Convention : Reuss Voigt Hill
#
# Bulk Modulus (GPa) = 15.17907 19.18755 17.18331
# Shear Modulus (GPa) = 12.57913 25.12235 18.85074
#
# Velocity S-wave (km/s) = 2.33741 3.30324 2.86137
# Velocity P-wave (km/s) = 3.72524 4.78354 4.28717
#
# Compressibility (1/GPa) = 0.06588019
#
# Stress axis : x y z
#
# Youngs Moduli (GPa) = 58.16080 38.68247 36.59442
#
# Poissons Ratio (x) = -0.00029 0.00553
# Poissons Ratio (y) = -0.00044 0.07693
# Poissons Ratio (z) = 0.00879 0.08132
#
# Static dielectric constant tensor:
#      x y z
#    x 1.921930 0.000000 0.099780 
#    y 0.000000 1.921630 0.000000 
#    z 0.099780 0.000000 1.923030 
# 
# From -- ./inp_files/30333.got.cif
#   From: 2010.05.17/outbox.cif.g08.bks.cpg/sg14_16_cif.got.tgz:30333.got - 2010.06.03 17:49:19.
