data_PCOD9240830
_publ_section_title
;
Structure prediction by ZEFSAII (Michael W. Deem and Ramdas Pophale) SiO2 
 PCOD9240830
Probable space group: P 21/C
;
_chemical_formula_sum "Si O2"
_cell_formula_units_Z 24
_cell_length_a 6.511737
_cell_length_b 26.794725
_cell_length_c 7.775566
_cell_angle_alpha 90.000000
_cell_angle_beta 41.186680
_cell_angle_gamma 90.000000
_cell_volume 893.395015
_symmetry_space_group_name_H-M "P 21/C"
_symmetry_group_IT_number 14
_symmetry_cell_setting 'monoclinic'
loop_
_space_group_symop_operation_xyz
x,y,z
-x,1/2+y,1/2-z
-x,-y,-z
x,1/2-y,1/2+z
loop_
_atom_site_type_symbol
_atom_site_label
_atom_site_fract_x
_atom_site_fract_y
_atom_site_fract_z
Si Si1 0.315610 0.050749 0.575479
Si Si2 0.580907 0.051006 0.041806
Si Si3 0.141889 0.197202 0.857701
Si Si4 0.856980 0.301553 0.160169
Si Si5 0.647005 0.348022 0.860071
Si Si6 0.355870 0.153884 0.155786
O O1 0.347786 0.053543 0.349958
O O2 0.510847 0.099317 0.511036
O O3 0.500000 0.000000 0.500000
O O4 0.950404 0.051504 0.856753
O O5 0.491001 0.101737 0.000989
O O6 0.500000 0.000000 0.000000
O O7 0.504206 0.193681 0.577619
O O8 0.000326 0.186601 0.757736
O O9 0.999644 0.249277 0.009747
O O10 0.006703 0.156795 0.078377
O O11 0.494697 0.303881 0.441489
O O12 0.996613 0.341262 0.936249
O O13 0.504239 0.340234 0.755832
#
# Coordination Sequence:
#
# PCOD9240830 Si02
#       6
#     4   4   4   4   4   4
#     4  11  22  39  62  88 116 153 196 241 290 348
#     4  11  22  39  62  88 116 153 196 241 290 348
#     4  10  19  33  53  77 106 144 186 229 275 332
#     4  10  19  33  53  77 106 144 186 229 275 332
#     4   9  18  34  55  77 108 149 187 222 278 350
#     4   9  18  34  55  77 108 149 187 222 278 350
#
# _framework density 26.863818999999999
#
# number of rings (size 3 to 8) (size 9 to 14) (size 15 to 20)
#    0.000    2.000    0.000    7.000    0.000    0.000 
#    0.000    5.000    0.000    0.000    0.000    0.000 
#    0.000    0.000    0.000    0.000    0.000    0.000 
#
# Total GULP energy -134154.504053 kJ/mol
# GULP energy per Si atom -5589.771002 kJ/mol
# Density = 2.680268 g / cm^3
# Si number density = 26.863819 Si / 1000 Ang^3
#
#
#
# Elastic Constant Matrix: (Units=GPa)
#
#
# Indices 1 2 3 4 5 6 
#
# 1 58.9599 7.4459 35.3659 0.0000 -30.4252 0.0000
# 2 7.4459 178.1572 73.3346 0.0000 -7.4219 0.0000
# 3 35.3659 73.3346 195.6088 0.0000 -15.0872 0.0000
# 4 0.0000 0.0000 0.0000 49.1120 0.0000 2.5497
# 5 -30.4252 -7.4219 -15.0872 0.0000 62.5571 0.0000
# 6 0.0000 0.0000 0.0000 2.5497 0.0000 40.8800
#
#
#
# Elastic Compliance Matrix: (Units=1/GPa)
#
#
# Indices 1 2 3 4 5 6 
#
# 1 0.025138 0.001103 -0.004081 0.000000 0.011373 0.000000
# 2 0.001103 0.006688 -0.002654 0.000000 0.000690 0.000000
# 3 -0.004081 -0.002654 0.006794 0.000000 -0.000661 0.000000
# 4 0.000000 0.000000 0.000000 0.020428 0.000000 -0.001274
# 5 0.011373 0.000690 -0.000661 0.000000 0.021439 0.000000
# 6 0.000000 0.000000 0.000000 -0.001274 0.000000 0.024541
#
#
# Mechanical properties :
#
#
# Convention : Reuss Voigt Hill
#
# Bulk Modulus (GPa) = 36.55426 73.89095 55.22260
# Shear Modulus (GPa) = 39.86903 51.61512 45.74207
#
# Velocity S-wave (km/s) = 3.85660 4.38809 4.13090
# Velocity P-wave (km/s) = 5.78515 7.29652 6.58434
#
# Compressibility (1/GPa) = 0.02735659
#
# Stress axis : x y z
#
# Youngs Moduli (GPa) = 39.78007 149.52272 147.18911
#
# Poissons Ratio (x) = -0.16495 0.60073
# Poissons Ratio (y) = -0.04388 0.39058
# Poissons Ratio (z) = 0.16236 0.39677
#
# Static dielectric constant tensor:
#      x y z
#    x 2.441410 0.000000 -0.041420 
#    y 0.000000 2.178040 0.000000 
#    z -0.041420 0.000000 2.066490 
# 
# From -- ./inp_files/11301.got.cif
#   From: 2010.05.17/outbox.cif.g08.bks.cpg/sg14_6_cif.got.tgz:11301.got - 2010.06.03 17:49:19.
