data_PCOD9240170
_publ_section_title
;
Structure prediction by ZEFSAII (Michael W. Deem and Ramdas Pophale) SiO2 
 PCOD9240170
Probable space group: P 21/C
;
_chemical_formula_sum "Si O2"
_cell_formula_units_Z 28
_cell_length_a 17.481264
_cell_length_b 7.883935
_cell_length_c 16.625543
_cell_angle_alpha 90.000000
_cell_angle_beta 27.663473
_cell_angle_gamma 90.000000
_cell_volume 1063.822915
_symmetry_space_group_name_H-M "P 21/C"
_symmetry_group_IT_number 14
_symmetry_cell_setting 'monoclinic'
loop_
_space_group_symop_operation_xyz
x,y,z
-x,1/2+y,1/2-z
-x,-y,-z
x,1/2-y,1/2+z
loop_
_atom_site_type_symbol
_atom_site_label
_atom_site_fract_x
_atom_site_fract_y
_atom_site_fract_z
Si Si1 0.609610 0.166768 0.982408
Si Si2 0.265141 0.323029 0.892360
Si Si3 0.561719 0.826881 0.484121
Si Si4 0.043318 0.742519 0.622443
Si Si5 0.736684 0.504544 0.947272
Si Si6 0.070754 0.306789 0.431433
Si Si7 0.789607 0.974467 0.938478
O O1 0.429342 0.165240 0.188634
O O2 0.571144 0.190465 0.923817
O O3 0.707076 0.329566 0.927694
O O4 0.699910 0.007777 0.937397
O O5 0.104131 0.282529 0.986867
O O6 0.262891 0.479998 0.956614
O O7 0.285660 0.159379 0.930357
O O8 0.588810 0.873972 0.551340
O O9 0.744059 0.800791 0.277286
O O10 0.500000 0.000000 0.500000
O O11 0.902667 0.594057 0.761114
O O12 0.047888 0.783034 0.523616
O O13 0.190927 0.647195 0.529173
O O14 0.959856 0.888410 0.752272
O O15 0.000000 0.500000 0.500000
#
# Coordination Sequence:
#
# PCOD9240170 Si02
#       7
#     4   4   4   4   4   4   4
#     4  10  19  34  56  84 116 154 199 248 297 356
#     4  10  20  34  57  86 116 154 199 248 304 351
#     4   8  17  33  55  81 111 154 201 237 293 365
#     4  10  21  36  58  86 113 160 201 245 304 355
#     4   9  18  35  54  79 116 150 197 243 294 362
#     4  10  18  35  59  85 117 156 203 243 302 366
#     4  11  21  36  59  86 119 155 201 249 293 364
#
# _framework density 26.320170999999998
#
# number of rings (size 3 to 8) (size 9 to 14) (size 15 to 20)
#    0.000    2.286    1.429    1.714    0.000    0.000 
#    0.000   12.857    0.000    9.429    0.000    0.000 
#    0.000    0.000    0.000    0.000    0.000    0.000 
#
# Total GULP energy -156341.861851 kJ/mol
# GULP energy per Si atom -5583.637923 kJ/mol
# Density = 2.626026 g / cm^3
# Si number density = 26.320171 Si / 1000 Ang^3
#
#
#
# Elastic Constant Matrix: (Units=GPa)
#
#
# Indices 1 2 3 4 5 6 
#
# 1 127.7778 29.3437 3.9442 0.0000 8.4955 0.0000
# 2 29.3437 94.4460 6.0697 0.0000 -4.2350 0.0000
# 3 3.9442 6.0697 49.3465 0.0000 -5.5330 0.0000
# 4 0.0000 0.0000 0.0000 20.4188 0.0000 -6.1687
# 5 8.4955 -4.2350 -5.5330 0.0000 20.5620 0.0000
# 6 0.0000 0.0000 0.0000 -6.1687 0.0000 36.7832
#
#
#
# Elastic Compliance Matrix: (Units=1/GPa)
#
#
# Indices 1 2 3 4 5 6 
#
# 1 0.008811 -0.002883 -0.000850 0.000000 -0.004463 0.000000
# 2 -0.002883 0.011688 -0.000829 0.000000 0.003376 0.000000
# 3 -0.000850 -0.000829 0.021091 0.000000 0.005856 0.000000
# 4 0.000000 0.000000 0.000000 0.051588 0.000000 0.008652
# 5 -0.004463 0.003376 0.005856 0.000000 0.052748 0.000000
# 6 0.000000 0.000000 0.000000 0.008652 0.000000 0.028637
#
#
# Mechanical properties :
#
#
# Convention : Reuss Voigt Hill
#
# Bulk Modulus (GPa) = 30.80035 38.92061 34.86048
# Shear Modulus (GPa) = 25.70549 31.03363 28.36956
#
# Velocity S-wave (km/s) = 3.12852 3.43750 3.28665
# Velocity P-wave (km/s) = 4.97773 5.52944 5.26082
#
# Compressibility (1/GPa) = 0.03246716
#
# Stress axis : x y z
#
# Youngs Moduli (GPa) = 113.49273 85.55473 47.41277
#
# Poissons Ratio (x) = 0.24666 0.04030
# Poissons Ratio (y) = 0.32721 0.03929
# Poissons Ratio (z) = 0.09648 0.07090
#
# Static dielectric constant tensor:
#      x y z
#    x 2.245700 0.000000 0.001260 
#    y 0.000000 2.211400 0.000000 
#    z 0.001260 0.000000 2.031910 
# 
# From -- ./inp_files/60316.got.cif
#   From: 2010.05.17/outbox.cif.g08.bks.cpg/sg14_31_cif.got.tgz:60316.got - 2010.06.03 17:49:19.
