data_PCOD9240796
_publ_section_title
;
Structure prediction by ZEFSAII (Michael W. Deem and Ramdas Pophale) SiO2 
 PCOD9240796
Probable space group: P 21/C
;
_chemical_formula_sum "Si O2"
_cell_formula_units_Z 32
_cell_length_a 5.519521
_cell_length_b 13.572446
_cell_length_c 22.942602
_cell_angle_alpha 90.000000
_cell_angle_beta 67.383433
_cell_angle_gamma 90.000000
_cell_volume 1586.538050
_symmetry_space_group_name_H-M "P 21/C"
_symmetry_group_IT_number 14
_symmetry_cell_setting 'monoclinic'
loop_
_space_group_symop_operation_xyz
x,y,z
-x,1/2+y,1/2-z
-x,-y,-z
x,1/2-y,1/2+z
loop_
_atom_site_type_symbol
_atom_site_label
_atom_site_fract_x
_atom_site_fract_y
_atom_site_fract_z
Si Si1 0.794714 0.731464 0.805736
Si Si2 0.296232 0.419922 0.090128
Si Si3 0.113670 0.083988 0.352892
Si Si4 0.717544 0.256455 0.862510
Si Si5 0.543510 0.479788 0.260642
Si Si6 0.680543 0.600959 0.043037
Si Si7 0.634744 0.249244 0.737364
Si Si8 0.970909 0.070539 0.807532
O O1 0.670400 0.673420 0.871650
O O2 0.572129 0.788804 0.790446
O O3 0.911808 0.648335 0.750739
O O4 0.065960 0.783216 0.799941
O O5 0.544064 0.493369 0.062016
O O6 0.073491 0.489870 0.137823
O O7 0.216971 0.391028 0.031767
O O8 0.387512 0.051804 0.299060
O O9 0.124761 0.106191 0.420528
O O10 0.974983 0.175282 0.335002
O O11 0.531630 0.312901 0.924899
O O12 0.578314 0.258171 0.811931
O O13 0.814200 0.145209 0.864866
O O14 0.609076 0.369270 0.231355
O O15 0.235731 0.481210 0.305246
O O16 0.752449 0.492768 0.293779
#
# Coordination Sequence:
#
# PCOD9240796 Si02
#       8
#     4   4   4   4   4   4   4   4
#     4   9  16  29  50  61  80 118 168 207 233 275
#     4  10  19  33  41  69  93 138 183 203 227 287
#     4  11  19  30  46  70  98 136 174 208 242 295
#     4   9  21  30  44  70  95 129 165 209 261 294
#     4   9  17  28  48  63  85 120 168 196 240 290
#     4  10  21  29  45  61 104 138 170 203 244 279
#     4   9  17  30  48  64  84 118 164 207 253 286
#     4   9  17  31  46  65  84 121 164 206 251 290
#
# _framework density 20.169703999999999
#
# number of rings (size 3 to 8) (size 9 to 14) (size 15 to 20)
#    0.000    2.750    2.500    1.875    8.750    0.000 
#    0.000    0.000    0.000    0.000    0.000    0.000 
#    0.000    0.000    0.000   37.125    1.000   29.125 
#
# Total GULP energy -178369.727792 kJ/mol
# GULP energy per Si atom -5574.053994 kJ/mol
# Density = 2.012380 g / cm^3
# Si number density = 20.169704 Si / 1000 Ang^3
#
#
#
# Elastic Constant Matrix: (Units=GPa)
#
#
# Indices 1 2 3 4 5 6 
#
# 1 133.9417 14.7521 9.1906 0.0000 24.6683 0.0000
# 2 14.7521 32.6117 22.4934 0.0000 7.5746 0.0000
# 3 9.1906 22.4934 57.3120 0.0000 12.9589 0.0000
# 4 0.0000 0.0000 0.0000 25.7702 0.0000 3.8558
# 5 24.6683 7.5746 12.9589 0.0000 22.6385 0.0000
# 6 0.0000 0.0000 0.0000 3.8558 0.0000 13.6984
#
#
#
# Elastic Compliance Matrix: (Units=1/GPa)
#
#
# Indices 1 2 3 4 5 6 
#
# 1 0.009648 -0.003409 0.002194 0.000000 -0.010629 0.000000
# 2 -0.003409 0.043813 -0.016281 0.000000 -0.001625 0.000000
# 3 0.002194 -0.016281 0.026184 0.000000 -0.011932 0.000000
# 4 0.000000 0.000000 0.000000 0.040511 0.000000 -0.011403
# 5 -0.010629 -0.001625 -0.011932 0.000000 0.063128 0.000000
# 6 0.000000 0.000000 0.000000 -0.011403 0.000000 0.076211
#
#
# Mechanical properties :
#
#
# Convention : Reuss Voigt Hill
#
# Bulk Modulus (GPa) = 22.39485 35.19307 28.79396
# Shear Modulus (GPa) = 16.16172 24.25003 20.20587
#
# Velocity S-wave (km/s) = 2.83377 3.47118 3.16855
# Velocity P-wave (km/s) = 4.67272 5.79239 5.26242
#
# Compressibility (1/GPa) = 0.04465312
#
# Stress axis : x y z
#
# Youngs Moduli (GPa) = 103.64438 22.82418 38.19058
#
# Poissons Ratio (x) = 0.07781 -0.08379
# Poissons Ratio (y) = 0.35333 0.62180
# Poissons Ratio (z) = -0.22740 0.37161
#
# Static dielectric constant tensor:
#      x y z
#    x 1.849730 0.000000 0.002750 
#    y 0.000000 1.761800 0.000000 
#    z 0.002750 0.000000 1.693560 
# 
# From -- ./inp_files/53618.got.cif
#   From: 2010.05.17/outbox.cif.g08.bks.cpg/sg14_27_cif.got.tgz:53618.got - 2010.06.03 17:49:19.
