data_PCOD9240933
_publ_section_title
;
Structure prediction by ZEFSAII (Michael W. Deem and Ramdas Pophale) SiO2 
 PCOD9240933
Probable space group: P 21/C
;
_chemical_formula_sum "Si O2"
_cell_formula_units_Z 16
_cell_length_a 11.721135
_cell_length_b 15.135755
_cell_length_c 5.026069
_cell_angle_alpha 90.000000
_cell_angle_beta 112.104131
_cell_angle_gamma 90.000000
_cell_volume 826.129883
_symmetry_space_group_name_H-M "P 21/C"
_symmetry_group_IT_number 14
_symmetry_cell_setting 'monoclinic'
loop_
_space_group_symop_operation_xyz
x,y,z
-x,1/2+y,1/2-z
-x,-y,-z
x,1/2-y,1/2+z
loop_
_atom_site_type_symbol
_atom_site_label
_atom_site_fract_x
_atom_site_fract_y
_atom_site_fract_z
Si Si1 0.019171 0.418899 0.726766
Si Si2 0.355498 0.491974 0.833228
Si Si3 0.227384 0.307054 0.705540
Si Si4 0.792703 0.036308 0.312846
O O1 0.088146 0.341519 0.632187
O O2 0.000000 0.500000 0.500000
O O3 0.891846 0.398259 0.764575
O O4 0.116725 0.454306 0.032442
O O5 0.312994 0.391001 0.842009
O O6 0.307330 0.514319 0.497536
O O7 0.500000 0.500000 0.000000
O O8 0.279804 0.552306 0.977632
O O9 0.248968 0.271436 0.431084
#
# Coordination Sequence:
#
# PCOD9240933 Si02
#       4
#     4   4   4   4
#     4  10  19  35  61  85 122 149 189 238 298 358
#     4  11  22  38  59  86 117 163 206 236 280 354
#     4  11  23  36  58  91 120 145 192 256 306 335
#     4  10  19  33  59  87 109 148 205 236 274 343
#
# _framework density 19.367415000000001
#
# number of rings (size 3 to 8) (size 9 to 14) (size 15 to 20)
#    0.000    1.500    5.000    3.750    3.500    0.000 
#    0.000    0.000    0.000    9.000    0.000    0.000 
#    0.000    0.000    0.000    0.000    0.000    0.000 
#
# Total GULP energy -89207.523710 kJ/mol
# GULP energy per Si atom -5575.470232 kJ/mol
# Density = 1.932333 g / cm^3
# Si number density = 19.367415 Si / 1000 Ang^3
#
#
#
# Elastic Constant Matrix: (Units=GPa)
#
#
# Indices 1 2 3 4 5 6 
#
# 1 64.5929 6.3263 15.3810 0.0000 10.0754 0.0000
# 2 6.3263 32.8254 1.8126 0.0000 4.3520 0.0000
# 3 15.3810 1.8126 118.4330 0.0000 4.3672 0.0000
# 4 0.0000 0.0000 0.0000 10.6505 0.0000 2.6293
# 5 10.0754 4.3520 4.3672 0.0000 38.7437 0.0000
# 6 0.0000 0.0000 0.0000 2.6293 0.0000 25.9677
#
#
#
# Elastic Compliance Matrix: (Units=1/GPa)
#
#
# Indices 1 2 3 4 5 6 
#
# 1 0.016816 -0.002619 -0.002002 0.000000 -0.003853 0.000000
# 2 -0.002619 0.031347 -0.000035 0.000000 -0.002836 0.000000
# 3 -0.002002 -0.000035 0.008721 0.000000 -0.000459 0.000000
# 4 0.000000 0.000000 0.000000 0.096299 0.000000 -0.009751
# 5 -0.003853 -0.002836 -0.000459 0.000000 0.027183 0.000000
# 6 0.000000 0.000000 0.000000 -0.009751 0.000000 0.039497
#
#
# Mechanical properties :
#
#
# Convention : Reuss Voigt Hill
#
# Bulk Modulus (GPa) = 21.02101 29.21012 25.11556
# Shear Modulus (GPa) = 20.40550 27.89448 24.14999
#
# Velocity S-wave (km/s) = 3.24944 3.79922 3.53503
# Velocity P-wave (km/s) = 4.99558 5.86176 5.44592
#
# Compressibility (1/GPa) = 0.04757145
#
# Stress axis : x y z
#
# Youngs Moduli (GPa) = 59.46787 31.90099 114.66571
#
# Poissons Ratio (x) = 0.08356 0.22953
# Poissons Ratio (y) = 0.15578 0.00401
# Poissons Ratio (z) = 0.11904 0.00112
#
# Static dielectric constant tensor:
#      x y z
#    x 1.720650 0.000000 -0.030550 
#    y 0.000000 1.697640 0.000000 
#    z -0.030550 0.000000 1.698600 
# 
# From -- ./inp_files/2434.got.cif
#   From: 2010.05.17/outbox.cif.g08.bks.cpg/sg14_2_cif.got.tgz:2434.got - 2010.06.03 17:49:19.
