data_PCOD9240543
_publ_section_title
;
Structure prediction by ZEFSAII (Michael W. Deem and Ramdas Pophale) SiO2 
 PCOD9240543
Probable space group: P 21/C
;
_chemical_formula_sum "Si O2"
_cell_formula_units_Z 28
_cell_length_a 9.300479
_cell_length_b 8.021468
_cell_length_c 20.908506
_cell_angle_alpha 90.000000
_cell_angle_beta 57.268561
_cell_angle_gamma 90.000000
_cell_volume 1312.165992
_symmetry_space_group_name_H-M "P 21/C"
_symmetry_group_IT_number 14
_symmetry_cell_setting 'monoclinic'
loop_
_space_group_symop_operation_xyz
x,y,z
-x,1/2+y,1/2-z
-x,-y,-z
x,1/2-y,1/2+z
loop_
_atom_site_type_symbol
_atom_site_label
_atom_site_fract_x
_atom_site_fract_y
_atom_site_fract_z
Si Si1 0.012168 0.968310 0.839709
Si Si2 0.300099 0.987850 0.537593
Si Si3 0.823092 0.357852 0.495681
Si Si4 0.024224 0.092615 0.697945
Si Si5 0.129648 0.342999 0.966705
Si Si6 0.345387 0.618255 0.336278
Si Si7 0.700689 0.997190 0.692738
O O1 0.974056 0.783107 0.824624
O O2 0.197520 0.963617 0.828592
O O3 0.874150 0.028771 0.924097
O O4 0.014696 0.081134 0.776127
O O5 0.252088 0.813803 0.515247
O O6 0.500000 0.000000 0.500000
O O7 0.191432 0.004583 0.628563
O O8 0.236906 0.135041 0.505125
O O9 0.694523 0.423253 0.580376
O O10 0.000665 0.309617 0.489428
O O11 0.859366 0.010963 0.703264
O O12 0.246614 0.371418 0.876662
O O13 0.000000 0.500000 0.000000
O O14 0.325804 0.818615 0.331468
O O15 0.529676 0.560008 0.268806
#
# Coordination Sequence:
#
# PCOD9240543 Si02
#       7
#     4   4   4   4   4   4   4
#     4  11  26  44  69  96 135 178 225 279 344 404
#     4  11  23  40  72  99 133 175 222 272 339 407
#     4  11  22  47  69  99 133 181 226 281 333 400
#     4  11  24  46  63  98 136 176 221 280 349 400
#     4  10  18  41  72  89 132 177 221 261 335 391
#     4  11  25  42  68 102 131 173 236 271 333 403
#     4  11  23  42  66  99 133 177 220 280 329 402
#
# _framework density 21.338761999999999
#
# number of rings (size 3 to 8) (size 9 to 14) (size 15 to 20)
#    0.000    1.143    5.714    2.143    4.000    1.143 
#    0.000    1.429    0.000    0.000    0.000    0.000 
#    0.000    0.000    0.000    0.000    0.000    0.000 
#
# Total GULP energy -156747.069972 kJ/mol
# GULP energy per Si atom -5598.109642 kJ/mol
# Density = 2.129019 g / cm^3
# Si number density = 21.338762 Si / 1000 Ang^3
#
#
#
# Elastic Constant Matrix: (Units=GPa)
#
#
# Indices 1 2 3 4 5 6 
#
# 1 82.2530 34.9069 59.9723 0.0000 -8.2988 0.0000
# 2 34.9069 52.6726 38.3954 0.0000 1.8177 0.0000
# 3 59.9723 38.3954 217.2411 0.0000 -1.5070 0.0000
# 4 0.0000 0.0000 0.0000 43.1144 0.0000 4.0445
# 5 -8.2988 1.8177 -1.5070 0.0000 42.0598 0.0000
# 6 0.0000 0.0000 0.0000 4.0445 0.0000 26.6766
#
#
#
# Elastic Compliance Matrix: (Units=1/GPa)
#
#
# Indices 1 2 3 4 5 6 
#
# 1 0.019648 -0.010599 -0.003522 0.000000 0.004209 0.000000
# 2 -0.010599 0.027560 -0.001968 0.000000 -0.003353 0.000000
# 3 -0.003522 -0.001968 0.005920 0.000000 -0.000398 0.000000
# 4 0.000000 0.000000 0.000000 0.023529 0.000000 -0.003567
# 5 0.004209 -0.003353 -0.000398 0.000000 0.024737 0.000000
# 6 0.000000 0.000000 0.000000 -0.003567 0.000000 0.038027
#
#
# Mechanical properties :
#
#
# Convention : Reuss Voigt Hill
#
# Bulk Modulus (GPa) = 47.73180 68.74621 58.23901
# Shear Modulus (GPa) = 27.99832 36.96296 32.48064
#
# Velocity S-wave (km/s) = 3.62620 4.16648 3.90570
# Velocity P-wave (km/s) = 6.32057 7.44531 6.90588
#
# Compressibility (1/GPa) = 0.02095039
#
# Stress axis : x y z
#
# Youngs Moduli (GPa) = 50.89569 36.28467 168.90587
#
# Poissons Ratio (x) = 0.38459 0.59482
# Poissons Ratio (y) = 0.53945 0.33243
# Poissons Ratio (z) = 0.17923 0.07141
#
# Static dielectric constant tensor:
#      x y z
#    x 1.744260 0.000000 0.027940 
#    y 0.000000 1.747470 0.000000 
#    z 0.027940 0.000000 1.750860 
# 
# From -- ./inp_files/64950.got.cif
#   From: 2010.05.17/outbox.cif.g08.bks.cpg/sg14_33_cif.got.tgz:64950.got - 2010.06.03 17:49:19.
