data_PCOD9240698
_publ_section_title
;
Structure prediction by ZEFSAII (Michael W. Deem and Ramdas Pophale) SiO2 
 PCOD9240698
Probable space group: P 21/C
;
_chemical_formula_sum "Si O2"
_cell_formula_units_Z 24
_cell_length_a 20.988215
_cell_length_b 12.924109
_cell_length_c 18.955789
_cell_angle_alpha 90.000000
_cell_angle_beta 13.453693
_cell_angle_gamma 90.000000
_cell_volume 1196.295869
_symmetry_space_group_name_H-M "P 21/C"
_symmetry_group_IT_number 14
_symmetry_cell_setting 'monoclinic'
loop_
_space_group_symop_operation_xyz
x,y,z
-x,1/2+y,1/2-z
-x,-y,-z
x,1/2-y,1/2+z
loop_
_atom_site_type_symbol
_atom_site_label
_atom_site_fract_x
_atom_site_fract_y
_atom_site_fract_z
Si Si1 0.288368 0.889472 0.693081
Si Si2 0.827573 0.074370 0.403331
Si Si3 0.859021 0.701821 0.543446
Si Si4 0.537338 0.217676 0.241974
Si Si5 0.220618 0.420658 0.173419
Si Si6 0.884816 0.875062 0.414970
O O1 0.570353 0.828876 0.387092
O O2 0.324218 0.006819 0.625334
O O3 0.093756 0.832198 0.844916
O O4 0.096549 0.897362 0.968267
O O5 0.740923 0.994135 0.435702
O O6 0.879097 0.998848 0.413646
O O7 0.606667 0.161945 0.658641
O O8 0.079385 0.135003 0.094544
O O9 0.876082 0.820261 0.500284
O O10 0.376187 0.183485 0.485538
O O11 0.361558 0.176690 0.364734
O O12 0.829206 0.160341 0.927645
#
# Coordination Sequence:
#
# PCOD9240698 Si02
#       6
#     4   4   4   4   4   4
#     4  10  20  32  51  73 103 133 164 207 244 305
#     4   9  19  33  53  77 103 130 168 214 256 300
#     4  10  19  33  49  74 101 130 166 202 254 298
#     4  10  20  33  51  75 104 132 166 211 254 301
#     4   9  19  33  51  76 101 131 167 204 257 296
#     4  10  19  32  51  73 102 133 165 209 255 301
#
# _framework density 20.061928000000002
#
# number of rings (size 3 to 8) (size 9 to 14) (size 15 to 20)
#    0.000    2.333    0.000    4.000    0.000   12.667 
#    0.000    0.000    0.000    2.000    0.000    0.000 
#    0.000    0.000    0.000    0.000    0.000    0.000 
#
# Total GULP energy -133914.460730 kJ/mol
# GULP energy per Si atom -5579.769197 kJ/mol
# Density = 2.001627 g / cm^3
# Si number density = 20.061928 Si / 1000 Ang^3
#
#
#
# Elastic Constant Matrix: (Units=GPa)
#
#
# Indices 1 2 3 4 5 6 
#
# 1 39.2367 25.7977 21.1226 0.0000 7.6394 0.0000
# 2 25.7977 91.1598 44.7188 0.0000 16.0773 0.0000
# 3 21.1226 44.7188 111.6453 0.0000 14.9387 0.0000
# 4 0.0000 0.0000 0.0000 36.0567 0.0000 10.4626
# 5 7.6394 16.0773 14.9387 0.0000 30.5910 0.0000
# 6 0.0000 0.0000 0.0000 10.4626 0.0000 31.5687
#
#
#
# Elastic Compliance Matrix: (Units=1/GPa)
#
#
# Indices 1 2 3 4 5 6 
#
# 1 0.032341 -0.007258 -0.002826 0.000000 -0.002882 0.000000
# 2 -0.007258 0.015979 -0.004436 0.000000 -0.004419 0.000000
# 3 -0.002826 -0.004436 0.011621 0.000000 -0.002638 0.000000
# 4 0.000000 0.000000 0.000000 0.030685 0.000000 -0.010170
# 5 -0.002882 -0.004419 -0.002638 0.000000 0.037020 0.000000
# 6 0.000000 0.000000 0.000000 -0.010170 0.000000 0.035047
#
#
# Mechanical properties :
#
#
# Convention : Reuss Voigt Hill
#
# Bulk Modulus (GPa) = 32.36035 47.25777 39.80906
# Shear Modulus (GPa) = 24.74839 29.67011 27.20925
#
# Velocity S-wave (km/s) = 3.51607 3.84985 3.68674
# Velocity P-wave (km/s) = 5.71393 6.58551 6.16514
#
# Compressibility (1/GPa) = 0.03090201
#
# Stress axis : x y z
#
# Youngs Moduli (GPa) = 30.92081 62.58193 86.04850
#
# Poissons Ratio (x) = 0.45420 0.24317
# Poissons Ratio (y) = 0.22441 0.38170
# Poissons Ratio (z) = 0.08738 0.27761
#
# Static dielectric constant tensor:
#      x y z
#    x 1.797900 0.000000 -0.028970 
#    y 0.000000 1.734950 0.000000 
#    z -0.028970 0.000000 1.728060 
# 
# From -- ./inp_files/63252.got.cif
#   From: 2010.05.17/outbox.cif.g08.bks.cpg/sg14_32_cif.got.tgz:63252.got - 2010.06.03 17:49:19.
