data_PCOD9240094
_publ_section_title
;
Structure prediction by ZEFSAII (Michael W. Deem and Ramdas Pophale) SiO2 
 PCOD9240094
Probable space group: P 21/C
;
_chemical_formula_sum "Si O2"
_cell_formula_units_Z 26
_cell_length_a 8.164735
_cell_length_b 6.485943
_cell_length_c 22.749997
_cell_angle_alpha 90.000000
_cell_angle_beta 96.347023
_cell_angle_gamma 90.000000
_cell_volume 1197.364538
_symmetry_space_group_name_H-M "P 21/C"
_symmetry_group_IT_number 14
_symmetry_cell_setting 'monoclinic'
loop_
_space_group_symop_operation_xyz
x,y,z
-x,1/2+y,1/2-z
-x,-y,-z
x,1/2-y,1/2+z
loop_
_atom_site_type_symbol
_atom_site_label
_atom_site_fract_x
_atom_site_fract_y
_atom_site_fract_z
Si Si1 0.841030 0.210373 0.305431
Si Si2 0.856416 0.494100 0.688646
Si Si3 0.179876 0.721755 0.495667
Si Si4 0.500000 0.500000 0.000000
Si Si5 0.362111 0.386317 0.422647
Si Si6 0.712141 0.489492 0.392746
Si Si7 0.955732 0.832076 0.384383
O O1 0.708233 0.343960 0.335701
O O2 0.984498 0.367134 0.291064
O O3 0.780426 0.089108 0.245897
O O4 0.923456 0.050156 0.353917
O O5 0.733059 0.621942 0.642819
O O6 0.923584 0.302159 0.652595
O O7 0.325196 0.886033 0.508987
O O8 0.255523 0.533742 0.460265
O O9 0.153980 0.616767 0.557965
O O10 0.033984 0.822120 0.452359
O O11 0.401120 0.329673 0.954172
O O12 0.536859 0.499271 0.417237
O O13 0.782708 0.711181 0.379966
#
# Coordination Sequence:
#
# PCOD9240094 Si02
#       7
#     4   4   4   2   4   4   4
#     4  11  21  38  60  82 114 153 201 250 284 355
#     4  10  21  40  61  82 112 159 206 240 296 356
#     4  10  21  38  62  87 123 157 193 242 301 362
#     4  10  18  34  60  88 114 150 192 238 286 366
#     4  10  22  40  60  88 121 159 196 242 306 361
#     4  10  22  36  55  92 121 148 195 244 300 353
#     4  10  21  38  62  85 115 158 195 248 296 344
#
# _framework density 21.714355999999999
#
# number of rings (size 3 to 8) (size 9 to 14) (size 15 to 20)
#    0.000    1.846    1.538    3.231    0.000    5.538 
#    2.769    0.000    0.000    0.000    0.000    0.000 
#    0.000    0.000    0.000    0.000    0.000    0.000 
#
# Total GULP energy -144809.019289 kJ/mol
# GULP energy per Si atom -5569.577665 kJ/mol
# Density = 2.166493 g / cm^3
# Si number density = 21.714356 Si / 1000 Ang^3
#
#
#
# Elastic Constant Matrix: (Units=GPa)
#
#
# Indices 1 2 3 4 5 6 
#
# 1 29.1778 6.5078 5.7228 0.0000 3.6429 0.0000
# 2 6.5078 50.1191 25.1205 0.0000 -6.5729 0.0000
# 3 5.7228 25.1205 96.2492 0.0000 -1.2451 0.0000
# 4 0.0000 0.0000 0.0000 35.7404 0.0000 2.9331
# 5 3.6429 -6.5729 -1.2451 0.0000 21.0875 0.0000
# 6 0.0000 0.0000 0.0000 2.9331 0.0000 15.7723
#
#
#
# Elastic Compliance Matrix: (Units=1/GPa)
#
#
# Indices 1 2 3 4 5 6 
#
# 1 0.036650 -0.005374 -0.000881 0.000000 -0.008059 0.000000
# 2 -0.005374 0.024763 -0.006036 0.000000 0.008291 0.000000
# 3 -0.000881 -0.006036 0.012004 0.000000 -0.001021 0.000000
# 4 0.000000 0.000000 0.000000 0.028413 0.000000 -0.005284
# 5 -0.008059 0.008291 -0.001021 0.000000 0.051337 0.000000
# 6 0.000000 0.000000 0.000000 -0.005284 0.000000 0.064385
#
#
# Mechanical properties :
#
#
# Convention : Reuss Voigt Hill
#
# Bulk Modulus (GPa) = 20.47716 27.80539 24.14127
# Shear Modulus (GPa) = 19.34880 23.73304 21.54092
#
# Velocity S-wave (km/s) = 2.98830 3.30959 3.15304
# Velocity P-wave (km/s) = 4.62140 5.23807 4.93937
#
# Compressibility (1/GPa) = 0.04883490
#
# Stress axis : x y z
#
# Youngs Moduli (GPa) = 27.28501 40.38278 83.30359
#
# Poissons Ratio (x) = 0.21703 0.07337
# Poissons Ratio (y) = 0.14664 0.50284
# Poissons Ratio (z) = 0.02403 0.24376
#
# Static dielectric constant tensor:
#      x y z
#    x 1.766410 0.000000 0.018800 
#    y 0.000000 1.819300 0.000000 
#    z 0.018800 0.000000 1.835780 
# 
# From -- ./inp_files/71647.got.cif
#   From: 2010.05.17/outbox.cif.g08.bks.cpg/sg14_36_cif.got.tgz:71647.got - 2010.06.03 17:49:19.
