data_PCOD9240942
_publ_section_title
;
Structure prediction by ZEFSAII (Michael W. Deem and Ramdas Pophale) SiO2 
 PCOD9240942
Probable space group: P 21/C
;
_chemical_formula_sum "Si O2"
_cell_formula_units_Z 24
_cell_length_a 9.309243
_cell_length_b 7.324106
_cell_length_c 15.140193
_cell_angle_alpha 90.000000
_cell_angle_beta 65.323674
_cell_angle_gamma 90.000000
_cell_volume 938.019207
_symmetry_space_group_name_H-M "P 21/C"
_symmetry_group_IT_number 14
_symmetry_cell_setting 'monoclinic'
loop_
_space_group_symop_operation_xyz
x,y,z
-x,1/2+y,1/2-z
-x,-y,-z
x,1/2-y,1/2+z
loop_
_atom_site_type_symbol
_atom_site_label
_atom_site_fract_x
_atom_site_fract_y
_atom_site_fract_z
Si Si1 0.642860 0.387463 0.089111
Si Si2 0.019581 0.790143 0.032664
Si Si3 0.405972 0.129967 0.086681
Si Si4 0.150077 0.479355 0.274313
Si Si5 0.514328 0.403023 0.749897
Si Si6 0.085363 0.216940 0.618938
O O1 0.803697 0.293101 0.013803
O O2 0.603500 0.590139 0.135612
O O3 0.502001 0.320941 0.061439
O O4 0.600771 0.281323 0.192310
O O5 0.929022 0.674205 0.980537
O O6 0.938979 0.817904 0.148204
O O7 0.000000 0.000000 0.000000
O O8 0.420444 0.059246 0.182912
O O9 0.229598 0.146261 0.098746
O O10 0.500000 0.000000 0.000000
O O11 0.330225 0.481616 0.260915
O O12 0.124379 0.441159 0.177712
O O13 0.071692 0.673579 0.315583
#
# Coordination Sequence:
#
# PCOD9240942 Si02
#       6
#     4   4   4   4   4   4
#     4  10  20  36  59  82 115 151 188 232 297 333
#     4  10  19  38  60  83 116 154 193 237 283 347
#     4  10  19  33  60  86 104 147 199 228 273 354
#     4  11  21  39  58  86 119 151 192 245 287 338
#     4  10  20  37  57  82 119 146 188 239 288 335
#     4  11  21  34  63  89 111 152 196 236 287 343
#
# _framework density 25.585832
#
# number of rings (size 3 to 8) (size 9 to 14) (size 15 to 20)
#    1.000    0.667    5.000    3.000    2.333    0.000 
#    0.000    0.833    3.667    2.000    0.000    0.000 
#    0.000    0.000    0.000    0.000    0.000    0.000 
#
# Total GULP energy -133827.689857 kJ/mol
# GULP energy per Si atom -5576.153744 kJ/mol
# Density = 2.552760 g / cm^3
# Si number density = 25.585832 Si / 1000 Ang^3
#
#
#
# Elastic Constant Matrix: (Units=GPa)
#
#
# Indices 1 2 3 4 5 6 
#
# 1 165.7356 6.0092 28.3605 0.0000 -14.9851 0.0000
# 2 6.0092 52.2756 21.7166 0.0000 -3.6761 0.0000
# 3 28.3605 21.7166 49.2263 0.0000 -0.7588 0.0000
# 4 0.0000 0.0000 0.0000 44.8122 0.0000 5.8094
# 5 -14.9851 -3.6761 -0.7588 0.0000 51.5924 0.0000
# 6 0.0000 0.0000 0.0000 5.8094 0.0000 27.4686
#
#
#
# Elastic Compliance Matrix: (Units=1/GPa)
#
#
# Indices 1 2 3 4 5 6 
#
# 1 0.006945 0.001217 -0.004507 0.000000 0.002038 0.000000
# 2 0.001217 0.023755 -0.011152 0.000000 0.001882 0.000000
# 3 -0.004507 -0.011152 0.027804 0.000000 -0.001695 0.000000
# 4 0.000000 0.000000 0.000000 0.022944 0.000000 -0.004853
# 5 0.002038 0.001882 -0.001695 0.000000 0.020084 0.000000
# 6 0.000000 0.000000 0.000000 -0.004853 0.000000 0.037432
#
#
# Mechanical properties :
#
#
# Convention : Reuss Voigt Hill
#
# Bulk Modulus (GPa) = 33.75957 42.15669 37.95813
# Shear Modulus (GPa) = 28.13412 38.85137 33.49274
#
# Velocity S-wave (km/s) = 3.31962 3.90098 3.62198
# Velocity P-wave (km/s) = 5.28360 6.06651 5.68854
#
# Compressibility (1/GPa) = 0.02962123
#
# Stress axis : x y z
#
# Youngs Moduli (GPa) = 143.98845 42.09720 35.96552
#
# Poissons Ratio (x) = -0.05124 0.16209
# Poissons Ratio (y) = -0.17526 0.40108
# Poissons Ratio (z) = 0.64892 0.46946
#
# Static dielectric constant tensor:
#      x y z
#    x 1.692430 0.000000 -0.185900 
#    y 0.000000 2.321140 0.000000 
#    z -0.185900 0.000000 1.991820 
# 
# From -- ./inp_files/39259.got.cif
#   From: 2010.05.17/outbox.cif.g08.bks.cpg/sg14_20_cif.got.tgz:39259.got - 2010.06.03 17:49:19.
