data_PCOD9240853
_publ_section_title
;
Structure prediction by ZEFSAII (Michael W. Deem and Ramdas Pophale) SiO2 
 PCOD9240853
Probable space group: P 21/C
;
_chemical_formula_sum "Si O2"
_cell_formula_units_Z 28
_cell_length_a 13.253547
_cell_length_b 19.449115
_cell_length_c 5.164482
_cell_angle_alpha 90.000000
_cell_angle_beta 79.983033
_cell_angle_gamma 90.000000
_cell_volume 1310.954133
_symmetry_space_group_name_H-M "P 21/C"
_symmetry_group_IT_number 14
_symmetry_cell_setting 'monoclinic'
loop_
_space_group_symop_operation_xyz
x,y,z
-x,1/2+y,1/2-z
-x,-y,-z
x,1/2-y,1/2+z
loop_
_atom_site_type_symbol
_atom_site_label
_atom_site_fract_x
_atom_site_fract_y
_atom_site_fract_z
Si Si1 0.234668 0.292841 0.259593
Si Si2 0.519888 0.453147 0.737404
Si Si3 0.310591 0.089362 0.414095
Si Si4 0.989234 0.207018 0.815375
Si Si5 0.129476 0.044681 0.196008
Si Si6 0.743777 0.044319 0.272158
Si Si7 0.078260 0.909586 0.540943
O O1 0.262984 0.240786 0.016405
O O2 0.288808 0.364116 0.170839
O O3 0.112301 0.302317 0.279828
O O4 0.500000 0.500000 0.500000
O O5 0.426419 0.399026 0.773007
O O6 0.638815 0.430728 0.685344
O O7 0.500000 0.500000 0.000000
O O8 0.214844 0.097703 0.262801
O O9 0.297079 0.009142 0.493480
O O10 0.961987 0.266804 0.615539
O O11 0.944961 0.140087 0.689674
O O12 0.021020 0.084174 0.226607
O O13 0.101523 0.985218 0.414182
O O14 0.181767 0.002881 0.939961
O O15 0.816400 0.103436 0.352939
#
# Coordination Sequence:
#
# PCOD9240853 Si02
#       7
#     4   4   4   4   4   4   4
#     4  10  22  36  55  80 109 147 190 232 277 331
#     4  10  20  35  56  83 112 143 181 221 277 338
#     4  10  20  35  56  82 115 146 185 233 287 337
#     4  10  22  37  55  77 107 151 191 230 272 329
#     4  10  19  33  54  83 116 147 177 231 293 339
#     4  10  21  33  56  84 116 151 182 231 286 345
#     4  10  21  34  51  84 114 148 187 229 284 342
#
# _framework density 21.358488000000001
#
# number of rings (size 3 to 8) (size 9 to 14) (size 15 to 20)
#    0.000    2.000    2.857    0.429    4.000    1.143 
#    0.000    0.000    0.000    1.714    0.000    0.000 
#    0.000    0.000    0.000    0.000    0.000    0.000 
#
# Total GULP energy -156146.503334 kJ/mol
# GULP energy per Si atom -5576.660833 kJ/mol
# Density = 2.130988 g / cm^3
# Si number density = 21.358488 Si / 1000 Ang^3
#
#
#
# Elastic Constant Matrix: (Units=GPa)
#
#
# Indices 1 2 3 4 5 6 
#
# 1 148.2549 20.4586 13.5987 0.0000 -15.2848 0.0000
# 2 20.4586 41.2871 -1.0731 0.0000 -10.4317 0.0000
# 3 13.5987 -1.0731 76.7798 0.0000 -1.7526 0.0000
# 4 0.0000 0.0000 0.0000 33.7614 0.0000 5.0611
# 5 -15.2848 -10.4317 -1.7526 0.0000 13.8690 0.0000
# 6 0.0000 0.0000 0.0000 5.0611 0.0000 13.0810
#
#
#
# Elastic Compliance Matrix: (Units=1/GPa)
#
#
# Indices 1 2 3 4 5 6 
#
# 1 0.007872 -0.002201 -0.001268 0.000000 0.006861 0.000000
# 2 -0.002201 0.030586 0.001291 0.000000 0.020743 0.000000
# 3 -0.001268 0.001291 0.013296 0.000000 0.001253 0.000000
# 4 0.000000 0.000000 0.000000 0.031443 0.000000 -0.012165
# 5 0.006861 0.020743 0.001253 0.000000 0.095425 0.000000
# 6 0.000000 0.000000 0.000000 -0.012165 0.000000 0.081153
#
#
# Mechanical properties :
#
#
# Convention : Reuss Voigt Hill
#
# Bulk Modulus (GPa) = 21.09831 36.92114 29.00973
# Shear Modulus (GPa) = 17.86156 27.69812 22.77984
#
# Velocity S-wave (km/s) = 2.89498 3.60505 3.26935
# Velocity P-wave (km/s) = 4.59066 5.88663 5.27857
#
# Compressibility (1/GPa) = 0.04739715
#
# Stress axis : x y z
#
# Youngs Moduli (GPa) = 127.02486 32.69506 75.21310
#
# Poissons Ratio (x) = 0.07195 0.09541
# Poissons Ratio (y) = 0.27952 -0.09708
# Poissons Ratio (z) = 0.16113 -0.04220
#
# Static dielectric constant tensor:
#      x y z
#    x 1.869270 0.000000 0.024210 
#    y 0.000000 1.790800 0.000000 
#    z 0.024210 0.000000 1.859450 
# 
# From -- ./inp_files/2872.got.cif
#   From: 2010.05.17/outbox.cif.g08.bks.cpg/sg14_2_cif.got.tgz:2872.got - 2010.06.03 17:49:19.
