data_PCOD9240321
_publ_section_title
;
Structure prediction by ZEFSAII (Michael W. Deem and Ramdas Pophale) SiO2 
 PCOD9240321
Probable space group: P 21/C
;
_chemical_formula_sum "Si O2"
_cell_formula_units_Z 28
_cell_length_a 11.583840
_cell_length_b 10.331349
_cell_length_c 11.020707
_cell_angle_alpha 90.000000
_cell_angle_beta 101.398305
_cell_angle_gamma 90.000000
_cell_volume 1292.908711
_symmetry_space_group_name_H-M "P 21/C"
_symmetry_group_IT_number 14
_symmetry_cell_setting 'monoclinic'
loop_
_space_group_symop_operation_xyz
x,y,z
-x,1/2+y,1/2-z
-x,-y,-z
x,1/2-y,1/2+z
loop_
_atom_site_type_symbol
_atom_site_label
_atom_site_fract_x
_atom_site_fract_y
_atom_site_fract_z
Si Si1 0.273613 0.628503 0.555155
Si Si2 0.120702 0.579614 0.762046
Si Si3 0.914220 0.377604 0.696692
Si Si4 0.459795 0.353173 0.389130
Si Si5 0.681805 0.074969 0.516855
Si Si6 0.305643 0.951154 0.738930
Si Si7 0.476744 0.724113 0.855960
O O1 0.210194 0.600960 0.668755
O O2 0.173965 0.597489 0.434748
O O3 0.409842 0.577451 0.584096
O O4 0.298583 0.780419 0.533924
O O5 0.067695 0.722797 0.782925
O O6 0.199555 0.534304 0.892242
O O7 0.026492 0.469375 0.711788
O O8 0.832927 0.426369 0.791241
O O9 0.349852 0.444169 0.343799
O O10 0.452375 0.277819 0.513671
O O11 0.463127 0.276027 0.262514
O O12 0.653299 0.003087 0.386110
O O13 0.584219 0.095385 0.600577
O O14 0.368639 0.822404 0.803506
#
# Coordination Sequence:
#
# PCOD9240321 Si02
#       7
#     4   4   4   4   4   4   4
#     4  10  18  39  62  90 114 162 211 252 309 384
#     4  11  21  41  63  88 122 164 213 261 306 370
#     4  11  23  38  65  88 123 166 212 255 315 370
#     4  11  22  36  68  89 123 161 207 256 312 388
#     4  10  18  36  65  83 118 162 210 251 310 384
#     4  12  21  38  62  93 120 166 208 252 319 385
#     4  11  19  40  60  91 121 162 204 254 314 379
#
# _framework density 21.656596
#
# number of rings (size 3 to 8) (size 9 to 14) (size 15 to 20)
#    0.000    1.143   10.000    0.857    0.000    1.143 
#    0.000    2.857    0.000    0.000    0.000    0.000 
#    0.000    0.000    0.000    0.000    0.000    0.000 
#
# Total GULP energy -156028.446186 kJ/mol
# GULP energy per Si atom -5572.444507 kJ/mol
# Density = 2.160730 g / cm^3
# Si number density = 21.656596 Si / 1000 Ang^3
#
#
#
# Elastic Constant Matrix: (Units=GPa)
#
#
# Indices 1 2 3 4 5 6 
#
# 1 29.1887 13.1671 0.8156 0.0000 7.3903 0.0000
# 2 13.1671 33.1969 14.9662 0.0000 11.8947 0.0000
# 3 0.8156 14.9662 157.5643 0.0000 2.5738 0.0000
# 4 0.0000 0.0000 0.0000 33.7599 0.0000 10.3287
# 5 7.3903 11.8947 2.5738 0.0000 34.9033 0.0000
# 6 0.0000 0.0000 0.0000 10.3287 0.0000 29.5721
#
#
#
# Elastic Compliance Matrix: (Units=1/GPa)
#
#
# Indices 1 2 3 4 5 6 
#
# 1 0.042418 -0.016163 0.001374 0.000000 -0.003574 0.000000
# 2 -0.016163 0.042024 -0.003734 0.000000 -0.010624 0.000000
# 3 0.001374 -0.003734 0.006686 0.000000 0.000489 0.000000
# 4 0.000000 0.000000 0.000000 0.033165 0.000000 -0.011584
# 5 -0.003574 -0.010624 0.000489 0.000000 0.032992 0.000000
# 6 0.000000 0.000000 0.000000 -0.011584 0.000000 0.037861
#
#
# Mechanical properties :
#
#
# Convention : Reuss Voigt Hill
#
# Bulk Modulus (GPa) = 18.49069 30.87198 24.68133
# Shear Modulus (GPa) = 19.98233 32.38046 26.18140
#
# Velocity S-wave (km/s) = 3.04088 3.87095 3.48074
# Velocity P-wave (km/s) = 4.57011 5.85364 5.25124
#
# Compressibility (1/GPa) = 0.05408128
#
# Stress axis : x y z
#
# Youngs Moduli (GPa) = 23.57507 23.79564 149.56094
#
# Poissons Ratio (x) = 0.38461 -0.20551
# Poissons Ratio (y) = 0.38105 0.55853
# Poissons Ratio (z) = -0.03239 0.08886
#
# Static dielectric constant tensor:
#      x y z
#    x 1.804930 0.000000 -0.062880 
#    y 0.000000 1.863670 0.000000 
#    z -0.062880 0.000000 1.887630 
# 
# From -- ./inp_files/28648.got.cif
#   From: 2010.05.17/outbox.cif.g08.bks.cpg/sg14_15_cif.got.tgz:28648.got - 2010.06.03 17:49:19.
