data_PCOD9240907
_publ_section_title
;
Structure prediction by ZEFSAII (Michael W. Deem and Ramdas Pophale) SiO2 
 PCOD9240907
Probable space group: P 21/C
;
_chemical_formula_sum "Si O2"
_cell_formula_units_Z 24
_cell_length_a 11.281036
_cell_length_b 18.260937
_cell_length_c 5.602745
_cell_angle_alpha 90.000000
_cell_angle_beta 60.385236
_cell_angle_gamma 90.000000
_cell_volume 1003.405232
_symmetry_space_group_name_H-M "P 21/C"
_symmetry_group_IT_number 14
_symmetry_cell_setting 'monoclinic'
loop_
_space_group_symop_operation_xyz
x,y,z
-x,1/2+y,1/2-z
-x,-y,-z
x,1/2-y,1/2+z
loop_
_atom_site_type_symbol
_atom_site_label
_atom_site_fract_x
_atom_site_fract_y
_atom_site_fract_z
Si Si1 0.979609 0.087079 0.548019
Si Si2 0.953749 0.781637 0.816733
Si Si3 0.233281 0.084812 0.588582
Si Si4 0.568756 0.552550 0.733691
Si Si5 0.358042 0.274597 0.811986
Si Si6 0.307607 0.559062 0.768989
O O1 0.030148 0.133417 0.270135
O O2 0.818155 0.101644 0.720860
O O3 0.080118 0.106612 0.667735
O O4 0.000000 0.000000 0.500000
O O5 0.011814 0.743725 0.515083
O O6 0.794652 0.759445 0.002131
O O7 0.306552 0.094676 0.768909
O O8 0.327848 0.138114 0.331926
O O9 0.244674 0.998442 0.523162
O O10 0.439691 0.596286 0.754534
O O11 0.632239 0.496343 0.484516
O O12 0.500000 0.500000 0.000000
O O13 0.423257 0.254746 0.003487
#
# Coordination Sequence:
#
# PCOD9240907 Si02
#       6
#     4   4   4   4   4   4
#     4  10  20  36  57  98 121 150 206 264 306 361
#     4  10  20  39  57  82 128 173 197 240 320 382
#     4  10  19  33  57  87 115 153 198 250 306 362
#     4   9  19  37  55  80 113 164 193 246 310 371
#     4  10  20  33  55  83 119 160 198 242 308 369
#     4   9  20  36  56  83 124 151 199 248 311 360
#
# _framework density 23.918554
#
# number of rings (size 3 to 8) (size 9 to 14) (size 15 to 20)
#    0.000    2.333    3.333    0.000    2.333    2.000 
#    9.000    0.000    0.000    2.000    0.000    0.000 
#    0.000    0.000    0.000    0.000    0.000    0.000 
#
# Total GULP energy -133699.016064 kJ/mol
# GULP energy per Si atom -5570.792336 kJ/mol
# Density = 2.386411 g / cm^3
# Si number density = 23.918554 Si / 1000 Ang^3
#
#
#
# Elastic Constant Matrix: (Units=GPa)
#
#
# Indices 1 2 3 4 5 6 
#
# 1 217.1644 2.4424 58.3225 0.0000 8.5691 0.0000
# 2 2.4424 96.7610 21.7314 0.0000 5.8104 0.0000
# 3 58.3225 21.7314 70.3557 0.0000 17.0470 0.0000
# 4 0.0000 0.0000 0.0000 36.9999 0.0000 0.1924
# 5 8.5691 5.8104 17.0470 0.0000 34.2612 0.0000
# 6 0.0000 0.0000 0.0000 0.1924 0.0000 16.0177
#
#
#
# Elastic Compliance Matrix: (Units=1/GPa)
#
#
# Indices 1 2 3 4 5 6 
#
# 1 0.006056 0.001041 -0.005608 0.000000 0.001099 0.000000
# 2 0.001041 0.011285 -0.004345 0.000000 -0.000012 0.000000
# 3 -0.005608 -0.004345 0.022385 0.000000 -0.008998 0.000000
# 4 0.000000 0.000000 0.000000 0.027029 0.000000 -0.000325
# 5 0.001099 -0.000012 -0.008998 0.000000 0.033392 0.000000
# 6 0.000000 0.000000 0.000000 -0.000325 0.000000 0.062435
#
#
# Mechanical properties :
#
#
# Convention : Reuss Voigt Hill
#
# Bulk Modulus (GPa) = 45.66156 61.03041 53.34599
# Shear Modulus (GPa) = 26.63736 37.57474 32.10605
#
# Velocity S-wave (km/s) = 3.34079 3.96781 3.66773
# Velocity P-wave (km/s) = 5.83207 6.82369 6.34727
#
# Compressibility (1/GPa) = 0.02190026
#
# Stress axis : x y z
#
# Youngs Moduli (GPa) = 165.13158 88.61217 44.67356
#
# Poissons Ratio (x) = -0.09221 0.25052
# Poissons Ratio (y) = -0.17183 0.19413
# Poissons Ratio (z) = 0.92602 0.38506
#
# Static dielectric constant tensor:
#      x y z
#    x 2.006870 0.000000 0.072840 
#    y 0.000000 1.978040 0.000000 
#    z 0.072840 0.000000 1.973090 
# 
# From -- ./inp_files/2818.got.cif
#   From: 2010.05.17/outbox.cif.g08.bks.cpg/sg14_2_cif.got.tgz:2818.got - 2010.06.03 17:49:19.
