data_PCOD9240088
_publ_section_title
;
Structure prediction by ZEFSAII (Michael W. Deem and Ramdas Pophale) SiO2 
 PCOD9240088
Probable space group: P 21/C
;
_chemical_formula_sum "Si O2"
_cell_formula_units_Z 20
_cell_length_a 7.278241
_cell_length_b 8.377114
_cell_length_c 15.740563
_cell_angle_alpha 90.000000
_cell_angle_beta 47.905624
_cell_angle_gamma 90.000000
_cell_volume 712.146590
_symmetry_space_group_name_H-M "P 21/C"
_symmetry_group_IT_number 14
_symmetry_cell_setting 'monoclinic'
loop_
_space_group_symop_operation_xyz
x,y,z
-x,1/2+y,1/2-z
-x,-y,-z
x,1/2-y,1/2+z
loop_
_atom_site_type_symbol
_atom_site_label
_atom_site_fract_x
_atom_site_fract_y
_atom_site_fract_z
Si Si1 0.453310 0.929486 0.731902
Si Si2 0.985161 0.360205 0.332654
Si Si3 0.503594 0.599248 0.619250
Si Si4 0.234409 0.284469 0.092497
Si Si5 0.765501 0.398539 0.998930
O O1 0.197691 0.012125 0.783170
O O2 0.467161 0.948779 0.828646
O O3 0.670734 0.028958 0.616768
O O4 0.460336 0.751198 0.694309
O O5 0.089856 0.251081 0.223097
O O6 0.727206 0.418551 0.372267
O O7 0.945527 0.250084 0.427901
O O8 0.736455 0.653553 0.490025
O O9 0.131814 0.448504 0.084010
O O10 0.514452 0.336206 0.030760
#
# Coordination Sequence:
#
# PCOD9240088 Si02
#       5
#     4   4   4   4   4
#     4  10  22  39  59  85 117 153 193 236 285 345
#     4  10  18  34  60  84 108 146 192 238 282 328
#     4  10  22  39  59  85 117 153 193 236 285 345
#     4   8  16  33  55  79 110 150 191 229 280 345
#     4   8  16  33  55  79 110 150 191 229 280 345
#
# _framework density 28.084108000000001
#
# number of rings (size 3 to 8) (size 9 to 14) (size 15 to 20)
#    0.000    2.800    0.000    3.600    0.000    4.800 
#    0.000   10.000    0.000   18.000    0.000    0.000 
#    0.000    0.000    0.000    0.000    0.000    0.000 
#
# Total GULP energy -112200.880689 kJ/mol
# GULP energy per Si atom -5610.044034 kJ/mol
# Density = 2.802019 g / cm^3
# Si number density = 28.084108 Si / 1000 Ang^3
#
#
#
# Elastic Constant Matrix: (Units=GPa)
#
#
# Indices 1 2 3 4 5 6 
#
# 1 120.2356 32.8895 16.2700 0.0000 9.6355 0.0000
# 2 32.8895 107.8192 59.9483 0.0000 13.0520 0.0000
# 3 16.2700 59.9483 120.5541 0.0000 7.0935 0.0000
# 4 0.0000 0.0000 0.0000 50.9148 0.0000 24.0278
# 5 9.6355 13.0520 7.0935 0.0000 33.2456 0.0000
# 6 0.0000 0.0000 0.0000 24.0278 0.0000 36.5556
#
#
#
# Elastic Compliance Matrix: (Units=1/GPa)
#
#
# Indices 1 2 3 4 5 6 
#
# 1 0.009162 -0.002713 0.000209 0.000000 -0.001635 0.000000
# 2 -0.002713 0.014093 -0.006444 0.000000 -0.003372 0.000000
# 3 0.000209 -0.006444 0.011470 0.000000 0.000022 0.000000
# 4 0.000000 0.000000 0.000000 0.028473 0.000000 -0.018715
# 5 -0.001635 -0.003372 0.000022 0.000000 0.031872 0.000000
# 6 0.000000 0.000000 0.000000 -0.018715 0.000000 0.039657
#
#
# Mechanical properties :
#
#
# Convention : Reuss Voigt Hill
#
# Bulk Modulus (GPa) = 59.42019 62.98050 61.20035
# Shear Modulus (GPa) = 31.59921 40.10992 35.85457
#
# Velocity S-wave (km/s) = 3.35798 3.78326 3.57695
# Velocity P-wave (km/s) = 6.01985 6.44659 6.23687
#
# Compressibility (1/GPa) = 0.01682930
#
# Stress axis : x y z
#
# Youngs Moduli (GPa) = 109.14800 70.95602 87.18535
#
# Poissons Ratio (x) = 0.19250 -0.01820
# Poissons Ratio (y) = 0.29611 0.56179
# Poissons Ratio (z) = -0.02279 0.45722
#
# Static dielectric constant tensor:
#      x y z
#    x 2.147100 0.000000 -0.029380 
#    y 0.000000 2.160180 0.000000 
#    z -0.029380 0.000000 2.140700 
# 
# From -- ./inp_files/23011.got.cif
#   From: 2010.05.17/outbox.cif.g08.bks.cpg/sg14_12_cif.got.tgz:23011.got - 2010.06.03 17:49:19.
