data_PCOD9240355
_publ_section_title
;
Structure prediction by ZEFSAII (Michael W. Deem and Ramdas Pophale) SiO2 
 PCOD9240355
Probable space group: P 21/C
;
_chemical_formula_sum "Si O2"
_cell_formula_units_Z 32
_cell_length_a 11.858757
_cell_length_b 19.380122
_cell_length_c 9.523529
_cell_angle_alpha 90.000000
_cell_angle_beta 139.036336
_cell_angle_gamma 90.000000
_cell_volume 1434.892819
_symmetry_space_group_name_H-M "P 21/C"
_symmetry_group_IT_number 14
_symmetry_cell_setting 'monoclinic'
loop_
_space_group_symop_operation_xyz
x,y,z
-x,1/2+y,1/2-z
-x,-y,-z
x,1/2-y,1/2+z
loop_
_atom_site_type_symbol
_atom_site_label
_atom_site_fract_x
_atom_site_fract_y
_atom_site_fract_z
Si Si1 0.716285 0.963508 0.645240
Si Si2 0.221507 0.816587 0.398801
Si Si3 0.577029 0.539564 0.304128
Si Si4 0.918754 0.043268 0.642370
Si Si5 0.219957 0.526204 0.282450
Si Si6 0.261573 0.834434 0.920312
Si Si7 0.509771 0.170021 0.597932
Si Si8 0.509393 0.178417 0.120694
O O1 0.721816 0.968834 0.818854
O O2 0.631382 0.889590 0.534398
O O3 0.585977 0.018840 0.447370
O O4 0.889355 0.983291 0.728429
O O5 0.100414 0.883027 0.298425
O O6 0.164555 0.738586 0.312047
O O7 0.382928 0.828563 0.446116
O O8 0.306204 0.811318 0.631413
O O9 0.611115 0.488347 0.466040
O O10 0.572644 0.614912 0.372470
O O11 0.777672 0.031985 0.382974
O O12 0.091836 0.032780 0.716625
O O13 0.152613 0.600434 0.270308
O O14 0.433715 0.836222 0.984260
O O15 0.340345 0.843040 0.148091
O O16 0.427892 0.245562 0.548938
#
# Coordination Sequence:
#
# PCOD9240355 Si02
#       8
#     4   4   4   4   4   4   4   4
#     4  11  20  36  58  85 116 145 183 239 291 335
#     4  10  18  37  57  82 114 150 188 239 286 336
#     4  11  21  36  59  86 115 144 189 234 288 341
#     4  11  24  40  58  81 121 156 193 237 284 338
#     4  11  24  40  56  86 116 156 197 233 282 344
#     4  10  20  33  59  85 112 147 196 234 280 345
#     4  10  20  33  57  89 114 146 188 241 291 337
#     4  10  19  34  57  85 117 146 190 241 286 335
#
# _framework density 22.301316
#
# number of rings (size 3 to 8) (size 9 to 14) (size 15 to 20)
#    0.000    1.500    5.000    0.750    1.750    1.500 
#    0.000    1.250    0.000    3.000    0.000    0.000 
#    0.000    0.000    0.000    0.000    0.000    0.000 
#
# Total GULP energy -178315.094089 kJ/mol
# GULP energy per Si atom -5572.346690 kJ/mol
# Density = 2.225056 g / cm^3
# Si number density = 22.301316 Si / 1000 Ang^3
#
#
#
# Elastic Constant Matrix: (Units=GPa)
#
#
# Indices 1 2 3 4 5 6 
#
# 1 64.8868 37.9763 13.7494 0.0000 -23.5826 0.0000
# 2 37.9763 176.4491 13.1910 0.0000 -11.3817 0.0000
# 3 13.7494 13.1910 37.3704 0.0000 -16.3241 0.0000
# 4 0.0000 0.0000 0.0000 21.8889 0.0000 -8.3408
# 5 -23.5826 -11.3817 -16.3241 0.0000 29.9553 0.0000
# 6 0.0000 0.0000 0.0000 -8.3408 0.0000 37.3829
#
#
#
# Elastic Compliance Matrix: (Units=1/GPa)
#
#
# Indices 1 2 3 4 5 6 
#
# 1 0.024139 -0.004079 0.000240 0.000000 0.017584 0.000000
# 2 -0.004079 0.006557 -0.001481 0.000000 -0.001527 0.000000
# 3 0.000240 -0.001481 0.035475 0.000000 0.018958 0.000000
# 4 0.000000 0.000000 0.000000 0.049930 0.000000 0.011140
# 5 0.017584 -0.001527 0.018958 0.000000 0.056978 0.000000
# 6 0.000000 0.000000 0.000000 0.011140 0.000000 0.029236
#
#
# Mechanical properties :
#
#
# Convention : Reuss Voigt Hill
#
# Bulk Modulus (GPa) = 18.00784 45.39327 31.70056
# Shear Modulus (GPa) = 21.60150 32.09806 26.84978
#
# Velocity S-wave (km/s) = 3.11564 3.79791 3.47357
# Velocity P-wave (km/s) = 4.58642 6.29531 5.50755
#
# Compressibility (1/GPa) = 0.05553136
#
# Stress axis : x y z
#
# Youngs Moduli (GPa) = 41.42699 152.49767 28.18897
#
# Poissons Ratio (x) = 0.62203 -0.00676
# Poissons Ratio (y) = 0.16898 0.04174
# Poissons Ratio (z) = -0.00993 0.22581
#
# Static dielectric constant tensor:
#      x y z
#    x 1.858470 0.000000 0.035800 
#    y 0.000000 1.907240 0.000000 
#    z 0.035800 0.000000 1.852320 
# 
# From -- ./inp_files/14330.got.cif
#   From: 2010.05.17/outbox.cif.g08.bks.cpg/sg14_8_cif.got.tgz:14330.got - 2010.06.03 17:49:19.
