data_PCOD9240183
_publ_section_title
;
Structure prediction by ZEFSAII (Michael W. Deem and Ramdas Pophale) SiO2 
 PCOD9240183
Probable space group: P 21/C
;
_chemical_formula_sum "Si O2"
_cell_formula_units_Z 32
_cell_length_a 7.499448
_cell_length_b 11.294084
_cell_length_c 17.706352
_cell_angle_alpha 90.000000
_cell_angle_beta 106.350362
_cell_angle_gamma 90.000000
_cell_volume 1439.066076
_symmetry_space_group_name_H-M "P 21/C"
_symmetry_group_IT_number 14
_symmetry_cell_setting 'monoclinic'
loop_
_space_group_symop_operation_xyz
x,y,z
-x,1/2+y,1/2-z
-x,-y,-z
x,1/2-y,1/2+z
loop_
_atom_site_type_symbol
_atom_site_label
_atom_site_fract_x
_atom_site_fract_y
_atom_site_fract_z
Si Si1 0.197248 0.052546 0.919109
Si Si2 0.963335 0.181375 0.790569
Si Si3 0.157922 0.402977 0.573173
Si Si4 0.733295 0.318448 0.653667
Si Si5 0.387839 0.275250 0.717247
Si Si6 0.696988 0.180164 0.353390
Si Si7 0.115025 0.684545 0.965957
Si Si8 0.888499 0.552612 0.821198
O O1 0.146167 0.168762 0.864670
O O2 0.283584 0.954515 0.873888
O O3 0.279818 0.068663 0.012925
O O4 0.997645 0.997077 0.920917
O O5 0.981451 0.068337 0.737166
O O6 0.921342 0.283292 0.722891
O O7 0.800082 0.204295 0.831305
O O8 0.272226 0.376601 0.661851
O O9 0.044647 0.283080 0.538098
O O10 0.564941 0.267288 0.682182
O O11 0.751846 0.246252 0.578904
O O12 0.481074 0.307258 0.808087
O O13 0.263405 0.157952 0.703894
O O14 0.766124 0.160961 0.445973
O O15 0.778442 0.068251 0.317168
O O16 0.013252 0.577628 0.910298
#
# Coordination Sequence:
#
# PCOD9240183 Si02
#       8
#     4   4   4   4   4   4   4   4
#     4  10  18  35  60  86 109 149 202 233 289 345
#     4  10  19  35  59  83 110 148 195 241 276 349
#     4   9  19  35  59  86 114 148 191 246 290 340
#     4   9  20  35  55  82 121 149 188 240 291 337
#     4  10  22  38  51  82 124 148 182 248 291 341
#     4  11  21  38  62  88 111 154 198 235 301 351
#     4   9  18  39  60  84 112 153 196 241 280 357
#     4  10  22  39  58  84 119 151 191 245 290 338
#
# _framework density 22.236644999999999
#
# number of rings (size 3 to 8) (size 9 to 14) (size 15 to 20)
#    0.000    2.250    1.250    2.625    0.000    2.500 
#    2.250    1.875    0.000    0.000    0.000    0.000 
#    0.000    0.000    0.000    0.000    0.000    0.000 
#
# Total GULP energy -178235.099704 kJ/mol
# GULP energy per Si atom -5569.846866 kJ/mol
# Density = 2.218603 g / cm^3
# Si number density = 22.236645 Si / 1000 Ang^3
#
#
#
# Elastic Constant Matrix: (Units=GPa)
#
#
# Indices 1 2 3 4 5 6 
#
# 1 46.8818 11.4329 29.7953 0.0000 4.5718 0.0000
# 2 11.4329 43.8760 17.3901 0.0000 9.9395 0.0000
# 3 29.7953 17.3901 145.0694 0.0000 20.0017 0.0000
# 4 0.0000 0.0000 0.0000 24.1036 0.0000 -1.0915
# 5 4.5718 9.9395 20.0017 0.0000 36.6538 0.0000
# 6 0.0000 0.0000 0.0000 -1.0915 0.0000 17.8584
#
#
#
# Elastic Compliance Matrix: (Units=1/GPa)
#
#
# Indices 1 2 3 4 5 6 
#
# 1 0.025474 -0.004927 -0.004745 0.000000 0.000748 0.000000
# 2 -0.004927 0.025882 -0.001306 0.000000 -0.005691 0.000000
# 3 -0.004745 -0.001306 0.008536 0.000000 -0.003712 0.000000
# 4 0.000000 0.000000 0.000000 0.041603 0.000000 0.002543
# 5 0.000748 -0.005691 -0.003712 0.000000 0.030758 0.000000
# 6 0.000000 0.000000 0.000000 0.002543 0.000000 0.056151
#
#
# Mechanical properties :
#
#
# Convention : Reuss Voigt Hill
#
# Bulk Modulus (GPa) = 26.35895 39.22932 32.79414
# Shear Modulus (GPa) = 22.42098 27.53707 24.97902
#
# Velocity S-wave (km/s) = 3.17880 3.52286 3.35524
# Velocity P-wave (km/s) = 5.03514 5.85042 5.45802
#
# Compressibility (1/GPa) = 0.03793777
#
# Stress axis : x y z
#
# Youngs Moduli (GPa) = 39.25543 38.63656 117.14956
#
# Poissons Ratio (x) = 0.19035 0.55582
# Poissons Ratio (y) = 0.19340 0.15300
# Poissons Ratio (z) = 0.18625 0.05046
#
# Static dielectric constant tensor:
#      x y z
#    x 1.851650 0.000000 0.011720 
#    y 0.000000 1.848450 0.000000 
#    z 0.011720 0.000000 1.932430 
# 
# From -- ./inp_files/55485.got.cif
#   From: 2010.05.17/outbox.cif.g08.bks.cpg/sg14_28_cif.got.tgz:55485.got - 2010.06.03 17:49:19.
