data_PCOD9240231
_publ_section_title
;
Structure prediction by ZEFSAII (Michael W. Deem and Ramdas Pophale) SiO2 
 PCOD9240231
Probable space group: P 21/C
;
_chemical_formula_sum "Si O2"
_cell_formula_units_Z 28
_cell_length_a 7.960098
_cell_length_b 21.451793
_cell_length_c 12.123356
_cell_angle_alpha 90.000000
_cell_angle_beta 146.840453
_cell_angle_gamma 90.000000
_cell_volume 1132.322673
_symmetry_space_group_name_H-M "P 21/C"
_symmetry_group_IT_number 14
_symmetry_cell_setting 'monoclinic'
loop_
_space_group_symop_operation_xyz
x,y,z
-x,1/2+y,1/2-z
-x,-y,-z
x,1/2-y,1/2+z
loop_
_atom_site_type_symbol
_atom_site_label
_atom_site_fract_x
_atom_site_fract_y
_atom_site_fract_z
Si Si1 0.715683 0.487591 0.953642
Si Si2 0.930838 0.152678 0.893533
Si Si3 0.607200 0.165262 0.067042
Si Si4 0.398143 0.845547 0.677581
Si Si5 0.463732 0.921661 0.162877
Si Si6 0.045574 0.517462 0.686330
Si Si7 0.021927 0.767957 0.293645
O O1 0.667303 0.415682 0.897519
O O2 0.735803 0.538087 0.866249
O O3 0.387793 0.506480 0.829314
O O4 0.956211 0.494774 0.184321
O O5 0.648759 0.133530 0.817017
O O6 0.862407 0.201306 0.759010
O O7 0.026483 0.088676 0.883027
O O8 0.238616 0.170934 0.128907
O O9 0.494037 0.106621 0.934383
O O10 0.333896 0.214869 0.900286
O O11 0.671267 0.156207 0.230386
O O12 0.905975 0.195272 0.175765
O O13 0.195013 0.799553 0.491666
O O14 0.183857 0.970060 0.997189
#
# Coordination Sequence:
#
# PCOD9240231 Si02
#       7
#     4   4   4   4   4   4   4
#     4  10  19  35  66 104 142 179 218 269 337 418
#     4  10  20  40  71 100 133 182 223 276 329 405
#     4  11  30  46  68  99 134 182 230 285 346 398
#     4  11  22  44  70  96 138 178 221 283 340 394
#     4  11  22  40  66 105 141 172 223 277 341 406
#     4  10  18  35  65 108 137 177 223 260 338 411
#     4  11  27  49  67  96 130 180 239 278 336 408
#
# _framework density 24.727934000000001
#
# number of rings (size 3 to 8) (size 9 to 14) (size 15 to 20)
#    0.000    1.429    4.286    0.857    4.000    2.857 
#    0.000    1.429    0.000    0.000    0.000    0.000 
#    0.000    0.000    0.000    0.000    0.000    0.000 
#
# Total GULP energy -156852.965476 kJ/mol
# GULP energy per Si atom -5601.891624 kJ/mol
# Density = 2.467165 g / cm^3
# Si number density = 24.727934 Si / 1000 Ang^3
#
#
#
# Elastic Constant Matrix: (Units=GPa)
#
#
# Indices 1 2 3 4 5 6 
#
# 1 59.2774 2.0622 18.1054 0.0000 -26.9040 0.0000
# 2 2.0622 34.1830 4.7505 0.0000 -6.7242 0.0000
# 3 18.1054 4.7505 129.2047 0.0000 -29.5045 0.0000
# 4 0.0000 0.0000 0.0000 40.7907 0.0000 -3.7986
# 5 -26.9040 -6.7242 -29.5045 0.0000 45.6300 0.0000
# 6 0.0000 0.0000 0.0000 -3.7986 0.0000 26.1994
#
#
#
# Elastic Compliance Matrix: (Units=1/GPa)
#
#
# Indices 1 2 3 4 5 6 
#
# 1 0.023094 0.001326 -0.000154 0.000000 0.013713 0.000000
# 2 0.001326 0.030205 -0.000119 0.000000 0.005156 0.000000
# 3 -0.000154 -0.000119 0.009082 0.000000 0.005764 0.000000
# 4 0.000000 0.000000 0.000000 0.024851 0.000000 0.003603
# 5 0.013713 0.005156 0.005764 0.000000 0.034488 0.000000
# 6 0.000000 0.000000 0.000000 0.003603 0.000000 0.038691
#
#
# Mechanical properties :
#
#
# Convention : Reuss Voigt Hill
#
# Bulk Modulus (GPa) = 15.50692 30.27795 22.89244
# Shear Modulus (GPa) = 27.80853 35.70713 31.75783
#
# Velocity S-wave (km/s) = 3.35711 3.80412 3.58759
# Velocity P-wave (km/s) = 4.61645 5.61838 5.14187
#
# Compressibility (1/GPa) = 0.06448732
#
# Stress axis : x y z
#
# Youngs Moduli (GPa) = 43.30053 33.10700 110.10975
#
# Poissons Ratio (x) = -0.04388 0.01691
# Poissons Ratio (y) = -0.05740 0.01310
# Poissons Ratio (z) = 0.00665 0.00394
#
# Static dielectric constant tensor:
#      x y z
#    x 2.038670 0.000000 -0.026970 
#    y 0.000000 1.913270 0.000000 
#    z -0.026970 0.000000 1.901310 
# 
# From -- ./inp_files/26843.got.cif
#   From: 2010.05.17/outbox.cif.g08.bks.cpg/sg14_14_cif.got.tgz:26843.got - 2010.06.03 17:49:19.
