data_PCOD9240953
_publ_section_title
;
Structure prediction by ZEFSAII (Michael W. Deem and Ramdas Pophale) SiO2 
 PCOD9240953
Probable space group: P 21/C
;
_chemical_formula_sum "Si O2"
_cell_formula_units_Z 24
_cell_length_a 9.293386
_cell_length_b 10.376932
_cell_length_c 9.798409
_cell_angle_alpha 90.000000
_cell_angle_beta 60.718215
_cell_angle_gamma 90.000000
_cell_volume 824.189250
_symmetry_space_group_name_H-M "P 21/C"
_symmetry_group_IT_number 14
_symmetry_cell_setting 'monoclinic'
loop_
_space_group_symop_operation_xyz
x,y,z
-x,1/2+y,1/2-z
-x,-y,-z
x,1/2-y,1/2+z
loop_
_atom_site_type_symbol
_atom_site_label
_atom_site_fract_x
_atom_site_fract_y
_atom_site_fract_z
Si Si1 0.567665 0.774895 0.447776
Si Si2 0.892117 0.902144 0.234385
Si Si3 0.576228 0.390373 0.734978
Si Si4 0.022234 0.305112 0.017271
Si Si5 0.733007 0.460861 0.176166
Si Si6 0.211216 0.463375 0.558981
O O1 0.429115 0.820554 0.617881
O O2 0.500388 0.706955 0.343211
O O3 0.684510 0.668013 0.470957
O O4 0.698632 0.890704 0.357762
O O5 0.968904 0.818814 0.324406
O O6 0.013846 0.024647 0.176437
O O7 0.919893 0.822630 0.083114
O O8 0.439994 0.503983 0.805757
O O9 0.737939 0.456484 0.598698
O O10 0.834876 0.342727 0.068345
O O11 0.146341 0.416370 0.906261
O O12 0.714193 0.455418 0.347230
#
# Coordination Sequence:
#
# PCOD9240953 Si02
#       6
#     4   4   4   4   4   4
#     4  11  21  41  62  86 120 157 199 245 297 356
#     4  11  20  37  59  89 117 157 193 248 290 354
#     4  11  22  39  62  87 117 161 194 249 301 351
#     4  10  19  33  61  88 114 151 203 244 290 347
#     4   9  17  35  59  83 113 152 204 235 283 356
#     4  10  23  37  61  90 121 153 206 239 299 359
#
# _framework density 29.119524999999999
#
# number of rings (size 3 to 8) (size 9 to 14) (size 15 to 20)
#    0.000    1.667    5.000    2.000    0.000    4.000 
#    0.000    5.833    0.000    0.000    0.000    0.000 
#    0.000    0.000    0.000    0.000    0.000    0.000 
#
# Total GULP energy -134623.655445 kJ/mol
# GULP energy per Si atom -5609.318977 kJ/mol
# Density = 2.905325 g / cm^3
# Si number density = 29.119525 Si / 1000 Ang^3
#
#
#
# Elastic Constant Matrix: (Units=GPa)
#
#
# Indices 1 2 3 4 5 6 
#
# 1 125.6428 27.3195 29.6297 0.0000 -15.5145 0.0000
# 2 27.3195 127.6677 59.8307 0.0000 -16.2405 0.0000
# 3 29.6297 59.8307 163.9909 0.0000 0.3201 0.0000
# 4 0.0000 0.0000 0.0000 57.0287 0.0000 -11.4714
# 5 -15.5145 -16.2405 0.3201 0.0000 54.7281 0.0000
# 6 0.0000 0.0000 0.0000 -11.4714 0.0000 50.1528
#
#
#
# Elastic Compliance Matrix: (Units=1/GPa)
#
#
# Indices 1 2 3 4 5 6 
#
# 1 0.008736 -0.001026 -0.001208 0.000000 0.002179 0.000000
# 2 -0.001026 0.010026 -0.003478 0.000000 0.002705 0.000000
# 3 -0.001208 -0.003478 0.007588 0.000000 -0.001419 0.000000
# 4 0.000000 0.000000 0.000000 0.018381 0.000000 0.004204
# 5 0.002179 0.002705 -0.001419 0.000000 0.019701 0.000000
# 6 0.000000 0.000000 0.000000 0.004204 0.000000 0.020901
#
#
# Mechanical properties :
#
#
# Convention : Reuss Voigt Hill
#
# Bulk Modulus (GPa) = 66.99756 72.31791 69.65773
# Shear Modulus (GPa) = 49.14845 52.41669 50.78257
#
# Velocity S-wave (km/s) = 4.11276 4.24731 4.18058
# Velocity P-wave (km/s) = 6.75358 6.99583 6.87577
#
# Compressibility (1/GPa) = 0.01492592
#
# Stress axis : x y z
#
# Youngs Moduli (GPa) = 114.46614 99.73697 131.78870
#
# Poissons Ratio (x) = 0.10232 0.15925
# Poissons Ratio (y) = 0.11743 0.45835
# Poissons Ratio (z) = 0.13832 0.34688
#
# Static dielectric constant tensor:
#      x y z
#    x 2.295680 0.000000 0.068570 
#    y 0.000000 2.319540 0.000000 
#    z 0.068570 0.000000 2.214480 
# 
# From -- ./inp_files/28480.got.cif
#   From: 2010.05.17/outbox.cif.g08.bks.cpg/sg14_15_cif.got.tgz:28480.got - 2010.06.03 17:49:19.
