data_PCOD9240337
_publ_section_title
;
Structure prediction by ZEFSAII (Michael W. Deem and Ramdas Pophale) SiO2 
 PCOD9240337
Probable space group: P 21/C
;
_chemical_formula_sum "Si O2"
_cell_formula_units_Z 24
_cell_length_a 7.306955
_cell_length_b 20.888070
_cell_length_c 8.570157
_cell_angle_alpha 90.000000
_cell_angle_beta 122.613753
_cell_angle_gamma 90.000000
_cell_volume 1101.798583
_symmetry_space_group_name_H-M "P 21/C"
_symmetry_group_IT_number 14
_symmetry_cell_setting 'monoclinic'
loop_
_space_group_symop_operation_xyz
x,y,z
-x,1/2+y,1/2-z
-x,-y,-z
x,1/2-y,1/2+z
loop_
_atom_site_type_symbol
_atom_site_label
_atom_site_fract_x
_atom_site_fract_y
_atom_site_fract_z
Si Si1 0.652343 0.444919 0.496167
Si Si2 0.386580 0.814465 0.565437
Si Si3 0.050153 0.993938 0.337500
Si Si4 0.913564 0.856611 0.341167
Si Si5 0.463476 0.310896 0.528982
Si Si6 0.428330 0.420467 0.077819
O O1 0.500000 0.500000 0.500000
O O2 0.581083 0.376788 0.533145
O O3 0.893233 0.462977 0.659882
O O4 0.598972 0.441955 0.288739
O O5 0.536697 0.808552 0.785717
O O6 0.409545 0.750350 0.476259
O O7 0.464969 0.874467 0.499380
O O8 0.136759 0.825368 0.500365
O O9 0.988089 0.920366 0.280889
O O10 0.291114 0.021567 0.440753
O O11 0.000000 0.000000 0.500000
O O12 0.752649 0.878994 0.406287
O O13 0.771921 0.813476 0.160119
#
# Coordination Sequence:
#
# PCOD9240337 Si02
#       6
#     4   4   4   4   4   4
#     4  11  19  39  70  96 133 174 215 267 333 382
#     4  12  27  45  68  98 134 175 224 271 328 393
#     4  10  18  36  66  97 132 171 212 265 327 385
#     4  10  23  43  68  97 133 172 219 268 330 389
#     4  11  24  43  67  95 133 175 221 273 324 396
#     4  10  23  41  67 101 133 172 218 268 328 393
#
# _framework density 21.782567
#
# number of rings (size 3 to 8) (size 9 to 14) (size 15 to 20)
#    0.000    1.333    5.000    4.000    0.000    6.000 
#    0.000    1.667    0.000    0.000    0.000    0.000 
#    0.000    0.000    0.000    0.000    0.000    0.000 
#
# Total GULP energy -134228.117515 kJ/mol
# GULP energy per Si atom -5592.838230 kJ/mol
# Density = 2.173299 g / cm^3
# Si number density = 21.782567 Si / 1000 Ang^3
#
#
#
# Elastic Constant Matrix: (Units=GPa)
#
#
# Indices 1 2 3 4 5 6 
#
# 1 84.0494 -2.7030 35.5771 0.0000 12.1261 0.0000
# 2 -2.7030 50.8904 -8.2586 0.0000 -3.1603 0.0000
# 3 35.5771 -8.2586 109.7039 0.0000 2.1537 0.0000
# 4 0.0000 0.0000 0.0000 36.8912 0.0000 -3.5192
# 5 12.1261 -3.1603 2.1537 0.0000 42.4128 0.0000
# 6 0.0000 0.0000 0.0000 -3.5192 0.0000 32.0373
#
#
#
# Elastic Compliance Matrix: (Units=1/GPa)
#
#
# Indices 1 2 3 4 5 6 
#
# 1 0.014406 -0.000226 -0.004612 0.000000 -0.003901 0.000000
# 2 -0.000226 0.019981 0.001548 0.000000 0.001475 0.000000
# 3 -0.004612 0.001548 0.010710 0.000000 0.000890 0.000000
# 4 0.000000 0.000000 0.000000 0.027394 0.000000 0.003009
# 5 -0.003901 0.001475 0.000890 0.000000 0.024758 0.000000
# 6 0.000000 0.000000 0.000000 0.003009 0.000000 0.031544
#
#
# Mechanical properties :
#
#
# Convention : Reuss Voigt Hill
#
# Bulk Modulus (GPa) = 25.96180 32.65275 29.30727
# Shear Modulus (GPa) = 33.73573 36.93680 35.33626
#
# Velocity S-wave (km/s) = 3.93968 4.12236 4.03206
# Velocity P-wave (km/s) = 5.71308 6.13851 5.92961
#
# Compressibility (1/GPa) = 0.03851813
#
# Stress axis : x y z
#
# Youngs Moduli (GPa) = 69.41729 50.04764 93.36843
#
# Poissons Ratio (x) = 0.01129 0.43063
# Poissons Ratio (y) = 0.01566 -0.14457
# Poissons Ratio (z) = 0.32016 -0.07749
#
# Static dielectric constant tensor:
#      x y z
#    x 1.998940 0.000000 0.011180 
#    y 0.000000 1.803060 0.000000 
#    z 0.011180 0.000000 1.774440 
# 
# From -- ./inp_files/10297.got.cif
#   From: 2010.05.17/outbox.cif.g08.bks.cpg/sg14_6_cif.got.tgz:10297.got - 2010.06.03 17:49:19.
