data_PCOD9240530
_publ_section_title
;
Structure prediction by ZEFSAII (Michael W. Deem and Ramdas Pophale) SiO2 
 PCOD9240530
Probable space group: P 21/C
;
_chemical_formula_sum "Si O2"
_cell_formula_units_Z 30
_cell_length_a 4.748474
_cell_length_b 10.357033
_cell_length_c 22.535810
_cell_angle_alpha 90.000000
_cell_angle_beta 83.597473
_cell_angle_gamma 90.000000
_cell_volume 1101.400884
_symmetry_space_group_name_H-M "P 21/C"
_symmetry_group_IT_number 14
_symmetry_cell_setting 'monoclinic'
loop_
_space_group_symop_operation_xyz
x,y,z
-x,1/2+y,1/2-z
-x,-y,-z
x,1/2-y,1/2+z
loop_
_atom_site_type_symbol
_atom_site_label
_atom_site_fract_x
_atom_site_fract_y
_atom_site_fract_z
Si Si1 0.363123 0.673300 0.785293
Si Si2 0.772401 0.768614 0.676045
Si Si3 0.500000 0.000000 0.000000
Si Si4 0.404124 0.787594 0.906123
Si Si5 0.152005 0.001461 0.681370
Si Si6 0.987016 0.364469 0.430163
Si Si7 0.884448 0.621545 0.938949
Si Si8 0.547692 0.804947 0.554249
O O1 0.526473 0.725994 0.725109
O O2 0.363838 0.782592 0.836645
O O3 0.545144 0.548099 0.802910
O O4 0.051366 0.614839 0.788118
O O5 0.627948 0.830664 0.620091
O O6 0.924399 0.646485 0.640658
O O7 0.999675 0.866405 0.698582
O O8 0.350539 0.908298 0.948665
O O9 0.783350 0.022683 0.951374
O O10 0.720073 0.739616 0.911634
O O11 0.204828 0.669129 0.933850
O O12 0.149961 0.011990 0.609400
O O13 0.774497 0.239799 0.444160
O O14 0.278558 0.334964 0.460380
O O15 0.715547 0.604489 0.004511
#
# Coordination Sequence:
#
# PCOD9240530 Si02
#       8
#     4   4   2   4   4   4   4   4
#     4  10  24  43  62  92 125 166 219 259 312 390
#     4  10  25  44  63  93 130 160 220 260 313 381
#     4  12  20  40  64  94 128 168 208 258 344 362
#     4  10  21  35  60  88 126 161 202 266 303 384
#     4  10  24  40  71  84 123 173 198 267 322 369
#     4  10  24  35  62  89 130 161 202 265 311 375
#     4  10  18  41  56  92 120 154 209 249 317 368
#     4  10  20  39  59  88 125 162 190 278 292 372
#
# _framework density 27.238038
#
# number of rings (size 3 to 8) (size 9 to 14) (size 15 to 20)
#    0.800    1.067    2.667    0.000    3.733    3.733 
#    0.000    2.000    0.000    0.000    0.000    0.000 
#    0.000    0.000    0.000    0.000    0.000    0.000 
#
# Total GULP energy -167506.485083 kJ/mol
# GULP energy per Si atom -5583.549503 kJ/mol
# Density = 2.717604 g / cm^3
# Si number density = 27.238038 Si / 1000 Ang^3
#
#
#
# Elastic Constant Matrix: (Units=GPa)
#
#
# Indices 1 2 3 4 5 6 
#
# 1 112.5986 -1.1413 21.1110 0.0000 -16.2648 0.0000
# 2 -1.1413 87.6334 28.9899 0.0000 -15.1460 0.0000
# 3 21.1110 28.9899 187.6170 0.0000 -37.8467 0.0000
# 4 0.0000 0.0000 0.0000 26.6844 0.0000 -14.5533
# 5 -16.2648 -15.1460 -37.8467 0.0000 22.2444 0.0000
# 6 0.0000 0.0000 0.0000 -14.5533 0.0000 31.9517
#
#
#
# Elastic Compliance Matrix: (Units=1/GPa)
#
#
# Indices 1 2 3 4 5 6 
#
# 1 0.010155 0.001584 0.000499 0.000000 0.009353 0.000000
# 2 0.001584 0.013194 -0.000260 0.000000 0.009698 0.000000
# 3 0.000499 -0.000260 0.008149 0.000000 0.014052 0.000000
# 4 0.000000 0.000000 0.000000 0.049861 0.000000 0.022711
# 5 0.009353 0.009698 0.014052 0.000000 0.082305 0.000000
# 6 0.000000 0.000000 0.000000 0.022711 0.000000 0.041641
#
#
# Mechanical properties :
#
#
# Convention : Reuss Voigt Hill
#
# Bulk Modulus (GPa) = 28.45585 53.97424 41.21504
# Shear Modulus (GPa) = 23.43297 38.76875 31.10086
#
# Velocity S-wave (km/s) = 2.93627 3.77680 3.38274
# Velocity P-wave (km/s) = 4.68672 6.23520 5.51557
#
# Compressibility (1/GPa) = 0.03514216
#
# Stress axis : x y z
#
# Youngs Moduli (GPa) = 98.47833 75.79095 122.71933
#
# Poissons Ratio (x) = -0.12002 -0.06128
# Poissons Ratio (y) = -0.15594 0.03197
# Poissons Ratio (z) = -0.04918 0.01974
#
# Static dielectric constant tensor:
#      x y z
#    x 2.079890 0.000000 0.045030 
#    y 0.000000 2.052310 0.000000 
#    z 0.045030 0.000000 2.115110 
# 
# From -- ./inp_files/71231.got.cif
#   From: 2010.05.17/outbox.cif.g08.bks.cpg/sg14_36_cif.got.tgz:71231.got - 2010.06.03 17:49:19.
