data_PCOD9240962
_publ_section_title
;
Structure prediction by ZEFSAII (Michael W. Deem and Ramdas Pophale) SiO2 
 PCOD9240962
Probable space group: P 21/C
;
_chemical_formula_sum "Si O2"
_cell_formula_units_Z 32
_cell_length_a 12.242282
_cell_length_b 11.208585
_cell_length_c 17.939221
_cell_angle_alpha 90.000000
_cell_angle_beta 33.746138
_cell_angle_gamma 90.000000
_cell_volume 1367.451410
_symmetry_space_group_name_H-M "P 21/C"
_symmetry_group_IT_number 14
_symmetry_cell_setting 'monoclinic'
loop_
_space_group_symop_operation_xyz
x,y,z
-x,1/2+y,1/2-z
-x,-y,-z
x,1/2-y,1/2+z
loop_
_atom_site_type_symbol
_atom_site_label
_atom_site_fract_x
_atom_site_fract_y
_atom_site_fract_z
Si Si1 0.174270 0.309648 0.982635
Si Si2 0.332202 0.617913 0.461063
Si Si3 0.648278 0.560916 0.824171
Si Si4 0.250013 0.484870 0.813234
Si Si5 0.034476 0.053880 0.061334
Si Si6 0.452586 0.813285 0.296055
Si Si7 0.607685 0.827620 0.499131
Si Si8 0.346128 0.601452 0.616866
O O1 0.130700 0.405117 0.941674
O O2 0.398957 0.267506 0.835767
O O3 0.203625 0.331287 0.054009
O O4 0.037126 0.195132 0.053719
O O5 0.566318 0.597290 0.319052
O O6 0.230799 0.499562 0.486279
O O7 0.296758 0.730192 0.427649
O O8 0.262346 0.642606 0.584606
O O9 0.588343 0.620190 0.780205
O O10 0.500910 0.451257 0.919923
O O11 0.857952 0.498605 0.708681
O O12 0.646291 0.659953 0.889228
O O13 0.342391 0.589496 0.810308
O O14 0.197667 0.546696 0.763078
O O15 0.000000 0.000000 0.000000
O O16 0.470791 0.709770 0.582303
O O17 0.500000 0.500000 0.500000
#
# Coordination Sequence:
#
# PCOD9240962 Si02
#       8
#     4   4   4   4   4   4   4   4
#     4  11  21  37  64  96 128 165 219 268 322 391
#     4  10  21  36  61  93 128 164 214 265 325 391
#     4  11  24  41  65  96 132 170 217 272 327 382
#     4  10  19  33  64  95 120 165 218 269 310 387
#     4  12  24  42  63  96 133 168 209 276 336 383
#     4  11  18  36  65  99 121 164 222 267 308 395
#     4  11  22  41  67  94 123 174 226 266 310 407
#     4  10  19  35  61  92 123 159 217 267 319 377
#
# _framework density 23.401197
#
# number of rings (size 3 to 8) (size 9 to 14) (size 15 to 20)
#    0.000    1.250    6.250    0.750    1.750    0.000 
#    2.250    0.000    0.000    3.000    0.000    0.000 
#    0.000    0.000    0.000    0.000    0.000    0.000 
#
# Total GULP energy -178695.002318 kJ/mol
# GULP energy per Si atom -5584.218822 kJ/mol
# Density = 2.334794 g / cm^3
# Si number density = 23.401197 Si / 1000 Ang^3
#
#
#
# Elastic Constant Matrix: (Units=GPa)
#
#
# Indices 1 2 3 4 5 6 
#
# 1 90.9548 32.0520 12.9040 0.0000 25.7791 0.0000
# 2 32.0520 106.1381 7.6043 0.0000 10.6929 0.0000
# 3 12.9040 7.6043 32.4822 0.0000 20.7634 0.0000
# 4 0.0000 0.0000 0.0000 29.5927 0.0000 2.2410
# 5 25.7791 10.6929 20.7634 0.0000 34.0654 0.0000
# 6 0.0000 0.0000 0.0000 2.2410 0.0000 39.7929
#
#
#
# Elastic Compliance Matrix: (Units=1/GPa)
#
#
# Indices 1 2 3 4 5 6 
#
# 1 0.015293 -0.003590 0.002363 0.000000 -0.011887 0.000000
# 2 -0.003590 0.010578 -0.001088 0.000000 0.000060 0.000000
# 3 0.002363 -0.001088 0.050832 0.000000 -0.032430 0.000000
# 4 0.000000 0.000000 0.000000 0.033937 0.000000 -0.001911
# 5 -0.011887 0.000060 -0.032430 0.000000 0.058099 0.000000
# 6 0.000000 0.000000 0.000000 -0.001911 0.000000 0.025238
#
#
# Mechanical properties :
#
#
# Convention : Reuss Voigt Hill
#
# Bulk Modulus (GPa) = 13.87488 37.18843 25.53166
# Shear Modulus (GPa) = 22.45871 32.49117 27.47494
#
# Velocity S-wave (km/s) = 3.10130 3.73022 3.43021
# Velocity P-wave (km/s) = 4.33199 5.87187 5.15970
#
# Compressibility (1/GPa) = 0.07207268
#
# Stress axis : x y z
#
# Youngs Moduli (GPa) = 65.38759 94.53772 19.67270
#
# Poissons Ratio (x) = 0.33940 -0.04649
# Poissons Ratio (y) = 0.23475 0.02141
# Poissons Ratio (z) = -0.15454 0.10290
#
# Static dielectric constant tensor:
#      x y z
#    x 1.991660 0.000000 0.013210 
#    y 0.000000 2.013650 0.000000 
#    z 0.013210 0.000000 2.023190 
# 
# From -- ./inp_files/57700.got.cif
#   From: 2010.05.17/outbox.cif.g08.bks.cpg/sg14_29_cif.got.tgz:57700.got - 2010.06.03 17:49:19.
