data_PCOD9240264
_publ_section_title
;
Structure prediction by ZEFSAII (Michael W. Deem and Ramdas Pophale) SiO2 
 PCOD9240264
Probable space group: P 21/C
;
_chemical_formula_sum "Si O2"
_cell_formula_units_Z 30
_cell_length_a 7.451632
_cell_length_b 21.770321
_cell_length_c 7.081297
_cell_angle_alpha 90.000000
_cell_angle_beta 80.025915
_cell_angle_gamma 90.000000
_cell_volume 1131.397177
_symmetry_space_group_name_H-M "P 21/C"
_symmetry_group_IT_number 14
_symmetry_cell_setting 'monoclinic'
loop_
_space_group_symop_operation_xyz
x,y,z
-x,1/2+y,1/2-z
-x,-y,-z
x,1/2-y,1/2+z
loop_
_atom_site_type_symbol
_atom_site_label
_atom_site_fract_x
_atom_site_fract_y
_atom_site_fract_z
Si Si1 0.699505 0.185173 0.935077
Si Si2 0.218136 0.471894 0.242823
Si Si3 0.158570 0.937603 0.065119
Si Si4 0.730770 0.830890 0.297459
Si Si5 0.416250 0.811164 0.654641
Si Si6 0.000000 0.000000 0.500000
Si Si7 0.070438 0.257943 0.950476
Si Si8 0.034092 0.874211 0.708545
O O1 0.742871 0.117794 0.849453
O O2 0.624061 0.238478 0.820654
O O3 0.562574 0.170008 0.132020
O O4 0.882307 0.219425 0.982807
O O5 0.261936 0.511907 0.419438
O O6 0.272667 0.402213 0.250668
O O7 0.226541 0.503555 0.039827
O O8 0.987364 0.469858 0.269450
O O9 0.045575 0.903470 0.917063
O O10 0.572072 0.821428 0.476393
O O11 0.909158 0.804415 0.376536
O O12 0.759299 0.787237 0.112866
O O13 0.237369 0.849312 0.626320
O O14 0.033451 0.072730 0.416295
O O15 0.076847 0.310941 0.786798
#
# Coordination Sequence:
#
# PCOD9240264 Si02
#       8
#     4   4   4   4   4   2   4   4
#     4  10  19  38  56  82 107 159 186 236 262 358
#     4  10  20  33  57  86 112 144 188 243 279 331
#     4   9  18  34  56  83 108 144 195 233 275 325
#     4  12  22  36  54  90 114 150 177 249 286 340
#     4  10  22  34  54  81 122 140 187 226 310 320
#     4  10  18  36  58  84 110 146 198 234 270 332
#     4  11  21  34  60  83 112 147 203 227 281 330
#     4   9  19  36  56  83 108 151 191 236 266 348
#
# _framework density 26.515888
#
# number of rings (size 3 to 8) (size 9 to 14) (size 15 to 20)
#    0.000    1.867    2.667    3.200    0.000    0.000 
#    0.000    6.000    0.000    0.000    0.000    8.400 
#    0.000    0.000    0.000    0.000    0.000    0.000 
#
# Total GULP energy -167117.312656 kJ/mol
# GULP energy per Si atom -5570.577089 kJ/mol
# Density = 2.645554 g / cm^3
# Si number density = 26.515888 Si / 1000 Ang^3
#
#
#
# Elastic Constant Matrix: (Units=GPa)
#
#
# Indices 1 2 3 4 5 6 
#
# 1 46.6559 3.6971 15.2134 0.0000 -4.3609 0.0000
# 2 3.6971 208.4391 25.6745 0.0000 -12.4866 0.0000
# 3 15.2134 25.6745 112.1062 0.0000 -19.7133 0.0000
# 4 0.0000 0.0000 0.0000 46.2170 0.0000 6.3837
# 5 -4.3609 -12.4866 -19.7133 0.0000 31.0326 0.0000
# 6 0.0000 0.0000 0.0000 6.3837 0.0000 11.5750
#
#
#
# Elastic Compliance Matrix: (Units=1/GPa)
#
#
# Indices 1 2 3 4 5 6 
#
# 1 0.022478 0.000031 -0.002814 0.000000 0.001383 0.000000
# 2 0.000031 0.004994 -0.000894 0.000000 0.001446 0.000000
# 3 -0.002814 -0.000894 0.010553 0.000000 0.005949 0.000000
# 4 0.000000 0.000000 0.000000 0.023421 0.000000 -0.012917
# 5 0.001383 0.001446 0.005949 0.000000 0.036779 0.000000
# 6 0.000000 0.000000 0.000000 -0.012917 0.000000 0.093517
#
#
# Mechanical properties :
#
#
# Convention : Reuss Voigt Hill
#
# Bulk Modulus (GPa) = 32.60455 50.70790 41.65623
# Shear Modulus (GPa) = 23.88698 39.27267 31.57982
#
# Velocity S-wave (km/s) = 3.00468 3.85268 3.45480
# Velocity P-wave (km/s) = 4.93563 6.24147 5.62656
#
# Compressibility (1/GPa) = 0.03067056
#
# Stress axis : x y z
#
# Youngs Moduli (GPa) = 44.48789 200.25204 94.76279
#
# Poissons Ratio (x) = -0.00617 0.26668
# Poissons Ratio (y) = -0.00137 0.08468
# Poissons Ratio (z) = 0.12520 0.17894
#
# Static dielectric constant tensor:
#      x y z
#    x 2.357810 0.000000 0.261200 
#    y 0.000000 2.183120 0.000000 
#    z 0.261200 0.000000 2.681070 
# 
# From -- ./inp_files/10795.got.cif
#   From: 2010.05.17/outbox.cif.g08.bks.cpg/sg14_6_cif.got.tgz:10795.got - 2010.06.03 17:49:19.
