data_PCOD9240392
_publ_section_title
;
Structure prediction by ZEFSAII (Michael W. Deem and Ramdas Pophale) SiO2 
 PCOD9240392
Probable space group: P 21/C
;
_chemical_formula_sum "Si O2"
_cell_formula_units_Z 32
_cell_length_a 8.314686
_cell_length_b 13.631334
_cell_length_c 18.211389
_cell_angle_alpha 90.000000
_cell_angle_beta 44.987784
_cell_angle_gamma 90.000000
_cell_volume 1459.216292
_symmetry_space_group_name_H-M "P 21/C"
_symmetry_group_IT_number 14
_symmetry_cell_setting 'monoclinic'
loop_
_space_group_symop_operation_xyz
x,y,z
-x,1/2+y,1/2-z
-x,-y,-z
x,1/2-y,1/2+z
loop_
_atom_site_type_symbol
_atom_site_label
_atom_site_fract_x
_atom_site_fract_y
_atom_site_fract_z
Si Si1 0.789805 0.870670 0.027346
Si Si2 0.748797 0.210079 0.151171
Si Si3 0.337043 0.288743 0.592553
Si Si4 0.815830 0.960352 0.500918
Si Si5 0.267318 0.192153 0.352764
Si Si6 0.760979 0.330921 0.000054
Si Si7 0.588848 0.501063 0.388077
Si Si8 0.057596 0.848906 0.290280
O O1 0.746773 0.802360 0.111420
O O2 0.635619 0.966891 0.083544
O O3 0.710444 0.815590 0.977567
O O4 0.060948 0.871913 0.926680
O O5 0.491703 0.175826 0.234025
O O6 0.773926 0.291438 0.079446
O O7 0.800312 0.265868 0.211141
O O8 0.586523 0.240925 0.516814
O O9 0.322771 0.388250 0.644180
O O10 0.148903 0.210497 0.680097
O O11 0.699460 0.875595 0.585545
O O12 0.938442 0.915597 0.391025
O O13 0.676163 0.057115 0.524734
O O14 0.000000 0.000000 0.500000
O O15 0.026415 0.170439 0.391631
O O16 0.500000 0.500000 0.500000
O O17 0.780695 0.419654 0.308999
#
# Coordination Sequence:
#
# PCOD9240392 Si02
#       8
#     4   4   4   4   4   4   4   4
#     4   9  18  39  63  84 118 166 215 251 313 391
#     4  10  19  37  64  91 123 167 218 253 315 390
#     4  10  22  41  58  94 130 155 208 264 327 384
#     4  10  19  38  64  91 119 160 215 263 309 369
#     4  10  18  37  64  87 122 171 209 261 310 381
#     4  10  22  40  56  94 134 153 206 277 320 368
#     4  10  22  42  64  90 132 168 206 268 325 382
#     4  11  20  41  69  89 121 175 217 256 320 390
#
# _framework density 21.929577999999999
#
# number of rings (size 3 to 8) (size 9 to 14) (size 15 to 20)
#    0.000    2.000    6.250    0.000    0.000    2.500 
#   15.750    2.500    0.000    0.000    0.000    0.000 
#    0.000    0.000    0.000    0.000    0.000    0.000 
#
# Total GULP energy -178518.217001 kJ/mol
# GULP energy per Si atom -5578.694281 kJ/mol
# Density = 2.187967 g / cm^3
# Si number density = 21.929578 Si / 1000 Ang^3
#
#
#
# Elastic Constant Matrix: (Units=GPa)
#
#
# Indices 1 2 3 4 5 6 
#
# 1 66.3983 39.4630 28.7260 0.0000 -25.8396 0.0000
# 2 39.4630 106.0187 48.5242 0.0000 -15.9992 0.0000
# 3 28.7260 48.5242 121.9373 0.0000 -34.7756 0.0000
# 4 0.0000 0.0000 0.0000 28.8869 0.0000 -10.5632
# 5 -25.8396 -15.9992 -34.7756 0.0000 36.1181 0.0000
# 6 0.0000 0.0000 0.0000 -10.5632 0.0000 38.6638
#
#
#
# Elastic Compliance Matrix: (Units=1/GPa)
#
#
# Indices 1 2 3 4 5 6 
#
# 1 0.025264 -0.007759 0.001807 0.000000 0.016377 0.000000
# 2 -0.007759 0.013940 -0.004882 0.000000 -0.004077 0.000000
# 3 0.001807 -0.004882 0.013055 0.000000 0.011699 0.000000
# 4 0.000000 0.000000 0.000000 0.038460 0.000000 0.010508
# 5 0.016377 -0.004077 0.011699 0.000000 0.048862 0.000000
# 6 0.000000 0.000000 0.000000 0.010508 0.000000 0.028735
#
#
# Mechanical properties :
#
#
# Convention : Reuss Voigt Hill
#
# Bulk Modulus (GPa) = 32.69176 58.64230 45.66703
# Shear Modulus (GPa) = 24.97747 32.57650 28.77699
#
# Velocity S-wave (km/s) = 3.37855 3.85841 3.62642
# Velocity P-wave (km/s) = 5.49176 6.83001 6.19711
#
# Compressibility (1/GPa) = 0.03058875
#
# Stress axis : x y z
#
# Youngs Moduli (GPa) = 39.58230 71.73716 76.60107
#
# Poissons Ratio (x) = 0.55664 -0.13839
# Poissons Ratio (y) = 0.30713 0.37396
# Poissons Ratio (z) = -0.07151 0.35022
#
# Static dielectric constant tensor:
#      x y z
#    x 1.825200 0.000000 -0.016220 
#    y 0.000000 1.879830 0.000000 
#    z -0.016220 0.000000 1.824180 
# 
# From -- ./inp_files/65824.got.cif
#   From: 2010.05.17/outbox.cif.g08.bks.cpg/sg14_33_cif.got.tgz:65824.got - 2010.06.03 17:49:19.
