data_PCOD9240560
_publ_section_title
;
Structure prediction by ZEFSAII (Michael W. Deem and Ramdas Pophale) SiO2 
 PCOD9240560
Probable space group: P 21/C
;
_chemical_formula_sum "Si O2"
_cell_formula_units_Z 30
_cell_length_a 11.612487
_cell_length_b 10.095583
_cell_length_c 13.400933
_cell_angle_alpha 90.000000
_cell_angle_beta 134.269450
_cell_angle_gamma 90.000000
_cell_volume 1124.978293
_symmetry_space_group_name_H-M "P 21/C"
_symmetry_group_IT_number 14
_symmetry_cell_setting 'monoclinic'
loop_
_space_group_symop_operation_xyz
x,y,z
-x,1/2+y,1/2-z
-x,-y,-z
x,1/2-y,1/2+z
loop_
_atom_site_type_symbol
_atom_site_label
_atom_site_fract_x
_atom_site_fract_y
_atom_site_fract_z
Si Si1 0.000000 0.000000 0.000000
Si Si2 0.448920 0.362045 0.344993
Si Si3 0.741090 0.791906 0.612853
Si Si4 0.994146 0.744084 0.411393
Si Si5 0.524745 0.219558 0.676686
Si Si6 0.752078 0.416575 0.180730
Si Si7 0.217022 0.634920 0.400598
Si Si8 0.188455 0.927062 0.671604
O O1 0.106545 0.139526 0.085324
O O2 0.105804 0.919209 0.151423
O O3 0.391969 0.251917 0.386970
O O4 0.526893 0.306808 0.293296
O O5 0.607146 0.432693 0.488403
O O6 0.285551 0.437745 0.215187
O O7 0.656898 0.745612 0.462025
O O8 0.902165 0.726200 0.753077
O O9 0.762746 0.948416 0.626305
O O10 0.125694 0.631047 0.452045
O O11 0.068784 0.865966 0.516653
O O12 0.589884 0.097554 0.649285
O O13 0.658724 0.328040 0.735308
O O14 0.761106 0.290957 0.111738
O O15 0.126027 0.579237 0.248006
#
# Coordination Sequence:
#
# PCOD9240560 Si02
#       8
#     2   4   4   4   4   4   4   4
#     4  10  18  44  64 104 126 178 232 284 328 432
#     4  12  25  41  71 102 139 184 238 292 359 429
#     4  11  26  42  63 106 139 176 238 289 348 429
#     4  11  24  45  69 102 143 186 232 289 368 417
#     4  11  23  42  67  99 129 187 231 292 347 422
#     4  10  21  40  72  93 137 171 239 287 340 419
#     4  11  22  44  71 101 134 194 229 300 358 420
#     4  11  24  45  69 100 139 180 239 294 357 429
#
# _framework density 26.667180999999999
#
# number of rings (size 3 to 8) (size 9 to 14) (size 15 to 20)
#    0.000    1.067    6.667    0.800    3.733    1.600 
#    4.800    0.000    0.000    0.000    0.000    0.000 
#    0.000    0.000    0.000    0.000    0.000    0.000 
#
# Total GULP energy -167224.064520 kJ/mol
# GULP energy per Si atom -5574.135484 kJ/mol
# Density = 2.660649 g / cm^3
# Si number density = 26.667181 Si / 1000 Ang^3
#
#
#
# Elastic Constant Matrix: (Units=GPa)
#
#
# Indices 1 2 3 4 5 6 
#
# 1 54.4557 -13.8447 -10.8456 0.0000 -1.9292 0.0000
# 2 -13.8447 93.4435 -9.0637 0.0000 -1.8517 0.0000
# 3 -10.8456 -9.0637 163.5658 0.0000 20.9078 0.0000
# 4 0.0000 0.0000 0.0000 34.4758 0.0000 10.9419
# 5 -1.9292 -1.8517 20.9078 0.0000 37.9220 0.0000
# 6 0.0000 0.0000 0.0000 10.9419 0.0000 14.0840
#
#
#
# Elastic Compliance Matrix: (Units=1/GPa)
#
#
# Indices 1 2 3 4 5 6 
#
# 1 0.019425 0.003022 0.001410 0.000000 0.000359 0.000000
# 2 0.003022 0.011231 0.000789 0.000000 0.000267 0.000000
# 3 0.001410 0.000789 0.006710 0.000000 -0.003589 0.000000
# 4 0.000000 0.000000 0.000000 0.038499 0.000000 -0.029910
# 5 0.000359 0.000267 -0.003589 0.000000 0.028380 0.000000
# 6 0.000000 0.000000 0.000000 -0.029910 0.000000 0.094240
#
#
# Mechanical properties :
#
#
# Convention : Reuss Voigt Hill
#
# Bulk Modulus (GPa) = 20.91771 27.10633 24.01202
# Shear Modulus (GPa) = 24.51223 40.31097 32.41160
#
# Velocity S-wave (km/s) = 3.03511 3.89219 3.49006
# Velocity P-wave (km/s) = 4.48815 5.51231 5.02639
#
# Compressibility (1/GPa) = 0.04780638
#
# Stress axis : x y z
#
# Youngs Moduli (GPa) = 51.47931 89.03793 149.03817
#
# Poissons Ratio (x) = -0.26906 -0.21009
# Poissons Ratio (y) = -0.15557 -0.11752
# Poissons Ratio (z) = -0.07257 -0.07021
#
# Static dielectric constant tensor:
#      x y z
#    x 1.877230 0.000000 0.136320 
#    y 0.000000 2.076780 0.000000 
#    z 0.136320 0.000000 2.134130 
# 
# From -- ./inp_files/46980.got.cif
#   From: 2010.05.17/outbox.cif.g08.bks.cpg/sg14_24_cif.got.tgz:46980.got - 2010.06.03 17:49:19.
