data_PCOD9240399
_publ_section_title
;
Structure prediction by ZEFSAII (Michael W. Deem and Ramdas Pophale) SiO2 
 PCOD9240399
Probable space group: P 21/C
;
_chemical_formula_sum "Si O2"
_cell_formula_units_Z 32
_cell_length_a 13.467124
_cell_length_b 8.768297
_cell_length_c 24.166507
_cell_angle_alpha 90.000000
_cell_angle_beta 31.557367
_cell_angle_gamma 90.000000
_cell_volume 1493.474747
_symmetry_space_group_name_H-M "P 21/C"
_symmetry_group_IT_number 14
_symmetry_cell_setting 'monoclinic'
loop_
_space_group_symop_operation_xyz
x,y,z
-x,1/2+y,1/2-z
-x,-y,-z
x,1/2-y,1/2+z
loop_
_atom_site_type_symbol
_atom_site_label
_atom_site_fract_x
_atom_site_fract_y
_atom_site_fract_z
Si Si1 0.117026 0.309735 0.417168
Si Si2 0.724235 0.118735 0.577762
Si Si3 0.197597 0.589963 0.605100
Si Si4 0.481661 0.175413 0.115178
Si Si5 0.981164 0.603696 0.893330
Si Si6 0.350242 0.486430 0.777016
Si Si7 0.040026 0.439042 0.573180
Si Si8 0.917100 0.635715 0.246036
O O1 0.268898 0.179482 0.332704
O O2 0.129323 0.378065 0.473032
O O3 0.906629 0.228367 0.507097
O O4 0.127779 0.453764 0.370702
O O5 0.594866 0.190209 0.591620
O O6 0.602465 0.077353 0.689956
O O7 0.815937 0.963574 0.510509
O O8 0.414343 0.636043 0.491612
O O9 0.139342 0.547246 0.570220
O O10 0.161173 0.450688 0.663242
O O11 0.067992 0.731873 0.685107
O O12 0.485582 0.042885 0.160712
O O13 0.261335 0.199646 0.204612
O O14 0.171946 0.574692 0.836788
O O15 0.988104 0.495329 0.836899
O O16 0.983751 0.782438 0.882003
#
# Coordination Sequence:
#
# PCOD9240399 Si02
#       8
#     4   4   4   4   4   4   4   4
#     4  10  19  34  62  94 136 176 217 257 319 398
#     4  11  18  40  61  91 140 172 215 259 328 395
#     4  12  24  46  69  94 124 172 224 276 343 386
#     4  11  24  41  67  98 135 168 219 267 328 402
#     4  10  18  37  66  93 125 175 221 267 323 389
#     4  10  20  37  60  94 133 181 213 255 330 391
#     4  11  19  32  65  97 128 172 220 268 316 393
#     4  11  25  46  72  93 124 175 223 286 343 390
#
# _framework density 21.426542000000001
#
# number of rings (size 3 to 8) (size 9 to 14) (size 15 to 20)
#    0.000    1.250    5.000    3.375    0.000    1.000 
#    2.250    0.625    8.250    0.000    0.000    0.000 
#    0.000    0.000    0.000    0.000    0.000    0.000 
#
# Total GULP energy -178514.295109 kJ/mol
# GULP energy per Si atom -5578.571722 kJ/mol
# Density = 2.137777 g / cm^3
# Si number density = 21.426542 Si / 1000 Ang^3
#
#
#
# Elastic Constant Matrix: (Units=GPa)
#
#
# Indices 1 2 3 4 5 6 
#
# 1 60.7764 13.3548 19.1702 0.0000 15.2410 0.0000
# 2 13.3548 94.1598 21.2621 0.0000 -4.3873 0.0000
# 3 19.1702 21.2621 92.9130 0.0000 12.4079 0.0000
# 4 0.0000 0.0000 0.0000 19.9976 0.0000 20.8149
# 5 15.2410 -4.3873 12.4079 0.0000 22.1133 0.0000
# 6 0.0000 0.0000 0.0000 20.8149 0.0000 37.2154
#
#
#
# Elastic Compliance Matrix: (Units=1/GPa)
#
#
# Indices 1 2 3 4 5 6 
#
# 1 0.021333 -0.003307 -0.001723 0.000000 -0.014393 0.000000
# 2 -0.003307 0.012041 -0.002915 0.000000 0.006304 0.000000
# 3 -0.001723 -0.002915 0.012652 0.000000 -0.006490 0.000000
# 4 0.000000 0.000000 0.000000 0.119680 0.000000 -0.066938
# 5 -0.014393 0.006304 -0.006490 0.000000 0.060034 0.000000
# 6 0.000000 0.000000 0.000000 -0.066938 0.000000 0.064310
#
#
# Mechanical properties :
#
#
# Convention : Reuss Voigt Hill
#
# Bulk Modulus (GPa) = 33.18236 39.49149 36.33692
# Shear Modulus (GPa) = 15.82350 28.80273 22.31311
#
# Velocity S-wave (km/s) = 2.72048 3.67039 3.23054
# Velocity P-wave (km/s) = 5.03867 6.03601 5.55975
#
# Compressibility (1/GPa) = 0.03013650
#
# Stress axis : x y z
#
# Youngs Moduli (GPa) = 46.87528 83.04759 79.03914
#
# Poissons Ratio (x) = 0.27467 0.13616
# Poissons Ratio (y) = 0.15503 0.23040
# Poissons Ratio (z) = 0.08075 0.24208
#
# Static dielectric constant tensor:
#      x y z
#    x 1.778830 0.000000 -0.001000 
#    y 0.000000 1.788960 0.000000 
#    z -0.001000 0.000000 1.875310 
# 
# From -- ./inp_files/77493.got.cif
#   From: 2010.05.17/outbox.cif.g08.bks.cpg/sg14_39_cif.got.tgz:77493.got - 2010.06.03 17:49:19.
