data_PCOD9240522
_publ_section_title
;
Structure prediction by ZEFSAII (Michael W. Deem and Ramdas Pophale) SiO2 
 PCOD9240522
Probable space group: P 21/C
;
_chemical_formula_sum "Si O2"
_cell_formula_units_Z 32
_cell_length_a 5.415230
_cell_length_b 16.281835
_cell_length_c 15.620620
_cell_angle_alpha 90.000000
_cell_angle_beta 92.872376
_cell_angle_gamma 90.000000
_cell_volume 1375.537858
_symmetry_space_group_name_H-M "P 21/C"
_symmetry_group_IT_number 14
_symmetry_cell_setting 'monoclinic'
loop_
_space_group_symop_operation_xyz
x,y,z
-x,1/2+y,1/2-z
-x,-y,-z
x,1/2-y,1/2+z
loop_
_atom_site_type_symbol
_atom_site_label
_atom_site_fract_x
_atom_site_fract_y
_atom_site_fract_z
Si Si1 0.775906 0.836234 0.684520
Si Si2 0.829850 0.053767 0.276361
Si Si3 0.998316 0.523768 0.625572
Si Si4 0.757002 0.341896 0.195931
Si Si5 0.542540 0.497547 0.102272
Si Si6 0.325210 0.922391 0.995835
Si Si7 0.471448 0.831373 0.845967
Si Si8 0.720189 0.660810 0.693814
O O1 0.700507 0.821158 0.783870
O O2 0.716375 0.747839 0.645321
O O3 0.060079 0.862905 0.682905
O O4 0.646859 0.913802 0.636355
O O5 0.641172 0.087243 0.202113
O O6 0.041695 0.011660 0.221570
O O7 0.709664 0.996388 0.345259
O O8 0.921167 0.447610 0.564392
O O9 0.768217 0.584370 0.633720
O O10 0.207694 0.579970 0.587530
O O11 0.707883 0.418098 0.130049
O O12 0.695201 0.250399 0.160168
O O13 0.530816 0.351070 0.259015
O O14 0.029851 0.339524 0.242445
O O15 0.500000 0.500000 0.000000
O O16 0.474541 0.854203 0.945871
O O17 0.500000 0.000000 0.000000
#
# Coordination Sequence:
#
# PCOD9240522 Si02
#       8
#     4   4   4   4   4   4   4   4
#     4  10  21  40  68  92 125 176 226 281 325 407
#     4  10  18  40  66  88 122 170 221 274 334 398
#     4  10  21  36  62  95 125 166 216 268 333 407
#     4  11  23  45  67 101 127 181 228 280 334 406
#     4  11  25  42  63  97 138 183 228 281 345 408
#     4  10  21  37  58  96 133 167 205 271 345 404
#     4   9  20  38  62  92 127 166 220 275 337 396
#     4  11  23  42  72 100 127 171 236 278 334 395
#
# _framework density 23.263625999999999
#
# number of rings (size 3 to 8) (size 9 to 14) (size 15 to 20)
#    0.000    1.750    2.500    1.500    1.750    0.500 
#    4.500    0.000    0.000    0.000    0.000    0.000 
#    0.000    0.000    0.000    0.000    0.000    0.000 
#
# Total GULP energy -178258.572169 kJ/mol
# GULP energy per Si atom -5570.580380 kJ/mol
# Density = 2.321068 g / cm^3
# Si number density = 23.263626 Si / 1000 Ang^3
#
#
#
# Elastic Constant Matrix: (Units=GPa)
#
#
# Indices 1 2 3 4 5 6 
#
# 1 77.6486 11.0345 39.7252 0.0000 -2.6978 0.0000
# 2 11.0345 131.8137 46.9097 0.0000 12.6403 0.0000
# 3 39.7252 46.9097 113.4081 0.0000 -1.6395 0.0000
# 4 0.0000 0.0000 0.0000 36.9613 0.0000 2.9131
# 5 -2.6978 12.6403 -1.6395 0.0000 22.9875 0.0000
# 6 0.0000 0.0000 0.0000 2.9131 0.0000 40.2419
#
#
#
# Elastic Compliance Matrix: (Units=1/GPa)
#
#
# Indices 1 2 3 4 5 6 
#
# 1 0.015780 0.000628 -0.005771 0.000000 0.001095 0.000000
# 2 0.000628 0.009577 -0.004261 0.000000 -0.005497 0.000000
# 3 -0.005771 -0.004261 0.012639 0.000000 0.002567 0.000000
# 4 0.000000 0.000000 0.000000 0.027211 0.000000 -0.001970
# 5 0.001095 -0.005497 0.002567 0.000000 0.046836 0.000000
# 6 0.000000 0.000000 0.000000 -0.001970 0.000000 0.024992
#
#
# Mechanical properties :
#
#
# Convention : Reuss Voigt Hill
#
# Bulk Modulus (GPa) = 52.11743 57.57881 54.84812
# Shear Modulus (GPa) = 30.81857 35.05155 32.93506
#
# Velocity S-wave (km/s) = 3.64366 3.88585 3.76670
# Velocity P-wave (km/s) = 6.33667 6.70354 6.52268
#
# Compressibility (1/GPa) = 0.01918744
#
# Stress axis : x y z
#
# Youngs Moduli (GPa) = 63.37132 104.41270 79.12051
#
# Poissons Ratio (x) = -0.06556 0.45664
# Poissons Ratio (y) = -0.03979 0.33713
# Poissons Ratio (z) = 0.36574 0.44490
#
# Static dielectric constant tensor:
#      x y z
#    x 2.003760 0.000000 0.011540 
#    y 0.000000 1.985630 0.000000 
#    z 0.011540 0.000000 1.956280 
# 
# From -- ./inp_files/37723.got.cif
#   From: 2010.05.17/outbox.cif.g08.bks.cpg/sg14_19_cif.got.tgz:37723.got - 2010.06.03 17:49:19.
