data_PCOD9240362
_publ_section_title
;
Structure prediction by ZEFSAII (Michael W. Deem and Ramdas Pophale) SiO2 
 PCOD9240362
Probable space group: P 21/C
;
_chemical_formula_sum "Si O2"
_cell_formula_units_Z 20
_cell_length_a 22.568873
_cell_length_b 6.829949
_cell_length_c 27.721555
_cell_angle_alpha 90.000000
_cell_angle_beta 168.164086
_cell_angle_gamma 90.000000
_cell_volume 876.457522
_symmetry_space_group_name_H-M "P 21/C"
_symmetry_group_IT_number 14
_symmetry_cell_setting 'monoclinic'
loop_
_space_group_symop_operation_xyz
x,y,z
-x,1/2+y,1/2-z
-x,-y,-z
x,1/2-y,1/2+z
loop_
_atom_site_type_symbol
_atom_site_label
_atom_site_fract_x
_atom_site_fract_y
_atom_site_fract_z
Si Si1 0.952990 0.609374 0.319975
Si Si2 0.381099 0.781152 0.308825
Si Si3 0.721253 0.125969 0.475435
Si Si4 0.141259 0.362934 0.556393
Si Si5 0.212787 0.319978 0.446538
O O1 0.153536 0.800510 0.475310
O O2 0.959151 0.503368 0.375620
O O3 0.110884 0.465843 0.406982
O O4 0.639015 0.673265 0.051553
O O5 0.519123 0.647005 0.376771
O O6 0.295736 0.991398 0.217492
O O7 0.085895 0.718929 0.099672
O O8 0.408399 0.212438 0.237922
O O9 0.940408 0.191873 0.692678
O O10 0.724031 0.892287 0.480673
#
# Coordination Sequence:
#
# PCOD9240362 Si02
#       5
#     4   4   4   4   4
#     4  11  21  36  62  81 114 152 191 232 281 336
#     4   9  20  37  55  85 115 149 186 232 288 336
#     4  10  20  35  58  87 111 151 193 234 278 338
#     4  10  20  35  58  86 113 147 191 233 285 332
#     4  10  18  37  59  81 112 150 191 228 282 338
#
# _framework density 22.819130999999999
#
# number of rings (size 3 to 8) (size 9 to 14) (size 15 to 20)
#    0.000    2.000    6.000    0.600    5.600    0.000 
#    0.000    1.000    0.000   15.600    0.000    0.000 
#    0.000    0.000    0.000    0.000    0.000    0.000 
#
# Total GULP energy -111607.885932 kJ/mol
# GULP energy per Si atom -5580.394297 kJ/mol
# Density = 2.276719 g / cm^3
# Si number density = 22.819131 Si / 1000 Ang^3
#
#
#
# Elastic Constant Matrix: (Units=GPa)
#
#
# Indices 1 2 3 4 5 6 
#
# 1 39.5813 -10.1420 7.2772 0.0000 -9.4978 0.0000
# 2 -10.1420 28.8523 -7.0672 0.0000 -2.4977 0.0000
# 3 7.2772 -7.0672 103.3927 0.0000 15.1114 0.0000
# 4 0.0000 0.0000 0.0000 17.9053 0.0000 5.7142
# 5 -9.4978 -2.4977 15.1114 0.0000 34.9851 0.0000
# 6 0.0000 0.0000 0.0000 5.7142 0.0000 20.3702
#
#
#
# Elastic Compliance Matrix: (Units=1/GPa)
#
#
# Indices 1 2 3 4 5 6 
#
# 1 0.031201 0.011152 -0.002976 0.000000 0.010552 0.000000
# 2 0.011152 0.039317 0.001120 0.000000 0.005351 0.000000
# 3 -0.002976 0.001120 0.010742 0.000000 -0.005368 0.000000
# 4 0.000000 0.000000 0.000000 0.061341 0.000000 -0.017207
# 5 0.010552 0.005351 -0.005368 0.000000 0.034149 0.000000
# 6 0.000000 0.000000 0.000000 -0.017207 0.000000 0.053918
#
#
# Mechanical properties :
#
#
# Convention : Reuss Voigt Hill
#
# Bulk Modulus (GPa) = 10.01462 16.88471 13.44966
# Shear Modulus (GPa) = 20.37819 26.76933 23.57376
#
# Velocity S-wave (km/s) = 2.99160 3.42878 3.21763
# Velocity P-wave (km/s) = 4.04118 4.80529 4.43971
#
# Compressibility (1/GPa) = 0.09985402
#
# Stress axis : x y z
#
# Youngs Moduli (GPa) = 32.05003 25.43423 93.08836
#
# Poissons Ratio (x) = -0.28365 0.27704
# Poissons Ratio (y) = -0.35743 -0.10431
# Poissons Ratio (z) = 0.09538 -0.02850
#
# Static dielectric constant tensor:
#      x y z
#    x 1.896360 0.000000 0.032960 
#    y 0.000000 1.906260 0.000000 
#    z 0.032960 0.000000 1.884690 
# 
# From -- ./inp_files/54191.got.cif
#   From: 2010.05.17/outbox.cif.g08.bks.cpg/sg14_28_cif.got.tgz:54191.got - 2010.06.03 17:49:19.
