data_PCOD9240792
_publ_section_title
;
Structure prediction by ZEFSAII (Michael W. Deem and Ramdas Pophale) SiO2 
 PCOD9240792
Probable space group: P 21/C
;
_chemical_formula_sum "Si O2"
_cell_formula_units_Z 32
_cell_length_a 21.993110
_cell_length_b 7.630765
_cell_length_c 27.609114
_cell_angle_alpha 90.000000
_cell_angle_beta 160.425710
_cell_angle_gamma 90.000000
_cell_volume 1552.348952
_symmetry_space_group_name_H-M "P 21/C"
_symmetry_group_IT_number 14
_symmetry_cell_setting 'monoclinic'
loop_
_space_group_symop_operation_xyz
x,y,z
-x,1/2+y,1/2-z
-x,-y,-z
x,1/2-y,1/2+z
loop_
_atom_site_type_symbol
_atom_site_label
_atom_site_fract_x
_atom_site_fract_y
_atom_site_fract_z
Si Si1 0.414401 0.711893 0.763109
Si Si2 0.693524 0.555464 0.535207
Si Si3 0.134370 0.982561 0.928573
Si Si4 0.404719 0.068342 0.879483
Si Si5 0.886448 0.674798 0.777044
Si Si6 0.907335 0.687195 0.041852
Si Si7 0.883362 0.335272 0.891664
Si Si8 0.532747 0.512954 0.770177
O O1 0.222681 0.721714 0.647562
O O2 0.488053 0.533485 0.793870
O O3 0.395295 0.837399 0.701631
O O4 0.569837 0.803205 0.912997
O O5 0.849542 0.484742 0.617181
O O6 0.559189 0.404072 0.455277
O O7 0.779531 0.642485 0.646913
O O8 0.018709 0.832775 0.866259
O O9 0.064699 0.168348 0.896168
O O10 0.342059 0.959155 0.100823
O O11 0.259436 0.209018 0.789473
O O12 0.280842 0.917804 0.762836
O O13 0.500000 0.000000 0.000000
O O14 0.994079 0.495920 0.870942
O O15 0.985396 0.753284 0.049112
O O16 0.693380 0.648957 0.878942
O O17 0.000000 0.500000 0.000000
#
# Coordination Sequence:
#
# PCOD9240792 Si02
#       8
#     4   4   4   4   4   4   4   4
#     4  10  20  35  61  81 117 154 197 243 301 353
#     4   9  19  37  60  90 115 155 205 244 287 366
#     4  11  24  36  59  92 120 153 198 251 299 356
#     4   8  17  36  59  82 113 158 196 238 297 356
#     4  10  22  38  65  84 117 162 198 239 308 352
#     4  11  22  39  61  85 123 155 195 251 298 355
#     4  10  19  32  60  87 108 156 202 240 296 356
#     4  11  19  36  54  80 117 154 189 240 298 348
#
# _framework density 20.613921000000001
#
# number of rings (size 3 to 8) (size 9 to 14) (size 15 to 20)
#    0.000    2.000    3.750    0.750    3.500    0.000 
#    0.000    0.625   13.750   25.500    0.000    0.000 
#    0.000    0.000    0.000    0.000    0.000    0.000 
#
# Total GULP energy -178217.945711 kJ/mol
# GULP energy per Si atom -5569.310803 kJ/mol
# Density = 2.056700 g / cm^3
# Si number density = 20.613921 Si / 1000 Ang^3
#
#
#
# Elastic Constant Matrix: (Units=GPa)
#
#
# Indices 1 2 3 4 5 6 
#
# 1 100.6677 7.5021 -0.1562 0.0000 22.6425 0.0000
# 2 7.5021 42.2210 -0.5073 0.0000 5.9778 0.0000
# 3 -0.1562 -0.5073 48.5384 0.0000 1.6640 0.0000
# 4 0.0000 0.0000 0.0000 15.2400 0.0000 7.9790
# 5 22.6425 5.9778 1.6640 0.0000 40.3254 0.0000
# 6 0.0000 0.0000 0.0000 7.9790 0.0000 15.9269
#
#
#
# Elastic Compliance Matrix: (Units=1/GPa)
#
#
# Indices 1 2 3 4 5 6 
#
# 1 0.011426 -0.001142 0.000239 0.000000 -0.006256 0.000000
# 2 -0.001142 0.024314 0.000353 0.000000 -0.002978 0.000000
# 3 0.000239 0.000353 0.020642 0.000000 -0.001038 0.000000
# 4 0.000000 0.000000 0.000000 0.088947 0.000000 -0.044560
# 5 -0.006256 -0.002978 -0.001038 0.000000 0.028795 0.000000
# 6 0.000000 0.000000 0.000000 -0.044560 0.000000 0.085111
#
#
# Mechanical properties :
#
#
# Convention : Reuss Voigt Hill
#
# Bulk Modulus (GPa) = 18.08886 22.78938 20.43912
# Shear Modulus (GPa) = 17.93643 26.60436 22.27040
#
# Velocity S-wave (km/s) = 2.95297 3.59639 3.29044
# Velocity P-wave (km/s) = 4.51894 5.32210 4.93688
#
# Compressibility (1/GPa) = 0.05528263
#
# Stress axis : x y z
#
# Youngs Moduli (GPa) = 87.51710 41.12923 48.44423
#
# Poissons Ratio (x) = 0.04695 -0.01159
# Poissons Ratio (y) = 0.09991 -0.01708
# Poissons Ratio (z) = -0.02094 -0.01450
#
# Static dielectric constant tensor:
#      x y z
#    x 1.813480 0.000000 0.029940 
#    y 0.000000 1.784790 0.000000 
#    z 0.029940 0.000000 1.757760 
# 
# From -- ./inp_files/78011.got.cif
#   From: 2010.05.17/outbox.cif.g08.bks.cpg/sg14_40_cif.got.tgz:78011.got - 2010.06.03 17:49:19.
