data_PCOD9240870
_publ_section_title
;
Structure prediction by ZEFSAII (Michael W. Deem and Ramdas Pophale) SiO2 
 PCOD9240870
Probable space group: P 21/C
;
_chemical_formula_sum "Si O2"
_cell_formula_units_Z 20
_cell_length_a 9.240132
_cell_length_b 11.186271
_cell_length_c 7.868031
_cell_angle_alpha 90.000000
_cell_angle_beta 88.043342
_cell_angle_gamma 90.000000
_cell_volume 812.786125
_symmetry_space_group_name_H-M "P 21/C"
_symmetry_group_IT_number 14
_symmetry_cell_setting 'monoclinic'
loop_
_space_group_symop_operation_xyz
x,y,z
-x,1/2+y,1/2-z
-x,-y,-z
x,1/2-y,1/2+z
loop_
_atom_site_type_symbol
_atom_site_label
_atom_site_fract_x
_atom_site_fract_y
_atom_site_fract_z
Si Si1 0.687449 0.387122 0.598608
Si Si2 0.719008 0.610324 0.022710
Si Si3 0.917982 0.938998 0.207555
Si Si4 0.407898 0.852676 0.533470
Si Si5 0.796680 0.566892 0.371769
O O1 0.837851 0.432238 0.678272
O O2 0.585003 0.376224 0.765065
O O3 0.687818 0.261628 0.505073
O O4 0.665825 0.492377 0.461982
O O5 0.571811 0.673200 0.966613
O O6 0.762402 0.644653 0.210929
O O7 0.847118 0.610111 0.880848
O O8 0.661503 0.472144 0.040509
O O9 0.870088 0.872999 0.034932
O O10 0.086373 0.968053 0.198581
#
# Coordination Sequence:
#
# PCOD9240870 Si02
#       5
#     4   4   4   4   4
#     4   9  18  34  52  78 111 145 182 231 270 326
#     4  10  19  33  55  84 110 144 183 225 274 328
#     4   8  18  34  57  85 103 138 192 225 277 334
#     4  10  20  33  51  82 112 145 188 221 272 336
#     4   9  17  34  59  81 106 139 186 233 274 328
#
# _framework density 24.606718000000001
#
# number of rings (size 3 to 8) (size 9 to 14) (size 15 to 20)
#    1.200    1.600    0.000    1.800    0.000    0.800 
#    3.600    0.000    0.000   16.800    0.000    0.000 
#    0.000    0.000    0.000    0.000    0.000    0.000 
#
# Total GULP energy -111516.246221 kJ/mol
# GULP energy per Si atom -5575.812311 kJ/mol
# Density = 2.455071 g / cm^3
# Si number density = 24.606718 Si / 1000 Ang^3
#
#
#
# Elastic Constant Matrix: (Units=GPa)
#
#
# Indices 1 2 3 4 5 6 
#
# 1 77.0919 8.3607 42.0221 0.0000 -14.1058 0.0000
# 2 8.3607 78.2499 24.6699 0.0000 10.2429 0.0000
# 3 42.0221 24.6699 146.3305 0.0000 -17.7168 0.0000
# 4 0.0000 0.0000 0.0000 30.7740 0.0000 -0.5895
# 5 -14.1058 10.2429 -17.7168 0.0000 42.0044 0.0000
# 6 0.0000 0.0000 0.0000 -0.5895 0.0000 11.3087
#
#
#
# Elastic Compliance Matrix: (Units=1/GPa)
#
#
# Indices 1 2 3 4 5 6 
#
# 1 0.015943 -0.000977 -0.003938 0.000000 0.003931 0.000000
# 2 -0.000977 0.014407 -0.002754 0.000000 -0.005003 0.000000
# 3 -0.003938 -0.002754 0.008800 0.000000 0.003061 0.000000
# 4 0.000000 0.000000 0.000000 0.032527 0.000000 0.001696
# 5 0.003931 -0.005003 0.003061 0.000000 0.027638 0.000000
# 6 0.000000 0.000000 0.000000 0.001696 0.000000 0.088516
#
#
# Mechanical properties :
#
#
# Convention : Reuss Voigt Hill
#
# Bulk Modulus (GPa) = 41.99434 50.19753 46.09594
# Shear Modulus (GPa) = 23.68472 31.92537 27.80505
#
# Velocity S-wave (km/s) = 3.10583 3.60589 3.36516
# Velocity P-wave (km/s) = 5.47402 6.14661 5.82004
#
# Compressibility (1/GPa) = 0.02381273
#
# Stress axis : x y z
#
# Youngs Moduli (GPa) = 62.72249 69.41026 113.64166
#
# Poissons Ratio (x) = 0.06779 0.44750
# Poissons Ratio (y) = 0.06125 0.31299
# Poissons Ratio (z) = 0.24699 0.19117
#
# Static dielectric constant tensor:
#      x y z
#    x 1.959530 0.000000 0.007570 
#    y 0.000000 1.952180 0.000000 
#    z 0.007570 0.000000 1.993010 
# 
# From -- ./inp_files/8256.got.cif
#   From: 2010.05.17/outbox.cif.g08.bks.cpg/sg14_5_cif.got.tgz:8256.got - 2010.06.03 17:49:19.
