data_PCOD9240458
_publ_section_title
;
Structure prediction by ZEFSAII (Michael W. Deem and Ramdas Pophale) SiO2 
 PCOD9240458
Probable space group: P 21/C
;
_chemical_formula_sum "Si O2"
_cell_formula_units_Z 32
_cell_length_a 20.739763
_cell_length_b 11.378245
_cell_length_c 15.282982
_cell_angle_alpha 90.000000
_cell_angle_beta 25.789013
_cell_angle_gamma 90.000000
_cell_volume 1569.042751
_symmetry_space_group_name_H-M "P 21/C"
_symmetry_group_IT_number 14
_symmetry_cell_setting 'monoclinic'
loop_
_space_group_symop_operation_xyz
x,y,z
-x,1/2+y,1/2-z
-x,-y,-z
x,1/2-y,1/2+z
loop_
_atom_site_type_symbol
_atom_site_label
_atom_site_fract_x
_atom_site_fract_y
_atom_site_fract_z
Si Si1 0.432473 0.126183 0.111512
Si Si2 0.217072 0.237935 0.087917
Si Si3 0.513254 0.796380 0.612241
Si Si4 0.297155 0.840344 0.105251
Si Si5 0.138134 0.446257 0.068718
Si Si6 0.305069 0.634353 0.972153
Si Si7 0.031733 0.583662 0.041238
Si Si8 0.607522 0.984244 0.165377
O O1 0.273887 0.092637 0.341401
O O2 0.427957 0.226214 0.043334
O O3 0.537360 0.173087 0.060298
O O4 0.500000 0.000000 0.000000
O O5 0.096113 0.179846 0.298690
O O6 0.354095 0.292557 0.976911
O O7 0.122828 0.329579 0.145347
O O8 0.292422 0.130742 0.941225
O O9 0.375190 0.717645 0.812776
O O10 0.439841 0.925642 0.700100
O O11 0.192254 0.866037 0.316473
O O12 0.248898 0.721437 0.115956
O O13 0.314529 0.942204 0.009727
O O14 0.186585 0.547747 0.076448
O O15 0.028243 0.507798 0.134789
O O16 0.448689 0.561583 0.826341
O O17 0.000000 0.500000 0.000000
#
# Coordination Sequence:
#
# PCOD9240458 Si02
#       8
#     4   4   4   4   4   4   4   4
#     4  12  18  35  64  98 120 156 214 263 310 360
#     4  11  23  42  62  92 128 170 209 252 320 377
#     4  10  19  34  67  93 127 159 204 265 316 364
#     4  11  21  37  63  94 124 161 210 258 313 367
#     4  12  23  41  66  90 125 164 213 259 309 375
#     4  10  19  36  62  93 121 158 201 261 320 364
#     4  12  25  42  63  89 125 166 213 256 300 379
#     4  10  18  38  65  92 125 159 200 269 319 367
#
# _framework density 20.394600000000001
#
# number of rings (size 3 to 8) (size 9 to 14) (size 15 to 20)
#    0.000    1.000    6.250    3.000    0.000    1.000 
#    2.250    3.125    0.000    0.000    0.000    0.000 
#    0.000    0.000    0.000    0.000    0.000    0.000 
#
# Total GULP energy -178438.310480 kJ/mol
# GULP energy per Si atom -5576.197203 kJ/mol
# Density = 2.034818 g / cm^3
# Si number density = 20.394600 Si / 1000 Ang^3
#
#
#
# Elastic Constant Matrix: (Units=GPa)
#
#
# Indices 1 2 3 4 5 6 
#
# 1 64.8923 40.4062 3.4618 0.0000 6.0130 0.0000
# 2 40.4062 97.9683 6.6427 0.0000 4.9993 0.0000
# 3 3.4618 6.6427 42.7590 0.0000 -0.4634 0.0000
# 4 0.0000 0.0000 0.0000 11.0532 0.0000 13.8353
# 5 6.0130 4.9993 -0.4634 0.0000 20.6813 0.0000
# 6 0.0000 0.0000 0.0000 13.8353 0.0000 36.0904
#
#
#
# Elastic Compliance Matrix: (Units=1/GPa)
#
#
# Indices 1 2 3 4 5 6 
#
# 1 0.021077 -0.008455 -0.000437 0.000000 -0.004094 0.000000
# 2 -0.008455 0.013841 -0.001476 0.000000 -0.000921 0.000000
# 3 -0.000437 -0.001476 0.023663 0.000000 0.001014 0.000000
# 4 0.000000 0.000000 0.000000 0.173930 0.000000 -0.066676
# 5 -0.004094 -0.000921 0.001014 0.000000 0.049788 0.000000
# 6 0.000000 0.000000 0.000000 -0.066676 0.000000 0.053269
#
#
# Mechanical properties :
#
#
# Convention : Reuss Voigt Hill
#
# Bulk Modulus (GPa) = 26.42297 34.07121 30.24709
# Shear Modulus (GPa) = 13.55310 23.90558 18.72934
#
# Velocity S-wave (km/s) = 2.58067 3.42739 3.03371
# Velocity P-wave (km/s) = 4.67588 5.69253 5.20906
#
# Compressibility (1/GPa) = 0.03784585
#
# Stress axis : x y z
#
# Youngs Moduli (GPa) = 47.44466 72.24676 42.26084
#
# Poissons Ratio (x) = 0.61081 0.01848
# Poissons Ratio (y) = 0.40112 0.06237
# Poissons Ratio (z) = 0.02075 0.10662
#
# Static dielectric constant tensor:
#      x y z
#    x 1.825870 0.000000 -0.029080 
#    y 0.000000 1.788230 0.000000 
#    z -0.029080 0.000000 1.783180 
# 
# From -- ./inp_files/50383.got.cif
#   From: 2010.05.17/outbox.cif.g08.bks.cpg/sg14_26_cif.got.tgz:50383.got - 2010.06.03 17:49:19.
