data_PCOD9240884
_publ_section_title
;
Structure prediction by ZEFSAII (Michael W. Deem and Ramdas Pophale) SiO2 
 PCOD9240884
Probable space group: P 21/C
;
_chemical_formula_sum "Si O2"
_cell_formula_units_Z 32
_cell_length_a 13.648746
_cell_length_b 15.207753
_cell_length_c 14.915394
_cell_angle_alpha 90.000000
_cell_angle_beta 28.070886
_cell_angle_gamma 90.000000
_cell_volume 1456.836601
_symmetry_space_group_name_H-M "P 21/C"
_symmetry_group_IT_number 14
_symmetry_cell_setting 'monoclinic'
loop_
_space_group_symop_operation_xyz
x,y,z
-x,1/2+y,1/2-z
-x,-y,-z
x,1/2-y,1/2+z
loop_
_atom_site_type_symbol
_atom_site_label
_atom_site_fract_x
_atom_site_fract_y
_atom_site_fract_z
Si Si1 0.235528 0.479003 0.456342
Si Si2 0.322432 0.001736 0.339394
Si Si3 0.554904 0.913349 0.398201
Si Si4 0.977438 0.643850 0.900203
Si Si5 0.102882 0.662777 0.284253
Si Si6 0.004188 0.849304 0.076424
Si Si7 0.964200 0.155533 0.430062
Si Si8 0.259680 0.012753 0.187155
O O1 0.430680 0.493582 0.363898
O O2 0.356786 0.445467 0.268917
O O3 0.115989 0.568722 0.531842
O O4 0.059372 0.408489 0.623033
O O5 0.215730 0.008428 0.329089
O O6 0.240022 0.093822 0.448039
O O7 0.218550 0.910141 0.455362
O O8 0.342323 0.857087 0.565829
O O9 0.753937 0.862673 0.278986
O O10 0.500000 0.000000 0.500000
O O11 0.024244 0.739555 0.823607
O O12 0.141852 0.569106 0.739066
O O13 0.012641 0.659709 0.979306
O O14 0.079646 0.650347 0.411344
O O15 0.060856 0.756400 0.074855
O O16 0.172777 0.106737 0.228422
O O17 0.500000 0.000000 0.000000
#
# Coordination Sequence:
#
# PCOD9240884 Si02
#       8
#     4   4   4   4   4   4   4   4
#     4  11  21  34  55  77 112 148 169 217 279 315
#     4   9  19  37  53  75 112 143 168 218 277 322
#     4  11  19  35  56  77 104 137 186 226 252 309
#     4   8  17  34  56  75 101 139 177 218 261 315
#     4  10  19  35  56  79 104 139 187 218 259 318
#     4  10  19  33  56  80 102 144 181 217 263 313
#     4   8  17  34  54  75 103 136 181 216 257 319
#     4   9  17  33  56  80 100 134 183 223 262 313
#
# _framework density 21.965401
#
# number of rings (size 3 to 8) (size 9 to 14) (size 15 to 20)
#    0.000    2.500    2.500    2.250    1.750    1.000 
#    4.500    0.000    2.750    0.000    0.000    0.000 
#    0.000    0.000    0.000    0.000    0.000    0.000 
#
# Total GULP energy -178383.420004 kJ/mol
# GULP energy per Si atom -5574.481875 kJ/mol
# Density = 2.191541 g / cm^3
# Si number density = 21.965401 Si / 1000 Ang^3
#
#
#
# Elastic Constant Matrix: (Units=GPa)
#
#
# Indices 1 2 3 4 5 6 
#
# 1 64.4254 23.9489 19.4281 0.0000 -8.6859 0.0000
# 2 23.9489 201.0689 66.1478 0.0000 -25.7761 0.0000
# 3 19.4281 66.1478 153.1375 0.0000 -33.1305 0.0000
# 4 0.0000 0.0000 0.0000 11.2902 0.0000 -0.3369
# 5 -8.6859 -25.7761 -33.1305 0.0000 35.5799 0.0000
# 6 0.0000 0.0000 0.0000 -0.3369 0.0000 -5.2900
#
#
#
# Elastic Compliance Matrix: (Units=1/GPa)
#
#
# Indices 1 2 3 4 5 6 
#
# 1 0.016631 -0.001362 -0.001073 0.000000 0.002074 0.000000
# 2 -0.001362 0.006069 -0.001965 0.000000 0.002234 0.000000
# 3 -0.001073 -0.001965 0.008954 0.000000 0.006652 0.000000
# 4 0.000000 0.000000 0.000000 0.088405 0.000000 -0.005631
# 5 0.002074 0.002234 0.006652 0.000000 0.036425 0.000000
# 6 0.000000 0.000000 0.000000 -0.005631 0.000000 -0.188678
#
#
# Mechanical properties :
#
#
# Convention : Reuss Voigt Hill
#
# Bulk Modulus (GPa) = 43.75622 70.85349 57.30486
# Shear Modulus (GPa) = -316.94024 28.92315 -144.00855
#
# Velocity S-wave (km/s) = -12.02514 3.63265 -8.10579
# Velocity P-wave (km/s) = 13.14692 7.06554 7.83963
#
# Compressibility (1/GPa) = 0.02285389
#
# Stress axis : x y z
#
# Youngs Moduli (GPa) = 60.12747 164.78397 111.67906
#
# Poissons Ratio (x) = 0.22444 0.11982
# Poissons Ratio (y) = 0.08190 0.21947
# Poissons Ratio (z) = 0.06451 0.32383
#
# Static dielectric constant tensor:
#      x y z
#    x 1.937630 0.000000 0.101840 
#    y 0.000000 1.819690 0.000000 
#    z 0.101840 0.000000 1.811050 
# 
# From -- ./inp_files/69412.got.cif
#   From: 2010.05.17/outbox.cif.g08.bks.cpg/sg14_35_cif.got.tgz:69412.got - 2010.06.03 17:49:19.
