data_PCOD9240744
_publ_section_title
;
Structure prediction by ZEFSAII (Michael W. Deem and Ramdas Pophale) SiO2 
 PCOD9240744
Probable space group: P 21/C
;
_chemical_formula_sum "Si O2"
_cell_formula_units_Z 24
_cell_length_a 7.963750
_cell_length_b 14.770448
_cell_length_c 14.061805
_cell_angle_alpha 90.000000
_cell_angle_beta 147.123776
_cell_angle_gamma 90.000000
_cell_volume 897.869021
_symmetry_space_group_name_H-M "P 21/C"
_symmetry_group_IT_number 14
_symmetry_cell_setting 'monoclinic'
loop_
_space_group_symop_operation_xyz
x,y,z
-x,1/2+y,1/2-z
-x,-y,-z
x,1/2-y,1/2+z
loop_
_atom_site_type_symbol
_atom_site_label
_atom_site_fract_x
_atom_site_fract_y
_atom_site_fract_z
Si Si1 0.540559 0.434719 0.230977
Si Si2 0.279958 0.584587 0.000977
Si Si3 0.036564 0.370987 0.722468
Si Si4 0.760884 0.534301 0.514904
Si Si5 0.796021 0.690925 0.647345
Si Si6 0.671705 0.228797 0.902529
O O1 0.282928 0.484504 0.045636
O O2 0.884735 0.453163 0.353924
O O3 0.527378 0.328591 0.248547
O O4 0.548584 0.488417 0.334700
O O5 0.270666 0.664663 0.076545
O O6 0.614743 0.593031 0.110711
O O7 0.028468 0.619935 0.807708
O O8 0.029676 0.285018 0.788917
O O9 0.971628 0.326153 0.585586
O O10 0.805771 0.455553 0.615960
O O11 0.666548 0.634755 0.498875
O O12 0.543640 0.715277 0.606449
#
# Coordination Sequence:
#
# PCOD9240744 Si02
#       6
#     4   4   4   4   4   4
#     4   9  18  33  52  72 102 138 166 194 250 314
#     4   9  18  34  53  73 101 136 166 202 252 300
#     4   8  17  33  51  68  98 138 164 188 248 312
#     4   9  18  34  53  73 100 138 169 196 246 312
#     4  10  19  32  54  77  98 126 171 215 244 281
#     4   9  18  34  53  73 101 136 166 202 252 300
#
# _framework density 26.729956999999999
#
# number of rings (size 3 to 8) (size 9 to 14) (size 15 to 20)
#    0.000    3.000    0.000    1.000    0.000    6.000 
#    0.000    8.333    0.000    2.000    0.000    0.000 
#    0.000    0.000    0.000    0.000    0.000    0.000 
#
# Total GULP energy -134067.915388 kJ/mol
# GULP energy per Si atom -5586.163141 kJ/mol
# Density = 2.666912 g / cm^3
# Si number density = 26.729957 Si / 1000 Ang^3
#
#
#
# Elastic Constant Matrix: (Units=GPa)
#
#
# Indices 1 2 3 4 5 6 
#
# 1 26.8020 12.8973 12.0154 0.0000 7.4382 0.0000
# 2 12.8973 159.1681 1.9099 0.0000 -35.5901 0.0000
# 3 12.0154 1.9099 32.8252 0.0000 2.1420 0.0000
# 4 0.0000 0.0000 0.0000 51.9505 0.0000 -11.3005
# 5 7.4382 -35.5901 2.1420 0.0000 24.6373 0.0000
# 6 0.0000 0.0000 0.0000 -11.3005 0.0000 29.8639
#
#
#
# Elastic Compliance Matrix: (Units=1/GPa)
#
#
# Indices 1 2 3 4 5 6 
#
# 1 0.062058 -0.012702 -0.019668 0.000000 -0.035375 0.000000
# 2 -0.012702 0.011947 0.002593 0.000000 0.020867 0.000000
# 3 -0.019668 0.002593 0.037091 0.000000 0.006459 0.000000
# 4 0.000000 0.000000 0.000000 0.020976 0.000000 0.007937
# 5 -0.035375 0.020867 0.006459 0.000000 0.080852 0.000000
# 6 0.000000 0.000000 0.000000 0.007937 0.000000 0.036489
#
#
# Mechanical properties :
#
#
# Convention : Reuss Voigt Hill
#
# Bulk Modulus (GPa) = 19.40229 30.27118 24.83673
# Shear Modulus (GPa) = 15.33046 34.08853 24.70949
#
# Velocity S-wave (km/s) = 2.39745 3.57500 3.04371
# Velocity P-wave (km/s) = 3.86498 5.32825 4.65448
#
# Compressibility (1/GPa) = 0.05154030
#
# Stress axis : x y z
#
# Youngs Moduli (GPa) = 16.11398 83.70451 26.96036
#
# Poissons Ratio (x) = 1.06325 0.53027
# Poissons Ratio (y) = 0.20469 -0.06990
# Poissons Ratio (z) = 0.31694 -0.21703
#
# Static dielectric constant tensor:
#      x y z
#    x 2.191580 0.000000 0.017980 
#    y 0.000000 2.134580 0.000000 
#    z 0.017980 0.000000 2.163600 
# 
# From -- ./inp_files/24535.got.cif
#   From: 2010.05.17/outbox.cif.g08.bks.cpg/sg14_13_cif.got.tgz:24535.got - 2010.06.03 17:49:19.
