data_PCOD9240423
_publ_section_title
;
Structure prediction by ZEFSAII (Michael W. Deem and Ramdas Pophale) SiO2 
 PCOD9240423
Probable space group: P 21/C
;
_chemical_formula_sum "Si O2"
_cell_formula_units_Z 32
_cell_length_a 11.637972
_cell_length_b 7.841285
_cell_length_c 18.167705
_cell_angle_alpha 90.000000
_cell_angle_beta 50.640210
_cell_angle_gamma 90.000000
_cell_volume 1281.871741
_symmetry_space_group_name_H-M "P 21/C"
_symmetry_group_IT_number 14
_symmetry_cell_setting 'monoclinic'
loop_
_space_group_symop_operation_xyz
x,y,z
-x,1/2+y,1/2-z
-x,-y,-z
x,1/2-y,1/2+z
loop_
_atom_site_type_symbol
_atom_site_label
_atom_site_fract_x
_atom_site_fract_y
_atom_site_fract_z
Si Si1 0.184805 0.377593 0.862107
Si Si2 0.772277 0.379837 0.712805
Si Si3 0.644053 0.843924 0.952749
Si Si4 0.829855 0.449978 0.281834
Si Si5 0.827874 0.543686 0.827220
Si Si6 0.439396 0.186342 0.366876
Si Si7 0.129795 0.757598 0.467462
Si Si8 0.627793 0.332988 0.018571
O O1 0.218034 0.426511 0.765232
O O2 0.318314 0.292669 0.852502
O O3 0.158793 0.559735 0.914891
O O4 0.030195 0.277620 0.931055
O O5 0.782615 0.543872 0.760082
O O6 0.603552 0.321482 0.767084
O O7 0.860647 0.378865 0.601484
O O8 0.834044 0.234254 0.742438
O O9 0.710713 0.019204 0.894629
O O10 0.784433 0.717432 0.886140
O O11 0.516106 0.764577 0.952699
O O12 0.585626 0.827542 0.059577
O O13 0.997949 0.489345 0.236504
O O14 0.725745 0.407030 0.911520
O O15 0.419748 0.005203 0.417516
O O16 0.260443 0.734090 0.473046
#
# Coordination Sequence:
#
# PCOD9240423 Si02
#       8
#     4   4   4   4   4   4   4   4
#     4   9  19  36  55  83 112 149 193 234 275 337
#     4  11  22  37  58  90 115 149 188 241 291 336
#     4  11  22  37  60  87 111 156 189 234 291 341
#     4  11  24  36  59  87 121 149 189 241 292 339
#     4  11  20  40  61  85 113 150 201 240 275 341
#     4  10  20  36  58  83 115 149 193 235 278 347
#     4   9  19  33  60  82 110 147 194 237 277 326
#     4  10  18  38  61  81 111 153 198 236 275 341
#
# _framework density 24.963497
#
# number of rings (size 3 to 8) (size 9 to 14) (size 15 to 20)
#    0.000    1.750    3.750    1.500    8.750    0.500 
#    0.000    0.000    0.000    0.750    0.000    0.000 
#    0.000    0.000    0.000    0.000    0.000    0.000 
#
# Total GULP energy -179252.586792 kJ/mol
# GULP energy per Si atom -5601.643337 kJ/mol
# Density = 2.490668 g / cm^3
# Si number density = 24.963497 Si / 1000 Ang^3
#
#
#
# Elastic Constant Matrix: (Units=GPa)
#
#
# Indices 1 2 3 4 5 6 
#
# 1 112.3105 4.1057 17.8274 0.0000 -19.6973 0.0000
# 2 4.1057 61.3032 11.5521 0.0000 -3.6796 0.0000
# 3 17.8274 11.5521 85.9649 0.0000 -1.7362 0.0000
# 4 0.0000 0.0000 0.0000 39.5975 0.0000 -4.2989
# 5 -19.6973 -3.6796 -1.7362 0.0000 45.7825 0.0000
# 6 0.0000 0.0000 0.0000 -4.2989 0.0000 21.2774
#
#
#
# Elastic Compliance Matrix: (Units=1/GPa)
#
#
# Indices 1 2 3 4 5 6 
#
# 1 0.009956 -0.000042 -0.001974 0.000000 0.004205 0.000000
# 2 -0.000042 0.016809 -0.002225 0.000000 0.001248 0.000000
# 3 -0.001974 -0.002225 0.012330 0.000000 -0.000561 0.000000
# 4 0.000000 0.000000 0.000000 0.025820 0.000000 0.005217
# 5 0.004205 0.001248 -0.000561 0.000000 0.023731 0.000000
# 6 0.000000 0.000000 0.000000 0.005217 0.000000 0.048052
#
#
# Mechanical properties :
#
#
# Convention : Reuss Voigt Hill
#
# Bulk Modulus (GPa) = 32.66621 36.28322 34.47472
# Shear Modulus (GPa) = 32.17797 36.40438 34.29118
#
# Velocity S-wave (km/s) = 3.59416 3.82292 3.71030
# Velocity P-wave (km/s) = 5.50799 5.83544 5.67408
#
# Compressibility (1/GPa) = 0.03061267
#
# Stress axis : x y z
#
# Youngs Moduli (GPa) = 100.43858 59.49057 81.10490
#
# Poissons Ratio (x) = 0.00252 0.16011
# Poissons Ratio (y) = 0.00426 0.18045
# Poissons Ratio (z) = 0.19828 0.13236
#
# Static dielectric constant tensor:
#      x y z
#    x 1.913680 0.000000 0.035830 
#    y 0.000000 2.127870 0.000000 
#    z 0.035830 0.000000 1.911360 
# 
# From -- ./inp_files/67260.got.cif
#   From: 2010.05.17/outbox.cif.g08.bks.cpg/sg14_34_cif.got.tgz:67260.got - 2010.06.03 17:49:19.
