data_PCOD9240484
_publ_section_title
;
Structure prediction by ZEFSAII (Michael W. Deem and Ramdas Pophale) SiO2 
 PCOD9240484
Probable space group: P 21/C
;
_chemical_formula_sum "Si O2"
_cell_formula_units_Z 28
_cell_length_a 15.319211
_cell_length_b 7.871355
_cell_length_c 23.747218
_cell_angle_alpha 90.000000
_cell_angle_beta 154.075958
_cell_angle_gamma 90.000000
_cell_volume 1251.866860
_symmetry_space_group_name_H-M "P 21/C"
_symmetry_group_IT_number 14
_symmetry_cell_setting 'monoclinic'
loop_
_space_group_symop_operation_xyz
x,y,z
-x,1/2+y,1/2-z
-x,-y,-z
x,1/2-y,1/2+z
loop_
_atom_site_type_symbol
_atom_site_label
_atom_site_fract_x
_atom_site_fract_y
_atom_site_fract_z
Si Si1 0.296055 0.110421 0.277884
Si Si2 0.959845 0.253383 0.017737
Si Si3 0.720426 0.242071 0.671332
Si Si4 0.973544 0.629175 0.061206
Si Si5 0.295542 0.196160 0.894149
Si Si6 0.116505 0.544014 0.840102
Si Si7 0.335391 0.596285 0.082780
O O1 0.077514 0.123688 0.124626
O O2 0.315756 0.242538 0.340921
O O3 0.447231 0.130560 0.313875
O O4 0.339916 0.928238 0.329757
O O5 0.048498 0.441656 0.084864
O O6 0.987840 0.242780 0.967581
O O7 0.735631 0.273603 0.910343
O O8 0.899835 0.320974 0.811185
O O9 0.514554 0.344361 0.545016
O O10 0.796563 0.170710 0.656311
O O11 0.740226 0.588350 0.938433
O O12 0.205602 0.360829 0.875185
O O13 0.123628 0.055850 0.800508
O O14 0.194833 0.609475 0.945668
#
# Coordination Sequence:
#
# PCOD9240484 Si02
#       7
#     4   4   4   4   4   4   4
#     4  11  20  37  63  87 118 156 200 244 297 353
#     4   9  21  42  61  83 117 163 199 243 294 353
#     4  11  22  36  59  90 124 152 197 248 296 360
#     4   9  21  43  60  81 124 159 194 247 299 345
#     4  11  21  38  56  94 121 158 194 246 297 363
#     4  11  20  36  60  86 123 156 192 237 310 340
#     4  10  18  39  60  82 117 155 194 245 294 340
#
# _framework density 22.366596000000001
#
# number of rings (size 3 to 8) (size 9 to 14) (size 15 to 20)
#    0.857    0.857    4.286    1.714    0.000    0.571 
#    5.143    2.143    0.000    0.000    0.000    0.000 
#    0.000    0.000    0.000    0.000    0.000    0.000 
#
# Total GULP energy -156242.958472 kJ/mol
# GULP energy per Si atom -5580.105660 kJ/mol
# Density = 2.231569 g / cm^3
# Si number density = 22.366596 Si / 1000 Ang^3
#
#
#
# Elastic Constant Matrix: (Units=GPa)
#
#
# Indices 1 2 3 4 5 6 
#
# 1 113.1621 2.8684 0.8276 0.0000 9.1043 0.0000
# 2 2.8684 33.9703 3.4789 0.0000 -6.5301 0.0000
# 3 0.8276 3.4789 18.0681 0.0000 7.9623 0.0000
# 4 0.0000 0.0000 0.0000 24.4508 0.0000 -1.9152
# 5 9.1043 -6.5301 7.9623 0.0000 45.4243 0.0000
# 6 0.0000 0.0000 0.0000 -1.9152 0.0000 19.5605
#
#
#
# Elastic Compliance Matrix: (Units=1/GPa)
#
#
# Indices 1 2 3 4 5 6 
#
# 1 0.009034 -0.001249 0.000763 0.000000 -0.002124 0.000000
# 2 -0.001249 0.031669 -0.008840 0.000000 0.006353 0.000000
# 3 0.000763 -0.008840 0.062466 0.000000 -0.012373 0.000000
# 4 0.000000 0.000000 0.000000 0.041215 0.000000 0.004035
# 5 -0.002124 0.006353 -0.012373 0.000000 0.025522 0.000000
# 6 0.000000 0.000000 0.000000 0.004035 0.000000 0.051519
#
#
# Mechanical properties :
#
#
# Convention : Reuss Voigt Hill
#
# Bulk Modulus (GPa) = 11.83208 19.95007 15.89108
# Shear Modulus (GPa) = 18.63932 28.42215 23.53074
#
# Velocity S-wave (km/s) = 2.88992 3.56861 3.24705
# Velocity P-wave (km/s) = 4.05427 5.09107 4.60196
#
# Compressibility (1/GPa) = 0.08451597
#
# Stress axis : x y z
#
# Youngs Moduli (GPa) = 110.69491 31.57618 16.00872
#
# Poissons Ratio (x) = 0.03944 -0.01221
# Poissons Ratio (y) = 0.13828 0.14152
# Poissons Ratio (z) = -0.08442 0.27914
#
# Static dielectric constant tensor:
#      x y z
#    x 1.859730 0.000000 0.014970 
#    y 0.000000 1.860700 0.000000 
#    z 0.014970 0.000000 1.790460 
# 
# From -- ./inp_files/73655.got.cif
#   From: 2010.05.17/outbox.cif.g08.bks.cpg/sg14_37_cif.got.tgz:73655.got - 2010.06.03 17:49:19.
