data_PCOD9240816
_publ_section_title
;
Structure prediction by ZEFSAII (Michael W. Deem and Ramdas Pophale) SiO2 
 PCOD9240816
Probable space group: P 21/C
;
_chemical_formula_sum "Si O2"
_cell_formula_units_Z 28
_cell_length_a 11.978867
_cell_length_b 12.892150
_cell_length_c 14.173755
_cell_angle_alpha 90.000000
_cell_angle_beta 150.377256
_cell_angle_gamma 90.000000
_cell_volume 1081.945003
_symmetry_space_group_name_H-M "P 21/C"
_symmetry_group_IT_number 14
_symmetry_cell_setting 'monoclinic'
loop_
_space_group_symop_operation_xyz
x,y,z
-x,1/2+y,1/2-z
-x,-y,-z
x,1/2-y,1/2+z
loop_
_atom_site_type_symbol
_atom_site_label
_atom_site_fract_x
_atom_site_fract_y
_atom_site_fract_z
Si Si1 0.112455 0.265963 0.489103
Si Si2 0.399263 0.798619 0.601398
Si Si3 0.700609 0.065791 0.021151
Si Si4 0.486401 0.618767 0.418128
Si Si5 0.363251 0.844232 0.353216
Si Si6 0.166513 0.122622 0.343982
Si Si7 0.934048 0.814994 0.348758
O O1 0.113964 0.202067 0.392250
O O2 0.088720 0.182199 0.556129
O O3 0.354113 0.319461 0.677258
O O4 0.907046 0.347283 0.352771
O O5 0.365172 0.672839 0.578310
O O6 0.397727 0.828656 0.490237
O O7 0.179537 0.843928 0.491097
O O8 0.675722 0.090650 0.114431
O O9 0.962297 0.041608 0.193449
O O10 0.520642 0.975166 0.872062
O O11 0.419593 0.734577 0.342047
O O12 0.734054 0.627074 0.648350
O O13 0.572352 0.913434 0.468583
O O14 0.120545 0.195500 0.219638
#
# Coordination Sequence:
#
# PCOD9240816 Si02
#       7
#     4   4   4   4   4   4   4
#     4  12  18  32  55  78 101 138 168 206 266 290
#     4  10  19  34  51  78 104 131 173 208 251 299
#     4   9  16  32  52  72 107 136 159 210 259 296
#     4   9  16  32  52  72 107 136 159 210 259 296
#     4  10  19  34  51  78 104 131 173 208 251 299
#     4  10  19  33  51  77 106 130 174 209 249 304
#     4  10  19  33  51  77 106 130 174 209 249 304
#
# _framework density 25.879321000000001
#
# number of rings (size 3 to 8) (size 9 to 14) (size 15 to 20)
#    0.000    2.000    8.571    0.857    0.000    0.000 
#    0.000    2.857    0.000    0.857    0.000   17.000 
#    0.000    0.000    0.000    0.000    0.000    0.000 
#
# Total GULP energy -156428.790265 kJ/mol
# GULP energy per Si atom -5586.742509 kJ/mol
# Density = 2.582042 g / cm^3
# Si number density = 25.879321 Si / 1000 Ang^3
#
#
#
# Elastic Constant Matrix: (Units=GPa)
#
#
# Indices 1 2 3 4 5 6 
#
# 1 124.8141 12.6410 45.3244 0.0000 31.0565 0.0000
# 2 12.6410 49.8808 -0.4681 0.0000 5.5712 0.0000
# 3 45.3244 -0.4681 155.4759 0.0000 48.7591 0.0000
# 4 0.0000 0.0000 0.0000 17.9692 0.0000 9.3728
# 5 31.0565 5.5712 48.7591 0.0000 61.5861 0.0000
# 6 0.0000 0.0000 0.0000 9.3728 0.0000 30.4866
#
#
#
# Elastic Compliance Matrix: (Units=1/GPa)
#
#
# Indices 1 2 3 4 5 6 
#
# 1 0.009695 -0.002109 -0.001808 0.000000 -0.003267 0.000000
# 2 -0.002109 0.020795 0.001242 0.000000 -0.001801 0.000000
# 3 -0.001808 0.001242 0.008929 0.000000 -0.006270 0.000000
# 4 0.000000 0.000000 0.000000 0.066280 0.000000 -0.020377
# 5 -0.003267 -0.001801 -0.006270 0.000000 0.023012 0.000000
# 6 0.000000 0.000000 0.000000 -0.020377 0.000000 0.039066
#
#
# Mechanical properties :
#
#
# Convention : Reuss Voigt Hill
#
# Bulk Modulus (GPa) = 29.35200 49.46284 39.40742
# Shear Modulus (GPa) = 27.10284 40.18661 33.64473
#
# Velocity S-wave (km/s) = 3.23968 3.94489 3.60955
# Velocity P-wave (km/s) = 5.03592 6.31696 5.71246
#
# Compressibility (1/GPa) = 0.03406923
#
# Stress axis : x y z
#
# Youngs Moduli (GPa) = 103.14679 48.08825 111.99418
#
# Poissons Ratio (x) = 0.10142 0.20251
# Poissons Ratio (y) = 0.21754 -0.13913
# Poissons Ratio (z) = 0.18651 -0.05974
#
# Static dielectric constant tensor:
#      x y z
#    x 2.042820 0.000000 0.008670 
#    y 0.000000 2.060840 0.000000 
#    z 0.008670 0.000000 2.104090 
# 
# From -- ./inp_files/45311.got.cif
#   From: 2010.05.17/outbox.cif.g08.bks.cpg/sg14_23_cif.got.tgz:45311.got - 2010.06.03 17:49:19.
