data_PCOD9240697
_publ_section_title
;
Structure prediction by ZEFSAII (Michael W. Deem and Ramdas Pophale) SiO2 
 PCOD9240697
Probable space group: P 21/C
;
_chemical_formula_sum "Si O2"
_cell_formula_units_Z 28
_cell_length_a 16.819663
_cell_length_b 8.168501
_cell_length_c 19.688701
_cell_angle_alpha 90.000000
_cell_angle_beta 153.663527
_cell_angle_gamma 90.000000
_cell_volume 1200.077132
_symmetry_space_group_name_H-M "P 21/C"
_symmetry_group_IT_number 14
_symmetry_cell_setting 'monoclinic'
loop_
_space_group_symop_operation_xyz
x,y,z
-x,1/2+y,1/2-z
-x,-y,-z
x,1/2-y,1/2+z
loop_
_atom_site_type_symbol
_atom_site_label
_atom_site_fract_x
_atom_site_fract_y
_atom_site_fract_z
Si Si1 0.242176 0.575950 0.831494
Si Si2 0.152071 0.496126 0.213127
Si Si3 0.075575 0.764730 0.533487
Si Si4 0.734312 0.870572 0.010737
Si Si5 0.094825 0.691111 0.307194
Si Si6 0.850848 0.925247 0.960972
Si Si7 0.558880 0.766777 0.005481
O O1 0.212644 0.647463 0.884287
O O2 0.329625 0.400460 0.901388
O O3 0.048236 0.562568 0.647570
O O4 0.370239 0.704382 0.890345
O O5 0.152957 0.601856 0.144899
O O6 0.096643 0.603825 0.234916
O O7 0.336684 0.402957 0.370305
O O8 0.996055 0.361217 0.085969
O O9 0.189672 0.605188 0.600032
O O10 0.895777 0.694111 0.433085
O O11 0.721282 0.851833 0.919424
O O12 0.572966 0.832436 0.938592
O O13 0.894858 0.756930 0.163866
O O14 0.808837 0.057201 0.073328
#
# Coordination Sequence:
#
# PCOD9240697 Si02
#       7
#     4   4   4   4   4   4   4
#     4  10  19  37  51  84 108 149 184 224 293 345
#     4  10  19  32  51  86 105 142 183 231 272 331
#     4  10  19  33  53  81 109 142 189 226 262 333
#     4  10  19  32  50  84 109 139 173 235 284 333
#     4  10  20  32  54  80 111 134 179 227 284 335
#     4  10  19  35  56  82 108 147 188 235 276 337
#     4  10  21  34  57  79 116 143 181 238 293 341
#
# _framework density 23.331833
#
# number of rings (size 3 to 8) (size 9 to 14) (size 15 to 20)
#    0.000    2.000    4.286    1.714    2.000    2.286 
#    0.000    0.000    0.000    0.000   22.286    0.000 
#    0.000    0.000    0.000    0.000    0.000    0.000 
#
# Total GULP energy -156312.687553 kJ/mol
# GULP energy per Si atom -5582.595984 kJ/mol
# Density = 2.327873 g / cm^3
# Si number density = 23.331833 Si / 1000 Ang^3
#
#
#
# Elastic Constant Matrix: (Units=GPa)
#
#
# Indices 1 2 3 4 5 6 
#
# 1 105.8866 9.7891 11.3177 0.0000 8.7644 0.0000
# 2 9.7891 104.5475 19.5263 0.0000 5.6937 0.0000
# 3 11.3177 19.5263 21.5133 0.0000 5.9503 0.0000
# 4 0.0000 0.0000 0.0000 36.1015 0.0000 -1.0215
# 5 8.7644 5.6937 5.9503 0.0000 27.7340 0.0000
# 6 0.0000 0.0000 0.0000 -1.0215 0.0000 37.4781
#
#
#
# Elastic Compliance Matrix: (Units=1/GPa)
#
#
# Indices 1 2 3 4 5 6 
#
# 1 0.010130 0.000064 -0.004782 0.000000 -0.002188 0.000000
# 2 0.000064 0.011518 -0.010448 0.000000 -0.000143 0.000000
# 3 -0.004782 -0.010448 0.061096 0.000000 -0.009452 0.000000
# 4 0.000000 0.000000 0.000000 0.027721 0.000000 0.000756
# 5 -0.002188 -0.000143 -0.009452 0.000000 0.038806 0.000000
# 6 0.000000 0.000000 0.000000 0.000756 0.000000 0.026703
#
#
# Mechanical properties :
#
#
# Convention : Reuss Voigt Hill
#
# Bulk Modulus (GPa) = 19.07968 34.80153 26.94060
# Shear Modulus (GPa) = 22.34349 33.01699 27.68024
#
# Velocity S-wave (km/s) = 3.09793 3.76587 3.44811
# Velocity P-wave (km/s) = 4.58165 5.81870 5.23683
#
# Compressibility (1/GPa) = 0.05241178
#
# Stress axis : x y z
#
# Youngs Moduli (GPa) = 98.71239 86.81826 16.36757
#
# Poissons Ratio (x) = -0.00554 0.07827
# Poissons Ratio (y) = -0.00630 0.17102
# Poissons Ratio (z) = 0.47204 0.90712
#
# Static dielectric constant tensor:
#      x y z
#    x 1.944710 0.000000 -0.025900 
#    y 0.000000 1.957920 0.000000 
#    z -0.025900 0.000000 1.887680 
# 
# From -- ./inp_files/69095.got.cif
#   From: 2010.05.17/outbox.cif.g08.bks.cpg/sg14_35_cif.got.tgz:69095.got - 2010.06.03 17:49:19.
