data_PCOD9240201
_publ_section_title
;
Structure prediction by ZEFSAII (Michael W. Deem and Ramdas Pophale) SiO2 
 PCOD9240201
Probable space group: P 21/C
;
_chemical_formula_sum "Si O2"
_cell_formula_units_Z 28
_cell_length_a 16.739192
_cell_length_b 8.179574
_cell_length_c 21.942162
_cell_angle_alpha 90.000000
_cell_angle_beta 22.461679
_cell_angle_gamma 90.000000
_cell_volume 1147.842599
_symmetry_space_group_name_H-M "P 21/C"
_symmetry_group_IT_number 14
_symmetry_cell_setting 'monoclinic'
loop_
_space_group_symop_operation_xyz
x,y,z
-x,1/2+y,1/2-z
-x,-y,-z
x,1/2-y,1/2+z
loop_
_atom_site_type_symbol
_atom_site_label
_atom_site_fract_x
_atom_site_fract_y
_atom_site_fract_z
Si Si1 0.628476 0.071869 0.966461
Si Si2 0.151554 0.625227 0.524857
Si Si3 0.702703 0.750368 0.562411
Si Si4 0.431059 0.234445 0.217843
Si Si5 0.821979 0.754324 0.852030
Si Si6 0.274972 0.896973 0.812040
Si Si7 0.618283 0.154349 0.389369
O O1 0.703758 0.244092 0.885667
O O2 0.815547 0.952134 0.853728
O O3 0.468638 0.116106 0.133920
O O4 0.500000 0.000000 0.000000
O O5 0.249635 0.443153 0.463463
O O6 0.334519 0.746065 0.419442
O O7 0.107243 0.636392 0.483669
O O8 0.959480 0.666974 0.704026
O O9 0.709063 0.824899 0.625979
O O10 0.843414 0.803789 0.406275
O O11 0.470555 0.793323 0.701326
O O12 0.351746 0.414301 0.256328
O O13 0.580687 0.730128 0.004467
O O14 0.220903 0.858715 0.780075
O O15 0.500000 0.000000 0.500000
#
# Coordination Sequence:
#
# PCOD9240201 Si02
#       7
#     4   4   4   4   4   4   4
#     4  10  20  36  59  80 116 161 206 236 283 361
#     4  10  20  36  58  84 125 144 187 253 310 356
#     4   9  19  35  58  84 115 149 192 238 298 359
#     4  10  18  35  61  87 111 154 198 241 298 353
#     4  10  21  36  56  86 117 155 190 247 307 346
#     4   9  19  35  58  87 112 152 199 241 294 355
#     4  10  19  36  58  80 109 154 213 239 281 356
#
# _framework density 24.393588999999999
#
# number of rings (size 3 to 8) (size 9 to 14) (size 15 to 20)
#    0.000    2.286    2.857    0.000    0.000    2.286 
#    0.000    1.429    0.000    0.000    0.000    0.000 
#    0.000    0.000    0.000    0.000    0.000    0.000 
#
# Total GULP energy -156014.461140 kJ/mol
# GULP energy per Si atom -5571.945041 kJ/mol
# Density = 2.433807 g / cm^3
# Si number density = 24.393589 Si / 1000 Ang^3
#
#
#
# Elastic Constant Matrix: (Units=GPa)
#
#
# Indices 1 2 3 4 5 6 
#
# 1 75.7215 24.0991 69.8187 0.0000 51.1987 0.0000
# 2 24.0991 61.3366 39.7217 0.0000 21.8620 0.0000
# 3 69.8187 39.7217 152.6183 0.0000 56.1422 0.0000
# 4 0.0000 0.0000 0.0000 36.5979 0.0000 0.5871
# 5 51.1987 21.8620 56.1422 0.0000 73.3906 0.0000
# 6 0.0000 0.0000 0.0000 0.5871 0.0000 31.1166
#
#
#
# Elastic Compliance Matrix: (Units=1/GPa)
#
#
# Indices 1 2 3 4 5 6 
#
# 1 0.031929 -0.001545 -0.008600 0.000000 -0.015235 0.000000
# 2 -0.001545 0.020074 -0.003778 0.000000 -0.002012 0.000000
# 3 -0.008600 -0.003778 0.012314 0.000000 -0.002295 0.000000
# 4 0.000000 0.000000 0.000000 0.027332 0.000000 -0.000516
# 5 -0.015235 -0.002012 -0.002295 0.000000 0.026609 0.000000
# 6 0.000000 0.000000 0.000000 -0.000516 0.000000 0.032147
#
#
# Mechanical properties :
#
#
# Convention : Reuss Voigt Hill
#
# Bulk Modulus (GPa) = 27.41891 61.88395 44.65143
# Shear Modulus (GPa) = 26.25941 38.62347 32.44144
#
# Velocity S-wave (km/s) = 3.28455 3.98344 3.65076
# Velocity P-wave (km/s) = 5.06448 6.82504 6.00958
#
# Compressibility (1/GPa) = 0.03647118
#
# Stress axis : x y z
#
# Youngs Moduli (GPa) = 31.31971 49.81540 81.20809
#
# Poissons Ratio (x) = 0.07698 0.69839
# Poissons Ratio (y) = 0.04840 0.30677
# Poissons Ratio (z) = 0.26935 0.18818
#
# Static dielectric constant tensor:
#      x y z
#    x 1.917240 0.000000 0.065280 
#    y 0.000000 0.289580 0.000000 
#    z 0.065280 0.000000 2.024800 
# 
# From -- ./inp_files/74630.got.cif
#   From: 2010.05.17/outbox.cif.g08.bks.cpg/sg14_38_cif.got.tgz:74630.got - 2010.06.03 17:49:19.
