data_PCOD9240252
_publ_section_title
;
Structure prediction by ZEFSAII (Michael W. Deem and Ramdas Pophale) SiO2 
 PCOD9240252
Probable space group: P 21/C
;
_chemical_formula_sum "Si O2"
_cell_formula_units_Z 24
_cell_length_a 16.771816
_cell_length_b 7.176110
_cell_length_c 20.451481
_cell_angle_alpha 90.000000
_cell_angle_beta 155.543055
_cell_angle_gamma 90.000000
_cell_volume 1019.070129
_symmetry_space_group_name_H-M "P 21/C"
_symmetry_group_IT_number 14
_symmetry_cell_setting 'monoclinic'
loop_
_space_group_symop_operation_xyz
x,y,z
-x,1/2+y,1/2-z
-x,-y,-z
x,1/2-y,1/2+z
loop_
_atom_site_type_symbol
_atom_site_label
_atom_site_fract_x
_atom_site_fract_y
_atom_site_fract_z
Si Si1 0.088633 0.167398 0.984940
Si Si2 0.914059 0.249963 0.485005
Si Si3 0.731992 0.507075 0.946274
Si Si4 0.434861 0.083503 0.549712
Si Si5 0.852556 0.627914 0.722869
Si Si6 0.698816 0.266781 0.141085
O O1 0.914085 0.150756 0.803608
O O2 0.248655 0.288289 0.069802
O O3 0.138753 0.967063 0.049672
O O4 0.993374 0.289256 0.972174
O O5 0.098808 0.218784 0.670510
O O6 0.746156 0.130479 0.394427
O O7 0.569419 0.518039 0.878914
O O8 0.931578 0.445590 0.133394
O O9 0.252348 0.222039 0.400656
O O10 0.606791 0.198392 0.643966
O O11 0.419772 0.893232 0.497070
O O12 0.720708 0.446450 0.635894
#
# Coordination Sequence:
#
# PCOD9240252 Si02
#       6
#     4   4   4   4   4   4
#     4  10  18  36  57  77 102 139 180 219 261 308
#     4   9  19  33  59  79 100 132 186 220 259 306
#     4   9  21  30  55  80 104 134 173 228 251 308
#     4  11  21  35  50  80 113 136 178 207 276 320
#     4   9  20  32  54  82 100 140 173 224 257 311
#     4  10  21  34  54  74 109 147 166 215 267 326
#
# _framework density 23.550879999999999
#
# number of rings (size 3 to 8) (size 9 to 14) (size 15 to 20)
#    1.000    1.333    1.667    1.000    4.667    1.333 
#    0.000    0.000    7.333    0.000    0.000    0.000 
#    0.000    0.000    0.000    0.000    0.000    0.000 
#
# Total GULP energy -133830.951398 kJ/mol
# GULP energy per Si atom -5576.289642 kJ/mol
# Density = 2.349728 g / cm^3
# Si number density = 23.550880 Si / 1000 Ang^3
#
#
#
# Elastic Constant Matrix: (Units=GPa)
#
#
# Indices 1 2 3 4 5 6 
#
# 1 123.3581 26.4073 1.6965 0.0000 9.5633 0.0000
# 2 26.4073 94.9189 9.1560 0.0000 11.4989 0.0000
# 3 1.6965 9.1560 38.4434 0.0000 9.6165 0.0000
# 4 0.0000 0.0000 0.0000 18.2448 0.0000 -7.5517
# 5 9.5633 11.4989 9.6165 0.0000 16.1721 0.0000
# 6 0.0000 0.0000 0.0000 -7.5517 0.0000 27.7516
#
#
#
# Elastic Compliance Matrix: (Units=1/GPa)
#
#
# Indices 1 2 3 4 5 6 
#
# 1 0.008877 -0.002039 0.001227 0.000000 -0.004529 0.000000
# 2 -0.002039 0.012019 -0.001100 0.000000 -0.006686 0.000000
# 3 0.001227 -0.001100 0.030785 0.000000 -0.018249 0.000000
# 4 0.000000 0.000000 0.000000 0.061767 0.000000 0.016808
# 5 -0.004529 -0.006686 -0.018249 0.000000 0.080118 0.000000
# 6 0.000000 0.000000 0.000000 0.016808 0.000000 0.040608
#
#
# Mechanical properties :
#
#
# Convention : Reuss Voigt Hill
#
# Bulk Modulus (GPa) = 20.89610 36.80443 28.85027
# Shear Modulus (GPa) = 19.68882 27.06441 23.37661
#
# Velocity S-wave (km/s) = 2.89452 3.39365 3.15397
# Velocity P-wave (km/s) = 4.47918 5.56932 5.05373
#
# Compressibility (1/GPa) = 0.04785581
#
# Stress axis : x y z
#
# Youngs Moduli (GPa) = 112.64687 83.20347 32.48327
#
# Poissons Ratio (x) = 0.16969 -0.03985
# Poissons Ratio (y) = 0.22973 0.03573
# Poissons Ratio (z) = -0.13820 0.09153
#
# Static dielectric constant tensor:
#      x y z
#    x 1.871890 0.000000 -0.006430 
#    y 0.000000 1.862920 0.000000 
#    z -0.006430 0.000000 1.953630 
# 
# From -- ./inp_files/74110.got.cif
#   From: 2010.05.17/outbox.cif.g08.bks.cpg/sg14_38_cif.got.tgz:74110.got - 2010.06.03 17:49:19.
