data_PCOD9240263
_publ_section_title
;
Structure prediction by ZEFSAII (Michael W. Deem and Ramdas Pophale) SiO2 
 PCOD9240263
Probable space group: P 21/C
;
_chemical_formula_sum "Si O2"
_cell_formula_units_Z 28
_cell_length_a 7.735805
_cell_length_b 15.485767
_cell_length_c 9.181713
_cell_angle_alpha 90.000000
_cell_angle_beta 88.804122
_cell_angle_gamma 90.000000
_cell_volume 1099.682573
_symmetry_space_group_name_H-M "P 21/C"
_symmetry_group_IT_number 14
_symmetry_cell_setting 'monoclinic'
loop_
_space_group_symop_operation_xyz
x,y,z
-x,1/2+y,1/2-z
-x,-y,-z
x,1/2-y,1/2+z
loop_
_atom_site_type_symbol
_atom_site_label
_atom_site_fract_x
_atom_site_fract_y
_atom_site_fract_z
Si Si1 0.185955 0.115739 0.491877
Si Si2 0.643785 0.993470 0.774129
Si Si3 0.060229 0.612756 0.755712
Si Si4 0.221434 0.118460 0.981490
Si Si5 0.002618 0.190676 0.238783
Si Si6 0.520774 0.755473 0.505685
Si Si7 0.644826 0.134637 0.240490
O O1 0.058534 0.075006 0.611960
O O2 0.071465 0.182158 0.399961
O O3 0.260533 0.054648 0.363763
O O4 0.346587 0.170150 0.552857
O O5 0.450571 0.958110 0.754808
O O6 0.691991 0.961357 0.936323
O O7 0.741870 0.083691 0.762017
O O8 0.940439 0.597282 0.616577
O O9 0.064412 0.714161 0.783027
O O10 0.151675 0.170208 0.123473
O O11 0.362289 0.183618 0.910350
O O12 0.847471 0.124534 0.218481
O O13 0.430935 0.695973 0.385959
O O14 0.395049 0.809940 0.612737
#
# Coordination Sequence:
#
# PCOD9240263 Si02
#       7
#     4   4   4   4   4   4   4
#     4  10  20  37  61  87 112 151 197 243 281 341
#     4   9  22  39  56  85 125 150 182 245 304 342
#     4  12  19  34  65  87 111 150 204 236 289 343
#     4  10  20  37  61  87 112 151 197 243 281 341
#     4  11  22  37  60  86 118 147 199 242 279 339
#     4  10  18  36  58  82 108 150 192 236 274 342
#     4  10  23  36  57  82 122 151 185 235 298 336
#
# _framework density 25.461893
#
# number of rings (size 3 to 8) (size 9 to 14) (size 15 to 20)
#    0.000    1.714    2.857    2.571    4.000    0.000 
#    0.000    1.429   12.571    0.000    0.000    0.000 
#    0.000    0.000    0.000    0.000    0.000    0.000 
#
# Total GULP energy -156526.665129 kJ/mol
# GULP energy per Si atom -5590.238040 kJ/mol
# Density = 2.540394 g / cm^3
# Si number density = 25.461893 Si / 1000 Ang^3
#
#
#
# Elastic Constant Matrix: (Units=GPa)
#
#
# Indices 1 2 3 4 5 6 
#
# 1 47.6018 -14.6169 -2.8597 0.0000 -5.9953 0.0000
# 2 -14.6169 30.0945 0.2610 0.0000 -6.3726 0.0000
# 3 -2.8597 0.2610 86.7322 0.0000 -0.8830 0.0000
# 4 0.0000 0.0000 0.0000 21.0666 0.0000 -6.0014
# 5 -5.9953 -6.3726 -0.8830 0.0000 20.9650 0.0000
# 6 0.0000 0.0000 0.0000 -6.0014 0.0000 5.3074
#
#
#
# Elastic Compliance Matrix: (Units=1/GPa)
#
#
# Indices 1 2 3 4 5 6 
#
# 1 0.027642 0.016138 0.000994 0.000000 0.012852 0.000000
# 2 0.016138 0.044937 0.000583 0.000000 0.018299 0.000000
# 3 0.000994 0.000583 0.011570 0.000000 0.000949 0.000000
# 4 0.000000 0.000000 0.000000 0.070025 0.000000 0.079181
# 5 0.012852 0.018299 0.000949 0.000000 0.056976 0.000000
# 6 0.000000 0.000000 0.000000 0.079181 0.000000 0.277950
#
#
# Mechanical properties :
#
#
# Convention : Reuss Voigt Hill
#
# Bulk Modulus (GPa) = 8.36266 14.44413 11.40340
# Shear Modulus (GPa) = 10.13110 21.57741 15.85425
#
# Velocity S-wave (km/s) = 1.99689 2.91424 2.49803
# Velocity P-wave (km/s) = 2.93398 4.12418 3.57891
#
# Compressibility (1/GPa) = 0.11957919
#
# Stress axis : x y z
#
# Youngs Moduli (GPa) = 36.17748 22.25344 86.42737
#
# Poissons Ratio (x) = -0.35913 -0.08588
# Poissons Ratio (y) = -0.58384 -0.05040
# Poissons Ratio (z) = -0.03595 -0.01298
#
# Static dielectric constant tensor:
#      x y z
#    x 2.005620 0.000000 0.007380 
#    y 0.000000 2.059320 0.000000 
#    z 0.007380 0.000000 1.972600 
# 
# From -- ./inp_files/9387.got.cif
#   From: 2010.05.17/outbox.cif.g08.bks.cpg/sg14_5_cif.got.tgz:9387.got - 2010.06.03 17:49:19.
