data_PCOD9240316
_publ_section_title
;
Structure prediction by ZEFSAII (Michael W. Deem and Ramdas Pophale) SiO2 
 PCOD9240316
Probable space group: P 21/C
;
_chemical_formula_sum "Si O2"
_cell_formula_units_Z 28
_cell_length_a 8.923038
_cell_length_b 7.437160
_cell_length_c 28.305157
_cell_angle_alpha 90.000000
_cell_angle_beta 144.215752
_cell_angle_gamma 90.000000
_cell_volume 1098.358920
_symmetry_space_group_name_H-M "P 21/C"
_symmetry_group_IT_number 14
_symmetry_cell_setting 'monoclinic'
loop_
_space_group_symop_operation_xyz
x,y,z
-x,1/2+y,1/2-z
-x,-y,-z
x,1/2-y,1/2+z
loop_
_atom_site_type_symbol
_atom_site_label
_atom_site_fract_x
_atom_site_fract_y
_atom_site_fract_z
Si Si1 0.672859 0.396150 0.442696
Si Si2 0.158113 0.169126 0.297179
Si Si3 0.847752 0.828524 0.865773
Si Si4 0.097341 0.889369 0.347547
Si Si5 0.814472 0.282728 0.373437
Si Si6 0.535161 0.948709 0.337651
Si Si7 0.650393 0.809748 0.465086
O O1 0.405164 0.288202 0.374665
O O2 0.785640 0.367228 0.419104
O O3 0.613874 0.603628 0.439064
O O4 0.894988 0.333856 0.535573
O O5 0.967462 0.268495 0.214444
O O6 0.034932 0.087515 0.312689
O O7 0.267886 0.011132 0.290990
O O8 0.607821 0.735955 0.830612
O O9 0.929540 0.694724 0.845301
O O10 0.793005 0.036008 0.837557
O O11 0.403477 0.874007 0.430813
O O12 0.092625 0.194955 0.439060
O O13 0.624527 0.115676 0.328120
O O14 0.688666 0.928432 0.427499
#
# Coordination Sequence:
#
# PCOD9240316 Si02
#       7
#     4   4   4   4   4   4   4
#     4  10  19  37  70  96 124 167 218 262 328 387
#     4  10  24  44  62  85 126 184 209 257 338 405
#     4  11  22  40  63 102 127 154 220 282 313 379
#     4  11  25  43  60  91 131 170 220 261 330 399
#     4  10  19  35  64  99 127 164 206 265 325 379
#     4  10  20  38  65  91 123 168 215 258 318 383
#     4  10  18  36  64  88 129 172 203 254 319 391
#
# _framework density 25.492574999999999
#
# number of rings (size 3 to 8) (size 9 to 14) (size 15 to 20)
#    0.000    1.714    2.857    2.143    4.000    2.857 
#   10.286    0.000    0.000    0.000    0.000    0.000 
#    0.000    0.000    0.000    0.000    0.000    0.000 
#
# Total GULP energy -156598.152037 kJ/mol
# GULP energy per Si atom -5592.791144 kJ/mol
# Density = 2.543455 g / cm^3
# Si number density = 25.492575 Si / 1000 Ang^3
#
#
#
# Elastic Constant Matrix: (Units=GPa)
#
#
# Indices 1 2 3 4 5 6 
#
# 1 73.6709 35.5613 20.4164 0.0000 5.7519 0.0000
# 2 35.5613 74.0301 20.7428 0.0000 -10.1370 0.0000
# 3 20.4164 20.7428 65.3068 0.0000 0.9446 0.0000
# 4 0.0000 0.0000 0.0000 44.8999 0.0000 4.2215
# 5 5.7519 -10.1370 0.9446 0.0000 26.4866 0.0000
# 6 0.0000 0.0000 0.0000 4.2215 0.0000 42.8559
#
#
#
# Elastic Compliance Matrix: (Units=1/GPa)
#
#
# Indices 1 2 3 4 5 6 
#
# 1 0.019699 -0.009714 -0.002959 0.000000 -0.007890 0.000000
# 2 -0.009714 0.020581 -0.003647 0.000000 0.010116 0.000000
# 3 -0.002959 -0.003647 0.017415 0.000000 -0.001374 0.000000
# 4 0.000000 0.000000 0.000000 0.022480 0.000000 -0.002214
# 5 -0.007890 0.010116 -0.001374 0.000000 0.043389 0.000000
# 6 0.000000 0.000000 0.000000 -0.002214 0.000000 0.023552
#
#
# Mechanical properties :
#
#
# Convention : Reuss Voigt Hill
#
# Bulk Modulus (GPa) = 39.90925 40.71655 40.31290
# Shear Modulus (GPa) = 26.58050 31.93429 29.25740
#
# Velocity S-wave (km/s) = 3.23255 3.54318 3.39142
# Velocity P-wave (km/s) = 5.44259 5.72236 5.58423
#
# Compressibility (1/GPa) = 0.02505685
#
# Stress axis : x y z
#
# Youngs Moduli (GPa) = 50.76435 48.58789 57.42031
#
# Poissons Ratio (x) = 0.47198 0.16990
# Poissons Ratio (y) = 0.49312 0.20939
# Poissons Ratio (z) = 0.15020 0.17718
#
# Static dielectric constant tensor:
#      x y z
#    x 1.960940 0.000000 -0.033710 
#    y 0.000000 2.060260 0.000000 
#    z -0.033710 0.000000 2.051310 
# 
# From -- ./inp_files/76391.got.cif
#   From: 2010.05.17/outbox.cif.g08.bks.cpg/sg14_39_cif.got.tgz:76391.got - 2010.06.03 17:49:19.
