data_PCOD9240122
_publ_section_title
;
Structure prediction by ZEFSAII (Michael W. Deem and Ramdas Pophale) SiO2 
 PCOD9240122
Probable space group: P 21/C
;
_chemical_formula_sum "Si O2"
_cell_formula_units_Z 28
_cell_length_a 8.780513
_cell_length_b 21.908859
_cell_length_c 14.157010
_cell_angle_alpha 90.000000
_cell_angle_beta 29.962552
_cell_angle_gamma 90.000000
_cell_volume 1360.157430
_symmetry_space_group_name_H-M "P 21/C"
_symmetry_group_IT_number 14
_symmetry_cell_setting 'monoclinic'
loop_
_space_group_symop_operation_xyz
x,y,z
-x,1/2+y,1/2-z
-x,-y,-z
x,1/2-y,1/2+z
loop_
_atom_site_type_symbol
_atom_site_label
_atom_site_fract_x
_atom_site_fract_y
_atom_site_fract_z
Si Si1 0.428436 0.050640 0.390693
Si Si2 0.840307 0.756786 0.476542
Si Si3 0.704217 0.084032 0.517710
Si Si4 0.753498 0.081636 0.824635
Si Si5 0.342032 0.833335 0.282267
Si Si6 0.646871 0.163961 0.367581
Si Si7 0.393134 0.044923 0.183640
O O1 0.668110 0.102192 0.292430
O O2 0.397634 0.049816 0.293875
O O3 0.108553 0.072132 0.609587
O O4 0.471420 0.980438 0.400030
O O5 0.599600 0.715745 0.661186
O O6 0.651345 0.798494 0.505137
O O7 0.017897 0.799810 0.454350
O O8 0.077595 0.710858 0.298924
O O9 0.642651 0.111953 0.653243
O O10 0.632141 0.135307 0.479391
O O11 0.065085 0.068408 0.322675
O O12 0.633092 0.141746 0.837908
O O13 0.590384 0.025080 0.859163
O O14 0.660837 0.079045 0.983440
#
# Coordination Sequence:
#
# PCOD9240122 Si02
#       7
#     4   4   4   4   4   4   4
#     4  11  20  41  62  98 132 164 205 267 320 383
#     4  10  24  41  63  84 124 174 215 266 303 374
#     4  11  21  37  66  92 128 166 205 268 327 376
#     4  10  18  34  64  90 129 162 208 245 310 386
#     4  11  20  42  62  90 123 168 216 261 312 377
#     4  11  23  42  62  91 128 165 212 263 317 373
#     4  10  19  34  64  97 126 168 200 247 327 380
#
# _framework density 20.585853
#
# number of rings (size 3 to 8) (size 9 to 14) (size 15 to 20)
#    0.000    1.429    4.286    2.143    0.000    1.143 
#    2.571    6.429    0.000    0.000    0.000    0.000 
#    0.000    0.000    0.000    0.000    0.000    0.000 
#
# Total GULP energy -156303.267812 kJ/mol
# GULP energy per Si atom -5582.259565 kJ/mol
# Density = 2.053900 g / cm^3
# Si number density = 20.585853 Si / 1000 Ang^3
#
#
#
# Elastic Constant Matrix: (Units=GPa)
#
#
# Indices 1 2 3 4 5 6 
#
# 1 53.5453 26.5971 28.5130 0.0000 2.4389 0.0000
# 2 26.5971 108.2523 23.8008 0.0000 -7.3600 0.0000
# 3 28.5130 23.8008 56.5425 0.0000 9.5742 0.0000
# 4 0.0000 0.0000 0.0000 27.3809 0.0000 1.4621
# 5 2.4389 -7.3600 9.5742 0.0000 21.5579 0.0000
# 6 0.0000 0.0000 0.0000 1.4621 0.0000 32.8829
#
#
#
# Elastic Compliance Matrix: (Units=1/GPa)
#
#
# Indices 1 2 3 4 5 6 
#
# 1 0.027047 -0.003901 -0.012169 0.000000 0.001013 0.000000
# 2 -0.003901 0.011465 -0.003889 0.000000 0.006082 0.000000
# 3 -0.012169 -0.003889 0.027520 0.000000 -0.012173 0.000000
# 4 0.000000 0.000000 0.000000 0.036609 0.000000 -0.001628
# 5 0.001013 0.006082 -0.012173 0.000000 0.053755 0.000000
# 6 0.000000 0.000000 0.000000 -0.001628 0.000000 0.030483
#
#
# Mechanical properties :
#
#
# Convention : Reuss Voigt Hill
#
# Bulk Modulus (GPa) = 38.29137 41.79579 40.04358
# Shear Modulus (GPa) = 21.23134 25.65962 23.44548
#
# Velocity S-wave (km/s) = 3.21496 3.53437 3.37844
# Velocity P-wave (km/s) = 5.69407 6.08300 5.89175
#
# Compressibility (1/GPa) = 0.02611555
#
# Stress axis : x y z
#
# Youngs Moduli (GPa) = 36.97239 87.22450 36.33693
#
# Poissons Ratio (x) = 0.34027 0.44217
# Poissons Ratio (y) = 0.14423 0.14130
# Poissons Ratio (z) = 0.44990 0.33918
#
# Static dielectric constant tensor:
#      x y z
#    x 1.728200 0.000000 -0.015810 
#    y 0.000000 1.767420 0.000000 
#    z -0.015810 0.000000 1.767280 
# 
# From -- ./inp_files/42090.got.cif
#   From: 2010.05.17/outbox.cif.g08.bks.cpg/sg14_22_cif.got.tgz:42090.got - 2010.06.03 17:49:19.
