data_PCOD9240985
_publ_section_title
;
Structure prediction by ZEFSAII (Michael W. Deem and Ramdas Pophale) SiO2 
 PCOD9240985
Probable space group: P 21/C
;
_chemical_formula_sum "Si O2"
_cell_formula_units_Z 28
_cell_length_a 5.699925
_cell_length_b 13.804228
_cell_length_c 15.060016
_cell_angle_alpha 90.000000
_cell_angle_beta 122.788732
_cell_angle_gamma 90.000000
_cell_volume 996.170922
_symmetry_space_group_name_H-M "P 21/C"
_symmetry_group_IT_number 14
_symmetry_cell_setting 'monoclinic'
loop_
_space_group_symop_operation_xyz
x,y,z
-x,1/2+y,1/2-z
-x,-y,-z
x,1/2-y,1/2+z
loop_
_atom_site_type_symbol
_atom_site_label
_atom_site_fract_x
_atom_site_fract_y
_atom_site_fract_z
Si Si1 0.803757 0.833626 0.597708
Si Si2 0.258050 0.412038 0.090675
Si Si3 0.482099 0.451767 0.728333
Si Si4 0.889589 0.542975 0.664898
Si Si5 0.832428 0.854236 0.980977
Si Si6 0.231503 0.728012 0.786164
Si Si7 0.251218 0.731222 0.995855
O O1 0.728537 0.919081 0.514237
O O2 0.786090 0.742925 0.526810
O O3 0.103014 0.818865 0.704024
O O4 0.530948 0.809788 0.599243
O O5 0.313321 0.512623 0.150720
O O6 0.968972 0.357000 0.048055
O O7 0.497247 0.338481 0.177271
O O8 0.650773 0.504589 0.680957
O O9 0.356633 0.362100 0.644725
O O10 0.179799 0.483400 0.711820
O O11 0.798984 0.560764 0.544289
O O12 0.988474 0.647065 0.723186
O O13 0.151527 0.831064 0.020119
O O14 0.249483 0.757095 0.891749
#
# Coordination Sequence:
#
# PCOD9240985 Si02
#       7
#     4   4   4   4   4   4   4
#     4   9  20  34  54  81 109 144 184 226 274 326
#     4   9  19  35  52  78 108 143 187 221 274 325
#     4  11  21  35  54  78 113 147 179 224 274 333
#     4  10  21  33  54  78 112 145 181 216 276 335
#     4  10  22  31  50  80 110 143 178 224 273 335
#     4   9  18  34  55  77 110 145 180 229 270 321
#     4  10  19  34  53  79 108 142 185 227 269 328
#
# _framework density 28.107624999999999
#
# number of rings (size 3 to 8) (size 9 to 14) (size 15 to 20)
#    0.000    2.286    1.429    0.857    6.000    2.286 
#    0.000    0.000    0.000    0.857    0.000   10.000 
#    0.000    0.000    0.000    0.000    0.000    0.000 
#
# Total GULP energy -156084.988986 kJ/mol
# GULP energy per Si atom -5574.463892 kJ/mol
# Density = 2.804365 g / cm^3
# Si number density = 28.107625 Si / 1000 Ang^3
#
#
#
# Elastic Constant Matrix: (Units=GPa)
#
#
# Indices 1 2 3 4 5 6 
#
# 1 97.1423 13.7531 38.7969 0.0000 0.7759 0.0000
# 2 13.7531 83.3570 17.8517 0.0000 -5.5897 0.0000
# 3 38.7969 17.8517 125.5895 0.0000 38.6874 0.0000
# 4 0.0000 0.0000 0.0000 52.7205 0.0000 -6.5475
# 5 0.7759 -5.5897 38.6874 0.0000 45.1846 0.0000
# 6 0.0000 0.0000 0.0000 -6.5475 0.0000 30.1836
#
#
#
# Elastic Compliance Matrix: (Units=1/GPa)
#
#
# Indices 1 2 3 4 5 6 
#
# 1 0.012325 -0.000721 -0.004906 0.000000 0.003900 0.000000
# 2 -0.000721 0.013008 -0.002887 0.000000 0.004094 0.000000
# 3 -0.004906 -0.002887 0.013545 0.000000 -0.011870 0.000000
# 4 0.000000 0.000000 0.000000 0.019493 0.000000 0.004229
# 5 0.003900 0.004094 -0.011870 0.000000 0.032734 0.000000
# 6 0.000000 0.000000 0.000000 0.004229 0.000000 0.034048
#
#
# Mechanical properties :
#
#
# Convention : Reuss Voigt Hill
#
# Bulk Modulus (GPa) = 45.76919 49.65469 47.71194
# Shear Modulus (GPa) = 33.45253 41.33020 37.39137
#
# Velocity S-wave (km/s) = 3.45361 3.83877 3.65127
# Velocity P-wave (km/s) = 5.67645 6.11167 5.89808
#
# Compressibility (1/GPa) = 0.02184876
#
# Stress axis : x y z
#
# Youngs Moduli (GPa) = 81.13908 76.87299 73.82784
#
# Poissons Ratio (x) = 0.05544 0.36220
# Poissons Ratio (y) = 0.05852 0.21317
# Poissons Ratio (z) = 0.39807 0.22196
#
# Static dielectric constant tensor:
#      x y z
#    x 2.663210 0.000000 -0.026690 
#    y 0.000000 2.256820 0.000000 
#    z -0.026690 0.000000 2.214790 
# 
# From -- ./inp_files/37738.got.cif
#   From: 2010.05.17/outbox.cif.g08.bks.cpg/sg14_19_cif.got.tgz:37738.got - 2010.06.03 17:49:19.
