data_PCOD9240526
_publ_section_title
;
Structure prediction by ZEFSAII (Michael W. Deem and Ramdas Pophale) SiO2 
 PCOD9240526
Probable space group: P 21/C
;
_chemical_formula_sum "Si O2"
_cell_formula_units_Z 20
_cell_length_a 4.685186
_cell_length_b 12.586449
_cell_length_c 13.528893
_cell_angle_alpha 90.000000
_cell_angle_beta 114.742308
_cell_angle_gamma 90.000000
_cell_volume 724.558601
_symmetry_space_group_name_H-M "P 21/C"
_symmetry_group_IT_number 14
_symmetry_cell_setting 'monoclinic'
loop_
_space_group_symop_operation_xyz
x,y,z
-x,1/2+y,1/2-z
-x,-y,-z
x,1/2-y,1/2+z
loop_
_atom_site_type_symbol
_atom_site_label
_atom_site_fract_x
_atom_site_fract_y
_atom_site_fract_z
Si Si1 0.372888 0.458304 0.821680
Si Si2 0.263109 0.318746 0.469936
Si Si3 0.197517 0.810782 0.822793
Si Si4 0.696694 0.365372 0.030972
Si Si5 0.408267 0.851759 0.182403
O O1 0.263840 0.532401 0.896796
O O2 0.463274 0.540565 0.750031
O O3 0.088085 0.384617 0.747613
O O4 0.667135 0.395661 0.912594
O O5 0.515972 0.371507 0.580262
O O6 0.359228 0.194736 0.500034
O O7 0.667417 0.664764 0.636515
O O8 0.910657 0.355334 0.428897
O O9 0.084412 0.724609 0.889409
O O10 0.340472 0.741321 0.753187
#
# Coordination Sequence:
#
# PCOD9240526 Si02
#       5
#     4   4   4   4   4
#     4  10  18  40  68  96 131 176 222 264 333 394
#     4  10  23  43  63  95 134 170 218 273 326 386
#     4   9  19  40  66  94 134 172 212 278 320 385
#     4   8  19  39  63  99 130 174 221 269 324 400
#     4  11  23  42  66  97 132 175 218 272 331 385
#
# _framework density 27.603013000000001
#
# number of rings (size 3 to 8) (size 9 to 14) (size 15 to 20)
#    1.200    1.200    2.000    0.000    0.000    3.200 
#    3.600    1.000    0.000    0.000    0.000    0.000 
#    0.000    0.000    0.000    0.000    0.000    0.000 
#
# Total GULP energy -111982.562823 kJ/mol
# GULP energy per Si atom -5599.128141 kJ/mol
# Density = 2.754019 g / cm^3
# Si number density = 27.603013 Si / 1000 Ang^3
#
#
#
# Elastic Constant Matrix: (Units=GPa)
#
#
# Indices 1 2 3 4 5 6 
#
# 1 83.7773 21.0326 32.6387 0.0000 1.9038 0.0000
# 2 21.0326 105.9432 81.9700 0.0000 -7.9837 0.0000
# 3 32.6387 81.9700 205.7644 0.0000 0.8960 0.0000
# 4 0.0000 0.0000 0.0000 89.0912 0.0000 -6.5834
# 5 1.9038 -7.9837 0.8960 0.0000 40.2523 0.0000
# 6 0.0000 0.0000 0.0000 -6.5834 0.0000 14.9829
#
#
#
# Elastic Compliance Matrix: (Units=1/GPa)
#
#
# Indices 1 2 3 4 5 6 
#
# 1 0.012897 -0.001513 -0.001439 0.000000 -0.000878 0.000000
# 2 -0.001513 0.014152 -0.005411 0.000000 0.002999 0.000000
# 3 -0.001439 -0.005411 0.007249 0.000000 -0.001166 0.000000
# 4 0.000000 0.000000 0.000000 0.011601 0.000000 0.005097
# 5 -0.000878 0.002999 -0.001166 0.000000 0.025506 0.000000
# 6 0.000000 0.000000 0.000000 0.005097 0.000000 0.068983
#
#
# Mechanical properties :
#
#
# Convention : Reuss Voigt Hill
#
# Bulk Modulus (GPa) = 56.90999 74.08529 65.49764
# Shear Modulus (GPa) = 30.68059 46.18818 38.43438
#
# Velocity S-wave (km/s) = 3.33752 4.09504 3.73553
# Velocity P-wave (km/s) = 5.95938 7.01833 6.51042
#
# Compressibility (1/GPa) = 0.01757161
#
# Stress axis : x y z
#
# Youngs Moduli (GPa) = 77.53802 70.66296 137.95552
#
# Poissons Ratio (x) = 0.10692 0.19854
# Poissons Ratio (y) = 0.11732 0.74643
# Poissons Ratio (z) = 0.11159 0.38233
#
# Static dielectric constant tensor:
#      x y z
#    x 2.083340 0.000000 -0.009230 
#    y 0.000000 2.220590 0.000000 
#    z -0.009230 0.000000 2.152900 
# 
# From -- ./inp_files/50322.got.cif
#   From: 2010.05.17/outbox.cif.g08.bks.cpg/sg14_26_cif.got.tgz:50322.got - 2010.06.03 17:49:19.
