data_PCOD9240832
_publ_section_title
;
Structure prediction by ZEFSAII (Michael W. Deem and Ramdas Pophale) SiO2 
 PCOD9240832
Probable space group: P 21/C
;
_chemical_formula_sum "Si O2"
_cell_formula_units_Z 20
_cell_length_a 11.440839
_cell_length_b 7.740773
_cell_length_c 13.968305
_cell_angle_alpha 90.000000
_cell_angle_beta 139.495393
_cell_angle_gamma 90.000000
_cell_volume 803.472866
_symmetry_space_group_name_H-M "P 21/C"
_symmetry_group_IT_number 14
_symmetry_cell_setting 'monoclinic'
loop_
_space_group_symop_operation_xyz
x,y,z
-x,1/2+y,1/2-z
-x,-y,-z
x,1/2-y,1/2+z
loop_
_atom_site_type_symbol
_atom_site_label
_atom_site_fract_x
_atom_site_fract_y
_atom_site_fract_z
Si Si1 0.470655 0.031638 0.119062
Si Si2 0.836163 0.633028 0.281622
Si Si3 0.814662 0.513607 0.700323
Si Si4 0.422356 0.900173 0.297491
Si Si5 0.967389 0.286943 0.405855
O O1 0.454300 0.239922 0.096641
O O2 0.647453 0.974250 0.172567
O O3 0.484561 0.983499 0.237986
O O4 0.295530 0.949851 0.960344
O O5 0.877757 0.789544 0.238596
O O6 0.635878 0.551209 0.165094
O O7 0.958460 0.463624 0.338979
O O8 0.885064 0.696494 0.420249
O O9 0.955987 0.383782 0.836036
O O10 0.226905 0.806281 0.161655
#
# Coordination Sequence:
#
# PCOD9240832 Si02
#       5
#     4   4   4   4   4
#     4  10  20  33  49  78 106 129 171 207 255 303
#     4   9  17  34  57  70 101 134 173 201 255 300
#     4  10  19  33  53  78 101 131 168 215 249 296
#     4   9  18  34  50  72 104 137 165 207 253 307
#     4   8  18  34  55  74  98 134 173 203 251 304
#
# _framework density 24.891940999999999
#
# number of rings (size 3 to 8) (size 9 to 14) (size 15 to 20)
#    1.200    1.600    0.000    1.800    0.000    0.800 
#    3.600    2.000    0.000    0.000    0.000    0.000 
#    0.000    0.000    0.000    0.000    0.000    0.000 
#
# Total GULP energy -111566.561721 kJ/mol
# GULP energy per Si atom -5578.328086 kJ/mol
# Density = 2.483529 g / cm^3
# Si number density = 24.891941 Si / 1000 Ang^3
#
#
#
# Elastic Constant Matrix: (Units=GPa)
#
#
# Indices 1 2 3 4 5 6 
#
# 1 75.6486 -3.3887 -14.9004 0.0000 -2.7497 0.0000
# 2 -3.3887 103.7588 37.5059 0.0000 -8.8817 0.0000
# 3 -14.9004 37.5059 74.2014 0.0000 6.6113 0.0000
# 4 0.0000 0.0000 0.0000 37.9319 0.0000 -0.1700
# 5 -2.7497 -8.8817 6.6113 0.0000 13.2109 0.0000
# 6 0.0000 0.0000 0.0000 -0.1700 0.0000 26.1013
#
#
#
# Elastic Compliance Matrix: (Units=1/GPa)
#
#
# Indices 1 2 3 4 5 6 
#
# 1 0.013814 -0.000524 0.002945 0.000000 0.001049 0.000000
# 2 -0.000524 0.013725 -0.008222 0.000000 0.013233 0.000000
# 3 0.002945 -0.008222 0.019533 0.000000 -0.014690 0.000000
# 4 0.000000 0.000000 0.000000 0.026364 0.000000 0.000172
# 5 0.001049 0.013233 -0.014690 0.000000 0.092162 0.000000
# 6 0.000000 0.000000 0.000000 0.000172 0.000000 0.038313
#
#
# Mechanical properties :
#
#
# Convention : Reuss Voigt Hill
#
# Bulk Modulus (GPa) = 28.19171 32.44914 30.32043
# Shear Modulus (GPa) = 21.99395 31.07495 26.53445
#
# Velocity S-wave (km/s) = 2.97573 3.53710 3.26849
# Velocity P-wave (km/s) = 4.81215 5.45396 5.14308
#
# Compressibility (1/GPa) = 0.03547142
#
# Stress axis : x y z
#
# Youngs Moduli (GPa) = 72.39135 72.85781 51.19567
#
# Poissons Ratio (x) = 0.03815 -0.15078
# Poissons Ratio (y) = 0.03790 0.42092
# Poissons Ratio (z) = -0.21320 0.59903
#
# Static dielectric constant tensor:
#      x y z
#    x 2.004220 0.000000 0.029800 
#    y 0.000000 2.068480 0.000000 
#    z 0.029800 0.000000 1.911250 
# 
# From -- ./inp_files/38741.got.cif
#   From: 2010.05.17/outbox.cif.g08.bks.cpg/sg14_20_cif.got.tgz:38741.got - 2010.06.03 17:49:19.
