data_PCOD9240446
_publ_section_title
;
Structure prediction by ZEFSAII (Michael W. Deem and Ramdas Pophale) SiO2 
 PCOD9240446
Probable space group: P 21/C
;
_chemical_formula_sum "Si O2"
_cell_formula_units_Z 28
_cell_length_a 10.664576
_cell_length_b 17.113749
_cell_length_c 13.562238
_cell_angle_alpha 90.000000
_cell_angle_beta 26.920617
_cell_angle_gamma 90.000000
_cell_volume 1120.685942
_symmetry_space_group_name_H-M "P 21/C"
_symmetry_group_IT_number 14
_symmetry_cell_setting 'monoclinic'
loop_
_space_group_symop_operation_xyz
x,y,z
-x,1/2+y,1/2-z
-x,-y,-z
x,1/2-y,1/2+z
loop_
_atom_site_type_symbol
_atom_site_label
_atom_site_fract_x
_atom_site_fract_y
_atom_site_fract_z
Si Si1 0.990054 0.385333 0.869295
Si Si2 0.747845 0.031092 0.755992
Si Si3 0.950391 0.386970 0.306747
Si Si4 0.553091 0.182602 0.431078
Si Si5 0.202285 0.964690 0.685598
Si Si6 0.537745 0.671851 0.613526
Si Si7 0.582055 0.245512 0.627914
O O1 0.111593 0.446272 0.864496
O O2 0.228637 0.351482 0.629753
O O3 0.815503 0.438640 0.915861
O O4 0.826105 0.306656 0.007071
O O5 0.905608 0.086601 0.724645
O O6 0.608586 0.087161 0.772097
O O7 0.500000 0.000000 0.000000
O O8 0.706724 0.330607 0.517959
O O9 0.252020 0.346434 0.104787
O O10 0.975833 0.467293 0.352821
O O11 0.785294 0.115153 0.261415
O O12 0.636445 0.261498 0.319493
O O13 0.516662 0.206169 0.570279
O O14 0.500000 0.000000 0.500000
O O15 0.647914 0.720018 0.631325
#
# Coordination Sequence:
#
# PCOD9240446 Si02
#       7
#     4   4   4   4   4   4   4
#     4   9  19  38  60  86 123 159 196 263 304 354
#     4   9  19  37  68  86 123 164 206 255 309 361
#     4  10  18  38  63  87 120 166 196 255 318 355
#     4  10  20  39  59  86 128 156 204 265 304 372
#     4   8  17  34  65  81 113 166 200 240 316 359
#     4  11  21  37  61  93 121 165 209 247 313 374
#     4  11  22  37  62  89 124 160 207 254 309 377
#
# _framework density 24.984698999999999
#
# number of rings (size 3 to 8) (size 9 to 14) (size 15 to 20)
#    0.000    2.286    2.857    0.000    0.000    0.571 
#    7.714    0.714   53.429    0.000    0.000    0.000 
#    0.000    0.000    0.000    0.000    0.000    0.000 
#
# Total GULP energy -155992.058491 kJ/mol
# GULP energy per Si atom -5571.144946 kJ/mol
# Density = 2.492783 g / cm^3
# Si number density = 24.984699 Si / 1000 Ang^3
#
#
#
# Elastic Constant Matrix: (Units=GPa)
#
#
# Indices 1 2 3 4 5 6 
#
# 1 78.8165 70.5390 13.0768 0.0000 5.8179 0.0000
# 2 70.5390 147.1644 28.8988 0.0000 2.0074 0.0000
# 3 13.0768 28.8988 9.1238 0.0000 -1.8263 0.0000
# 4 0.0000 0.0000 0.0000 51.6706 0.0000 1.8788
# 5 5.8179 2.0074 -1.8263 0.0000 27.9755 0.0000
# 6 0.0000 0.0000 0.0000 1.8788 0.0000 53.6674
#
#
#
# Elastic Compliance Matrix: (Units=1/GPa)
#
#
# Indices 1 2 3 4 5 6 
#
# 1 0.022668 -0.011344 0.002696 0.000000 -0.003724 0.000000
# 2 -0.011344 0.024392 -0.061687 0.000000 -0.003418 0.000000
# 3 0.002696 -0.061687 0.305897 0.000000 0.023835 0.000000
# 4 0.000000 0.000000 0.000000 0.019378 0.000000 -0.000678
# 5 -0.003724 -0.003418 0.023835 0.000000 0.038321 0.000000
# 6 0.000000 0.000000 0.000000 -0.000678 0.000000 0.018657
#
#
# Mechanical properties :
#
#
# Convention : Reuss Voigt Hill
#
# Bulk Modulus (GPa) = 4.71057 51.12598 27.91828
# Shear Modulus (GPa) = 7.80342 34.83539 21.31940
#
# Velocity S-wave (km/s) = 1.76920 3.73804 2.92430
# Velocity P-wave (km/s) = 2.46229 6.25603 4.75399
#
# Compressibility (1/GPa) = 0.21228835
#
# Stress axis : x y z
#
# Youngs Moduli (GPa) = 44.11577 40.99623 3.26908
#
# Poissons Ratio (x) = 0.46505 -0.00881
# Poissons Ratio (y) = 0.50044 0.20166
# Poissons Ratio (z) = -0.11894 2.52892
#
# Static dielectric constant tensor:
#      x y z
#    x 2.078160 0.000000 0.108560 
#    y 0.000000 1.976270 0.000000 
#    z 0.108560 0.000000 2.386440 
# 
# From -- ./inp_files/45289.got.cif
#   From: 2010.05.17/outbox.cif.g08.bks.cpg/sg14_23_cif.got.tgz:45289.got - 2010.06.03 17:49:19.
