data_PCOD9240418
_publ_section_title
;
Structure prediction by ZEFSAII (Michael W. Deem and Ramdas Pophale) SiO2 
 PCOD9240418
Probable space group: P 21/C
;
_chemical_formula_sum "Si O2"
_cell_formula_units_Z 26
_cell_length_a 13.603364
_cell_length_b 9.525640
_cell_length_c 14.170771
_cell_angle_alpha 90.000000
_cell_angle_beta 30.392899
_cell_angle_gamma 90.000000
_cell_volume 929.012813
_symmetry_space_group_name_H-M "P 21/C"
_symmetry_group_IT_number 14
_symmetry_cell_setting 'monoclinic'
loop_
_space_group_symop_operation_xyz
x,y,z
-x,1/2+y,1/2-z
-x,-y,-z
x,1/2-y,1/2+z
loop_
_atom_site_type_symbol
_atom_site_label
_atom_site_fract_x
_atom_site_fract_y
_atom_site_fract_z
Si Si1 0.163788 0.934607 0.083212
Si Si2 0.644557 0.064367 0.284532
Si Si3 0.000000 0.000000 0.000000
Si Si4 0.528143 0.833397 0.157616
Si Si5 0.155460 0.191235 0.344735
Si Si6 0.123836 0.515140 0.038601
Si Si7 0.469920 0.732633 0.905966
O O1 0.199199 0.944370 0.939148
O O2 0.263392 0.798548 0.049051
O O3 0.949380 0.957488 0.300474
O O4 0.302224 0.060094 0.004890
O O5 0.530540 0.206715 0.361177
O O6 0.822541 0.085915 0.206730
O O7 0.502540 0.931289 0.405889
O O8 0.126886 0.144808 0.880921
O O9 0.339062 0.925886 0.343035
O O10 0.578870 0.757435 0.213914
O O11 0.389599 0.172295 0.145349
O O12 0.020204 0.141574 0.371722
O O13 0.084382 0.103743 0.493583
#
# Coordination Sequence:
#
# PCOD9240418 Si02
#       7
#     4   4   2   4   4   4   4
#     4  10  21  39  63  92 115 159 214 252 296 371
#     4   9  19  37  62  84 124 163 195 252 311 359
#     4  10  18  38  60  86 122 164 196 244 320 366
#     4  10  19  40  61  86 120 162 198 255 303 357
#     4  10  21  39  62  89 125 166 198 260 317 357
#     4  11  22  39  64  92 121 162 211 255 305 372
#     4   9  19  38  59  85 121 159 198 252 309 352
#
# _framework density 27.986695999999998
#
# number of rings (size 3 to 8) (size 9 to 14) (size 15 to 20)
#    0.000    2.154    3.077    0.000    0.000    0.615 
#   16.615    1.538    0.000    3.692    0.000    0.000 
#    0.000    0.000    0.000    0.000    0.000    0.000 
#
# Total GULP energy -144994.608749 kJ/mol
# GULP energy per Si atom -5576.715721 kJ/mol
# Density = 2.792300 g / cm^3
# Si number density = 27.986696 Si / 1000 Ang^3
#
#
#
# Elastic Constant Matrix: (Units=GPa)
#
#
# Indices 1 2 3 4 5 6 
#
# 1 59.2071 -4.4027 17.3894 0.0000 -12.8496 0.0000
# 2 -4.4027 88.2015 -2.5354 0.0000 -4.4381 0.0000
# 3 17.3894 -2.5354 123.9543 0.0000 3.2477 0.0000
# 4 0.0000 0.0000 0.0000 9.5619 0.0000 -13.1534
# 5 -12.8496 -4.4381 3.2477 0.0000 35.4739 0.0000
# 6 0.0000 0.0000 0.0000 -13.1534 0.0000 53.3532
#
#
#
# Elastic Compliance Matrix: (Units=1/GPa)
#
#
# Indices 1 2 3 4 5 6 
#
# 1 0.019457 0.001264 -0.002899 0.000000 0.007471 0.000000
# 2 0.001264 0.011496 0.000008 0.000000 0.001895 0.000000
# 3 -0.002899 0.000008 0.008522 0.000000 -0.001829 0.000000
# 4 0.000000 0.000000 0.000000 0.158249 0.000000 0.039014
# 5 0.007471 0.001895 -0.001829 0.000000 0.031301 0.000000
# 6 0.000000 0.000000 0.000000 0.039014 0.000000 0.028361
#
#
# Mechanical properties :
#
#
# Convention : Reuss Voigt Hill
#
# Bulk Modulus (GPa) = 27.60855 32.47394 30.04124
# Shear Modulus (GPa) = 18.33412 37.07193 27.70302
#
# Velocity S-wave (km/s) = 2.56227 3.64349 3.14962
# Velocity P-wave (km/s) = 4.31740 5.41559 4.89737
#
# Compressibility (1/GPa) = 0.03622067
#
# Stress axis : x y z
#
# Youngs Moduli (GPa) = 51.39559 86.98401 117.33845
#
# Poissons Ratio (x) = -0.10993 0.34022
# Poissons Ratio (y) = -0.06495 -0.00096
# Poissons Ratio (z) = 0.14902 -0.00071
#
# Static dielectric constant tensor:
#      x y z
#    x 1.751900 0.000000 0.271110 
#    y 0.000000 2.152480 0.000000 
#    z 0.271110 0.000000 2.194280 
# 
# From -- ./inp_files/60141.got.cif
#   From: 2010.05.17/outbox.cif.g08.bks.cpg/sg14_31_cif.got.tgz:60141.got - 2010.06.03 17:49:19.
