data_PCOD9240898
_publ_section_title
;
Structure prediction by ZEFSAII (Michael W. Deem and Ramdas Pophale) SiO2 
 PCOD9240898
Probable space group: P 21/C
;
_chemical_formula_sum "Si O2"
_cell_formula_units_Z 24
_cell_length_a 7.521046
_cell_length_b 7.654729
_cell_length_c 17.785435
_cell_angle_alpha 90.000000
_cell_angle_beta 83.931496
_cell_angle_gamma 90.000000
_cell_volume 1018.197476
_symmetry_space_group_name_H-M "P 21/C"
_symmetry_group_IT_number 14
_symmetry_cell_setting 'monoclinic'
loop_
_space_group_symop_operation_xyz
x,y,z
-x,1/2+y,1/2-z
-x,-y,-z
x,1/2-y,1/2+z
loop_
_atom_site_type_symbol
_atom_site_label
_atom_site_fract_x
_atom_site_fract_y
_atom_site_fract_z
Si Si1 0.953161 0.047491 0.249498
Si Si2 0.373896 0.770289 0.206648
Si Si3 0.163786 0.568239 0.598670
Si Si4 0.612564 0.891979 0.330929
Si Si5 0.057429 0.418997 0.901892
Si Si6 0.791407 0.714885 0.968438
O O1 0.826588 0.218484 0.257493
O O2 0.025085 0.013659 0.164472
O O3 0.091857 0.069752 0.311665
O O4 0.810608 0.901299 0.283966
O O5 0.486500 0.805995 0.275288
O O6 0.440629 0.594393 0.164490
O O7 0.342400 0.910334 0.142219
O O8 0.089163 0.760194 0.581215
O O9 0.183043 0.423571 0.533692
O O10 0.638474 0.820346 0.413369
O O11 0.961752 0.599154 0.931123
O O12 0.219628 0.362834 0.947675
#
# Coordination Sequence:
#
# PCOD9240898 Si02
#       6
#     4   4   4   4   4   4
#     4   8  20  31  54  83 108 134 183 231 266 311
#     4   9  19  33  51  84 111 137 188 223 268 329
#     4  11  19  34  57  85 108 138 181 234 278 304
#     4   9  18  33  50  80 107 144 179 221 264 325
#     4   9  20  34  48  85 112 136 189 214 267 341
#     4  10  19  33  57  77 112 148 171 229 271 322
#
# _framework density 23.571065999999998
#
# number of rings (size 3 to 8) (size 9 to 14) (size 15 to 20)
#    1.000    1.667    1.667    1.500    9.333    0.000 
#    0.000    0.000    0.000    2.000    0.000    0.000 
#    0.000    0.000    0.000    0.000    0.000    0.000 
#
# Total GULP energy -133762.878994 kJ/mol
# GULP energy per Si atom -5573.453291 kJ/mol
# Density = 2.351742 g / cm^3
# Si number density = 23.571066 Si / 1000 Ang^3
#
#
#
# Elastic Constant Matrix: (Units=GPa)
#
#
# Indices 1 2 3 4 5 6 
#
# 1 43.3162 11.3860 36.9617 0.0000 26.2156 0.0000
# 2 11.3860 97.9529 14.2128 0.0000 16.0788 0.0000
# 3 36.9617 14.2128 73.8417 0.0000 33.0260 0.0000
# 4 0.0000 0.0000 0.0000 35.2179 0.0000 15.7338
# 5 26.2156 16.0788 33.0260 0.0000 43.4026 0.0000
# 6 0.0000 0.0000 0.0000 15.7338 0.0000 24.9062
#
#
#
# Elastic Compliance Matrix: (Units=1/GPa)
#
#
# Indices 1 2 3 4 5 6 
#
# 1 0.046449 -0.000497 -0.016203 0.000000 -0.015542 0.000000
# 2 -0.000497 0.010885 -0.000268 0.000000 -0.003528 0.000000
# 3 -0.016203 -0.000268 0.026199 0.000000 -0.010049 0.000000
# 4 0.000000 0.000000 0.000000 0.039559 0.000000 -0.024990
# 5 -0.015542 -0.003528 -0.010049 0.000000 0.041381 0.000000
# 6 0.000000 0.000000 0.000000 -0.024990 0.000000 0.055938
#
#
# Mechanical properties :
#
#
# Convention : Reuss Voigt Hill
#
# Bulk Modulus (GPa) = 20.16294 37.80353 28.98323
# Shear Modulus (GPa) = 18.45825 30.87535 24.66680
#
# Velocity S-wave (km/s) = 2.80141 3.62316 3.23845
# Velocity P-wave (km/s) = 4.36309 5.79448 5.12896
#
# Compressibility (1/GPa) = 0.04959595
#
# Stress axis : x y z
#
# Youngs Moduli (GPa) = 21.52879 91.87117 38.16886
#
# Poissons Ratio (x) = 0.04566 0.61847
# Poissons Ratio (y) = 0.01070 0.01025
# Poissons Ratio (z) = 0.34884 0.02466
#
# Static dielectric constant tensor:
#      x y z
#    x 1.961390 0.000000 0.035320 
#    y 0.000000 1.999270 0.000000 
#    z 0.035320 0.000000 1.885530 
# 
# From -- ./inp_files/54558.got.cif
#   From: 2010.05.17/outbox.cif.g08.bks.cpg/sg14_28_cif.got.tgz:54558.got - 2010.06.03 17:49:19.
