data_PCOD9240935
_publ_section_title
;
Structure prediction by ZEFSAII (Michael W. Deem and Ramdas Pophale) SiO2 
 PCOD9240935
Probable space group: P 21/C
;
_chemical_formula_sum "Si O2"
_cell_formula_units_Z 24
_cell_length_a 6.812086
_cell_length_b 19.030732
_cell_length_c 10.571862
_cell_angle_alpha 90.000000
_cell_angle_beta 42.765764
_cell_angle_gamma 90.000000
_cell_volume 930.590551
_symmetry_space_group_name_H-M "P 21/C"
_symmetry_group_IT_number 14
_symmetry_cell_setting 'monoclinic'
loop_
_space_group_symop_operation_xyz
x,y,z
-x,1/2+y,1/2-z
-x,-y,-z
x,1/2-y,1/2+z
loop_
_atom_site_type_symbol
_atom_site_label
_atom_site_fract_x
_atom_site_fract_y
_atom_site_fract_z
Si Si1 0.037413 0.769872 0.635948
Si Si2 0.344508 0.244178 0.935606
Si Si3 0.887479 0.069493 0.337765
Si Si4 0.665781 0.154937 0.134659
Si Si5 0.399413 0.468533 0.866318
Si Si6 0.732607 0.591112 0.570059
O O1 0.127543 0.851326 0.602004
O O2 0.290347 0.711689 0.497286
O O3 0.855139 0.761432 0.592515
O O4 0.841236 0.749509 0.849457
O O5 0.607298 0.297065 0.786851
O O6 0.434566 0.163521 0.873632
O O7 0.877706 0.003650 0.437467
O O8 0.602622 0.059711 0.384337
O O9 0.157599 0.063519 0.116209
O O10 0.415541 0.095953 0.259621
O O11 0.967894 0.113157 0.001569
O O12 0.561640 0.534167 0.727634
#
# Coordination Sequence:
#
# PCOD9240935 Si02
#       6
#     4   4   4   4   4   4
#     4  10  22  39  58  84 118 153 191 242 291 342
#     4  10  22  37  59  84 114 154 194 237 290 345
#     4   9  18  33  56  82 111 147 192 235 278 335
#     4  10  20  33  55  84 112 145 191 237 284 339
#     4  10  19  33  59  88 112 150 196 237 280 343
#     4   9  19  35  56  83 112 149 194 239 280 336
#
# _framework density 25.790074000000001
#
# number of rings (size 3 to 8) (size 9 to 14) (size 15 to 20)
#    0.000    2.333    0.000    4.000    0.000   14.667 
#    0.000    0.833    0.000   10.000    0.000    0.000 
#    0.000    0.000    0.000    0.000    0.000    0.000 
#
# Total GULP energy -134254.290467 kJ/mol
# GULP energy per Si atom -5593.928769 kJ/mol
# Density = 2.573137 g / cm^3
# Si number density = 25.790074 Si / 1000 Ang^3
#
#
#
# Elastic Constant Matrix: (Units=GPa)
#
#
# Indices 1 2 3 4 5 6 
#
# 1 91.9892 11.6076 14.1298 0.0000 21.4444 0.0000
# 2 11.6076 152.7576 76.4297 0.0000 -3.3370 0.0000
# 3 14.1298 76.4297 130.0943 0.0000 13.5520 0.0000
# 4 0.0000 0.0000 0.0000 70.2141 0.0000 1.8003
# 5 21.4444 -3.3370 13.5520 0.0000 26.5742 0.0000
# 6 0.0000 0.0000 0.0000 1.8003 0.0000 33.9807
#
#
#
# Elastic Compliance Matrix: (Units=1/GPa)
#
#
# Indices 1 2 3 4 5 6 
#
# 1 0.013673 -0.001633 0.000681 0.000000 -0.011586 0.000000
# 2 -0.001633 0.009924 -0.006252 0.000000 0.005752 0.000000
# 3 0.000681 -0.006252 0.012066 0.000000 -0.007488 0.000000
# 4 0.000000 0.000000 0.000000 0.014262 0.000000 -0.000756
# 5 -0.011586 0.005752 -0.007488 0.000000 0.051521 0.000000
# 6 0.000000 0.000000 0.000000 -0.000756 0.000000 0.029469
#
#
# Mechanical properties :
#
#
# Convention : Reuss Voigt Hill
#
# Bulk Modulus (GPa) = 47.04691 64.35281 55.69986
# Shear Modulus (GPa) = 32.80665 44.33205 38.56935
#
# Velocity S-wave (km/s) = 3.57047 4.15053 3.87138
# Velocity P-wave (km/s) = 5.93966 6.92646 6.45196
#
# Compressibility (1/GPa) = 0.02125538
#
# Stress axis : x y z
#
# Youngs Moduli (GPa) = 73.13570 100.76248 82.87742
#
# Poissons Ratio (x) = 0.16454 -0.05646
# Poissons Ratio (y) = 0.11942 0.51818
# Poissons Ratio (z) = -0.04982 0.63000
#
# Static dielectric constant tensor:
#      x y z
#    x 2.206620 0.000000 -0.008780 
#    y 0.000000 2.031130 0.000000 
#    z -0.008780 0.000000 2.010260 
# 
# From -- ./inp_files/26536.got.cif
#   From: 2010.05.17/outbox.cif.g08.bks.cpg/sg14_14_cif.got.tgz:26536.got - 2010.06.03 17:49:19.
