data_PCOD9240065
_publ_section_title
;
Structure prediction by ZEFSAII (Michael W. Deem and Ramdas Pophale) SiO2 
 PCOD9240065
Probable space group: P 21/C
;
_chemical_formula_sum "Si O2"
_cell_formula_units_Z 28
_cell_length_a 7.251499
_cell_length_b 15.272588
_cell_length_c 13.873585
_cell_angle_alpha 90.000000
_cell_angle_beta 47.949238
_cell_angle_gamma 90.000000
_cell_volume 1140.921669
_symmetry_space_group_name_H-M "P 21/C"
_symmetry_group_IT_number 14
_symmetry_cell_setting 'monoclinic'
loop_
_space_group_symop_operation_xyz
x,y,z
-x,1/2+y,1/2-z
-x,-y,-z
x,1/2-y,1/2+z
loop_
_atom_site_type_symbol
_atom_site_label
_atom_site_fract_x
_atom_site_fract_y
_atom_site_fract_z
Si Si1 0.775646 0.990684 0.366451
Si Si2 0.154848 0.545399 0.603385
Si Si3 0.467723 0.483131 0.679890
Si Si4 0.284533 0.203110 0.626091
Si Si5 0.759531 0.262303 0.339572
Si Si6 0.630588 0.332164 0.182874
Si Si7 0.948710 0.590615 0.076057
O O1 0.830649 0.888863 0.374039
O O2 0.875588 0.988904 0.222300
O O3 0.500000 0.000000 0.500000
O O4 0.906962 0.068206 0.376632
O O5 0.307085 0.496776 0.636691
O O6 0.264186 0.530691 0.459883
O O7 0.195387 0.647420 0.615414
O O8 0.430771 0.572066 0.752060
O O9 0.338378 0.408887 0.791808
O O10 0.520569 0.222693 0.476727
O O11 0.413444 0.190476 0.684755
O O12 0.048566 0.266867 0.722057
O O13 0.662173 0.274047 0.265227
O O14 0.893840 0.336017 0.032956
O O15 0.000000 0.500000 0.000000
#
# Coordination Sequence:
#
# PCOD9240065 Si02
#       7
#     4   4   4   4   4   4   4
#     4  10  18  34  58  89 114 149 201 252 306 360
#     4   8  16  33  55  83 122 146 192 247 299 360
#     4   8  15  30  56  90 113 152 191 248 309 360
#     4  11  23  42  64  88 126 167 211 258 309 375
#     4  10  24  42  60  88 124 168 211 256 304 384
#     4  10  20  38  62  87 126 164 204 263 315 367
#     4   9  16  30  58  87 114 151 192 246 313 362
#
# _framework density 24.541561000000002
#
# number of rings (size 3 to 8) (size 9 to 14) (size 15 to 20)
#    0.000    2.571    1.429    2.571    0.000    2.286 
#    5.143    5.714    0.000    0.000    0.000    0.000 
#    0.000    0.000    0.000    0.000    0.000    0.000 
#
# Total GULP energy -155955.189389 kJ/mol
# GULP energy per Si atom -5569.828192 kJ/mol
# Density = 2.448570 g / cm^3
# Si number density = 24.541561 Si / 1000 Ang^3
#
#
#
# Elastic Constant Matrix: (Units=GPa)
#
#
# Indices 1 2 3 4 5 6 
#
# 1 101.5170 9.6579 51.4102 0.0000 5.7761 0.0000
# 2 9.6579 37.9601 35.2869 0.0000 -0.3923 0.0000
# 3 51.4102 35.2869 231.7123 0.0000 -14.6012 0.0000
# 4 0.0000 0.0000 0.0000 39.7113 0.0000 -4.8640
# 5 5.7761 -0.3923 -14.6012 0.0000 33.6380 0.0000
# 6 0.0000 0.0000 0.0000 -4.8640 0.0000 15.3986
#
#
#
# Elastic Compliance Matrix: (Units=1/GPa)
#
#
# Indices 1 2 3 4 5 6 
#
# 1 0.011419 -0.000465 -0.002659 0.000000 -0.003121 0.000000
# 2 -0.000465 0.030803 -0.004688 0.000000 -0.001596 0.000000
# 3 -0.002659 -0.004688 0.005804 0.000000 0.002921 0.000000
# 4 0.000000 0.000000 0.000000 0.026195 0.000000 0.008274
# 5 -0.003121 -0.001596 0.002921 0.000000 0.031513 0.000000
# 6 0.000000 0.000000 0.000000 0.008274 0.000000 0.067555
#
#
# Mechanical properties :
#
#
# Convention : Reuss Voigt Hill
#
# Bulk Modulus (GPa) = 30.86398 62.65547 46.75973
# Shear Modulus (GPa) = 25.03555 36.07187 30.55371
#
# Velocity S-wave (km/s) = 3.19741 3.83799 3.53225
# Velocity P-wave (km/s) = 5.12199 6.72503 5.97749
#
# Compressibility (1/GPa) = 0.03240023
#
# Stress axis : x y z
#
# Youngs Moduli (GPa) = 87.57229 32.46388 172.30193
#
# Poissons Ratio (x) = 0.01511 0.45821
# Poissons Ratio (y) = 0.04076 0.80780
# Poissons Ratio (z) = 0.23288 0.15220
#
# Static dielectric constant tensor:
#      x y z
#    x 2.854190 0.000000 -0.072150 
#    y 0.000000 4.867680 0.000000 
#    z -0.072150 0.000000 2.084630 
# 
# From -- ./inp_files/41912.got.cif
#   From: 2010.05.17/outbox.cif.g08.bks.cpg/sg14_21_cif.got.tgz:41912.got - 2010.06.03 17:49:19.
