data_PCOD9240668
_publ_section_title
;
Structure prediction by ZEFSAII (Michael W. Deem and Ramdas Pophale) SiO2 
 PCOD9240668
Probable space group: P 21/C
;
_chemical_formula_sum "Si O2"
_cell_formula_units_Z 32
_cell_length_a 13.411781
_cell_length_b 12.847988
_cell_length_c 12.842564
_cell_angle_alpha 90.000000
_cell_angle_beta 33.808324
_cell_angle_gamma 90.000000
_cell_volume 1231.326387
_symmetry_space_group_name_H-M "P 21/C"
_symmetry_group_IT_number 14
_symmetry_cell_setting 'monoclinic'
loop_
_space_group_symop_operation_xyz
x,y,z
-x,1/2+y,1/2-z
-x,-y,-z
x,1/2-y,1/2+z
loop_
_atom_site_type_symbol
_atom_site_label
_atom_site_fract_x
_atom_site_fract_y
_atom_site_fract_z
Si Si1 0.644009 0.078989 0.706604
Si Si2 0.038680 0.727437 0.042218
Si Si3 0.215375 0.924211 0.778386
Si Si4 0.702353 0.696083 0.447623
Si Si5 0.434581 0.811587 0.445596
Si Si6 0.717128 0.661014 0.112155
Si Si7 0.882878 0.967128 0.934362
Si Si8 0.110295 0.665282 0.703532
O O1 0.829519 0.129721 0.584507
O O2 0.478761 0.131331 0.911787
O O3 0.611497 0.122428 0.617713
O O4 0.652344 0.954836 0.696016
O O5 0.073160 0.773569 0.128499
O O6 0.831898 0.698275 0.236347
O O7 0.098712 0.825464 0.921010
O O8 0.403598 0.885470 0.570920
O O9 0.088916 0.966471 0.794712
O O10 0.224138 0.001222 0.868490
O O11 0.668046 0.807306 0.533565
O O12 0.813178 0.636634 0.442716
O O13 0.611227 0.748197 0.268078
O O14 0.283632 0.723018 0.594136
O O15 0.933606 0.664445 0.927758
O O16 0.854871 0.049914 0.867296
#
# Coordination Sequence:
#
# PCOD9240668 Si02
#       8
#     4   4   4   4   4   4   4   4
#     4  10  20  36  58  82 110 154 205 241 280 351
#     4   9  19  35  56  81 117 154 190 238 294 350
#     4  10  20  35  58  93 126 151 183 245 316 353
#     4  10  20  36  58  85 112 152 206 244 280 350
#     4  10  20  35  56  85 120 149 187 240 293 348
#     4  10  19  31  54  81 106 144 194 238 276 332
#     4  10  19  35  63  90 117 153 198 246 296 350
#     4   9  17  33  58  83 111 154 195 231 277 344
#
# _framework density 25.988233999999999
#
# number of rings (size 3 to 8) (size 9 to 14) (size 15 to 20)
#    0.000    2.250    0.000    4.500    0.000    2.000 
#    0.000    6.875    0.000   19.500    0.000    0.000 
#    0.000    0.000    0.000    0.000    0.000    0.000 
#
# Total GULP energy -179188.537865 kJ/mol
# GULP energy per Si atom -5599.641808 kJ/mol
# Density = 2.592908 g / cm^3
# Si number density = 25.988234 Si / 1000 Ang^3
#
#
#
# Elastic Constant Matrix: (Units=GPa)
#
#
# Indices 1 2 3 4 5 6 
#
# 1 66.9409 4.6467 1.9623 0.0000 5.5956 0.0000
# 2 4.6467 114.4063 6.9776 0.0000 3.0648 0.0000
# 3 1.9623 6.9776 119.5246 0.0000 2.2654 0.0000
# 4 0.0000 0.0000 0.0000 32.8908 0.0000 -3.5045
# 5 5.5956 3.0648 2.2654 0.0000 21.4322 0.0000
# 6 0.0000 0.0000 0.0000 -3.5045 0.0000 17.1198
#
#
#
# Elastic Compliance Matrix: (Units=1/GPa)
#
#
# Indices 1 2 3 4 5 6 
#
# 1 0.015305 -0.000508 -0.000148 0.000000 -0.003908 0.000000
# 2 -0.000508 0.008820 -0.000486 0.000000 -0.001077 0.000000
# 3 -0.000148 -0.000486 0.008412 0.000000 -0.000781 0.000000
# 4 0.000000 0.000000 0.000000 0.031082 0.000000 0.006363
# 5 -0.003908 -0.001077 -0.000781 0.000000 0.047916 0.000000
# 6 0.000000 0.000000 0.000000 0.006363 0.000000 0.059715
#
#
# Mechanical properties :
#
#
# Convention : Reuss Voigt Hill
#
# Bulk Modulus (GPa) = 33.05399 36.44944 34.75171
# Shear Modulus (GPa) = 27.23073 33.44091 30.33582
#
# Velocity S-wave (km/s) = 3.24050 3.59105 3.42027
# Velocity P-wave (km/s) = 5.17181 5.59017 5.38505
#
# Compressibility (1/GPa) = 0.03025354
#
# Stress axis : x y z
#
# Youngs Moduli (GPa) = 65.33914 113.37983 118.87655
#
# Poissons Ratio (x) = 0.05759 0.01754
# Poissons Ratio (y) = 0.03319 0.05779
# Poissons Ratio (z) = 0.00964 0.05512
#
# Static dielectric constant tensor:
#      x y z
#    x 2.088270 0.000000 0.036430 
#    y 0.000000 2.009560 0.000000 
#    z 0.036430 0.000000 2.095040 
# 
# From -- ./inp_files/49007.got.cif
#   From: 2010.05.17/outbox.cif.g08.bks.cpg/sg14_25_cif.got.tgz:49007.got - 2010.06.03 17:49:19.
