data_PCOD9240677
_publ_section_title
;
Structure prediction by ZEFSAII (Michael W. Deem and Ramdas Pophale) SiO2 
 PCOD9240677
Probable space group: P 21/C
;
_chemical_formula_sum "Si O2"
_cell_formula_units_Z 30
_cell_length_a 21.863668
_cell_length_b 9.807232
_cell_length_c 5.059027
_cell_angle_alpha 90.000000
_cell_angle_beta 70.907223
_cell_angle_gamma 90.000000
_cell_volume 1025.094149
_symmetry_space_group_name_H-M "P 21/C"
_symmetry_group_IT_number 14
_symmetry_cell_setting 'monoclinic'
loop_
_space_group_symop_operation_xyz
x,y,z
-x,1/2+y,1/2-z
-x,-y,-z
x,1/2-y,1/2+z
loop_
_atom_site_type_symbol
_atom_site_label
_atom_site_fract_x
_atom_site_fract_y
_atom_site_fract_z
Si Si1 0.822931 0.842020 0.561613
Si Si2 0.091408 0.848802 0.174370
Si Si3 0.219039 0.678435 0.328304
Si Si4 0.042821 0.348605 0.253384
Si Si5 0.500000 0.000000 0.500000
Si Si6 0.456561 0.269197 0.561425
Si Si7 0.352121 0.556723 0.129948
Si Si8 0.324183 0.092396 0.171689
O O1 0.827050 0.718015 0.347776
O O2 0.889098 0.923894 0.401415
O O3 0.749192 0.891277 0.629378
O O4 0.089111 0.770579 0.453962
O O5 0.162153 0.583377 0.527108
O O6 0.024696 0.926660 0.208014
O O7 0.207900 0.807998 0.534641
O O8 0.294974 0.660861 0.261376
O O9 0.042706 0.226471 0.034849
O O10 0.472174 0.136306 0.310300
O O11 0.574876 0.071335 0.381719
O O12 0.379431 0.204788 0.144473
O O13 0.476942 0.140020 0.761524
O O14 0.323716 0.440569 0.364448
O O15 0.351546 0.527631 0.819471
#
# Coordination Sequence:
#
# PCOD9240677 Si02
#       8
#     4   4   4   4   2   4   4   4
#     4  10  19  31  58  87 120 162 210 254 302 373
#     4   8  14  27  52  79 117 154 200 258 313 363
#     4  10  21  41  64  92 121 165 214 269 321 380
#     4   8  14  25  44  83 116 150 202 256 298 361
#     4  12  28  46  70 100 124 168 218 264 326 388
#     4  12  24  45  69  95 127 164 208 258 320 377
#     4  12  27  43  66  93 125 163 216 258 331 399
#     4  12  23  44  64  92 129 169 204 258 325 388
#
# _framework density 29.265602999999999
#
# number of rings (size 3 to 8) (size 9 to 14) (size 15 to 20)
#    0.000    1.600    2.667    2.400    0.000    3.200 
#    0.000    0.000    0.000    1.600    0.000    0.000 
#    0.000    0.000    0.000    0.000    0.000    0.000 
#
# Total GULP energy -167223.417631 kJ/mol
# GULP energy per Si atom -5574.113921 kJ/mol
# Density = 2.919899 g / cm^3
# Si number density = 29.265603 Si / 1000 Ang^3
#
#
#
# Elastic Constant Matrix: (Units=GPa)
#
#
# Indices 1 2 3 4 5 6 
#
# 1 258.2879 43.5720 61.8748 0.0000 -55.3865 0.0000
# 2 43.5720 88.3706 43.0913 0.0000 0.8167 0.0000
# 3 61.8748 43.0913 195.6031 0.0000 20.6181 0.0000
# 4 0.0000 0.0000 0.0000 33.6810 0.0000 -4.4791
# 5 -55.3865 0.8167 20.6181 0.0000 82.2345 0.0000
# 6 0.0000 0.0000 0.0000 -4.4791 0.0000 30.5326
#
#
#
# Elastic Compliance Matrix: (Units=1/GPa)
#
#
# Indices 1 2 3 4 5 6 
#
# 1 0.005508 -0.001894 -0.001765 0.000000 0.004171 0.000000
# 2 -0.001894 0.013357 -0.002255 0.000000 -0.000843 0.000000
# 3 -0.001765 -0.002255 0.006461 0.000000 -0.002786 0.000000
# 4 0.000000 0.000000 0.000000 0.030281 0.000000 0.004442
# 5 0.004171 -0.000843 -0.002786 0.000000 0.015677 0.000000
# 6 0.000000 0.000000 0.000000 0.004442 0.000000 0.033404
#
#
# Mechanical properties :
#
#
# Convention : Reuss Voigt Hill
#
# Bulk Modulus (GPa) = 74.07625 93.25975 83.66800
# Shear Modulus (GPa) = 41.31729 55.53784 48.42757
#
# Velocity S-wave (km/s) = 3.76147 4.36101 4.07229
# Velocity P-wave (km/s) = 6.65068 7.56926 7.12479
#
# Compressibility (1/GPa) = 0.01349960
#
# Stress axis : x y z
#
# Youngs Moduli (GPa) = 181.53940 74.86726 154.77306
#
# Poissons Ratio (x) = 0.14179 0.27317
# Poissons Ratio (y) = 0.34382 0.34895
# Poissons Ratio (z) = 0.32041 0.16879
#
# Static dielectric constant tensor:
#      x y z
#    x 2.304940 0.000000 -0.002140 
#    y 0.000000 2.520990 0.000000 
#    z -0.002140 0.000000 2.306500 
# 
# From -- ./inp_files/4347.got.cif
#   From: 2010.05.17/outbox.cif.g08.bks.cpg/sg14_3_cif.got.tgz:4347.got - 2010.06.03 17:49:19.
