data_PCOD9240140
_publ_section_title
;
Structure prediction by ZEFSAII (Michael W. Deem and Ramdas Pophale) SiO2 
 PCOD9240140
Probable space group: P 21/C
;
_chemical_formula_sum "Si O2"
_cell_formula_units_Z 32
_cell_length_a 9.313167
_cell_length_b 11.775658
_cell_length_c 26.998808
_cell_angle_alpha 90.000000
_cell_angle_beta 140.349353
_cell_angle_gamma 90.000000
_cell_volume 1889.379525
_symmetry_space_group_name_H-M "P 21/C"
_symmetry_group_IT_number 14
_symmetry_cell_setting 'monoclinic'
loop_
_space_group_symop_operation_xyz
x,y,z
-x,1/2+y,1/2-z
-x,-y,-z
x,1/2-y,1/2+z
loop_
_atom_site_type_symbol
_atom_site_label
_atom_site_fract_x
_atom_site_fract_y
_atom_site_fract_z
Si Si1 0.643617 0.326817 0.624721
Si Si2 0.106632 0.566016 0.454217
Si Si3 0.723764 0.930825 0.573311
Si Si4 0.689741 0.432916 0.157236
Si Si5 0.180535 0.161447 0.035985
Si Si6 0.567700 0.672365 0.540798
Si Si7 0.156551 0.074285 0.504714
Si Si8 0.031174 0.498157 0.326674
O O1 0.719683 0.197605 0.649345
O O2 0.450097 0.348001 0.613499
O O3 0.514661 0.342856 0.537804
O O4 0.847522 0.412709 0.677417
O O5 0.116954 0.439836 0.480994
O O6 0.353087 0.624671 0.514431
O O7 0.000412 0.557380 0.371553
O O8 0.954554 0.638906 0.450200
O O9 0.643272 0.802976 0.563693
O O10 0.872065 0.941183 0.562586
O O11 0.500000 0.000000 0.500000
O O12 0.802469 0.989697 0.644633
O O13 0.809506 0.453908 0.241186
O O14 0.419981 0.453406 0.086444
O O15 0.130946 0.289867 0.005658
O O16 0.783027 0.598152 0.612524
O O17 0.000000 0.000000 0.500000
#
# Coordination Sequence:
#
# PCOD9240140 Si02
#       8
#     4   4   4   4   4   4   4   4
#     4  10  18  38  55  81 112 149 191 234 281 345
#     4  10  20  32  61  82 113 143 196 236 278 347
#     4  10  19  36  57  84 111 144 195 232 276 344
#     4  10  23  36  55  84 119 143 189 241 288 340
#     4  10  18  35  55  87 106 144 195 238 275 333
#     4  11  18  35  62  83 106 149 195 234 277 340
#     4  10  21  37  61  79 110 153 190 229 286 347
#     4  11  21  35  57  85 113 150 182 243 300 323
#
# _framework density 16.936776999999999
#
# number of rings (size 3 to 8) (size 9 to 14) (size 15 to 20)
#    0.000    1.750    6.250    0.750    5.250    0.000 
#    0.000    1.250    2.750    0.000    0.000    0.000 
#    0.000    0.000    0.000    0.000    0.000    0.000 
#
# Total GULP energy -178199.142466 kJ/mol
# GULP energy per Si atom -5568.723202 kJ/mol
# Density = 1.689823 g / cm^3
# Si number density = 16.936777 Si / 1000 Ang^3
#
#
#
# Elastic Constant Matrix: (Units=GPa)
#
#
# Indices 1 2 3 4 5 6 
#
# 1 109.6551 41.8266 19.5425 0.0000 -3.7444 0.0000
# 2 41.8266 79.4065 14.0443 0.0000 4.5613 0.0000
# 3 19.5425 14.0443 72.2073 0.0000 -6.2173 0.0000
# 4 0.0000 0.0000 0.0000 0.1899 0.0000 -3.8093
# 5 -3.7444 4.5613 -6.2173 0.0000 13.9488 0.0000
# 6 0.0000 0.0000 0.0000 -3.8093 0.0000 31.0120
#
#
#
# Elastic Compliance Matrix: (Units=1/GPa)
#
#
# Indices 1 2 3 4 5 6 
#
# 1 0.011956 -0.006271 -0.001626 0.000000 0.004535 0.000000
# 2 -0.006271 0.016767 -0.002268 0.000000 -0.008177 0.000000
# 3 -0.001626 -0.002268 0.015345 0.000000 0.007145 0.000000
# 4 0.000000 0.000000 0.000000 -3.597487 0.000000 -0.441895
# 5 0.004535 -0.008177 0.007145 0.000000 0.078767 0.000000
# 6 0.000000 0.000000 0.000000 -0.441895 0.000000 -0.022034
#
#
# Mechanical properties :
#
#
# Convention : Reuss Voigt Hill
#
# Bulk Modulus (GPa) = 42.12373 45.78840 43.95606
# Shear Modulus (GPa) = -1.44157 21.42052 9.98948
#
# Velocity S-wave (km/s) = -0.92358 3.56017 2.43123
# Velocity P-wave (km/s) = 4.87728 6.63275 5.82156
#
# Compressibility (1/GPa) = 0.02373959
#
# Stress axis : x y z
#
# Youngs Moduli (GPa) = 83.64024 59.63971 65.16618
#
# Poissons Ratio (x) = 0.37398 0.10594
# Poissons Ratio (y) = 0.52448 0.14781
# Poissons Ratio (z) = 0.13597 0.13528
#
# Static dielectric constant tensor:
#      x y z
#    x 1.602220 0.000000 -0.008870 
#    y 0.000000 1.595080 0.000000 
#    z -0.008870 0.000000 1.562500 
# 
# From -- ./inp_files/55422.got.cif
#   From: 2010.05.17/outbox.cif.g08.bks.cpg/sg14_28_cif.got.tgz:55422.got - 2010.06.03 17:49:19.
