data_PCOD9240960
_publ_section_title
;
Structure prediction by ZEFSAII (Michael W. Deem and Ramdas Pophale) SiO2 
 PCOD9240960
Probable space group: P 21/C
;
_chemical_formula_sum "Si O2"
_cell_formula_units_Z 28
_cell_length_a 25.917565
_cell_length_b 10.142912
_cell_length_c 14.595964
_cell_angle_alpha 90.000000
_cell_angle_beta 160.654900
_cell_angle_gamma 90.000000
_cell_volume 1271.027538
_symmetry_space_group_name_H-M "P 21/C"
_symmetry_group_IT_number 14
_symmetry_cell_setting 'monoclinic'
loop_
_space_group_symop_operation_xyz
x,y,z
-x,1/2+y,1/2-z
-x,-y,-z
x,1/2-y,1/2+z
loop_
_atom_site_type_symbol
_atom_site_label
_atom_site_fract_x
_atom_site_fract_y
_atom_site_fract_z
Si Si1 0.182608 0.836373 0.571472
Si Si2 0.223528 0.260402 0.246424
Si Si3 0.594900 0.963492 0.523662
Si Si4 0.546866 0.988268 0.900907
Si Si5 0.409697 0.813396 0.342819
Si Si6 0.037569 0.109522 0.288951
Si Si7 0.302720 0.169430 0.582570
O O1 0.277958 0.793920 0.639925
O O2 0.106887 0.702040 0.483604
O O3 0.059597 0.953497 0.345508
O O4 0.318753 0.899348 0.863672
O O5 0.257684 0.119408 0.260252
O O6 0.356946 0.355071 0.426228
O O7 0.240998 0.237917 0.384775
O O8 0.072928 0.324558 0.948430
O O9 0.529000 0.033089 0.324613
O O10 0.454585 0.866892 0.319608
O O11 0.635790 0.058668 0.674428
O O12 0.406336 0.040567 0.728831
O O13 0.571001 0.763319 0.657733
O O14 0.168191 0.137911 0.429732
#
# Coordination Sequence:
#
# PCOD9240960 Si02
#       7
#     4   4   4   4   4   4   4
#     4  10  25  41  62  88 128 171 210 254 310 370
#     4  10  20  36  61  90 122 161 201 258 310 367
#     4  10  19  33  63  94 124 151 205 266 310 365
#     4   9  20  38  60  94 122 159 208 260 311 369
#     4  10  20  36  63  94 118 161 208 263 315 365
#     4  11  24  44  61  86 129 173 204 259 310 375
#     4  10  20  38  64  90 121 159 211 257 314 367
#
# _framework density 22.029420999999999
#
# number of rings (size 3 to 8) (size 9 to 14) (size 15 to 20)
#    0.000    2.000    2.857    0.000    4.000    1.714 
#    2.571    2.143    0.000    0.000    0.000    0.000 
#    0.000    0.000    0.000    0.000    0.000    0.000 
#
# Total GULP energy -155961.682900 kJ/mol
# GULP energy per Si atom -5570.060104 kJ/mol
# Density = 2.197928 g / cm^3
# Si number density = 22.029421 Si / 1000 Ang^3
#
#
#
# Elastic Constant Matrix: (Units=GPa)
#
#
# Indices 1 2 3 4 5 6 
#
# 1 62.0041 -1.4663 12.1834 0.0000 1.5060 0.0000
# 2 -1.4663 50.9071 4.1255 0.0000 0.3683 0.0000
# 3 12.1834 4.1255 59.0641 0.0000 5.2525 0.0000
# 4 0.0000 0.0000 0.0000 29.2521 0.0000 7.1781
# 5 1.5060 0.3683 5.2525 0.0000 20.2207 0.0000
# 6 0.0000 0.0000 0.0000 7.1781 0.0000 21.2769
#
#
#
# Elastic Compliance Matrix: (Units=1/GPa)
#
#
# Indices 1 2 3 4 5 6 
#
# 1 0.016842 0.000771 -0.003496 0.000000 -0.000360 0.000000
# 2 0.000771 0.019791 -0.001540 0.000000 -0.000018 0.000000
# 3 -0.003496 -0.001540 0.018153 0.000000 -0.004427 0.000000
# 4 0.000000 0.000000 0.000000 0.037271 0.000000 -0.012574
# 5 -0.000360 -0.000018 -0.004427 0.000000 0.050632 0.000000
# 6 0.000000 0.000000 0.000000 -0.012574 0.000000 0.051241
#
#
# Mechanical properties :
#
#
# Convention : Reuss Voigt Hill
#
# Bulk Modulus (GPa) = 21.61861 22.40673 22.01267
# Shear Modulus (GPa) = 22.94864 24.62545 23.78705
#
# Velocity S-wave (km/s) = 3.23108 3.34704 3.28957
# Velocity P-wave (km/s) = 4.87388 5.01301 4.94393
#
# Compressibility (1/GPa) = 0.04625644
#
# Stress axis : x y z
#
# Youngs Moduli (GPa) = 59.37587 50.52871 55.08699
#
# Poissons Ratio (x) = -0.03896 0.19258
# Poissons Ratio (y) = -0.04578 0.08482
# Poissons Ratio (z) = 0.20757 0.07780
#
# Static dielectric constant tensor:
#      x y z
#    x 1.784720 0.000000 0.036820 
#    y 0.000000 1.856340 0.000000 
#    z 0.036820 0.000000 1.859880 
# 
# From -- ./inp_files/52013.got.cif
#   From: 2010.05.17/outbox.cif.g08.bks.cpg/sg14_27_cif.got.tgz:52013.got - 2010.06.03 17:49:19.
