data_PCOD9240663
_publ_section_title
;
Structure prediction by ZEFSAII (Michael W. Deem and Ramdas Pophale) SiO2 
 PCOD9240663
Probable space group: P 21/C
;
_chemical_formula_sum "Si O2"
_cell_formula_units_Z 32
_cell_length_a 20.126115
_cell_length_b 7.906370
_cell_length_c 20.780820
_cell_angle_alpha 90.000000
_cell_angle_beta 27.467224
_cell_angle_gamma 90.000000
_cell_volume 1525.203477
_symmetry_space_group_name_H-M "P 21/C"
_symmetry_group_IT_number 14
_symmetry_cell_setting 'monoclinic'
loop_
_space_group_symop_operation_xyz
x,y,z
-x,1/2+y,1/2-z
-x,-y,-z
x,1/2-y,1/2+z
loop_
_atom_site_type_symbol
_atom_site_label
_atom_site_fract_x
_atom_site_fract_y
_atom_site_fract_z
Si Si1 0.379217 0.663183 0.059570
Si Si2 0.719662 0.785641 0.585605
Si Si3 0.247022 0.288564 0.163678
Si Si4 0.068521 0.098442 0.702053
Si Si5 0.779369 0.231923 0.922835
Si Si6 0.565775 0.348381 0.212314
Si Si7 0.552737 0.335529 0.367515
Si Si8 0.316736 0.211924 0.238760
O O1 0.315936 0.476547 0.107616
O O2 0.286424 0.780181 0.091610
O O3 0.382215 0.728381 0.129767
O O4 0.543142 0.670023 0.892821
O O5 0.856856 0.808791 0.422666
O O6 0.602716 0.653363 0.659913
O O7 0.751378 0.755446 0.633300
O O8 0.633167 0.964399 0.655172
O O9 0.118059 0.303234 0.224044
O O10 0.215178 0.234747 0.264135
O O11 0.379904 0.173640 0.024990
O O12 0.898314 0.096280 0.839124
O O13 0.135924 0.911579 0.646783
O O14 0.650760 0.247788 0.084250
O O15 0.584832 0.274751 0.267673
O O16 0.615072 0.523974 0.320563
#
# Coordination Sequence:
#
# PCOD9240663 Si02
#       8
#     4   4   4   4   4   4   4   4
#     4  10  19  33  53  77 109 142 174 218 267 316
#     4  10  20  35  55  81 109 138 179 225 266 314
#     4  10  19  33  53  77 109 142 174 218 267 316
#     4  10  22  38  55  78 108 144 182 219 267 321
#     4  10  22  38  55  78 108 144 182 219 267 321
#     4  10  20  35  55  81 109 138 179 225 266 314
#     4  10  19  31  53  82 108 136 175 221 267 315
#     4  10  19  31  53  82 108 136 175 221 267 315
#
# _framework density 20.980806999999999
#
# number of rings (size 3 to 8) (size 9 to 14) (size 15 to 20)
#    0.000    2.000    2.500    3.000    0.000    4.000 
#    0.000    1.250    0.000    7.500    0.000    0.000 
#    0.000    0.000    0.000    0.000    0.000    0.000 
#
# Total GULP energy -178805.988901 kJ/mol
# GULP energy per Si atom -5587.687153 kJ/mol
# Density = 2.093305 g / cm^3
# Si number density = 20.980807 Si / 1000 Ang^3
#
#
#
# Elastic Constant Matrix: (Units=GPa)
#
#
# Indices 1 2 3 4 5 6 
#
# 1 111.7388 16.5797 17.9352 0.0000 20.7571 0.0000
# 2 16.5797 48.4437 5.2629 0.0000 7.2490 0.0000
# 3 17.9352 5.2629 32.9580 0.0000 5.7058 0.0000
# 4 0.0000 0.0000 0.0000 20.3216 0.0000 -3.8095
# 5 20.7571 7.2490 5.7058 0.0000 30.2684 0.0000
# 6 0.0000 0.0000 0.0000 -3.8095 0.0000 27.0474
#
#
#
# Elastic Compliance Matrix: (Units=1/GPa)
#
#
# Indices 1 2 3 4 5 6 
#
# 1 0.011208 -0.002399 -0.004636 0.000000 -0.006238 0.000000
# 2 -0.002399 0.022144 -0.001651 0.000000 -0.003347 0.000000
# 3 -0.004636 -0.001651 0.033606 0.000000 -0.002760 0.000000
# 4 0.000000 0.000000 0.000000 0.050543 0.000000 0.007119
# 5 -0.006238 -0.003347 -0.002760 0.000000 0.038637 0.000000
# 6 0.000000 0.000000 0.000000 0.007119 0.000000 0.037975
#
#
# Mechanical properties :
#
#
# Convention : Reuss Voigt Hill
#
# Bulk Modulus (GPa) = 20.16725 30.29954 25.23339
# Shear Modulus (GPa) = 21.92839 25.75167 23.84003
#
# Velocity S-wave (km/s) = 3.23641 3.50722 3.37453
# Velocity P-wave (km/s) = 4.85787 5.55641 5.21884
#
# Compressibility (1/GPa) = 0.04958535
#
# Stress axis : x y z
#
# Youngs Moduli (GPa) = 89.21919 45.15957 29.75640
#
# Poissons Ratio (x) = 0.10833 0.13796
# Poissons Ratio (y) = 0.21403 0.04913
# Poissons Ratio (z) = 0.41366 0.07456
#
# Static dielectric constant tensor:
#      x y z
#    x 1.771420 0.000000 0.016380 
#    y 0.000000 1.807720 0.000000 
#    z 0.016380 0.000000 1.705210 
# 
# From -- ./inp_files/69784.got.cif
#   From: 2010.05.17/outbox.cif.g08.bks.cpg/sg14_35_cif.got.tgz:69784.got - 2010.06.03 17:49:19.
