data_PCOD9240631
_publ_section_title
;
Structure prediction by ZEFSAII (Michael W. Deem and Ramdas Pophale) SiO2 
 PCOD9240631
Probable space group: P 21/C
;
_chemical_formula_sum "Si O2"
_cell_formula_units_Z 24
_cell_length_a 11.399324
_cell_length_b 21.520911
_cell_length_c 13.557303
_cell_angle_alpha 90.000000
_cell_angle_beta 158.211442
_cell_angle_gamma 90.000000
_cell_volume 1234.526559
_symmetry_space_group_name_H-M "P 21/C"
_symmetry_group_IT_number 14
_symmetry_cell_setting 'monoclinic'
loop_
_space_group_symop_operation_xyz
x,y,z
-x,1/2+y,1/2-z
-x,-y,-z
x,1/2-y,1/2+z
loop_
_atom_site_type_symbol
_atom_site_label
_atom_site_fract_x
_atom_site_fract_y
_atom_site_fract_z
Si Si1 0.662890 0.814846 0.984603
Si Si2 0.146174 0.646500 0.448296
Si Si3 0.353828 0.853500 0.551704
Si Si4 0.750001 0.956772 0.750000
Si Si5 0.162888 0.185153 0.484603
Si Si6 0.249996 0.252262 0.249998
O O1 0.598186 0.794333 0.046121
O O2 0.984230 0.855390 0.238987
O O3 0.416493 0.845222 0.717027
O O4 0.749999 0.749999 0.999999
O O5 0.515773 0.644609 0.761012
O O6 0.946940 0.588513 0.331867
O O7 0.003055 0.706737 0.394729
O O8 0.083507 0.654777 0.282972
O O9 0.553062 0.911487 0.668133
O O10 0.496951 0.793263 0.605274
O O11 0.500000 0.000000 0.500000
O O12 0.000000 0.000000 0.000000
O O13 0.098179 0.205667 0.546117
#
# Coordination Sequence:
#
# PCOD9240631 Si02
#       6
#     4   4   4   4   4   4
#     4  10  19  31  48  75 109 141 164 199 250 313
#     4  10  21  33  49  78 107 131 173 214 247 307
#     4  10  21  33  49  78 107 131 173 214 247 307
#     4  11  22  38  58  76  98 136 178 225 270 292
#     4  10  19  31  48  75 109 141 164 199 250 313
#     4   9  18  30  50  74 108 140 158 191 256 320
#
# _framework density 19.440650999999999
#
# number of rings (size 3 to 8) (size 9 to 14) (size 15 to 20)
#    0.000    2.000    0.000    6.000    0.000   17.333 
#    0.000    0.000    0.000    0.000    0.000   23.333 
#    0.000    0.000    0.000    0.000    0.000    0.000 
#
# Total GULP energy -134006.178345 kJ/mol
# GULP energy per Si atom -5583.590764 kJ/mol
# Density = 1.939640 g / cm^3
# Si number density = 19.440651 Si / 1000 Ang^3
#
#
#
# Elastic Constant Matrix: (Units=GPa)
#
#
# Indices 1 2 3 4 5 6 
#
# 1 138.5414 46.4256 37.8236 0.0000 -24.3156 0.0000
# 2 46.4256 87.7559 33.7258 0.0000 -4.3390 0.0000
# 3 37.8236 33.7258 111.2171 0.0000 -13.0666 0.0000
# 4 0.0000 0.0000 0.0000 33.2793 0.0000 -2.7746
# 5 -24.3156 -4.3390 -13.0666 0.0000 31.5470 0.0000
# 6 0.0000 0.0000 0.0000 -2.7746 0.0000 17.8718
#
#
#
# Elastic Compliance Matrix: (Units=1/GPa)
#
#
# Indices 1 2 3 4 5 6 
#
# 1 0.010311 -0.004616 -0.001312 0.000000 0.006769 0.000000
# 2 -0.004616 0.014966 -0.003305 0.000000 -0.002869 0.000000
# 3 -0.001312 -0.003305 0.010793 0.000000 0.003005 0.000000
# 4 0.000000 0.000000 0.000000 0.030443 0.000000 0.004726
# 5 0.006769 -0.002869 0.003005 0.000000 0.037766 0.000000
# 6 0.000000 0.000000 0.000000 0.004726 0.000000 0.056688
#
#
# Mechanical properties :
#
#
# Convention : Reuss Voigt Hill
#
# Bulk Modulus (GPa) = 56.80679 63.71827 60.26253
# Shear Modulus (GPa) = 26.98317 31.17559 29.07938
#
# Velocity S-wave (km/s) = 3.72960 4.00888 3.87176
# Velocity P-wave (km/s) = 6.91597 7.36716 7.14513
#
# Compressibility (1/GPa) = 0.01760353
#
# Stress axis : x y z
#
# Youngs Moduli (GPa) = 96.98271 66.81896 92.65406
#
# Poissons Ratio (x) = 0.30845 0.12152
# Poissons Ratio (y) = 0.44769 0.30626
# Poissons Ratio (z) = 0.12720 0.22086
#
# Static dielectric constant tensor:
#      x y z
#    x 1.730300 0.000000 0.031610 
#    y 0.000000 1.652060 0.000000 
#    z 0.031610 0.000000 1.737150 
# 
# From -- ./inp_files/2797.got.cif
#   From: 2010.05.17/outbox.cif.g08.bks.cpg/sg14_2_cif.got.tgz:2797.got - 2010.06.03 17:49:19.
