data_PCOD9240817
_publ_section_title
;
Structure prediction by ZEFSAII (Michael W. Deem and Ramdas Pophale) SiO2 
 PCOD9240817
Probable space group: P 21/C
;
_chemical_formula_sum "Si O2"
_cell_formula_units_Z 32
_cell_length_a 15.730877
_cell_length_b 23.770929
_cell_length_c 5.288882
_cell_angle_alpha 90.000000
_cell_angle_beta 115.865339
_cell_angle_gamma 90.000000
_cell_volume 1779.588153
_symmetry_space_group_name_H-M "P 21/C"
_symmetry_group_IT_number 14
_symmetry_cell_setting 'monoclinic'
loop_
_space_group_symop_operation_xyz
x,y,z
-x,1/2+y,1/2-z
-x,-y,-z
x,1/2-y,1/2+z
loop_
_atom_site_type_symbol
_atom_site_label
_atom_site_fract_x
_atom_site_fract_y
_atom_site_fract_z
Si Si1 0.959949 0.278020 0.685149
Si Si2 0.492431 0.714806 0.564893
Si Si3 0.619689 0.437958 0.173268
Si Si4 0.149662 0.289218 0.085394
Si Si5 0.753279 0.233644 0.418386
Si Si6 0.331825 0.364175 0.290888
Si Si7 0.394784 0.428414 0.879152
Si Si8 0.325770 0.875635 0.763481
O O1 0.977399 0.273450 0.408703
O O2 0.845812 0.274388 0.556436
O O3 0.043479 0.315702 0.908606
O O4 0.486708 0.737079 0.843634
O O5 0.593898 0.685898 0.656685
O O6 0.414827 0.666720 0.406502
O O7 0.624219 0.505303 0.177845
O O8 0.674476 0.411746 0.482578
O O9 0.508556 0.421775 0.050771
O O10 0.658956 0.413019 0.963170
O O11 0.159011 0.254512 0.360440
O O12 0.229034 0.336377 0.172703
O O13 0.700869 0.258903 0.111851
O O14 0.762318 0.167322 0.385657
O O15 0.358977 0.395521 0.585771
O O16 0.346430 0.405078 0.070089
#
# Coordination Sequence:
#
# PCOD9240817 Si02
#       8
#     4   4   4   4   4   4   4   4
#     4   8  16  30  50  72 104 134 164 202 250 302
#     4  12  22  32  45  70 105 142 172 202 250 306
#     4  11  22  38  54  71  98 139 191 238 266 297
#     4  10  19  33  51  77 110 139 167 212 253 321
#     4  10  19  33  51  77 110 139 167 212 253 321
#     4  12  21  35  52  75 103 142 182 218 262 317
#     4  11  22  38  54  71  98 139 191 238 266 297
#     4  12  21  35  52  75 103 142 182 218 262 317
#
# _framework density 17.981688999999999
#
# number of rings (size 3 to 8) (size 9 to 14) (size 15 to 20)
#    0.000    1.250    2.500    5.250    0.000    2.000 
#    0.000    0.000    0.000    0.000    0.000    0.000 
#    0.000  180.000    0.000    0.000    0.000    0.000 
#
# Total GULP energy -178138.628055 kJ/mol
# GULP energy per Si atom -5566.832127 kJ/mol
# Density = 1.794076 g / cm^3
# Si number density = 17.981689 Si / 1000 Ang^3
#
#
#
# Elastic Constant Matrix: (Units=GPa)
#
#
# Indices 1 2 3 4 5 6 
#
# 1 71.0535 31.3887 44.5310 0.0000 -4.0053 0.0000
# 2 31.3887 61.6512 37.5889 0.0000 -7.1478 0.0000
# 3 44.5310 37.5889 93.9858 0.0000 -29.4332 0.0000
# 4 0.0000 0.0000 0.0000 24.4258 0.0000 -7.2956
# 5 -4.0053 -7.1478 -29.4332 0.0000 45.5882 0.0000
# 6 0.0000 0.0000 0.0000 -7.2956 0.0000 22.4016
#
#
#
# Elastic Compliance Matrix: (Units=1/GPa)
#
#
# Indices 1 2 3 4 5 6 
#
# 1 0.022757 -0.006089 -0.010053 0.000000 -0.005446 0.000000
# 2 -0.006089 0.023354 -0.006864 0.000000 -0.001305 0.000000
# 3 -0.010053 -0.006864 0.021978 0.000000 0.012230 0.000000
# 4 0.000000 0.000000 0.000000 0.045352 0.000000 0.014770
# 5 -0.005446 -0.001305 0.012230 0.000000 0.029149 0.000000
# 6 0.000000 0.000000 0.000000 0.014770 0.000000 0.049450
#
#
# Mechanical properties :
#
#
# Convention : Reuss Voigt Hill
#
# Bulk Modulus (GPa) = 45.29277 50.41197 47.85237
# Shear Modulus (GPa) = 20.37408 26.02858 23.20133
#
# Velocity S-wave (km/s) = 3.36973 3.80874 3.59594
# Velocity P-wave (km/s) = 6.35476 6.88752 6.62650
#
# Compressibility (1/GPa) = 0.02207858
#
# Stress axis : x y z
#
# Youngs Moduli (GPa) = 43.94280 42.81931 45.49932
#
# Poissons Ratio (x) = 0.26071 0.45739
# Poissons Ratio (y) = 0.26755 0.31231
# Poissons Ratio (z) = 0.44174 0.29392
#
# Static dielectric constant tensor:
#      x y z
#    x 1.713730 0.000000 0.023550 
#    y 0.000000 1.615040 0.000000 
#    z 0.023550 0.000000 1.686450 
# 
# From -- ./inp_files/4280.got.cif
#   From: 2010.05.17/outbox.cif.g08.bks.cpg/sg14_3_cif.got.tgz:4280.got - 2010.06.03 17:49:19.
