data_PCOD9240828
_publ_section_title
;
Structure prediction by ZEFSAII (Michael W. Deem and Ramdas Pophale) SiO2 
 PCOD9240828
Probable space group: P 21/C
;
_chemical_formula_sum "Si O2"
_cell_formula_units_Z 24
_cell_length_a 6.502189
_cell_length_b 25.680364
_cell_length_c 7.847076
_cell_angle_alpha 90.000000
_cell_angle_beta 141.739302
_cell_angle_gamma 90.000000
_cell_volume 811.386961
_symmetry_space_group_name_H-M "P 21/C"
_symmetry_group_IT_number 14
_symmetry_cell_setting 'monoclinic'
loop_
_space_group_symop_operation_xyz
x,y,z
-x,1/2+y,1/2-z
-x,-y,-z
x,1/2-y,1/2+z
loop_
_atom_site_type_symbol
_atom_site_label
_atom_site_fract_x
_atom_site_fract_y
_atom_site_fract_z
Si Si1 0.377939 0.354164 0.691686
Si Si2 0.214773 0.934326 0.688118
Si Si3 0.930802 0.983116 0.169234
Si Si4 0.395347 0.813146 0.093350
Si Si5 0.244594 0.247749 0.940453
Si Si6 0.674835 0.098599 0.718135
O O1 0.676319 0.374524 0.764969
O O2 0.313794 0.293018 0.643106
O O3 0.030480 0.376484 0.404899
O O4 0.441497 0.381395 0.914627
O O5 0.993431 0.951234 0.385860
O O6 0.050965 0.957539 0.751540
O O7 0.558137 0.966060 0.882936
O O8 0.217760 0.962148 0.228669
O O9 0.412285 0.873812 0.159674
O O10 0.457312 0.787182 0.320408
O O11 0.700165 0.793933 0.175066
O O12 0.075537 0.784257 0.801753
#
# Coordination Sequence:
#
# PCOD9240828 Si02
#       6
#     4   4   4   4   4   4
#     4  10  19  33  53  76 103 134 171 212 255 303
#     4   8  14  25  44  71  99 127 162 204 246 293
#     4   8  14  25  44  71  99 127 162 204 246 293
#     4  12  24  38  55  76 104 138 177 218 263 312
#     4  12  24  38  55  76 104 138 177 218 263 312
#     4  10  19  33  53  76 103 134 171 212 255 303
#
# _framework density 29.578982
#
# number of rings (size 3 to 8) (size 9 to 14) (size 15 to 20)
#    0.000    2.000    0.000    6.000    0.000    0.000 
#    0.000    0.000    0.000    1.000    0.000    0.000 
#    0.000   32.000    0.000    0.000    0.000    7.333 
#
# Total GULP energy -134221.756828 kJ/mol
# GULP energy per Si atom -5592.573201 kJ/mol
# Density = 2.951166 g / cm^3
# Si number density = 29.578982 Si / 1000 Ang^3
#
#
#
# Elastic Constant Matrix: (Units=GPa)
#
#
# Indices 1 2 3 4 5 6 
#
# 1 101.2208 37.5230 30.1875 0.0000 -12.5359 0.0000
# 2 37.5230 129.2193 49.4863 0.0000 4.7431 0.0000
# 3 30.1875 49.4863 173.4287 0.0000 7.9687 0.0000
# 4 0.0000 0.0000 0.0000 47.7677 0.0000 -5.1999
# 5 -12.5359 4.7431 7.9687 0.0000 29.0476 0.0000
# 6 0.0000 0.0000 0.0000 -5.1999 0.0000 62.1284
#
#
#
# Elastic Compliance Matrix: (Units=1/GPa)
#
#
# Indices 1 2 3 4 5 6 
#
# 1 0.012298 -0.003223 -0.001508 0.000000 0.006247 0.000000
# 2 -0.003223 0.009549 -0.002054 0.000000 -0.002387 0.000000
# 3 -0.001508 -0.002054 0.006714 0.000000 -0.002157 0.000000
# 4 0.000000 0.000000 0.000000 0.021127 0.000000 0.001768
# 5 0.006247 -0.002387 -0.002157 0.000000 0.038104 0.000000
# 6 0.000000 0.000000 0.000000 0.001768 0.000000 0.016244
#
#
# Mechanical properties :
#
#
# Convention : Reuss Voigt Hill
#
# Bulk Modulus (GPa) = 66.70902 70.91804 68.81353
# Shear Modulus (GPa) = 40.78265 46.90020 43.84143
#
# Velocity S-wave (km/s) = 3.71721 3.98627 3.85409
# Velocity P-wave (km/s) = 6.40510 6.72421 6.56659
#
# Compressibility (1/GPa) = 0.01499048
#
# Stress axis : x y z
#
# Youngs Moduli (GPa) = 81.31733 104.72465 148.94765
#
# Poissons Ratio (x) = 0.33750 0.22461
# Poissons Ratio (y) = 0.26207 0.30595
# Poissons Ratio (z) = 0.12263 0.21511
#
# Static dielectric constant tensor:
#      x y z
#    x 2.413580 0.000000 -0.165100 
#    y 0.000000 2.450650 0.000000 
#    z -0.165100 0.000000 2.256670 
# 
# From -- ./inp_files/11302.got.cif
#   From: 2010.05.17/outbox.cif.g08.bks.cpg/sg14_6_cif.got.tgz:11302.got - 2010.06.03 17:49:19.
