data_PCOD9240578
_publ_section_title
;
Structure prediction by ZEFSAII (Michael W. Deem and Ramdas Pophale) SiO2 
 PCOD9240578
Probable space group: P 21/C
;
_chemical_formula_sum "Si O2"
_cell_formula_units_Z 28
_cell_length_a 15.399664
_cell_length_b 5.203480
_cell_length_c 25.998408
_cell_angle_alpha 90.000000
_cell_angle_beta 135.337528
_cell_angle_gamma 90.000000
_cell_volume 1464.412216
_symmetry_space_group_name_H-M "P 21/C"
_symmetry_group_IT_number 14
_symmetry_cell_setting 'monoclinic'
loop_
_space_group_symop_operation_xyz
x,y,z
-x,1/2+y,1/2-z
-x,-y,-z
x,1/2-y,1/2+z
loop_
_atom_site_type_symbol
_atom_site_label
_atom_site_fract_x
_atom_site_fract_y
_atom_site_fract_z
Si Si1 0.088294 0.363770 0.413495
Si Si2 0.873110 0.418215 0.880046
Si Si3 0.919843 0.186573 0.001884
Si Si4 0.361512 0.509241 0.421601
Si Si5 0.209371 0.491308 0.890586
Si Si6 0.235541 0.922482 0.767643
Si Si7 0.913002 0.922083 0.761851
O O1 0.152759 0.536566 0.484155
O O2 0.160132 0.112465 0.424508
O O3 0.961060 0.287077 0.388244
O O4 0.042414 0.522756 0.344410
O O5 0.843618 0.344127 0.926609
O O6 0.761731 0.456737 0.793015
O O7 0.972687 0.645936 0.926553
O O8 0.000000 0.000000 0.000000
O O9 0.500000 0.500000 0.500000
O O10 0.298389 0.239411 0.409257
O O11 0.349485 0.542823 0.354630
O O12 0.284229 0.744338 0.415079
O O13 0.094098 0.473492 0.802034
O O14 0.182221 0.641093 0.758210
O O15 0.139815 0.145030 0.745128
#
# Coordination Sequence:
#
# PCOD9240578 Si02
#       7
#     4   4   4   4   4   4   4
#     4  10  19  29  47  71 110 139 171 201 248 315
#     4   9  17  29  46  70 107 136 174 204 252 307
#     4   9  17  29  45  68 105 143 168 202 245 301
#     4  10  21  38  53  72 103 134 181 234 270 307
#     4  10  22  32  52  75 102 142 177 207 268 316
#     4   9  17  31  50  70  97 135 172 211 252 308
#     4   9  18  30  43  70 103 138 164 198 243 312
#
# _framework density 19.120298999999999
#
# number of rings (size 3 to 8) (size 9 to 14) (size 15 to 20)
#    0.000    2.571    1.429    0.429    2.000    5.714 
#    0.000    0.000    0.000    0.000    0.000    0.000 
#   12.857    0.000    0.000    0.000    0.000    0.000 
#
# Total GULP energy -155891.765492 kJ/mol
# GULP energy per Si atom -5567.563053 kJ/mol
# Density = 1.907678 g / cm^3
# Si number density = 19.120299 Si / 1000 Ang^3
#
#
#
# Elastic Constant Matrix: (Units=GPa)
#
#
# Indices 1 2 3 4 5 6 
#
# 1 45.2532 21.8121 47.3832 0.0000 -17.7023 0.0000
# 2 21.8121 75.9234 26.3784 0.0000 -5.0190 0.0000
# 3 47.3832 26.3784 142.0775 0.0000 -22.2047 0.0000
# 4 0.0000 0.0000 0.0000 21.1619 0.0000 -8.6081
# 5 -17.7023 -5.0190 -22.2047 0.0000 25.3487 0.0000
# 6 0.0000 0.0000 0.0000 -8.6081 0.0000 26.6926
#
#
#
# Elastic Compliance Matrix: (Units=1/GPa)
#
#
# Indices 1 2 3 4 5 6 
#
# 1 0.044701 -0.007930 -0.010199 0.000000 0.020714 0.000000
# 2 -0.007930 0.015493 -0.000716 0.000000 -0.003097 0.000000
# 3 -0.010199 -0.000716 0.010934 0.000000 0.002314 0.000000
# 4 0.000000 0.000000 0.000000 0.054390 0.000000 0.017540
# 5 0.020714 -0.003097 0.002314 0.000000 0.055329 0.000000
# 6 0.000000 0.000000 0.000000 0.017540 0.000000 0.043120
#
#
# Mechanical properties :
#
#
# Convention : Reuss Voigt Hill
#
# Bulk Modulus (GPa) = 29.90384 50.48907 40.19646
# Shear Modulus (GPa) = 18.32824 25.81934 22.07379
#
# Velocity S-wave (km/s) = 3.09944 3.67871 3.40143
# Velocity P-wave (km/s) = 5.33690 6.67138 6.04110
#
# Compressibility (1/GPa) = 0.03344052
#
# Stress axis : x y z
#
# Youngs Moduli (GPa) = 22.37065 64.54396 91.45568
#
# Poissons Ratio (x) = 0.51181 0.93271
# Poissons Ratio (y) = 0.17739 0.06548
# Poissons Ratio (z) = 0.22815 0.04621
#
# Static dielectric constant tensor:
#      x y z
#    x 1.713640 0.000000 -0.095640 
#    y 0.000000 1.841770 0.000000 
#    z -0.095640 0.000000 1.739330 
# 
# From -- ./inp_files/77429.got.cif
#   From: 2010.05.17/outbox.cif.g08.bks.cpg/sg14_39_cif.got.tgz:77429.got - 2010.06.03 17:49:19.
