data_PCOD9240006
_publ_section_title
;
Structure prediction by ZEFSAII (Michael W. Deem and Ramdas Pophale) SiO2 
 PCOD9240006
Probable space group: P 21/C
;
_chemical_formula_sum "Si O2"
_cell_formula_units_Z 28
_cell_length_a 18.888993
_cell_length_b 9.268073
_cell_length_c 16.402380
_cell_angle_alpha 90.000000
_cell_angle_beta 155.859184
_cell_angle_gamma 90.000000
_cell_volume 1174.377890
_symmetry_space_group_name_H-M "P 21/C"
_symmetry_group_IT_number 14
_symmetry_cell_setting 'monoclinic'
loop_
_space_group_symop_operation_xyz
x,y,z
-x,1/2+y,1/2-z
-x,-y,-z
x,1/2-y,1/2+z
loop_
_atom_site_type_symbol
_atom_site_label
_atom_site_fract_x
_atom_site_fract_y
_atom_site_fract_z
Si Si1 0.123692 0.788345 0.087900
Si Si2 0.595308 0.151217 0.731707
Si Si3 0.189451 0.590998 0.910721
Si Si4 0.240401 0.078710 0.295646
Si Si5 0.801515 0.918356 0.046356
Si Si6 0.262112 0.633991 0.388260
Si Si7 0.393834 0.148562 0.684702
O O1 0.240898 0.759487 0.131233
O O2 0.171436 0.676021 0.209237
O O3 0.192744 0.950957 0.182644
O O4 0.916280 0.805909 0.867011
O O5 0.437947 0.134631 0.501302
O O6 0.494663 0.196912 0.708171
O O7 0.680201 0.003032 0.854711
O O8 0.224591 0.505054 0.864141
O O9 0.192662 0.755946 0.885099
O O10 0.001336 0.551406 0.743808
O O11 0.333120 0.515851 0.117643
O O12 0.755950 0.977884 0.088713
O O13 0.768624 0.752839 0.989497
O O14 0.466834 0.668536 0.597952
#
# Coordination Sequence:
#
# PCOD9240006 Si02
#       7
#     4   4   4   4   4   4   4
#     4  10  18  34  53  83 112 145 184 236 281 323
#     4  10  20  35  57  78 113 153 182 228 288 331
#     4  10  19  36  57  85 110 148 187 232 286 333
#     4   9  18  31  54  83 111 138 187 232 277 332
#     4  11  20  36  57  84 113 150 188 234 279 335
#     4  10  21  36  56  85 115 141 192 239 271 334
#     4  10  21  36  57  82 115 148 188 227 285 344
#
# _framework density 23.842413000000001
#
# number of rings (size 3 to 8) (size 9 to 14) (size 15 to 20)
#    0.000    2.000    1.429    4.714    0.000    0.000 
#    2.571    0.714    0.000    3.429    0.000    0.000 
#    0.000    0.000    0.000    0.000    0.000    0.000 
#
# Total GULP energy -156217.814159 kJ/mol
# GULP energy per Si atom -5579.207649 kJ/mol
# Density = 2.378815 g / cm^3
# Si number density = 23.842413 Si / 1000 Ang^3
#
#
#
# Elastic Constant Matrix: (Units=GPa)
#
#
# Indices 1 2 3 4 5 6 
#
# 1 42.3323 4.3456 11.9855 0.0000 13.1911 0.0000
# 2 4.3456 61.8221 17.4229 0.0000 1.3185 0.0000
# 3 11.9855 17.4229 113.3376 0.0000 19.3608 0.0000
# 4 0.0000 0.0000 0.0000 33.0986 0.0000 0.1721
# 5 13.1911 1.3185 19.3608 0.0000 32.3370 0.0000
# 6 0.0000 0.0000 0.0000 0.1721 0.0000 21.7970
#
#
#
# Elastic Compliance Matrix: (Units=1/GPa)
#
#
# Indices 1 2 3 4 5 6 
#
# 1 0.027307 -0.001452 -0.000860 0.000000 -0.010565 0.000000
# 2 -0.001452 0.017012 -0.002723 0.000000 0.001529 0.000000
# 3 -0.000860 -0.002723 0.010308 0.000000 -0.005710 0.000000
# 4 0.000000 0.000000 0.000000 0.030214 0.000000 -0.000239
# 5 -0.010565 0.001529 -0.005710 0.000000 0.038591 0.000000
# 6 0.000000 0.000000 0.000000 -0.000239 0.000000 0.045880
#
#
# Mechanical properties :
#
#
# Convention : Reuss Voigt Hill
#
# Bulk Modulus (GPa) = 22.44226 31.66667 27.05446
# Shear Modulus (GPa) = 25.74218 29.69574 27.71896
#
# Velocity S-wave (km/s) = 3.28941 3.53299 3.41338
# Velocity P-wave (km/s) = 4.88469 5.47295 5.18717
#
# Compressibility (1/GPa) = 0.04455880
#
# Stress axis : x y z
#
# Youngs Moduli (GPa) = 36.62016 58.78117 97.01132
#
# Poissons Ratio (x) = 0.08534 0.08340
# Poissons Ratio (y) = 0.05317 0.26415
# Poissons Ratio (z) = 0.03148 0.16005
#
# Static dielectric constant tensor:
#      x y z
#    x 1.958100 0.000000 -0.053970 
#    y 0.000000 1.941710 0.000000 
#    z -0.053970 0.000000 1.943340 
# 
# From -- ./inp_files/70231.got.cif
#   From: 2010.05.17/outbox.cif.g08.bks.cpg/sg14_36_cif.got.tgz:70231.got - 2010.06.03 17:49:19.
