data_PCOD9240927
_publ_section_title
;
Structure prediction by ZEFSAII (Michael W. Deem and Ramdas Pophale) SiO2 
 PCOD9240927
Probable space group: P 21/C
;
_chemical_formula_sum "Si O2"
_cell_formula_units_Z 20
_cell_length_a 9.921101
_cell_length_b 5.318642
_cell_length_c 18.297271
_cell_angle_alpha 90.000000
_cell_angle_beta 112.421020
_cell_angle_gamma 90.000000
_cell_volume 892.503207
_symmetry_space_group_name_H-M "P 21/C"
_symmetry_group_IT_number 14
_symmetry_cell_setting 'monoclinic'
loop_
_space_group_symop_operation_xyz
x,y,z
-x,1/2+y,1/2-z
-x,-y,-z
x,1/2-y,1/2+z
loop_
_atom_site_type_symbol
_atom_site_label
_atom_site_fract_x
_atom_site_fract_y
_atom_site_fract_z
Si Si1 0.572379 0.790610 0.738577
Si Si2 0.064319 0.116124 0.857357
Si Si3 0.435866 0.544151 0.067634
Si Si4 0.103894 0.382556 0.189538
Si Si5 0.346416 0.456901 0.511343
O O1 0.462607 0.558156 0.730895
O O2 0.556447 0.866708 0.649899
O O3 0.727743 0.672988 0.789084
O O4 0.089162 0.115259 0.775032
O O5 0.962213 0.355777 0.852197
O O6 0.216963 0.123248 0.931256
O O7 0.986825 0.853278 0.858958
O O8 0.373001 0.270313 0.072900
O O9 0.319745 0.769072 0.039902
O O10 0.500000 0.500000 0.000000
O O11 0.500000 0.500000 0.500000
#
# Coordination Sequence:
#
# PCOD9240927 Si02
#       5
#     4   4   4   4   4
#     4  12  25  42  65  93 130 168 207 259 318 381
#     4  10  20  35  61  92 123 159 207 270 311 361
#     4  10  21  37  62  91 120 157 210 262 302 357
#     4  10  21  37  58  89 126 164 207 254 321 375
#     4  10  19  33  58  91 122 150 199 259 312 356
#
# _framework density 22.408881999999998
#
# number of rings (size 3 to 8) (size 9 to 14) (size 15 to 20)
#    0.000    1.600    0.000    6.000    0.000    9.600 
#    0.000    0.000    0.000   24.000    0.000    0.000 
#    0.000    0.000    0.000    0.000    0.000    0.000 
#
# Total GULP energy -111691.239808 kJ/mol
# GULP energy per Si atom -5584.561990 kJ/mol
# Density = 2.235788 g / cm^3
# Si number density = 22.408882 Si / 1000 Ang^3
#
#
#
# Elastic Constant Matrix: (Units=GPa)
#
#
# Indices 1 2 3 4 5 6 
#
# 1 35.6667 4.6154 34.5497 0.0000 9.2617 0.0000
# 2 4.6154 162.2077 20.7137 0.0000 -4.0354 0.0000
# 3 34.5497 20.7137 91.0723 0.0000 17.3010 0.0000
# 4 0.0000 0.0000 0.0000 37.9384 0.0000 11.3615
# 5 9.2617 -4.0354 17.3010 0.0000 34.7850 0.0000
# 6 0.0000 0.0000 0.0000 11.3615 0.0000 21.7999
#
#
#
# Elastic Compliance Matrix: (Units=1/GPa)
#
#
# Indices 1 2 3 4 5 6 
#
# 1 0.044870 0.000739 -0.016496 0.000000 -0.003657 0.000000
# 2 0.000739 0.006444 -0.002044 0.000000 0.001567 0.000000
# 3 -0.016496 -0.002044 0.018678 0.000000 -0.005135 0.000000
# 4 0.000000 0.000000 0.000000 0.031233 0.000000 -0.016278
# 5 -0.003657 0.001567 -0.005135 0.000000 0.032458 0.000000
# 6 0.000000 0.000000 0.000000 -0.016278 0.000000 0.054355
#
#
# Mechanical properties :
#
#
# Convention : Reuss Voigt Hill
#
# Bulk Modulus (GPa) = 29.07668 45.41156 37.24412
# Shear Modulus (GPa) = 21.26722 34.17586 27.72154
#
# Velocity S-wave (km/s) = 3.08401 3.90949 3.52103
# Velocity P-wave (km/s) = 5.06806 6.37870 5.76077
#
# Compressibility (1/GPa) = 0.03439182
#
# Stress axis : x y z
#
# Youngs Moduli (GPa) = 22.28645 155.18626 53.53762
#
# Poissons Ratio (x) = -0.11465 0.88313
# Poissons Ratio (y) = -0.01646 0.10941
# Poissons Ratio (z) = 0.36763 0.31714
#
# Static dielectric constant tensor:
#      x y z
#    x 1.930980 0.000000 -0.077500 
#    y 0.000000 1.075610 0.000000 
#    z -0.077500 0.000000 1.843760 
# 
# From -- ./inp_files/64225.got.cif
#   From: 2010.05.17/outbox.cif.g08.bks.cpg/sg14_33_cif.got.tgz:64225.got - 2010.06.03 17:49:19.
