data_PCOD9240083
_publ_section_title
;
Structure prediction by ZEFSAII (Michael W. Deem and Ramdas Pophale) SiO2 
 PCOD9240083
Probable space group: P 21/C
;
_chemical_formula_sum "Si O2"
_cell_formula_units_Z 32
_cell_length_a 10.218623
_cell_length_b 7.762220
_cell_length_c 17.647861
_cell_angle_alpha 90.000000
_cell_angle_beta 70.652445
_cell_angle_gamma 90.000000
_cell_volume 1320.761529
_symmetry_space_group_name_H-M "P 21/C"
_symmetry_group_IT_number 14
_symmetry_cell_setting 'monoclinic'
loop_
_space_group_symop_operation_xyz
x,y,z
-x,1/2+y,1/2-z
-x,-y,-z
x,1/2-y,1/2+z
loop_
_atom_site_type_symbol
_atom_site_label
_atom_site_fract_x
_atom_site_fract_y
_atom_site_fract_z
Si Si1 0.478234 0.660289 0.558524
Si Si2 0.218928 0.832308 0.214969
Si Si3 0.980449 0.431420 0.807824
Si Si4 0.644362 0.444148 0.635552
Si Si5 0.111526 0.398584 0.029850
Si Si6 0.605151 0.527140 0.203863
Si Si7 0.846531 0.700918 0.618613
Si Si8 0.393447 0.893924 0.452067
O O1 0.500000 0.500000 0.500000
O O2 0.328609 0.655071 0.626004
O O3 0.589722 0.615059 0.600735
O O4 0.485308 0.828952 0.504878
O O5 0.139751 0.652737 0.218893
O O6 0.310103 0.869159 0.273124
O O7 0.106841 0.987103 0.236980
O O8 0.935683 0.584935 0.874279
O O9 0.029015 0.273271 0.853496
O O10 0.515944 0.414875 0.717011
O O11 0.787760 0.510778 0.642628
O O12 0.660360 0.286846 0.575066
O O13 0.124096 0.226638 0.977028
O O14 0.257684 0.498239 0.998977
O O15 0.000000 0.500000 0.000000
O O16 0.725034 0.666683 0.168345
O O17 0.539537 0.481224 0.135101
#
# Coordination Sequence:
#
# PCOD9240083 Si02
#       8
#     4   4   4   4   4   4   4   4
#     4   9  19  36  59  82 113 149 188 236 283 338
#     4  10  20  37  58  83 113 150 192 233 288 338
#     4  10  20  37  57  79 114 151 186 237 285 348
#     4  10  19  33  56  87 113 143 196 241 276 338
#     4   9  18  36  56  75 107 152 185 224 289 345
#     4   9  19  34  57  79 115 156 186 229 293 343
#     4   9  19  35  55  82 113 147 188 237 289 338
#     4  10  18  34  60  80 108 154 190 228 286 341
#
# _framework density 24.228445000000001
#
# number of rings (size 3 to 8) (size 9 to 14) (size 15 to 20)
#    0.000    2.500    1.250    1.500    0.000    2.000 
#    4.500    5.000    2.750    0.000    0.000    0.000 
#    0.000    0.000    0.000    0.000    0.000    0.000 
#
# Total GULP energy -178671.201230 kJ/mol
# GULP energy per Si atom -5583.475038 kJ/mol
# Density = 2.417330 g / cm^3
# Si number density = 24.228445 Si / 1000 Ang^3
#
#
#
# Elastic Constant Matrix: (Units=GPa)
#
#
# Indices 1 2 3 4 5 6 
#
# 1 85.8422 12.1385 37.8566 0.0000 6.0060 0.0000
# 2 12.1385 25.0723 1.4762 0.0000 6.1482 0.0000
# 3 37.8566 1.4762 67.0085 0.0000 10.6855 0.0000
# 4 0.0000 0.0000 0.0000 13.1226 0.0000 13.3713
# 5 6.0060 6.1482 10.6855 0.0000 33.2321 0.0000
# 6 0.0000 0.0000 0.0000 13.3713 0.0000 38.8879
#
#
#
# Elastic Compliance Matrix: (Units=1/GPa)
#
#
# Indices 1 2 3 4 5 6 
#
# 1 0.016918 -0.007996 -0.009623 0.000000 0.001516 0.000000
# 2 -0.007996 0.045566 0.004877 0.000000 -0.008553 0.000000
# 3 -0.009623 0.004877 0.021207 0.000000 -0.005982 0.000000
# 4 0.000000 0.000000 0.000000 0.117302 0.000000 -0.040333
# 5 0.001516 -0.008553 -0.005982 0.000000 0.033323 0.000000
# 6 0.000000 0.000000 0.000000 -0.040333 0.000000 0.039583
#
#
# Mechanical properties :
#
#
# Convention : Reuss Voigt Hill
#
# Bulk Modulus (GPa) = 17.18007 31.20728 24.19368
# Shear Modulus (GPa) = 15.68456 25.47865 20.58161
#
# Velocity S-wave (km/s) = 2.54709 3.24636 2.91775
# Velocity P-wave (km/s) = 3.96944 5.19232 4.62151
#
# Compressibility (1/GPa) = 0.05820697
#
# Stress axis : x y z
#
# Youngs Moduli (GPa) = 59.10948 21.94619 47.15496
#
# Poissons Ratio (x) = 0.17548 0.45379
# Poissons Ratio (y) = 0.47263 -0.22999
# Poissons Ratio (z) = 0.56883 -0.10704
#
# Static dielectric constant tensor:
#      x y z
#    x 2.000310 0.000000 0.077470 
#    y 0.000000 1.985940 0.000000 
#    z 0.077470 0.000000 1.942080 
# 
# From -- ./inp_files/66842.got.cif
#   From: 2010.05.17/outbox.cif.g08.bks.cpg/sg14_34_cif.got.tgz:66842.got - 2010.06.03 17:49:19.
