data_PCOD9240366
_publ_section_title
;
Structure prediction by ZEFSAII (Michael W. Deem and Ramdas Pophale) SiO2 
 PCOD9240366
Probable space group: P 21/C
;
_chemical_formula_sum "Si O2"
_cell_formula_units_Z 20
_cell_length_a 10.137257
_cell_length_b 17.427845
_cell_length_c 8.730854
_cell_angle_alpha 90.000000
_cell_angle_beta 134.907826
_cell_angle_gamma 90.000000
_cell_volume 1092.454650
_symmetry_space_group_name_H-M "P 21/C"
_symmetry_group_IT_number 14
_symmetry_cell_setting 'monoclinic'
loop_
_space_group_symop_operation_xyz
x,y,z
-x,1/2+y,1/2-z
-x,-y,-z
x,1/2-y,1/2+z
loop_
_atom_site_type_symbol
_atom_site_label
_atom_site_fract_x
_atom_site_fract_y
_atom_site_fract_z
Si Si1 0.208008 0.356995 0.966900
Si Si2 0.415279 0.931538 0.329668
Si Si3 0.052432 0.240194 0.599117
Si Si4 0.111512 0.646563 0.789644
Si Si5 0.066010 0.510994 0.379079
O O1 0.171750 0.287693 0.818726
O O2 0.058467 0.423898 0.803310
O O3 0.413922 0.387617 0.106938
O O4 0.166999 0.323352 0.100241
O O5 0.297835 0.882921 0.359030
O O6 0.500000 0.000000 0.500000
O O7 0.276782 0.961851 0.082123
O O8 0.885730 0.199493 0.557367
O O9 0.982341 0.301879 0.418819
O O10 0.983811 0.572613 0.727685
O O11 0.000000 0.500000 0.500000
#
# Coordination Sequence:
#
# PCOD9240366 Si02
#       5
#     4   4   4   4   4
#     4  11  21  39  60  85 115 151 192 234 284 340
#     4  11  19  35  65  84 108 155 198 227 278 342
#     4  10  22  38  58  86 121 150 180 244 297 329
#     4  10  20  38  61  84 116 152 191 234 288 340
#     4  10  18  37  60  82 112 153 192 226 281 340
#
# _framework density 18.307397000000002
#
# number of rings (size 3 to 8) (size 9 to 14) (size 15 to 20)
#    0.000    1.600    8.000    0.000    0.000    2.400 
#    0.000    1.000    0.000    0.000    0.000    0.000 
#    0.000    0.000    0.000    0.000    0.000    0.000 
#
# Total GULP energy -111399.180289 kJ/mol
# GULP energy per Si atom -5569.959014 kJ/mol
# Density = 1.826573 g / cm^3
# Si number density = 18.307397 Si / 1000 Ang^3
#
#
#
# Elastic Constant Matrix: (Units=GPa)
#
#
# Indices 1 2 3 4 5 6 
#
# 1 87.5606 43.0647 35.7086 0.0000 13.5384 0.0000
# 2 43.0647 102.8554 40.0648 0.0000 7.4591 0.0000
# 3 35.7086 40.0648 60.5590 0.0000 18.2477 0.0000
# 4 0.0000 0.0000 0.0000 2.4954 0.0000 16.9181
# 5 13.5384 7.4591 18.2477 0.0000 32.8228 0.0000
# 6 0.0000 0.0000 0.0000 16.9181 0.0000 38.6842
#
#
#
# Elastic Compliance Matrix: (Units=1/GPa)
#
#
# Indices 1 2 3 4 5 6 
#
# 1 0.016400 -0.004321 -0.006089 0.000000 -0.002397 0.000000
# 2 -0.004321 0.014371 -0.007823 0.000000 0.002866 0.000000
# 3 -0.006089 -0.007823 0.028813 0.000000 -0.011729 0.000000
# 4 0.000000 0.000000 0.000000 -0.203937 0.000000 0.089189
# 5 -0.002397 0.002866 -0.011729 0.000000 0.037325 0.000000
# 6 0.000000 0.000000 0.000000 0.089189 0.000000 -0.013155
#
#
# Mechanical properties :
#
#
# Convention : Reuss Voigt Hill
#
# Bulk Modulus (GPa) = 43.25738 54.29455 48.77597
# Shear Modulus (GPa) = -65.78017 23.60960 -21.08528
#
# Velocity S-wave (km/s) = -6.00074 3.59503 -3.39740
# Velocity P-wave (km/s) = 4.93277 6.85229 3.36315
#
# Compressibility (1/GPa) = 0.02311744
#
# Stress axis : x y z
#
# Youngs Moduli (GPa) = 60.97714 69.58457 34.70598
#
# Poissons Ratio (x) = 0.30065 0.21133
# Poissons Ratio (y) = 0.26346 0.27152
# Poissons Ratio (z) = 0.37131 0.54439
#
# Static dielectric constant tensor:
#      x y z
#    x 1.663370 0.000000 0.032400 
#    y 0.000000 1.689800 0.000000 
#    z 0.032400 0.000000 1.636840 
# 
# From -- ./inp_files/5429.got.cif
#   From: 2010.05.17/outbox.cif.g08.bks.cpg/sg14_3_cif.got.tgz:5429.got - 2010.06.03 17:49:19.
