data_PCOD9240864
_publ_section_title
;
Structure prediction by ZEFSAII (Michael W. Deem and Ramdas Pophale) SiO2 
 PCOD9240864
Probable space group: P 21/C
;
_chemical_formula_sum "Si O2"
_cell_formula_units_Z 32
_cell_length_a 12.644877
_cell_length_b 7.487870
_cell_length_c 20.704590
_cell_angle_alpha 90.000000
_cell_angle_beta 129.860271
_cell_angle_gamma 90.000000
_cell_volume 1504.804295
_symmetry_space_group_name_H-M "P 21/C"
_symmetry_group_IT_number 14
_symmetry_cell_setting 'monoclinic'
loop_
_space_group_symop_operation_xyz
x,y,z
-x,1/2+y,1/2-z
-x,-y,-z
x,1/2-y,1/2+z
loop_
_atom_site_type_symbol
_atom_site_label
_atom_site_fract_x
_atom_site_fract_y
_atom_site_fract_z
Si Si1 0.591880 0.253225 0.998204
Si Si2 0.197024 0.651250 0.819904
Si Si3 0.700366 0.649303 0.565993
Si Si4 0.279369 0.249233 0.206832
Si Si5 0.587163 0.184010 0.856974
Si Si6 0.908803 0.758379 0.751761
Si Si7 0.663940 0.725701 0.411029
Si Si8 0.645328 0.170217 0.740036
O O1 0.675156 0.369796 0.081615
O O2 0.652248 0.053816 0.034474
O O3 0.430589 0.240388 0.950449
O O4 0.613397 0.297657 0.931514
O O5 0.138210 0.460792 0.776886
O O6 0.254045 0.741096 0.776475
O O7 0.071132 0.743626 0.807005
O O8 0.830032 0.655487 0.663609
O O9 0.724719 0.742980 0.506299
O O10 0.422840 0.340050 0.283935
O O11 0.154302 0.299357 0.204363
O O12 0.256392 0.286022 0.122113
O O13 0.316264 0.037987 0.232517
O O14 0.644573 0.255502 0.811372
O O15 0.645531 0.987517 0.893130
O O16 0.510199 0.807703 0.346867
#
# Coordination Sequence:
#
# PCOD9240864 Si02
#       8
#     4   4   4   4   4   4   4   4
#     4  10  19  33  55  82 108 136 173 215 261 312
#     4  11  23  37  54  76 107 143 179 217 261 312
#     4  10  19  33  55  82 108 136 173 215 261 312
#     4   9  18  32  51  77 105 136 173 213 258 307
#     4   9  17  31  53  79 106 134 168 213 261 309
#     4  11  23  37  54  76 107 143 179 217 261 312
#     4   9  17  31  53  79 106 134 168 213 261 309
#     4   9  18  32  51  77 105 136 173 213 258 307
#
# _framework density 21.265222999999999
#
# number of rings (size 3 to 8) (size 9 to 14) (size 15 to 20)
#    0.000    2.250    2.500    0.750    0.000    2.500 
#    0.000    1.250    0.000    7.500    0.000    0.000 
#    0.000    0.000    0.000    0.000    0.000    0.000 
#
# Total GULP energy -178664.223337 kJ/mol
# GULP energy per Si atom -5583.256979 kJ/mol
# Density = 2.121682 g / cm^3
# Si number density = 21.265223 Si / 1000 Ang^3
#
#
#
# Elastic Constant Matrix: (Units=GPa)
#
#
# Indices 1 2 3 4 5 6 
#
# 1 138.6613 6.9688 39.2929 0.0000 -37.3729 0.0000
# 2 6.9688 29.0223 2.6690 0.0000 -4.7282 0.0000
# 3 39.2929 2.6690 45.8364 0.0000 -21.8454 0.0000
# 4 0.0000 0.0000 0.0000 21.5042 0.0000 5.2595
# 5 -37.3729 -4.7282 -21.8454 0.0000 38.0636 0.0000
# 6 0.0000 0.0000 0.0000 5.2595 0.0000 16.4819
#
#
#
# Elastic Compliance Matrix: (Units=1/GPa)
#
#
# Indices 1 2 3 4 5 6 
#
# 1 0.010845 -0.000896 -0.005813 0.000000 0.007201 0.000000
# 2 -0.000896 0.035242 0.000528 0.000000 0.003800 0.000000
# 3 -0.005813 0.000528 0.033147 0.000000 0.013382 0.000000
# 4 0.000000 0.000000 0.000000 0.050439 0.000000 -0.016096
# 5 0.007201 0.003800 0.013382 0.000000 0.041494 0.000000
# 6 0.000000 0.000000 0.000000 -0.016096 0.000000 0.065809
#
#
# Mechanical properties :
#
#
# Convention : Reuss Voigt Hill
#
# Bulk Modulus (GPa) = 14.95427 34.59794 24.77611
# Shear Modulus (GPa) = 18.40747 26.18255 22.29501
#
# Velocity S-wave (km/s) = 2.94532 3.51271 3.24145
# Velocity P-wave (km/s) = 4.31441 5.72339 5.06810
#
# Compressibility (1/GPa) = 0.06687052
#
# Stress axis : x y z
#
# Youngs Moduli (GPa) = 92.21024 28.37516 30.16904
#
# Poissons Ratio (x) = 0.02544 0.17536
# Poissons Ratio (y) = 0.08266 -0.01592
# Poissons Ratio (z) = 0.53598 -0.01497
#
# Static dielectric constant tensor:
#      x y z
#    x 1.785210 0.000000 -0.055510 
#    y 0.000000 1.856120 0.000000 
#    z -0.055510 0.000000 1.740330 
# 
# From -- ./inp_files/57258.got.cif
#   From: 2010.05.17/outbox.cif.g08.bks.cpg/sg14_29_cif.got.tgz:57258.got - 2010.06.03 17:49:19.
