data_PCOD9240290
_publ_section_title
;
Structure prediction by ZEFSAII (Michael W. Deem and Ramdas Pophale) SiO2 
 PCOD9240290
Probable space group: P 21/C
;
_chemical_formula_sum "Si O2"
_cell_formula_units_Z 20
_cell_length_a 9.404081
_cell_length_b 7.487858
_cell_length_c 27.569717
_cell_angle_alpha 90.000000
_cell_angle_beta 153.637423
_cell_angle_gamma 90.000000
_cell_volume 862.061379
_symmetry_space_group_name_H-M "P 21/C"
_symmetry_group_IT_number 14
_symmetry_cell_setting 'monoclinic'
loop_
_space_group_symop_operation_xyz
x,y,z
-x,1/2+y,1/2-z
-x,-y,-z
x,1/2-y,1/2+z
loop_
_atom_site_type_symbol
_atom_site_label
_atom_site_fract_x
_atom_site_fract_y
_atom_site_fract_z
Si Si1 0.716688 0.146220 0.509217
Si Si2 0.349201 0.914960 0.814269
Si Si3 0.787356 0.332429 0.831263
Si Si4 0.879649 0.952574 0.902718
Si Si5 0.782778 0.353677 0.142682
O O1 0.692981 0.183604 0.559552
O O2 0.818091 0.326815 0.513840
O O3 0.404707 0.034577 0.399130
O O4 0.006259 0.003690 0.590444
O O5 0.172273 0.814861 0.714771
O O6 0.703508 0.933403 0.900757
O O7 0.320984 0.802767 0.853840
O O8 0.156819 0.099221 0.759552
O O9 0.408655 0.372573 0.720637
O O10 0.898533 0.156596 0.892240
#
# Coordination Sequence:
#
# PCOD9240290 Si02
#       5
#     4   4   4   4   4
#     4  10  21  38  62  83 122 153 194 244 287 349
#     4   9  21  37  59  84 116 157 197 234 306 338
#     4   9  17  35  58  85 108 153 197 230 285 350
#     4  10  18  36  61  84 110 158 199 232 293 349
#     4  10  21  40  56  89 119 151 193 246 294 346
#
# _framework density 23.200205
#
# number of rings (size 3 to 8) (size 9 to 14) (size 15 to 20)
#    1.200    1.200    2.000    0.000    2.800    0.800 
#    7.200    4.000    0.000    0.000    0.000    0.000 
#    0.000    0.000    0.000    0.000    0.000    0.000 
#
# Total GULP energy -111753.018650 kJ/mol
# GULP energy per Si atom -5587.650932 kJ/mol
# Density = 2.314740 g / cm^3
# Si number density = 23.200205 Si / 1000 Ang^3
#
#
#
# Elastic Constant Matrix: (Units=GPa)
#
#
# Indices 1 2 3 4 5 6 
#
# 1 105.4319 57.1528 3.2407 0.0000 -9.3518 0.0000
# 2 57.1528 98.3960 -5.4485 0.0000 -18.2838 0.0000
# 3 3.2407 -5.4485 72.1601 0.0000 13.3113 0.0000
# 4 0.0000 0.0000 0.0000 27.5779 0.0000 6.5610
# 5 -9.3518 -18.2838 13.3113 0.0000 37.3766 0.0000
# 6 0.0000 0.0000 0.0000 6.5610 0.0000 53.1699
#
#
#
# Elastic Compliance Matrix: (Units=1/GPa)
#
#
# Indices 1 2 3 4 5 6 
#
# 1 0.013954 -0.008187 -0.001231 0.000000 -0.000075 0.000000
# 2 -0.008187 0.015985 0.000546 0.000000 0.005577 0.000000
# 3 -0.001231 0.000546 0.014944 0.000000 -0.005363 0.000000
# 4 0.000000 0.000000 0.000000 0.037358 0.000000 -0.004610
# 5 -0.000075 0.005577 -0.005363 0.000000 0.031374 0.000000
# 6 0.000000 0.000000 0.000000 -0.004610 0.000000 0.019376
#
#
# Mechanical properties :
#
#
# Convention : Reuss Voigt Hill
#
# Bulk Modulus (GPa) = 36.84824 42.87533 39.86179
# Shear Modulus (GPa) = 31.29266 38.36109 34.82688
#
# Velocity S-wave (km/s) = 3.67660 4.07071 3.87866
# Velocity P-wave (km/s) = 5.82584 6.37299 6.10554
#
# Compressibility (1/GPa) = 0.02713834
#
# Stress axis : x y z
#
# Youngs Moduli (GPa) = 71.66311 62.55843 66.91699
#
# Poissons Ratio (x) = 0.51219 0.08237
# Poissons Ratio (y) = 0.58673 -0.03653
# Poissons Ratio (z) = 0.08822 -0.03415
#
# Static dielectric constant tensor:
#      x y z
#    x 1.847210 0.000000 -0.000560 
#    y 0.000000 1.803820 0.000000 
#    z -0.000560 0.000000 1.981320 
# 
# From -- ./inp_files/79381.got.cif
#   From: 2010.05.17/outbox.cif.g08.bks.cpg/sg14_40_cif.got.tgz:79381.got - 2010.06.03 17:49:19.
