data_PCOD9240614
_publ_section_title
;
Structure prediction by ZEFSAII (Michael W. Deem and Ramdas Pophale) SiO2 
 PCOD9240614
Probable space group: P 21/C
;
_chemical_formula_sum "Si O2"
_cell_formula_units_Z 32
_cell_length_a 7.573464
_cell_length_b 32.732666
_cell_length_c 10.310926
_cell_angle_alpha 90.000000
_cell_angle_beta 29.010252
_cell_angle_gamma 90.000000
_cell_volume 1239.609810
_symmetry_space_group_name_H-M "P 21/C"
_symmetry_group_IT_number 14
_symmetry_cell_setting 'monoclinic'
loop_
_space_group_symop_operation_xyz
x,y,z
-x,1/2+y,1/2-z
-x,-y,-z
x,1/2-y,1/2+z
loop_
_atom_site_type_symbol
_atom_site_label
_atom_site_fract_x
_atom_site_fract_y
_atom_site_fract_z
Si Si1 0.623169 0.564421 0.490692
Si Si2 0.412744 0.565568 0.204520
Si Si3 0.424402 0.189290 0.739896
Si Si4 0.844959 0.231569 0.919914
Si Si5 0.212516 0.648645 0.216259
Si Si6 0.952775 0.479695 0.333419
Si Si7 0.000279 0.107985 0.477498
Si Si8 0.208478 0.309423 0.956793
O O1 0.891473 0.527962 0.358555
O O2 0.330812 0.541523 0.584946
O O3 0.813738 0.598899 0.279971
O O4 0.374776 0.583734 0.762093
O O5 0.199166 0.602436 0.274112
O O6 0.165938 0.537606 0.452637
O O7 0.705551 0.587765 0.111988
O O8 0.658270 0.538018 0.954246
O O9 0.731702 0.224378 0.549128
O O10 0.607335 0.153027 0.540150
O O11 0.137317 0.210977 0.826038
O O12 0.166739 0.172680 0.019468
O O13 0.994693 0.225234 0.677342
O O14 0.473331 0.206354 0.174411
O O15 0.508647 0.670714 0.121060
O O16 0.967411 0.154161 0.552871
#
# Coordination Sequence:
#
# PCOD9240614 Si02
#       8
#     4   4   4   4   4   4   4   4
#     4   9  15  21  30  46  69  98 133 169 200 233
#     4   9  15  23  34  48  69  98 133 169 200 233
#     4  10  19  31  46  64  85 109 141 177 213 252
#     4  10  19  31  46  64  85 109 141 177 213 252
#     4   9  17  28  42  59  79 106 141 177 208 247
#     4   9  15  21  30  46  69  98 133 169 200 233
#     4   9  15  23  34  48  69  98 133 169 200 233
#     4   9  17  28  42  59  79 106 141 177 208 247
#
# _framework density 25.814575000000001
#
# number of rings (size 3 to 8) (size 9 to 14) (size 15 to 20)
#    0.000    2.750    0.000    3.000    0.000    9.000 
#    0.000    0.000    0.000    0.000    0.000    0.000 
#    0.000    0.000    0.000    0.000    0.000   87.500 
#
# Total GULP energy -179251.720152 kJ/mol
# GULP energy per Si atom -5601.616255 kJ/mol
# Density = 2.575582 g / cm^3
# Si number density = 25.814575 Si / 1000 Ang^3
#
#
#
# Elastic Constant Matrix: (Units=GPa)
#
#
# Indices 1 2 3 4 5 6 
#
# 1 77.5801 1.4517 26.7972 0.0000 -4.3299 0.0000
# 2 1.4517 147.2392 60.2408 0.0000 -8.0849 0.0000
# 3 26.7972 60.2408 182.6953 0.0000 1.7745 0.0000
# 4 0.0000 0.0000 0.0000 55.2877 0.0000 -9.1741
# 5 -4.3299 -8.0849 1.7745 0.0000 54.4240 0.0000
# 6 0.0000 0.0000 0.0000 -9.1741 0.0000 40.8205
#
#
#
# Elastic Compliance Matrix: (Units=1/GPa)
#
#
# Indices 1 2 3 4 5 6 
#
# 1 0.013748 0.000886 -0.002321 0.000000 0.001301 0.000000
# 2 0.000886 0.007994 -0.002779 0.000000 0.001349 0.000000
# 3 -0.002321 -0.002779 0.006738 0.000000 -0.000817 0.000000
# 4 0.000000 0.000000 0.000000 0.018788 0.000000 0.004222
# 5 0.001301 0.001349 -0.000817 0.000000 0.018705 0.000000
# 6 0.000000 0.000000 0.000000 0.004222 0.000000 0.025446
#
#
# Mechanical properties :
#
#
# Convention : Reuss Voigt Hill
#
# Bulk Modulus (GPa) = 49.87272 64.94376 57.40824
# Shear Modulus (GPa) = 46.93451 51.37477 49.15464
#
# Velocity S-wave (km/s) = 4.26859 4.46594 4.36838
# Velocity P-wave (km/s) = 6.60727 7.19759 6.90874
#
# Compressibility (1/GPa) = 0.02005104
#
# Stress axis : x y z
#
# Youngs Moduli (GPa) = 72.73954 125.09516 148.40619
#
# Poissons Ratio (x) = -0.11078 0.34446
# Poissons Ratio (y) = -0.06441 0.41240
# Poissons Ratio (z) = 0.16884 0.34762
#
# Static dielectric constant tensor:
#      x y z
#    x 2.113430 0.000000 -0.083050 
#    y 0.000000 2.016910 0.000000 
#    z -0.083050 0.000000 1.945380 
# 
# From -- ./inp_files/22264.got.cif
#   From: 2010.05.17/outbox.cif.g08.bks.cpg/sg14_12_cif.got.tgz:22264.got - 2010.06.03 17:49:19.
