data_PCOD9240609
_publ_section_title
;
Structure prediction by ZEFSAII (Michael W. Deem and Ramdas Pophale) SiO2 
 PCOD9240609
Probable space group: P 21/C
;
_chemical_formula_sum "Si O2"
_cell_formula_units_Z 32
_cell_length_a 13.979790
_cell_length_b 9.402582
_cell_length_c 15.195529
_cell_angle_alpha 90.000000
_cell_angle_beta 139.111539
_cell_angle_gamma 90.000000
_cell_volume 1307.470873
_symmetry_space_group_name_H-M "P 21/C"
_symmetry_group_IT_number 14
_symmetry_cell_setting 'monoclinic'
loop_
_space_group_symop_operation_xyz
x,y,z
-x,1/2+y,1/2-z
-x,-y,-z
x,1/2-y,1/2+z
loop_
_atom_site_type_symbol
_atom_site_label
_atom_site_fract_x
_atom_site_fract_y
_atom_site_fract_z
Si Si1 0.637743 0.716688 0.757973
Si Si2 0.118933 0.090441 0.835035
Si Si3 0.866526 0.998659 0.343832
Si Si4 0.597083 0.410304 0.998961
Si Si5 0.858341 0.585053 0.198249
Si Si6 0.672784 0.268341 0.222634
Si Si7 0.457510 0.035383 0.075457
Si Si8 0.828641 0.955325 0.878383
O O1 0.752531 0.628696 0.777605
O O2 0.513488 0.828094 0.640283
O O3 0.530565 0.576986 0.694402
O O4 0.757562 0.825953 0.886510
O O5 0.074307 0.017911 0.711916
O O6 0.108598 0.260137 0.817428
O O7 0.284344 0.039486 0.962921
O O8 0.997093 0.017805 0.809501
O O9 0.784148 0.141638 0.309488
O O10 0.000000 0.000000 0.500000
O O11 0.727345 0.508063 0.053169
O O12 0.673494 0.301055 0.118839
O O13 0.500000 0.500000 0.000000
O O14 0.801059 0.597838 0.258609
O O15 0.517979 0.194946 0.136129
O O16 0.729160 0.403170 0.315643
O O17 0.500000 0.000000 0.000000
O O18 0.000000 0.000000 0.000000
#
# Coordination Sequence:
#
# PCOD9240609 Si02
#       8
#     4   4   4   4   4   4   4   4
#     4  11  19  34  61  92 113 156 209 253 294 346
#     4  12  24  41  58  94 128 155 198 254 308 358
#     4  11  21  37  59  90 122 160 198 245 297 361
#     4  11  17  34  60  87 115 145 206 257 288 344
#     4  11  26  38  60  93 125 159 196 252 314 350
#     4  10  19  30  59  89 108 152 204 241 297 335
#     4  11  18  34  60  86 120 151 205 256 292 347
#     4  11  22  39  61  90 124 156 203 251 295 364
#
# _framework density 24.474733000000001
#
# number of rings (size 3 to 8) (size 9 to 14) (size 15 to 20)
#    0.000    1.000    7.500    1.500    5.250    0.000 
#    0.000    0.000    0.000    4.500    3.250    0.000 
#    0.000    0.000    0.000    0.000    0.000    0.000 
#
# Total GULP energy -178371.062558 kJ/mol
# GULP energy per Si atom -5574.095705 kJ/mol
# Density = 2.441903 g / cm^3
# Si number density = 24.474733 Si / 1000 Ang^3
#
#
#
# Elastic Constant Matrix: (Units=GPa)
#
#
# Indices 1 2 3 4 5 6 
#
# 1 57.6645 25.1721 22.2358 0.0000 16.8386 0.0000
# 2 25.1721 151.6149 24.4066 0.0000 28.2080 0.0000
# 3 22.2358 24.4066 117.5299 0.0000 33.2680 0.0000
# 4 0.0000 0.0000 0.0000 36.5500 0.0000 12.8150
# 5 16.8386 28.2080 33.2680 0.0000 35.7103 0.0000
# 6 0.0000 0.0000 0.0000 12.8150 0.0000 24.6669
#
#
#
# Elastic Compliance Matrix: (Units=1/GPa)
#
#
# Indices 1 2 3 4 5 6 
#
# 1 0.020784 -0.001931 -0.001615 0.000000 -0.006771 0.000000
# 2 -0.001931 0.007914 0.000317 0.000000 -0.005636 0.000000
# 3 -0.001615 0.000317 0.011685 0.000000 -0.010375 0.000000
# 4 0.000000 0.000000 0.000000 0.033453 0.000000 -0.017380
# 5 -0.006771 -0.005636 -0.010375 0.000000 0.045313 0.000000
# 6 0.000000 0.000000 0.000000 -0.017380 0.000000 0.049569
#
#
# Mechanical properties :
#
#
# Convention : Reuss Voigt Hill
#
# Bulk Modulus (GPa) = 29.47577 52.27091 40.87334
# Shear Modulus (GPa) = 26.81186 36.38510 31.59848
#
# Velocity S-wave (km/s) = 3.31341 3.85988 3.59704
# Velocity P-wave (km/s) = 5.16795 6.42404 5.82993
#
# Compressibility (1/GPa) = 0.03392617
#
# Stress axis : x y z
#
# Youngs Moduli (GPa) = 48.11283 126.36123 85.58144
#
# Poissons Ratio (x) = 0.24402 0.13819
# Poissons Ratio (y) = 0.09291 -0.02716
# Poissons Ratio (z) = 0.07769 -0.04010
#
# Static dielectric constant tensor:
#      x y z
#    x 2.014530 0.000000 -0.100290 
#    y 0.000000 2.005080 0.000000 
#    z -0.100290 0.000000 1.949760 
# 
# From -- ./inp_files/69184.got.cif
#   From: 2010.05.17/outbox.cif.g08.bks.cpg/sg14_35_cif.got.tgz:69184.got - 2010.06.03 17:49:19.
