data_PCOD9240548
_publ_section_title
;
Structure prediction by ZEFSAII (Michael W. Deem and Ramdas Pophale) SiO2 
 PCOD9240548
Probable space group: P 21/C
;
_chemical_formula_sum "Si O2"
_cell_formula_units_Z 28
_cell_length_a 6.895777
_cell_length_b 23.897472
_cell_length_c 9.050733
_cell_angle_alpha 90.000000
_cell_angle_beta 42.136810
_cell_angle_gamma 90.000000
_cell_volume 1000.642087
_symmetry_space_group_name_H-M "P 21/C"
_symmetry_group_IT_number 14
_symmetry_cell_setting 'monoclinic'
loop_
_space_group_symop_operation_xyz
x,y,z
-x,1/2+y,1/2-z
-x,-y,-z
x,1/2-y,1/2+z
loop_
_atom_site_type_symbol
_atom_site_label
_atom_site_fract_x
_atom_site_fract_y
_atom_site_fract_z
Si Si1 0.799424 0.380483 0.265076
Si Si2 0.166332 0.172634 0.098636
Si Si3 0.211240 0.576639 0.052782
Si Si4 0.402045 0.323604 0.914419
Si Si5 0.000000 0.500000 0.000000
Si Si6 0.406707 0.561322 0.341171
Si Si7 0.500000 0.000000 0.500000
Si Si8 0.710412 0.767962 0.246271
O O1 0.498865 0.348103 0.413635
O O2 0.838842 0.420693 0.097872
O O3 0.057645 0.336466 0.120432
O O4 0.780411 0.421010 0.413583
O O5 0.137145 0.223396 0.231532
O O6 0.982333 0.120437 0.258323
O O7 0.103351 0.193190 0.968320
O O8 0.534281 0.569575 0.920385
O O9 0.170112 0.508167 0.072857
O O10 0.483756 0.304942 0.033830
O O11 0.516807 0.377545 0.768034
O O12 0.454704 0.270840 0.777883
O O13 0.300805 0.469142 0.765725
O O14 0.308732 0.525800 0.257360
#
# Coordination Sequence:
#
# PCOD9240548 Si02
#       8
#     4   4   4   4   2   4   2   4
#     4  12  22  41  71  92 126 185 202 267 336 378
#     4  11  23  45  64  99 136 169 218 274 313 397
#     4  11  23  46  63 101 131 168 220 279 313 399
#     4  11  23  45  64  99 136 169 218 274 313 397
#     4  10  18  42  66  82 134 164 206 280 316 382
#     4  11  23  46  63 101 131 168 220 279 313 399
#     4  10  28  42  70  94 132 172 218 272 342 370
#     4  10  23  44  66  94 140 174 211 270 332 370
#
# _framework density 27.982032
#
# number of rings (size 3 to 8) (size 9 to 14) (size 15 to 20)
#    0.000    1.143    5.714    0.000    4.000    3.429 
#    0.000    1.429    0.000    0.000    0.000    0.000 
#    0.000    0.000    0.000    0.000    0.000    0.000 
#
# Total GULP energy -156166.435812 kJ/mol
# GULP energy per Si atom -5577.372708 kJ/mol
# Density = 2.791834 g / cm^3
# Si number density = 27.982032 Si / 1000 Ang^3
#
#
#
# Elastic Constant Matrix: (Units=GPa)
#
#
# Indices 1 2 3 4 5 6 
#
# 1 134.6321 33.3239 68.8413 0.0000 2.4427 0.0000
# 2 33.3239 139.2411 72.1933 0.0000 -1.8011 0.0000
# 3 68.8413 72.1933 155.4883 0.0000 33.6751 0.0000
# 4 0.0000 0.0000 0.0000 62.2657 0.0000 12.2207
# 5 2.4427 -1.8011 33.6751 0.0000 55.4932 0.0000
# 6 0.0000 0.0000 0.0000 12.2207 0.0000 44.6324
#
#
#
# Elastic Compliance Matrix: (Units=1/GPa)
#
#
# Indices 1 2 3 4 5 6 
#
# 1 0.009918 0.000314 -0.005117 0.000000 0.002679 0.000000
# 2 0.000314 0.010069 -0.005621 0.000000 0.003724 0.000000
# 3 -0.005117 -0.005621 0.013007 0.000000 -0.007850 0.000000
# 4 0.000000 0.000000 0.000000 0.016972 0.000000 -0.004647
# 5 0.002679 0.003724 -0.007850 0.000000 0.022787 0.000000
# 6 0.000000 0.000000 0.000000 -0.004647 0.000000 0.023678
#
#
# Mechanical properties :
#
#
# Convention : Reuss Voigt Hill
#
# Bulk Modulus (GPa) = 82.32878 86.45316 84.39097
# Shear Modulus (GPa) = 41.21132 49.47845 45.34489
#
# Velocity S-wave (km/s) = 3.84184 4.20959 4.02991
# Velocity P-wave (km/s) = 7.01182 7.38854 7.20264
#
# Compressibility (1/GPa) = 0.01214642
#
# Stress axis : x y z
#
# Youngs Moduli (GPa) = 100.82891 99.31583 76.88377
#
# Poissons Ratio (x) = -0.03120 0.39342
# Poissons Ratio (y) = -0.03168 0.43213
# Poissons Ratio (z) = 0.51595 0.55821
#
# Static dielectric constant tensor:
#      x y z
#    x 2.560550 0.000000 -0.050730 
#    y 0.000000 -2.556460 0.000000 
#    z -0.050730 0.000000 2.321360 
# 
# From -- ./inp_files/6537.got.cif
#   From: 2010.05.17/outbox.cif.g08.bks.cpg/sg14_4_cif.got.tgz:6537.got - 2010.06.03 17:49:19.
