data_PCOD9240532
_publ_section_title
;
Structure prediction by ZEFSAII (Michael W. Deem and Ramdas Pophale) SiO2 
 PCOD9240532
Probable space group: P 21/C
;
_chemical_formula_sum "Si O2"
_cell_formula_units_Z 24
_cell_length_a 11.677262
_cell_length_b 11.703880
_cell_length_c 14.930007
_cell_angle_alpha 90.000000
_cell_angle_beta 30.167264
_cell_angle_gamma 90.000000
_cell_volume 1025.390961
_symmetry_space_group_name_H-M "P 21/C"
_symmetry_group_IT_number 14
_symmetry_cell_setting 'monoclinic'
loop_
_space_group_symop_operation_xyz
x,y,z
-x,1/2+y,1/2-z
-x,-y,-z
x,1/2-y,1/2+z
loop_
_atom_site_type_symbol
_atom_site_label
_atom_site_fract_x
_atom_site_fract_y
_atom_site_fract_z
Si Si1 0.566552 0.116537 0.077451
Si Si2 0.690985 0.626463 0.547223
Si Si3 0.158833 0.676295 0.159758
Si Si4 0.381526 0.063220 0.696567
Si Si5 0.661462 0.188207 0.219969
Si Si6 0.906317 0.774535 0.646818
O O1 0.620962 0.153254 0.143248
O O2 0.303773 0.146139 0.238395
O O3 0.626941 0.984212 0.032327
O O4 0.720240 0.200089 0.912625
O O5 0.618768 0.604196 0.698975
O O6 0.551243 0.735397 0.607349
O O7 0.959007 0.647413 0.362585
O O8 0.022511 0.681418 0.158075
O O9 0.366880 0.588079 0.010522
O O10 0.200483 0.146666 0.771350
O O11 0.324019 0.930434 0.737934
O O12 0.891586 0.261983 0.061890
#
# Coordination Sequence:
#
# PCOD9240532 Si02
#       6
#     4   4   4   4   4   4
#     4   9  21  39  60  86 121 157 196 245 296 345
#     4  11  21  39  61  88 117 160 198 235 303 352
#     4  10  22  39  59  87 123 151 199 251 288 349
#     4  10  21  42  60  85 118 163 195 244 296 344
#     4  10  20  38  62  87 116 158 201 239 294 353
#     4  10  18  41  60  84 123 154 191 256 289 341
#
# _framework density 23.405707
#
# number of rings (size 3 to 8) (size 9 to 14) (size 15 to 20)
#    0.000    2.000    5.000    0.500    2.333    1.333 
#    6.000    0.833    0.000    0.000    0.000    0.000 
#    0.000    0.000    0.000    0.000    0.000    0.000 
#
# Total GULP energy -134355.403407 kJ/mol
# GULP energy per Si atom -5598.141809 kJ/mol
# Density = 2.335243 g / cm^3
# Si number density = 23.405707 Si / 1000 Ang^3
#
#
#
# Elastic Constant Matrix: (Units=GPa)
#
#
# Indices 1 2 3 4 5 6 
#
# 1 76.0132 0.2738 22.5886 0.0000 -10.4911 0.0000
# 2 0.2738 86.4166 19.0558 0.0000 3.8910 0.0000
# 3 22.5886 19.0558 152.5158 0.0000 -8.2006 0.0000
# 4 0.0000 0.0000 0.0000 15.2419 0.0000 -7.5504
# 5 -10.4911 3.8910 -8.2006 0.0000 32.6554 0.0000
# 6 0.0000 0.0000 0.0000 -7.5504 0.0000 -2.1504
#
#
#
# Elastic Compliance Matrix: (Units=1/GPa)
#
#
# Indices 1 2 3 4 5 6 
#
# 1 0.014290 0.000194 -0.001921 0.000000 0.004085 0.000000
# 2 0.000194 0.012010 -0.001625 0.000000 -0.001777 0.000000
# 3 -0.001921 -0.001625 0.007118 0.000000 0.001364 0.000000
# 4 0.000000 0.000000 0.000000 0.023950 0.000000 -0.084095
# 5 0.004085 -0.001777 0.001364 0.000000 0.032489 0.000000
# 6 0.000000 0.000000 0.000000 -0.084095 0.000000 -0.169760
#
#
# Mechanical properties :
#
#
# Convention : Reuss Voigt Hill
#
# Bulk Modulus (GPa) = 37.43384 44.30909 40.87146
# Shear Modulus (GPa) = -77.76496 27.35120 -25.20688
#
# Velocity S-wave (km/s) = -5.77035 3.42214 -3.28526
# Velocity P-wave (km/s) = 5.32613 5.88105 1.76338
#
# Compressibility (1/GPa) = 0.02671380
#
# Stress axis : x y z
#
# Youngs Moduli (GPa) = 69.98094 83.26732 140.49769
#
# Poissons Ratio (x) = -0.01619 0.26990
# Poissons Ratio (y) = -0.01360 0.22828
# Poissons Ratio (z) = 0.13443 0.13529
#
# Static dielectric constant tensor:
#      x y z
#    x 1.926380 0.000000 0.040990 
#    y 0.000000 1.853520 0.000000 
#    z 0.040990 0.000000 1.845330 
# 
# From -- ./inp_files/68502.got.cif
#   From: 2010.05.17/outbox.cif.g08.bks.cpg/sg14_35_cif.got.tgz:68502.got - 2010.06.03 17:49:19.
