data_PCOD9240788
_publ_section_title
;
Structure prediction by ZEFSAII (Michael W. Deem and Ramdas Pophale) SiO2 
 PCOD9240788
Probable space group: P 21/C
;
_chemical_formula_sum "Si O2"
_cell_formula_units_Z 20
_cell_length_a 5.584237
_cell_length_b 15.684164
_cell_length_c 8.942088
_cell_angle_alpha 90.000000
_cell_angle_beta 102.001373
_cell_angle_gamma 90.000000
_cell_volume 766.066265
_symmetry_space_group_name_H-M "P 21/C"
_symmetry_group_IT_number 14
_symmetry_cell_setting 'monoclinic'
loop_
_space_group_symop_operation_xyz
x,y,z
-x,1/2+y,1/2-z
-x,-y,-z
x,1/2-y,1/2+z
loop_
_atom_site_type_symbol
_atom_site_label
_atom_site_fract_x
_atom_site_fract_y
_atom_site_fract_z
Si Si1 0.085802 0.126975 0.489741
Si Si2 0.778110 0.764473 0.741289
Si Si3 0.630717 0.403446 0.097768
Si Si4 0.562683 0.203084 0.066233
Si Si5 0.735905 0.043683 0.948404
O O1 0.036988 0.179628 0.332160
O O2 0.151245 0.922807 0.488708
O O3 0.132211 0.195618 0.628663
O O4 0.641873 0.200619 0.612390
O O5 0.352111 0.083441 0.507362
O O6 0.626392 0.713414 0.596283
O O7 0.591882 0.824955 0.809095
O O8 0.677912 0.443422 0.265756
O O9 0.755109 0.136584 0.028637
O O10 0.500000 0.000000 0.000000
O O11 0.000000 0.000000 0.000000
#
# Coordination Sequence:
#
# PCOD9240788 Si02
#       5
#     4   4   4   4   4
#     4  10  19  32  58  91 129 149 215 271 311 361
#     4   8  18  33  62  95 120 160 222 274 303 365
#     4  10  22  38  64  90 127 169 222 261 308 390
#     4  10  19  41  65  96 127 170 226 265 310 397
#     4  12  26  42  65  99 139 170 212 273 340 384
#
# _framework density 26.107403999999999
#
# number of rings (size 3 to 8) (size 9 to 14) (size 15 to 20)
#    0.000    2.400    4.000    1.200    2.800    3.200 
#    0.000    0.000    0.000   16.800    0.000    0.000 
#    0.000    0.000    0.000    0.000    0.000    0.000 
#
# Total GULP energy -111941.271039 kJ/mol
# GULP energy per Si atom -5597.063552 kJ/mol
# Density = 2.604798 g / cm^3
# Si number density = 26.107404 Si / 1000 Ang^3
#
#
#
# Elastic Constant Matrix: (Units=GPa)
#
#
# Indices 1 2 3 4 5 6 
#
# 1 193.8362 59.2821 35.7632 0.0000 -35.5995 0.0000
# 2 59.2821 96.9697 33.3129 0.0000 -10.4040 0.0000
# 3 35.7632 33.3129 124.4982 0.0000 -11.8660 0.0000
# 4 0.0000 0.0000 0.0000 45.3282 0.0000 -9.8857
# 5 -35.5995 -10.4040 -11.8660 0.0000 43.3922 0.0000
# 6 0.0000 0.0000 0.0000 -9.8857 0.0000 57.5967
#
#
#
# Elastic Compliance Matrix: (Units=1/GPa)
#
#
# Indices 1 2 3 4 5 6 
#
# 1 0.007324 -0.003729 -0.000635 0.000000 0.004941 0.000000
# 2 -0.003729 0.013417 -0.002571 0.000000 -0.000546 0.000000
# 3 -0.000635 -0.002571 0.009030 0.000000 0.001332 0.000000
# 4 0.000000 0.000000 0.000000 0.022919 0.000000 0.003934
# 5 0.004941 -0.000546 0.001332 0.000000 0.027333 0.000000
# 6 0.000000 0.000000 0.000000 0.003934 0.000000 0.018037
#
#
# Mechanical properties :
#
#
# Convention : Reuss Voigt Hill
#
# Bulk Modulus (GPa) = 62.89218 74.66894 68.78056
# Shear Modulus (GPa) = 42.65104 48.39315 45.52210
#
# Velocity S-wave (km/s) = 4.04626 4.31004 4.18023
# Velocity P-wave (km/s) = 6.78024 7.30967 7.04993
#
# Compressibility (1/GPa) = 0.01590023
#
# Stress axis : x y z
#
# Youngs Moduli (GPa) = 136.53405 74.53215 110.74792
#
# Poissons Ratio (x) = 0.27795 0.07034
# Poissons Ratio (y) = 0.50918 0.28471
# Poissons Ratio (z) = 0.08672 0.19161
#
# Static dielectric constant tensor:
#      x y z
#    x 2.200000 0.000000 0.006200 
#    y 0.000000 2.283470 0.000000 
#    z 0.006200 0.000000 1.973780 
# 
# From -- ./inp_files/20831.got.cif
#   From: 2010.05.17/outbox.cif.g08.bks.cpg/sg14_11_cif.got.tgz:20831.got - 2010.06.03 17:49:19.
