data_PCOD9240303
_publ_section_title
;
Structure prediction by ZEFSAII (Michael W. Deem and Ramdas Pophale) SiO2 
 PCOD9240303
Probable space group: P 21/C
;
_chemical_formula_sum "Si O2"
_cell_formula_units_Z 30
_cell_length_a 16.147673
_cell_length_b 14.935433
_cell_length_c 13.118115
_cell_angle_alpha 90.000000
_cell_angle_beta 153.089726
_cell_angle_gamma 90.000000
_cell_volume 1431.886452
_symmetry_space_group_name_H-M "P 21/C"
_symmetry_group_IT_number 14
_symmetry_cell_setting 'monoclinic'
loop_
_space_group_symop_operation_xyz
x,y,z
-x,1/2+y,1/2-z
-x,-y,-z
x,1/2-y,1/2+z
loop_
_atom_site_type_symbol
_atom_site_label
_atom_site_fract_x
_atom_site_fract_y
_atom_site_fract_z
Si Si1 0.718694 0.828278 0.038364
Si Si2 0.557232 0.963328 0.452093
Si Si3 0.958524 0.624832 0.630926
Si Si4 0.096593 0.168111 0.154835
Si Si5 0.159723 0.920116 0.966424
Si Si6 0.162585 0.524559 0.254289
Si Si7 0.647203 0.406705 0.864591
Si Si8 0.500000 0.000000 0.000000
O O1 0.813473 0.762681 0.221093
O O2 0.773099 0.929230 0.128608
O O3 0.803446 0.818366 0.019144
O O4 0.500381 0.826801 0.803970
O O5 0.736887 0.902781 0.656893
O O6 0.500000 0.000000 0.500000
O O7 0.601983 0.041068 0.420081
O O8 0.377733 0.911980 0.214802
O O9 0.988033 0.660129 0.549890
O O10 0.893170 0.521151 0.554702
O O11 0.144657 0.624824 0.900081
O O12 0.949841 0.145008 0.080411
O O13 0.106894 0.915431 0.789261
O O14 0.341019 0.555327 0.389256
O O15 0.000000 0.500000 0.000000
O O16 0.605150 0.471909 0.723662
#
# Coordination Sequence:
#
# PCOD9240303 Si02
#       8
#     4   4   4   4   4   4   4   2
#     4  10  24  43  57  94 138 161 212 278 336 379
#     4  12  21  39  67  95 125 169 227 271 323 403
#     4  11  21  42  66  91 127 178 211 272 334 395
#     4  12  25  39  66  99 130 169 219 283 334 392
#     4  11  21  38  63  98 123 166 228 261 318 401
#     4  10  21  38  64  89 121 174 216 262 318 395
#     4  11  21  40  69  90 130 175 217 267 331 398
#     4  10  18  36  62  96 120 164 216 258 314 380
#
# _framework density 20.951383
#
# number of rings (size 3 to 8) (size 9 to 14) (size 15 to 20)
#    0.000    1.067    6.667    2.800    0.000    2.133 
#    2.400    0.000    0.000    0.000    0.000    0.000 
#    0.000    0.000    0.000    0.000    0.000    0.000 
#
# Total GULP energy -167023.989224 kJ/mol
# GULP energy per Si atom -5567.466307 kJ/mol
# Density = 2.090370 g / cm^3
# Si number density = 20.951383 Si / 1000 Ang^3
#
#
#
# Elastic Constant Matrix: (Units=GPa)
#
#
# Indices 1 2 3 4 5 6 
#
# 1 68.7568 -13.3762 3.8405 0.0000 -17.8609 0.0000
# 2 -13.3762 13.6024 -9.7590 0.0000 -3.3188 0.0000
# 3 3.8405 -9.7590 108.2868 0.0000 0.1556 0.0000
# 4 0.0000 0.0000 0.0000 22.8191 0.0000 2.0530
# 5 -17.8609 -3.3188 0.1556 0.0000 45.9643 0.0000
# 6 0.0000 0.0000 0.0000 2.0530 0.0000 13.3752
#
#
#
# Elastic Compliance Matrix: (Units=1/GPa)
#
#
# Indices 1 2 3 4 5 6 
#
# 1 0.022093 0.025330 0.001484 0.000000 0.010409 0.000000
# 2 0.025330 0.109135 0.008912 0.000000 0.017693 0.000000
# 3 0.001484 0.008912 0.009984 0.000000 0.001186 0.000000
# 4 0.000000 0.000000 0.000000 0.044437 0.000000 -0.006821
# 5 0.010409 0.017693 0.001186 0.000000 0.027074 0.000000
# 6 0.000000 0.000000 0.000000 -0.006821 0.000000 0.075812
#
#
# Mechanical properties :
#
#
# Convention : Reuss Voigt Hill
#
# Bulk Modulus (GPa) = 4.70228 16.89518 10.79873
# Shear Modulus (GPa) = 17.36290 30.42776 23.89533
#
# Velocity S-wave (km/s) = 2.88188 3.81504 3.38081
# Velocity P-wave (km/s) = 3.65005 5.24286 4.51722
#
# Compressibility (1/GPa) = 0.21266270
#
# Stress axis : x y z
#
# Youngs Moduli (GPa) = 45.26374 9.16296 100.16500
#
# Poissons Ratio (x) = -0.23210 -0.14867
# Poissons Ratio (y) = -1.14652 -0.89264
# Poissons Ratio (z) = -0.06718 -0.08166
#
# Static dielectric constant tensor:
#      x y z
#    x 1.790040 0.000000 0.026870 
#    y 0.000000 1.738250 0.000000 
#    z 0.026870 0.000000 1.752810 
# 
# From -- ./inp_files/33007.got.cif
#   From: 2010.05.17/outbox.cif.g08.bks.cpg/sg14_17_cif.got.tgz:33007.got - 2010.06.03 17:49:19.
