data_PCOD9240766
_publ_section_title
;
Structure prediction by ZEFSAII (Michael W. Deem and Ramdas Pophale) SiO2 
 PCOD9240766
Probable space group: P 21/C
;
_chemical_formula_sum "Si O2"
_cell_formula_units_Z 28
_cell_length_a 7.848423
_cell_length_b 11.398145
_cell_length_c 14.011604
_cell_angle_alpha 90.000000
_cell_angle_beta 101.874400
_cell_angle_gamma 90.000000
_cell_volume 1226.620160
_symmetry_space_group_name_H-M "P 21/C"
_symmetry_group_IT_number 14
_symmetry_cell_setting 'monoclinic'
loop_
_space_group_symop_operation_xyz
x,y,z
-x,1/2+y,1/2-z
-x,-y,-z
x,1/2-y,1/2+z
loop_
_atom_site_type_symbol
_atom_site_label
_atom_site_fract_x
_atom_site_fract_y
_atom_site_fract_z
Si Si1 0.715653 0.817382 0.917805
Si Si2 0.473191 0.418682 0.855919
Si Si3 0.381479 0.657778 0.928854
Si Si4 0.820955 0.373073 0.558693
Si Si5 0.558236 0.485118 0.669505
Si Si6 0.777148 0.714931 0.727076
Si Si7 0.999623 0.607313 0.603220
O O1 0.551028 0.737839 0.928310
O O2 0.636024 0.940915 0.872926
O O3 0.801816 0.748247 0.840083
O O4 0.842150 0.841040 0.019518
O O5 0.391532 0.548362 0.858834
O O6 0.588593 0.415989 0.772921
O O7 0.313660 0.328265 0.830299
O O8 0.590257 0.391890 0.961300
O O9 0.215117 0.742883 0.906656
O O10 0.661410 0.442853 0.588048
O O11 0.973518 0.465755 0.605163
O O12 0.838583 0.361707 0.446188
O O13 0.628463 0.614569 0.697387
O O14 0.952557 0.667350 0.697491
#
# Coordination Sequence:
#
# PCOD9240766 Si02
#       7
#     4   4   4   4   4   4   4
#     4  10  19  33  58  81 105 141 184 226 275 321
#     4  10  19  32  55  83 110 138 179 231 276 324
#     4  10  19  34  56  81 108 141 179 224 280 323
#     4   9  21  37  56  79 109 145 183 228 272 327
#     4   9  19  33  56  82 108 135 187 229 269 319
#     4  10  19  33  56  81 109 140 179 229 271 321
#     4  10  20  38  57  77 113 147 182 225 274 326
#
# _framework density 22.826953
#
# number of rings (size 3 to 8) (size 9 to 14) (size 15 to 20)
#    0.000    2.286    2.857    0.000    2.000    1.714 
#    2.571    0.714   12.571    0.000    0.000    0.000 
#    0.000    0.000    0.000    0.000    0.000    0.000 
#
# Total GULP energy -156060.714115 kJ/mol
# GULP energy per Si atom -5573.596933 kJ/mol
# Density = 2.277500 g / cm^3
# Si number density = 22.826953 Si / 1000 Ang^3
#
#
#
# Elastic Constant Matrix: (Units=GPa)
#
#
# Indices 1 2 3 4 5 6 
#
# 1 55.2657 33.7159 36.8007 0.0000 -20.4313 0.0000
# 2 33.7159 130.8120 28.1627 0.0000 -12.6627 0.0000
# 3 36.8007 28.1627 127.8471 0.0000 -32.7106 0.0000
# 4 0.0000 0.0000 0.0000 32.4638 0.0000 -10.4924
# 5 -20.4313 -12.6627 -32.7106 0.0000 35.7746 0.0000
# 6 0.0000 0.0000 0.0000 -10.4924 0.0000 21.2247
#
#
#
# Elastic Compliance Matrix: (Units=1/GPa)
#
#
# Indices 1 2 3 4 5 6 
#
# 1 0.027928 -0.005294 -0.004270 0.000000 0.010172 0.000000
# 2 -0.005294 0.009099 -0.000561 0.000000 -0.000316 0.000000
# 3 -0.004270 -0.000561 0.011096 0.000000 0.007508 0.000000
# 4 0.000000 0.000000 0.000000 0.036661 0.000000 0.018123
# 5 0.010172 -0.000316 0.007508 0.000000 0.040515 0.000000
# 6 0.000000 0.000000 0.000000 0.018123 0.000000 0.056074
#
#
# Mechanical properties :
#
#
# Convention : Reuss Voigt Hill
#
# Bulk Modulus (GPa) = 35.87948 56.80926 46.34437
# Shear Modulus (GPa) = 23.70614 32.24233 27.97423
#
# Velocity S-wave (km/s) = 3.22610 3.76236 3.50450
# Velocity P-wave (km/s) = 5.44326 6.61927 6.05986
#
# Compressibility (1/GPa) = 0.02787108
#
# Stress axis : x y z
#
# Youngs Moduli (GPa) = 35.80600 109.89751 90.12531
#
# Poissons Ratio (x) = 0.58183 0.38487
# Poissons Ratio (y) = 0.18957 0.05059
# Poissons Ratio (z) = 0.15291 0.06169
#
# Static dielectric constant tensor:
#      x y z
#    x 1.921660 0.000000 -0.036530 
#    y 0.000000 1.866880 0.000000 
#    z -0.036530 0.000000 1.886200 
# 
# From -- ./inp_files/39662.got.cif
#   From: 2010.05.17/outbox.cif.g08.bks.cpg/sg14_20_cif.got.tgz:39662.got - 2010.06.03 17:49:19.
