data_PCOD9240115
_publ_section_title
;
Structure prediction by ZEFSAII (Michael W. Deem and Ramdas Pophale) SiO2 
 PCOD9240115
Probable space group: P 21/C
;
_chemical_formula_sum "Si O2"
_cell_formula_units_Z 28
_cell_length_a 8.881812
_cell_length_b 16.214110
_cell_length_c 11.993507
_cell_angle_alpha 90.000000
_cell_angle_beta 118.177326
_cell_angle_gamma 90.000000
_cell_volume 1522.504081
_symmetry_space_group_name_H-M "P 21/C"
_symmetry_group_IT_number 14
_symmetry_cell_setting 'monoclinic'
loop_
_space_group_symop_operation_xyz
x,y,z
-x,1/2+y,1/2-z
-x,-y,-z
x,1/2-y,1/2+z
loop_
_atom_site_type_symbol
_atom_site_label
_atom_site_fract_x
_atom_site_fract_y
_atom_site_fract_z
Si Si1 0.428131 0.465579 0.669687
Si Si2 0.268190 0.075902 0.743496
Si Si3 0.096178 0.505286 0.877154
Si Si4 0.697437 0.845923 0.479265
Si Si5 0.107230 0.553138 0.624832
Si Si6 0.561594 0.082182 0.456509
Si Si7 0.806165 0.839148 0.052248
O O1 0.594009 0.506950 0.673017
O O2 0.301273 0.541556 0.655460
O O3 0.489907 0.423564 0.806790
O O4 0.320372 0.399783 0.561199
O O5 0.336010 0.123718 0.658411
O O6 0.227274 0.137230 0.830474
O O7 0.092904 0.028712 0.649889
O O8 0.167601 0.414601 0.929432
O O9 0.094232 0.514132 0.742816
O O10 0.234641 0.572278 0.969735
O O11 0.530130 0.849346 0.500381
O O12 0.769442 0.754557 0.510228
O O13 0.000000 0.500000 0.500000
O O14 0.003616 0.638145 0.594892
O O15 0.500000 0.000000 0.500000
#
# Coordination Sequence:
#
# PCOD9240115 Si02
#       7
#     4   4   4   4   4   4   4
#     4  11  19  39  61  82 113 158 201 223 284 353
#     4  11  22  38  61  84 115 152 197 239 278 349
#     4  10  19  37  59  86 107 150 206 226 277 347
#     4  11  21  37  59  87 117 149 188 246 294 329
#     4   9  18  35  58  81 112 154 189 223 278 356
#     4  10  18  34  63  84 104 155 199 229 272 352
#     4  10  25  36  56  90 120 146 185 250 299 325
#
# _framework density 18.390754999999999
#
# number of rings (size 3 to 8) (size 9 to 14) (size 15 to 20)
#    0.000    1.714    5.714    0.857    2.000    0.000 
#    0.000    5.714    0.000    0.000    0.000    0.000 
#    0.000    0.000    0.000    0.000    0.000    0.000 
#
# Total GULP energy -156045.398399 kJ/mol
# GULP energy per Si atom -5573.049943 kJ/mol
# Density = 1.834890 g / cm^3
# Si number density = 18.390755 Si / 1000 Ang^3
#
#
#
# Elastic Constant Matrix: (Units=GPa)
#
#
# Indices 1 2 3 4 5 6 
#
# 1 97.7180 33.3807 17.1519 0.0000 30.8612 0.0000
# 2 33.3807 104.6037 27.3384 0.0000 11.9779 0.0000
# 3 17.1519 27.3384 99.1891 0.0000 10.8382 0.0000
# 4 0.0000 0.0000 0.0000 17.2527 0.0000 3.9581
# 5 30.8612 11.9779 10.8382 0.0000 23.0514 0.0000
# 6 0.0000 0.0000 0.0000 3.9581 0.0000 22.5458
#
#
#
# Elastic Compliance Matrix: (Units=1/GPa)
#
#
# Indices 1 2 3 4 5 6 
#
# 1 0.018752 -0.003361 0.000249 0.000000 -0.023476 0.000000
# 2 -0.003361 0.011312 -0.002515 0.000000 -0.000196 0.000000
# 3 0.000249 -0.002515 0.011201 0.000000 -0.004293 0.000000
# 4 0.000000 0.000000 0.000000 0.060395 0.000000 -0.010603
# 5 -0.023476 -0.000196 -0.004293 0.000000 0.076931 0.000000
# 6 0.000000 0.000000 0.000000 -0.010603 0.000000 0.046216
#
#
# Mechanical properties :
#
#
# Convention : Reuss Voigt Hill
#
# Bulk Modulus (GPa) = 33.32159 50.80587 42.06373
# Shear Modulus (GPa) = 20.31988 27.47930 23.89959
#
# Velocity S-wave (km/s) = 3.32760 3.86967 3.60883
# Velocity P-wave (km/s) = 5.73776 6.90301 6.34718
#
# Compressibility (1/GPa) = 0.03001057
#
# Stress axis : x y z
#
# Youngs Moduli (GPa) = 53.32747 88.40003 89.27746
#
# Poissons Ratio (x) = 0.29711 -0.02222
# Poissons Ratio (y) = 0.17923 0.22456
# Poissons Ratio (z) = -0.01327 0.22235
#
# Static dielectric constant tensor:
#      x y z
#    x 1.707310 0.000000 0.001850 
#    y 0.000000 1.600820 0.000000 
#    z 0.001850 0.000000 1.655380 
# 
# From -- ./inp_files/25377.got.cif
#   From: 2010.05.17/outbox.cif.g08.bks.cpg/sg14_13_cif.got.tgz:25377.got - 2010.06.03 17:49:19.
