data_PCOD9240172
_publ_section_title
;
Structure prediction by ZEFSAII (Michael W. Deem and Ramdas Pophale) SiO2 
 PCOD9240172
Probable space group: P 21/C
;
_chemical_formula_sum "Si O2"
_cell_formula_units_Z 32
_cell_length_a 14.352489
_cell_length_b 16.707370
_cell_length_c 21.264162
_cell_angle_alpha 90.000000
_cell_angle_beta 20.109445
_cell_angle_gamma 90.000000
_cell_volume 1753.104358
_symmetry_space_group_name_H-M "P 21/C"
_symmetry_group_IT_number 14
_symmetry_cell_setting 'monoclinic'
loop_
_space_group_symop_operation_xyz
x,y,z
-x,1/2+y,1/2-z
-x,-y,-z
x,1/2-y,1/2+z
loop_
_atom_site_type_symbol
_atom_site_label
_atom_site_fract_x
_atom_site_fract_y
_atom_site_fract_z
Si Si1 0.343200 0.144743 0.146610
Si Si2 0.816940 0.412088 0.019976
Si Si3 0.919604 0.119580 0.779255
Si Si4 0.605881 0.889038 0.103680
Si Si5 0.241488 0.528454 0.735877
Si Si6 0.606778 0.754039 0.507602
Si Si7 0.240534 0.900083 0.711372
Si Si8 0.324595 0.974563 0.527336
O O1 0.349761 0.202501 0.083200
O O2 0.063526 0.152786 0.362477
O O3 0.312767 0.050109 0.148985
O O4 0.639384 0.144286 0.990699
O O5 0.579163 0.390702 0.217390
O O6 0.716638 0.429951 0.012499
O O7 0.970007 0.495163 0.941549
O O8 0.832386 0.101539 0.762362
O O9 0.132017 0.190138 0.649472
O O10 0.080240 0.038374 0.695484
O O11 0.473091 0.951167 0.138255
O O12 0.585375 0.805236 0.079769
O O13 0.918496 0.906142 0.920398
O O14 0.354516 0.814407 0.660665
O O15 0.405695 0.970672 0.642060
O O16 0.321610 0.913175 0.586859
#
# Coordination Sequence:
#
# PCOD9240172 Si02
#       8
#     4   4   4   4   4   4   4   4
#     4  10  19  35  57  86 107 150 182 240 285 320
#     4   9  22  35  58  84 111 143 188 235 278 336
#     4  10  18  35  59  86 109 143 193 238 278 333
#     4  12  21  36  56  84 116 153 189 226 285 341
#     4   9  20  35  60  84 108 147 194 242 266 337
#     4  11  23  35  58  85 119 146 193 233 285 344
#     4  10  22  37  61  85 112 153 186 238 286 333
#     4   9  19  39  61  86 110 141 195 238 281 333
#
# _framework density 18.253333000000001
#
# number of rings (size 3 to 8) (size 9 to 14) (size 15 to 20)
#    0.750    1.250    1.250    3.000    0.000    0.500 
#    0.000    2.500    0.000    3.000    0.000    0.000 
#    0.000    0.000    0.000    0.000    0.000    0.000 
#
# Total GULP energy -178155.430940 kJ/mol
# GULP energy per Si atom -5567.357217 kJ/mol
# Density = 1.821179 g / cm^3
# Si number density = 18.253333 Si / 1000 Ang^3
#
#
#
# Elastic Constant Matrix: (Units=GPa)
#
#
# Indices 1 2 3 4 5 6 
#
# 1 55.7332 10.2102 32.6186 0.0000 -23.5715 0.0000
# 2 10.2102 47.4299 25.5837 0.0000 -4.2023 0.0000
# 3 32.6186 25.5837 111.4563 0.0000 -25.3958 0.0000
# 4 0.0000 0.0000 0.0000 17.4081 0.0000 -6.0648
# 5 -23.5715 -4.2023 -25.3958 0.0000 28.1218 0.0000
# 6 0.0000 0.0000 0.0000 -6.0648 0.0000 13.3499
#
#
#
# Elastic Compliance Matrix: (Units=1/GPa)
#
#
# Indices 1 2 3 4 5 6 
#
# 1 0.029276 -0.002754 -0.003070 0.000000 0.021355 0.000000
# 2 -0.002754 0.024391 -0.005651 0.000000 -0.003767 0.000000
# 3 -0.003070 -0.005651 0.013080 0.000000 0.008395 0.000000
# 4 0.000000 0.000000 0.000000 0.068246 0.000000 0.031003
# 5 0.021355 -0.003767 0.008395 0.000000 0.060478 0.000000
# 6 0.000000 0.000000 0.000000 0.031003 0.000000 0.088992
#
#
# Mechanical properties :
#
#
# Convention : Reuss Voigt Hill
#
# Bulk Modulus (GPa) = 22.83256 39.04937 30.94096
# Shear Modulus (GPa) = 15.52743 21.52309 18.52526
#
# Velocity S-wave (km/s) = 2.91978 3.43757 3.18920
# Velocity P-wave (km/s) = 4.88903 6.09880 5.52711
#
# Compressibility (1/GPa) = 0.04379711
#
# Stress axis : x y z
#
# Youngs Moduli (GPa) = 34.15818 40.99871 76.44982
#
# Poissons Ratio (x) = 0.11292 0.23468
# Poissons Ratio (y) = 0.09408 0.43202
# Poissons Ratio (z) = 0.10486 0.23168
#
# Static dielectric constant tensor:
#      x y z
#    x 1.633630 0.000000 -0.035920 
#    y 0.000000 1.637120 0.000000 
#    z -0.035920 0.000000 1.699780 
# 
# From -- ./inp_files/68798.got.cif
#   From: 2010.05.17/outbox.cif.g08.bks.cpg/sg14_35_cif.got.tgz:68798.got - 2010.06.03 17:49:19.
