data_PCOD9240857
_publ_section_title
;
Structure prediction by ZEFSAII (Michael W. Deem and Ramdas Pophale) SiO2 
 PCOD9240857
Probable space group: P 21/C
;
_chemical_formula_sum "Si O2"
_cell_formula_units_Z 28
_cell_length_a 25.674905
_cell_length_b 7.769874
_cell_length_c 5.487719
_cell_angle_alpha 90.000000
_cell_angle_beta 69.136597
_cell_angle_gamma 90.000000
_cell_volume 1022.968962
_symmetry_space_group_name_H-M "P 21/C"
_symmetry_group_IT_number 14
_symmetry_cell_setting 'monoclinic'
loop_
_space_group_symop_operation_xyz
x,y,z
-x,1/2+y,1/2-z
-x,-y,-z
x,1/2-y,1/2+z
loop_
_atom_site_type_symbol
_atom_site_label
_atom_site_fract_x
_atom_site_fract_y
_atom_site_fract_z
Si Si1 0.100216 0.665653 0.306365
Si Si2 0.649232 0.292021 0.137715
Si Si3 0.254134 0.195718 0.543909
Si Si4 0.789873 0.145850 0.223191
Si Si5 0.020870 0.300357 0.967302
Si Si6 0.381918 0.186416 0.303581
Si Si7 0.472766 0.668729 0.151354
O O1 0.110094 0.814023 0.500902
O O2 0.033330 0.670531 0.437921
O O3 0.149615 0.548718 0.328560
O O4 0.679618 0.268957 0.343559
O O5 0.624907 0.483006 0.166372
O O6 0.595057 0.167150 0.241177
O O7 0.229087 0.297771 0.814911
O O8 0.318122 0.259246 0.402296
O O9 0.254099 0.001475 0.640254
O O10 0.788619 0.217254 0.950081
O O11 0.051023 0.252664 0.168390
O O12 0.000000 0.500000 0.000000
O O13 0.408236 0.259780 0.504733
O O14 0.486041 0.805019 0.913352
O O15 0.500000 0.500000 0.000000
#
# Coordination Sequence:
#
# PCOD9240857 Si02
#       7
#     4   4   4   4   4   4   4
#     4   8  16  30  50  71 100 135 176 216 259 316
#     4  10  21  38  58  85 114 145 186 230 271 325
#     4  10  21  36  55  82 115 145 180 228 278 320
#     4  10  19  33  56  80 105 146 187 221 265 323
#     4  10  19  33  55  78 105 140 177 224 275 328
#     4  10  21  38  58  82 114 150 183 224 276 327
#     4  10  21  40  60  84 114 147 184 229 277 327
#
# _framework density 27.371310999999999
#
# number of rings (size 3 to 8) (size 9 to 14) (size 15 to 20)
#    0.000    2.286    0.000    2.571    0.000    1.143 
#    0.000   17.143    0.000   46.286    0.000    0.000 
#    0.000    0.000    0.000    0.000    0.000    0.000 
#
# Total GULP energy -156281.588713 kJ/mol
# GULP energy per Si atom -5581.485311 kJ/mol
# Density = 2.730901 g / cm^3
# Si number density = 27.371311 Si / 1000 Ang^3
#
#
#
# Elastic Constant Matrix: (Units=GPa)
#
#
# Indices 1 2 3 4 5 6 
#
# 1 72.5992 5.6745 33.8114 0.0000 7.7103 0.0000
# 2 5.6745 86.2848 42.9455 0.0000 12.7927 0.0000
# 3 33.8114 42.9455 238.0702 0.0000 43.2864 0.0000
# 4 0.0000 0.0000 0.0000 49.6918 0.0000 5.4049
# 5 7.7103 12.7927 43.2864 0.0000 49.0894 0.0000
# 6 0.0000 0.0000 0.0000 5.4049 0.0000 22.8166
#
#
#
# Elastic Compliance Matrix: (Units=1/GPa)
#
#
# Indices 1 2 3 4 5 6 
#
# 1 0.014764 0.000116 -0.002013 0.000000 -0.000574 0.000000
# 2 0.000116 0.012832 -0.002048 0.000000 -0.001556 0.000000
# 3 -0.002013 -0.002048 0.005599 0.000000 -0.004087 0.000000
# 4 0.000000 0.000000 0.000000 0.020656 0.000000 -0.004893
# 5 -0.000574 -0.001556 -0.004087 0.000000 0.024471 0.000000
# 6 0.000000 0.000000 0.000000 -0.004893 0.000000 0.044987
#
#
# Mechanical properties :
#
#
# Convention : Reuss Voigt Hill
#
# Bulk Modulus (GPa) = 39.51970 62.42409 50.97189
# Shear Modulus (GPa) = 35.80778 45.28774 40.54776
#
# Velocity S-wave (km/s) = 3.62086 4.07205 3.85307
# Velocity P-wave (km/s) = 5.65248 6.70557 6.20142
#
# Compressibility (1/GPa) = 0.02530384
#
# Stress axis : x y z
#
# Youngs Moduli (GPa) = 67.73312 77.92958 178.60259
#
# Poissons Ratio (x) = -0.00906 0.35961
# Poissons Ratio (y) = -0.00787 0.36584
# Poissons Ratio (z) = 0.13638 0.15963
#
# Static dielectric constant tensor:
#      x y z
#    x 2.322210 0.000000 -0.051500 
#    y 0.000000 2.203280 0.000000 
#    z -0.051500 0.000000 2.279840 
# 
# From -- ./inp_files/4552.got.cif
#   From: 2010.05.17/outbox.cif.g08.bks.cpg/sg14_3_cif.got.tgz:4552.got - 2010.06.03 17:49:19.
