data_PCOD9240642
_publ_section_title
;
Structure prediction by ZEFSAII (Michael W. Deem and Ramdas Pophale) SiO2 
 PCOD9240642
Probable space group: P 21/C
;
_chemical_formula_sum "Si O2"
_cell_formula_units_Z 28
_cell_length_a 20.177998
_cell_length_b 5.312183
_cell_length_c 22.174811
_cell_angle_alpha 90.000000
_cell_angle_beta 40.632880
_cell_angle_gamma 90.000000
_cell_volume 1547.861065
_symmetry_space_group_name_H-M "P 21/C"
_symmetry_group_IT_number 14
_symmetry_cell_setting 'monoclinic'
loop_
_space_group_symop_operation_xyz
x,y,z
-x,1/2+y,1/2-z
-x,-y,-z
x,1/2-y,1/2+z
loop_
_atom_site_type_symbol
_atom_site_label
_atom_site_fract_x
_atom_site_fract_y
_atom_site_fract_z
Si Si1 0.611185 0.014026 0.452041
Si Si2 0.330633 0.688114 0.695802
Si Si3 0.442372 0.337292 0.306605
Si Si4 0.943747 0.295104 0.496228
Si Si5 0.437157 0.023354 0.949816
Si Si6 0.144478 0.387577 0.848103
Si Si7 0.257518 0.502257 0.356280
O O1 0.675974 0.091853 0.349218
O O2 0.604183 0.250462 0.502623
O O3 0.500000 0.000000 0.500000
O O4 0.624575 0.745680 0.473989
O O5 0.441721 0.554540 0.616261
O O6 0.233600 0.515627 0.749285
O O7 0.315778 0.792381 0.774308
O O8 0.515249 0.553963 0.227836
O O9 0.430199 0.420939 0.383982
O O10 0.337961 0.360459 0.341662
O O11 0.839794 0.396422 0.539040
O O12 0.000000 0.500000 0.500000
O O13 0.038949 0.201761 0.390769
O O14 0.898456 0.084359 0.572481
O O15 0.203438 0.174977 0.844687
#
# Coordination Sequence:
#
# PCOD9240642 Si02
#       7
#     4   4   4   4   4   4   4
#     4  10  22  35  53  72 107 146 187 230 267 314
#     4  10  19  31  50  77 102 143 180 226 275 316
#     4  12  24  37  54  78 115 152 190 218 258 335
#     4   8  16  32  46  77 110 131 168 222 283 336
#     4  11  22  37  50  75 112 151 185 221 266 318
#     4   9  17  29  53  74 110 132 172 226 280 337
#     4  10  20  31  52  79 111 143 179 219 278 331
#
# _framework density 18.089479000000001
#
# number of rings (size 3 to 8) (size 9 to 14) (size 15 to 20)
#    0.000    2.000    1.429    3.429   10.000    0.000 
#    0.000    0.000    0.000    0.000    0.000    0.000 
#   25.714    0.000    0.000    0.000    0.000    0.000 
#
# Total GULP energy -155881.267936 kJ/mol
# GULP energy per Si atom -5567.188141 kJ/mol
# Density = 1.804831 g / cm^3
# Si number density = 18.089479 Si / 1000 Ang^3
#
#
#
# Elastic Constant Matrix: (Units=GPa)
#
#
# Indices 1 2 3 4 5 6 
#
# 1 35.1482 -6.3495 30.1328 0.0000 -15.8927 0.0000
# 2 -6.3495 51.8325 12.1266 0.0000 -11.5456 0.0000
# 3 30.1328 12.1266 70.7755 0.0000 -16.4700 0.0000
# 4 0.0000 0.0000 0.0000 40.2239 0.0000 0.5071
# 5 -15.8927 -11.5456 -16.4700 0.0000 37.0708 0.0000
# 6 0.0000 0.0000 0.0000 0.5071 0.0000 13.5472
#
#
#
# Elastic Compliance Matrix: (Units=1/GPa)
#
#
# Indices 1 2 3 4 5 6 
#
# 1 0.062858 0.018333 -0.024875 0.000000 0.021606 0.000000
# 2 0.018333 0.026415 -0.009578 0.000000 0.011831 0.000000
# 3 -0.024875 -0.009578 0.025858 0.000000 -0.002159 0.000000
# 4 0.000000 0.000000 0.000000 0.024873 0.000000 -0.000931
# 5 0.021606 0.011831 -0.002159 0.000000 0.038964 0.000000
# 6 0.000000 0.000000 0.000000 -0.000931 0.000000 0.073851
#
#
# Mechanical properties :
#
#
# Convention : Reuss Voigt Hill
#
# Bulk Modulus (GPa) = 12.06414 25.50843 18.78629
# Shear Modulus (GPa) = 15.99035 26.29147 21.14091
#
# Velocity S-wave (km/s) = 2.97637 3.81650 3.42231
# Velocity P-wave (km/s) = 4.30062 5.79248 5.10138
#
# Compressibility (1/GPa) = 0.08289031
#
# Stress axis : x y z
#
# Youngs Moduli (GPa) = 15.90898 37.85754 38.67210
#
# Poissons Ratio (x) = -0.69402 0.96197
# Poissons Ratio (y) = -0.29165 0.37039
# Poissons Ratio (z) = 0.39573 0.36259
#
# Static dielectric constant tensor:
#      x y z
#    x 1.601130 0.000000 -0.020020 
#    y 0.000000 1.752800 0.000000 
#    z -0.020020 0.000000 1.716290 
# 
# From -- ./inp_files/67689.got.cif
#   From: 2010.05.17/outbox.cif.g08.bks.cpg/sg14_34_cif.got.tgz:67689.got - 2010.06.03 17:49:19.
