data_PCOD9240717
_publ_section_title
;
Structure prediction by ZEFSAII (Michael W. Deem and Ramdas Pophale) SiO2 
 PCOD9240717
Probable space group: P 21/C
;
_chemical_formula_sum "Si O2"
_cell_formula_units_Z 32
_cell_length_a 19.677184
_cell_length_b 13.923418
_cell_length_c 17.427953
_cell_angle_alpha 90.000000
_cell_angle_beta 21.724494
_cell_angle_gamma 90.000000
_cell_volume 1767.363242
_symmetry_space_group_name_H-M "P 21/C"
_symmetry_group_IT_number 14
_symmetry_cell_setting 'monoclinic'
loop_
_space_group_symop_operation_xyz
x,y,z
-x,1/2+y,1/2-z
-x,-y,-z
x,1/2-y,1/2+z
loop_
_atom_site_type_symbol
_atom_site_label
_atom_site_fract_x
_atom_site_fract_y
_atom_site_fract_z
Si Si1 0.410567 0.063506 0.690306
Si Si2 0.980733 0.218072 0.630163
Si Si3 0.254369 0.822207 0.729972
Si Si4 0.654737 0.350362 0.695333
Si Si5 0.153491 0.148670 0.841279
Si Si6 0.720810 0.803833 0.460687
Si Si7 0.991637 0.575343 0.769640
Si Si8 0.885969 0.639096 0.383653
O O1 0.592699 0.117452 0.473978
O O2 0.274919 0.073411 0.759745
O O3 0.431460 0.953624 0.691455
O O4 0.299859 0.114070 0.874938
O O5 0.802996 0.232073 0.763095
O O6 0.999089 0.118579 0.654596
O O7 0.145414 0.253316 0.401341
O O8 0.988607 0.298689 0.689516
O O9 0.308023 0.800452 0.761514
O O10 0.060542 0.878975 0.937235
O O11 0.841822 0.375308 0.454028
O O12 0.499992 0.298008 0.807319
O O13 0.224232 0.171310 0.683513
O O14 0.823813 0.707619 0.379986
O O15 0.804157 0.887079 0.427587
O O16 0.020433 0.461492 0.735438
#
# Coordination Sequence:
#
# PCOD9240717 Si02
#       8
#     4   4   4   4   4   4   4   4
#     4  10  20  33  49  80 106 131 174 204 269 309
#     4   8  19  34  55  74  99 143 167 209 263 299
#     4  10  19  32  52  77 105 138 165 210 263 307
#     4  11  22  30  54  82 102 139 165 218 267 309
#     4   9  19  33  51  76 105 134 171 211 253 308
#     4  11  21  35  54  79 107 133 176 214 261 308
#     4  10  20  39  52  75 109 135 179 210 258 309
#     4   9  21  36  54  76 105 141 169 220 254 302
#
# _framework density 18.106068
#
# number of rings (size 3 to 8) (size 9 to 14) (size 15 to 20)
#    0.750    1.500    2.500    0.375    3.500    0.500 
#    0.000    0.625    0.000    0.750    0.000    0.000 
#    0.000    0.000    0.000    0.000    0.000    0.000 
#
# Total GULP energy -178250.075856 kJ/mol
# GULP energy per Si atom -5570.314870 kJ/mol
# Density = 1.806486 g / cm^3
# Si number density = 18.106068 Si / 1000 Ang^3
#
#
#
# Elastic Constant Matrix: (Units=GPa)
#
#
# Indices 1 2 3 4 5 6 
#
# 1 84.2768 22.8508 3.2697 0.0000 -8.9116 0.0000
# 2 22.8508 61.6530 -1.0586 0.0000 -0.2266 0.0000
# 3 3.2697 -1.0586 30.3798 0.0000 -7.8793 0.0000
# 4 0.0000 0.0000 0.0000 17.3921 0.0000 1.9346
# 5 -8.9116 -0.2266 -7.8793 0.0000 24.5019 0.0000
# 6 0.0000 0.0000 0.0000 1.9346 0.0000 23.0125
#
#
#
# Elastic Compliance Matrix: (Units=1/GPa)
#
#
# Indices 1 2 3 4 5 6 
#
# 1 0.013774 -0.005094 -0.000407 0.000000 0.004832 0.000000
# 2 -0.005094 0.018117 0.000810 0.000000 -0.001425 0.000000
# 3 -0.000407 0.000810 0.035951 0.000000 0.011421 0.000000
# 4 0.000000 0.000000 0.000000 0.058040 0.000000 -0.004879
# 5 0.004832 -0.001425 0.011421 0.000000 0.046230 0.000000
# 6 0.000000 0.000000 0.000000 -0.004879 0.000000 0.043865
#
#
# Mechanical properties :
#
#
# Convention : Reuss Voigt Hill
#
# Bulk Modulus (GPa) = 17.10601 25.15925 21.13263
# Shear Modulus (GPa) = 20.42117 23.06448 21.74283
#
# Velocity S-wave (km/s) = 3.36201 3.57298 3.46910
# Velocity P-wave (km/s) = 4.95369 5.56302 5.26717
#
# Compressibility (1/GPa) = 0.05845898
#
# Stress axis : x y z
#
# Youngs Moduli (GPa) = 72.60269 55.19808 27.81589
#
# Poissons Ratio (x) = 0.28119 0.01131
# Poissons Ratio (y) = 0.36985 -0.02253
# Poissons Ratio (z) = 0.02953 -0.04471
#
# Static dielectric constant tensor:
#      x y z
#    x 1.646260 0.000000 -0.009870 
#    y 0.000000 1.616230 0.000000 
#    z -0.009870 0.000000 1.650400 
# 
# From -- ./inp_files/49154.got.cif
#   From: 2010.05.17/outbox.cif.g08.bks.cpg/sg14_25_cif.got.tgz:49154.got - 2010.06.03 17:49:19.
