data_PCOD9240598
_publ_section_title
;
Structure prediction by ZEFSAII (Michael W. Deem and Ramdas Pophale) SiO2 
 PCOD9240598
Probable space group: P 21/C
;
_chemical_formula_sum "Si O2"
_cell_formula_units_Z 24
_cell_length_a 11.968465
_cell_length_b 21.578654
_cell_length_c 4.938762
_cell_angle_alpha 90.000000
_cell_angle_beta 101.156441
_cell_angle_gamma 90.000000
_cell_volume 1251.397557
_symmetry_space_group_name_H-M "P 21/C"
_symmetry_group_IT_number 14
_symmetry_cell_setting 'monoclinic'
loop_
_space_group_symop_operation_xyz
x,y,z
-x,1/2+y,1/2-z
-x,-y,-z
x,1/2-y,1/2+z
loop_
_atom_site_type_symbol
_atom_site_label
_atom_site_fract_x
_atom_site_fract_y
_atom_site_fract_z
Si Si1 0.809382 0.920244 0.227258
Si Si2 0.172037 0.708344 0.883084
Si Si3 0.907143 0.708443 0.701384
Si Si4 0.289284 0.584198 0.791589
Si Si5 0.896071 0.516009 0.256606
Si Si6 0.618861 0.018691 0.185691
O O1 0.824363 0.847000 0.246264
O O2 0.905244 0.949822 0.473397
O O3 0.694991 0.956516 0.259176
O O4 0.825636 0.938336 0.921465
O O5 0.186548 0.767815 0.694702
O O6 0.258241 0.654951 0.832838
O O7 0.039749 0.687637 0.789048
O O8 0.891741 0.733049 0.391447
O O9 0.176462 0.545804 0.820772
O O10 0.317747 0.564035 0.499679
O O11 0.385234 0.556099 0.035391
O O12 0.000000 0.500000 0.500000
O O13 0.500000 0.000000 0.000000
#
# Coordination Sequence:
#
# PCOD9240598 Si02
#       6
#     4   4   4   4   4   4
#     4  10  20  33  51  75 103 136 174 213 259 311
#     4  10  20  33  51  76 108 143 172 202 248 313
#     4  10  20  33  51  75 107 145 175 203 247 311
#     4  10  20  34  54  78 104 136 174 215 265 318
#     4  10  19  30  49  77 106 132 163 212 264 314
#     4  10  21  37  57  79 101 134 177 229 278 307
#
# _framework density 19.178556
#
# number of rings (size 3 to 8) (size 9 to 14) (size 15 to 20)
#    0.000    2.000    0.000    4.000    0.000    5.333 
#    0.000    0.000    0.000    6.000    0.000    0.000 
#    0.000    0.000    0.000    0.000    0.000    0.000 
#
# Total GULP energy -133839.811662 kJ/mol
# GULP energy per Si atom -5576.658819 kJ/mol
# Density = 1.913491 g / cm^3
# Si number density = 19.178556 Si / 1000 Ang^3
#
#
#
# Elastic Constant Matrix: (Units=GPa)
#
#
# Indices 1 2 3 4 5 6 
#
# 1 31.4192 18.8342 2.9112 0.0000 12.8386 0.0000
# 2 18.8342 69.6792 0.8495 0.0000 10.5680 0.0000
# 3 2.9112 0.8495 82.0364 0.0000 -0.6657 0.0000
# 4 0.0000 0.0000 0.0000 14.2954 0.0000 -5.2830
# 5 12.8386 10.5680 -0.6657 0.0000 35.2520 0.0000
# 6 0.0000 0.0000 0.0000 -5.2830 0.0000 17.6967
#
#
#
# Elastic Compliance Matrix: (Units=1/GPa)
#
#
# Indices 1 2 3 4 5 6 
#
# 1 0.042986 -0.009661 -0.001529 0.000000 -0.012788 0.000000
# 2 -0.009661 0.017209 0.000151 0.000000 -0.001638 0.000000
# 3 -0.001529 0.000151 0.012248 0.000000 0.000743 0.000000
# 4 0.000000 0.000000 0.000000 0.078627 0.000000 0.023473
# 5 -0.012788 -0.001638 0.000743 0.000000 0.033530 0.000000
# 6 0.000000 0.000000 0.000000 0.023473 0.000000 0.063515
#
#
# Mechanical properties :
#
#
# Convention : Reuss Voigt Hill
#
# Bulk Modulus (GPa) = 19.85454 25.36941 22.61197
# Shear Modulus (GPa) = 17.42272 24.15147 20.78709
#
# Velocity S-wave (km/s) = 3.01732 3.55251 3.29579
# Velocity P-wave (km/s) = 4.74488 5.48487 5.12824
#
# Compressibility (1/GPa) = 0.05036632
#
# Stress axis : x y z
#
# Youngs Moduli (GPa) = 23.26341 58.10792 81.64304
#
# Poissons Ratio (x) = 0.56137 0.12484
# Poissons Ratio (y) = 0.22475 -0.01236
# Poissons Ratio (z) = 0.03557 -0.00879
#
# Static dielectric constant tensor:
#      x y z
#    x 1.705290 0.000000 0.006900 
#    y 0.000000 1.661000 0.000000 
#    z 0.006900 0.000000 1.689230 
# 
# From -- ./inp_files/2660.got.cif
#   From: 2010.05.17/outbox.cif.g08.bks.cpg/sg14_2_cif.got.tgz:2660.got - 2010.06.03 17:49:19.
