data_PCOD9240275
_publ_section_title
;
Structure prediction by ZEFSAII (Michael W. Deem and Ramdas Pophale) SiO2 
 PCOD9240275
Probable space group: P 21/C
;
_chemical_formula_sum "Si O2"
_cell_formula_units_Z 32
_cell_length_a 8.650717
_cell_length_b 13.100482
_cell_length_c 17.616617
_cell_angle_alpha 90.000000
_cell_angle_beta 131.988371
_cell_angle_gamma 90.000000
_cell_volume 1483.934395
_symmetry_space_group_name_H-M "P 21/C"
_symmetry_group_IT_number 14
_symmetry_cell_setting 'monoclinic'
loop_
_space_group_symop_operation_xyz
x,y,z
-x,1/2+y,1/2-z
-x,-y,-z
x,1/2-y,1/2+z
loop_
_atom_site_type_symbol
_atom_site_label
_atom_site_fract_x
_atom_site_fract_y
_atom_site_fract_z
Si Si1 0.789124 0.076293 0.654492
Si Si2 0.216647 0.453696 0.362244
Si Si3 0.846622 0.741532 0.460686
Si Si4 0.364591 0.268553 0.851149
Si Si5 0.575474 0.942111 0.905040
Si Si6 0.660683 0.599611 0.008935
Si Si7 0.264201 0.847460 0.076028
Si Si8 0.024517 0.731336 0.364339
O O1 0.552478 0.075541 0.605708
O O2 0.853905 0.188246 0.646561
O O3 0.971079 0.041724 0.770128
O O4 0.775232 0.999799 0.578053
O O5 0.292335 0.344670 0.353020
O O6 0.298716 0.449654 0.474422
O O7 0.337729 0.540116 0.352999
O O8 0.652943 0.663219 0.394323
O O9 0.802404 0.829103 0.505172
O O10 0.054301 0.678223 0.551804
O O11 0.906736 0.783843 0.397494
O O12 0.408840 0.336218 0.939255
O O13 0.565004 0.242556 0.865736
O O14 0.165547 0.316334 0.744169
O O15 0.644816 0.041122 0.879464
O O16 0.182470 0.841947 0.960850
#
# Coordination Sequence:
#
# PCOD9240275 Si02
#       8
#     4   4   4   4   4   4   4   4
#     4  10  22  39  59  83 114 162 191 236 282 340
#     4   9  20  35  60  88 113 145 195 242 284 333
#     4  10  21  38  56  90 115 149 186 242 282 340
#     4  10  18  39  58  80 112 157 189 237 282 341
#     4  10  18  36  59  89 117 143 188 241 291 340
#     4  11  21  38  60  85 116 147 207 234 277 337
#     4   9  20  36  59  78 121 150 177 235 299 336
#     4   9  21  38  56  82 118 152 193 224 294 339
#
# _framework density 21.564295999999999
#
# number of rings (size 3 to 8) (size 9 to 14) (size 15 to 20)
#    0.750    1.500    2.500    0.375    1.750    0.500 
#    6.750    0.000    8.250    0.000    0.000    0.000 
#    0.000    0.000    0.000    0.000    0.000    0.000 
#
# Total GULP energy -178367.230512 kJ/mol
# GULP energy per Si atom -5573.975954 kJ/mol
# Density = 2.151521 g / cm^3
# Si number density = 21.564296 Si / 1000 Ang^3
#
#
#
# Elastic Constant Matrix: (Units=GPa)
#
#
# Indices 1 2 3 4 5 6 
#
# 1 25.2887 -5.4296 -12.9476 0.0000 0.8948 0.0000
# 2 -5.4296 26.6941 -13.4464 0.0000 0.8927 0.0000
# 3 -12.9476 -13.4464 76.7249 0.0000 20.9383 0.0000
# 4 0.0000 0.0000 0.0000 14.9911 0.0000 -2.4137
# 5 0.8948 0.8927 20.9383 0.0000 13.6714 0.0000
# 6 0.0000 0.0000 0.0000 -2.4137 0.0000 19.2067
#
#
#
# Elastic Compliance Matrix: (Units=1/GPa)
#
#
# Indices 1 2 3 4 5 6 
#
# 1 0.063234 0.029803 0.030160 0.000000 -0.052277 0.000000
# 2 0.029803 0.060083 0.029486 0.000000 -0.051033 0.000000
# 3 0.030160 0.029486 0.041844 0.000000 -0.067986 0.000000
# 4 0.000000 0.000000 0.000000 0.068084 0.000000 0.008556
# 5 -0.052277 -0.051033 -0.067986 0.000000 0.184023 0.000000
# 6 0.000000 0.000000 0.000000 0.008556 0.000000 0.053140
#
#
# Mechanical properties :
#
#
# Convention : Reuss Voigt Hill
#
# Bulk Modulus (GPa) = 2.90647 7.22894 5.06770
# Shear Modulus (GPa) = 12.30931 20.27592 16.29262
#
# Velocity S-wave (km/s) = 2.39177 3.06968 2.75168
# Velocity P-wave (km/s) = 2.99636 3.99042 3.52857
#
# Compressibility (1/GPa) = 0.34405992
#
# Stress axis : x y z
#
# Youngs Moduli (GPa) = 15.81428 16.64366 23.89812
#
# Poissons Ratio (x) = -0.49603 -0.72078
# Poissons Ratio (y) = -0.47131 -0.70466
# Poissons Ratio (z) = -0.47697 -0.49076
#
# Static dielectric constant tensor:
#      x y z
#    x 1.791280 0.000000 0.036650 
#    y 0.000000 1.795880 0.000000 
#    z 0.036650 0.000000 1.854210 
# 
# From -- ./inp_files/65862.got.cif
#   From: 2010.05.17/outbox.cif.g08.bks.cpg/sg14_33_cif.got.tgz:65862.got - 2010.06.03 17:49:19.
