data_PCOD9240002
_publ_section_title
;
Structure prediction by ZEFSAII (Michael W. Deem and Ramdas Pophale) SiO2 
 PCOD9240002
Probable space group: P 21/C
;
_chemical_formula_sum "Si O2"
_cell_formula_units_Z 24
_cell_length_a 12.893817
_cell_length_b 12.480344
_cell_length_c 17.129103
_cell_angle_alpha 90.000000
_cell_angle_beta 28.980001
_cell_angle_gamma 90.000000
_cell_volume 1335.489016
_symmetry_space_group_name_H-M "P 21/C"
_symmetry_group_IT_number 14
_symmetry_cell_setting 'monoclinic'
loop_
_space_group_symop_operation_xyz
x,y,z
-x,1/2+y,1/2-z
-x,-y,-z
x,1/2-y,1/2+z
loop_
_atom_site_type_symbol
_atom_site_label
_atom_site_fract_x
_atom_site_fract_y
_atom_site_fract_z
Si Si1 0.523754 0.627666 0.467587
Si Si2 0.280068 0.144429 0.004103
Si Si3 0.732232 0.222089 0.630538
Si Si4 0.916724 0.204877 0.679222
Si Si5 0.428423 0.914561 0.861205
Si Si6 0.136803 0.999135 0.490323
O O1 0.500000 0.500000 0.500000
O O2 0.696360 0.662022 0.418287
O O3 0.311300 0.693305 0.629583
O O4 0.544114 0.635525 0.361575
O O5 0.495953 0.188983 0.819178
O O6 0.290084 0.017357 0.979158
O O7 0.075827 0.206820 0.107432
O O8 0.873687 0.228984 0.615987
O O9 0.706369 0.328492 0.597573
O O10 0.829004 0.125638 0.514668
O O11 0.018078 0.085597 0.621370
O O12 0.625910 0.956120 0.679946
O O13 0.000000 0.000000 0.500000
#
# Coordination Sequence:
#
# PCOD9240002 Si02
#       6
#     4   4   4   4   4   4
#     4   9  19  35  52  74 104 134 172 211 247 300
#     4   9  18  33  53  74 103 138 164 210 257 301
#     4   9  18  31  52  78  99 130 173 214 248 294
#     4  10  18  34  53  76 101 136 170 204 263 303
#     4  10  18  34  52  77 106 128 170 216 251 293
#     4   9  17  31  54  75  95 132 177 208 240 303
#
# _framework density 17.970945
#
# number of rings (size 3 to 8) (size 9 to 14) (size 15 to 20)
#    0.000    2.667    1.667    3.000    0.000    0.667 
#   12.000    0.000    0.000    1.000    0.000    0.000 
#    0.000    0.000    0.000    0.000    0.000    0.000 
#
# Total GULP energy -133637.710508 kJ/mol
# GULP energy per Si atom -5568.237938 kJ/mol
# Density = 1.793004 g / cm^3
# Si number density = 17.970945 Si / 1000 Ang^3
#
#
#
# Elastic Constant Matrix: (Units=GPa)
#
#
# Indices 1 2 3 4 5 6 
#
# 1 91.8899 55.6197 22.0323 0.0000 -16.3375 0.0000
# 2 55.6197 99.1433 27.5421 0.0000 -22.9126 0.0000
# 3 22.0323 27.5421 27.3379 0.0000 -14.1997 0.0000
# 4 0.0000 0.0000 0.0000 27.8386 0.0000 -11.3232
# 5 -16.3375 -22.9126 -14.1997 0.0000 22.7160 0.0000
# 6 0.0000 0.0000 0.0000 -11.3232 0.0000 31.2510
#
#
#
# Elastic Compliance Matrix: (Units=1/GPa)
#
#
# Indices 1 2 3 4 5 6 
#
# 1 0.017113 -0.007887 -0.005309 0.000000 0.001034 0.000000
# 2 -0.007887 0.018657 -0.008310 0.000000 0.007952 0.000000
# 3 -0.005309 -0.008310 0.063516 0.000000 0.027503 0.000000
# 4 0.000000 0.000000 0.000000 0.042130 0.000000 0.015265
# 5 0.001034 0.007952 0.027503 0.000000 0.069978 0.000000
# 6 0.000000 0.000000 0.000000 0.015265 0.000000 0.037530
#
#
# Mechanical properties :
#
#
# Convention : Reuss Voigt Hill
#
# Bulk Modulus (GPa) = 17.77019 47.63991 32.70505
# Shear Modulus (GPa) = 16.09299 23.90625 19.99962
#
# Velocity S-wave (km/s) = 2.99574 3.65125 3.33961
# Velocity P-wave (km/s) = 4.67715 6.65901 5.75405
#
# Compressibility (1/GPa) = 0.05627402
#
# Stress axis : x y z
#
# Youngs Moduli (GPa) = 58.43480 53.59892 15.74417
#
# Poissons Ratio (x) = 0.42271 0.08359
# Poissons Ratio (y) = 0.46085 0.13084
# Poissons Ratio (z) = 0.31024 0.44541
#
# Static dielectric constant tensor:
#      x y z
#    x 1.617760 0.000000 0.017070 
#    y 0.000000 1.586370 0.000000 
#    z 0.017070 0.000000 1.646270 
# 
# From -- ./inp_files/24095.got.cif
#   From: 2010.05.17/outbox.cif.g08.bks.cpg/sg14_13_cif.got.tgz:24095.got - 2010.06.03 17:49:19.
