data_PCOD9240630
_publ_section_title
;
Structure prediction by ZEFSAII (Michael W. Deem and Ramdas Pophale) SiO2 
 PCOD9240630
Probable space group: P 21/C
;
_chemical_formula_sum "Si O2"
_cell_formula_units_Z 28
_cell_length_a 24.799391
_cell_length_b 5.456346
_cell_length_c 16.105345
_cell_angle_alpha 90.000000
_cell_angle_beta 146.778386
_cell_angle_gamma 90.000000
_cell_volume 1193.981175
_symmetry_space_group_name_H-M "P 21/C"
_symmetry_group_IT_number 14
_symmetry_cell_setting 'monoclinic'
loop_
_space_group_symop_operation_xyz
x,y,z
-x,1/2+y,1/2-z
-x,-y,-z
x,1/2-y,1/2+z
loop_
_atom_site_type_symbol
_atom_site_label
_atom_site_fract_x
_atom_site_fract_y
_atom_site_fract_z
Si Si1 0.001080 0.798109 0.301944
Si Si2 0.784061 0.732697 0.030839
Si Si3 0.293916 0.601027 0.844009
Si Si4 0.515657 0.025950 0.119347
Si Si5 0.782561 0.267215 0.423190
Si Si6 0.517619 0.975401 0.621899
Si Si7 0.294362 0.101049 0.901442
O O1 0.108735 0.758614 0.479024
O O2 0.001652 0.581620 0.232065
O O3 0.897575 0.741530 0.211932
O O4 0.771759 0.474921 0.966329
O O5 0.717247 0.781184 0.024045
O O6 0.778050 0.972560 0.964269
O O7 0.292223 0.712913 0.749438
O O8 0.407569 0.552459 0.015734
O O9 0.252071 0.323634 0.789757
O O10 0.249956 0.825474 0.840635
O O11 0.567048 0.274977 0.212873
O O12 0.407006 0.051309 0.018276
O O13 0.568801 0.776017 0.209515
O O14 0.500000 0.000000 0.000000
O O15 0.500000 0.000000 0.500000
#
# Coordination Sequence:
#
# PCOD9240630 Si02
#       7
#     4   4   4   4   4   4   4
#     4   8  16  30  48  66  90 130 172 198 238 310
#     4  10  19  33  51  71  97 132 169 207 251 301
#     4  10  19  31  48  74 101 125 162 209 249 293
#     4   8  14  25  42  65  89 117 151 189 225 276
#     4  10  19  33  51  71  97 132 169 207 251 301
#     4   8  14  25  42  65  89 117 151 189 225 276
#     4  10  19  31  48  74 101 125 162 209 249 293
#
# _framework density 23.450955
#
# number of rings (size 3 to 8) (size 9 to 14) (size 15 to 20)
#    0.000    2.857    0.000    1.714    0.000    0.000 
#    0.000    1.429    0.000    0.000    0.000   64.000 
#    0.000    0.000    0.000    0.000    0.000    0.000 
#
# Total GULP energy -155918.230381 kJ/mol
# GULP energy per Si atom -5568.508228 kJ/mol
# Density = 2.339758 g / cm^3
# Si number density = 23.450955 Si / 1000 Ang^3
#
#
#
# Elastic Constant Matrix: (Units=GPa)
#
#
# Indices 1 2 3 4 5 6 
#
# 1 89.7460 18.4479 31.1939 0.0000 -1.2212 0.0000
# 2 18.4479 261.5038 17.3616 0.0000 1.6615 0.0000
# 3 31.1939 17.3616 50.2009 0.0000 15.2278 0.0000
# 4 0.0000 0.0000 0.0000 21.1823 0.0000 1.1215
# 5 -1.2212 1.6615 15.2278 0.0000 16.2397 0.0000
# 6 0.0000 0.0000 0.0000 1.1215 0.0000 27.5611
#
#
#
# Elastic Compliance Matrix: (Units=1/GPa)
#
#
# Indices 1 2 3 4 5 6 
#
# 1 0.016538 -0.000283 -0.014764 0.000000 0.015117 0.000000
# 2 -0.000283 0.003936 -0.001477 0.000000 0.000961 0.000000
# 3 -0.014764 -0.001477 0.041780 0.000000 -0.040135 0.000000
# 4 0.000000 0.000000 0.000000 0.047311 0.000000 -0.001925
# 5 0.015117 0.000961 -0.040135 0.000000 0.100250 0.000000
# 6 0.000000 0.000000 0.000000 -0.001925 0.000000 0.036361
#
#
# Mechanical properties :
#
#
# Convention : Reuss Voigt Hill
#
# Bulk Modulus (GPa) = 34.23996 59.49527 46.86761
# Shear Modulus (GPa) = 17.30346 35.29312 26.29829
#
# Velocity S-wave (km/s) = 2.71930 3.88361 3.35239
# Velocity P-wave (km/s) = 4.94892 6.74797 5.91722
#
# Compressibility (1/GPa) = 0.02920564
#
# Stress axis : x y z
#
# Youngs Moduli (GPa) = 60.46654 254.06926 23.93513
#
# Poissons Ratio (x) = 0.07178 0.35338
# Poissons Ratio (y) = 0.01708 0.03536
# Poissons Ratio (z) = 0.89274 0.37532
#
# Static dielectric constant tensor:
#      x y z
#    x 1.878970 0.000000 0.001790 
#    y 0.000000 2.060200 0.000000 
#    z 0.001790 0.000000 1.850540 
# 
# From -- ./inp_files/47841.got.cif
#   From: 2010.05.17/outbox.cif.g08.bks.cpg/sg14_24_cif.got.tgz:47841.got - 2010.06.03 17:49:19.
