data_PCOD9240536
_publ_section_title
;
Structure prediction by ZEFSAII (Michael W. Deem and Ramdas Pophale) SiO2 
 PCOD9240536
Probable space group: P 21/C
;
_chemical_formula_sum "Si O2"
_cell_formula_units_Z 24
_cell_length_a 10.326466
_cell_length_b 9.725496
_cell_length_c 17.461390
_cell_angle_alpha 90.000000
_cell_angle_beta 135.225068
_cell_angle_gamma 90.000000
_cell_volume 1235.135456
_symmetry_space_group_name_H-M "P 21/C"
_symmetry_group_IT_number 14
_symmetry_cell_setting 'monoclinic'
loop_
_space_group_symop_operation_xyz
x,y,z
-x,1/2+y,1/2-z
-x,-y,-z
x,1/2-y,1/2+z
loop_
_atom_site_type_symbol
_atom_site_label
_atom_site_fract_x
_atom_site_fract_y
_atom_site_fract_z
Si Si1 0.271130 0.596252 0.230487
Si Si2 0.993116 0.333634 0.332082
Si Si3 0.656850 0.802013 0.918788
Si Si4 0.020306 0.347698 0.162640
Si Si5 0.204803 0.994247 0.546854
Si Si6 0.121336 0.071729 0.117404
O O1 0.100780 0.696374 0.175559
O O2 0.448833 0.654468 0.348363
O O3 0.199242 0.445029 0.223881
O O4 0.307713 0.593555 0.154619
O O5 0.868779 0.458543 0.311983
O O6 0.195488 0.347105 0.454695
O O7 0.002126 0.326427 0.245011
O O8 0.697606 0.640421 0.922705
O O9 0.707630 0.877825 0.860549
O O10 0.039298 0.207774 0.122368
O O11 0.841231 0.423742 0.052746
O O12 0.000000 0.000000 0.500000
O O13 0.000000 0.000000 0.000000
#
# Coordination Sequence:
#
# PCOD9240536 Si02
#       6
#     4   4   4   4   4   4
#     4  11  23  40  69  93 124 176 214 262 326 383
#     4  11  23  40  65  96 132 167 217 268 326 392
#     4  11  22  40  65  95 128 160 224 268 311 388
#     4  11  21  42  67  88 131 177 203 264 339 381
#     4  10  18  41  66  87 119 175 212 254 323 385
#     4  10  21  37  62  97 122 166 222 265 306 380
#
# _framework density 19.431066000000001
#
# number of rings (size 3 to 8) (size 9 to 14) (size 15 to 20)
#    0.000    1.333    6.667    2.000    2.333    0.667 
#    0.000    2.500    0.000    0.000    0.000    0.000 
#    0.000    0.000    0.000    0.000    0.000    0.000 
#
# Total GULP energy -133745.303032 kJ/mol
# GULP energy per Si atom -5572.720960 kJ/mol
# Density = 1.938684 g / cm^3
# Si number density = 19.431066 Si / 1000 Ang^3
#
#
#
# Elastic Constant Matrix: (Units=GPa)
#
#
# Indices 1 2 3 4 5 6 
#
# 1 55.4856 35.1901 49.4581 0.0000 -18.2449 0.0000
# 2 35.1901 108.6744 38.1368 0.0000 -5.8521 0.0000
# 3 49.4581 38.1368 115.9797 0.0000 -13.7313 0.0000
# 4 0.0000 0.0000 0.0000 16.1344 0.0000 -4.6588
# 5 -18.2449 -5.8521 -13.7313 0.0000 23.8506 0.0000
# 6 0.0000 0.0000 0.0000 -4.6588 0.0000 -9.6812
#
#
#
# Elastic Compliance Matrix: (Units=1/GPa)
#
#
# Indices 1 2 3 4 5 6 
#
# 1 0.041586 -0.007872 -0.012457 0.000000 0.022709 0.000000
# 2 -0.007872 0.011901 -0.000991 0.000000 -0.003672 0.000000
# 3 -0.012457 -0.000991 0.014062 0.000000 -0.001677 0.000000
# 4 0.000000 0.000000 0.000000 0.054418 0.000000 -0.026187
# 5 0.022709 -0.003672 -0.001677 0.000000 0.057433 0.000000
# 6 0.000000 0.000000 0.000000 -0.026187 0.000000 -0.090691
#
#
# Mechanical properties :
#
#
# Convention : Reuss Voigt Hill
#
# Bulk Modulus (GPa) = 40.14638 58.41220 49.27929
# Shear Modulus (GPa) = 35.80365 16.55107 26.17736
#
# Velocity S-wave (km/s) = 4.29721 2.92170 3.67439
# Velocity P-wave (km/s) = 6.73254 6.44269 6.58921
#
# Compressibility (1/GPa) = 0.02490885
#
# Stress axis : x y z
#
# Youngs Moduli (GPa) = 24.04663 84.02745 71.11514
#
# Poissons Ratio (x) = 0.66144 0.88587
# Poissons Ratio (y) = 0.18929 0.07049
# Poissons Ratio (z) = 0.29954 0.08329
#
# Static dielectric constant tensor:
#      x y z
#    x 1.690620 0.000000 0.011340 
#    y 0.000000 1.726040 0.000000 
#    z 0.011340 0.000000 1.763450 
# 
# From -- ./inp_files/66924.got.cif
#   From: 2010.05.17/outbox.cif.g08.bks.cpg/sg14_34_cif.got.tgz:66924.got - 2010.06.03 17:49:19.
