data_PCOD9240986
_publ_section_title
;
Structure prediction by ZEFSAII (Michael W. Deem and Ramdas Pophale) SiO2 
 PCOD9240986
Probable space group: P 21/C
;
_chemical_formula_sum "Si O2"
_cell_formula_units_Z 32
_cell_length_a 15.211620
_cell_length_b 5.500994
_cell_length_c 15.636496
_cell_angle_alpha 90.000000
_cell_angle_beta 95.208099
_cell_angle_gamma 90.000000
_cell_volume 1303.045002
_symmetry_space_group_name_H-M "P 21/C"
_symmetry_group_IT_number 14
_symmetry_cell_setting 'monoclinic'
loop_
_space_group_symop_operation_xyz
x,y,z
-x,1/2+y,1/2-z
-x,-y,-z
x,1/2-y,1/2+z
loop_
_atom_site_type_symbol
_atom_site_label
_atom_site_fract_x
_atom_site_fract_y
_atom_site_fract_z
Si Si1 0.926566 0.499868 0.211273
Si Si2 0.321396 0.073990 0.939186
Si Si3 0.074618 0.999653 0.580400
Si Si4 0.920185 0.499557 0.654831
Si Si5 0.375460 0.065472 0.754352
Si Si6 0.854077 0.999571 0.968315
Si Si7 0.582859 0.066978 0.766768
Si Si8 0.586712 0.424650 0.058061
O O1 0.012631 0.500360 0.157312
O O2 0.978493 0.500086 0.304162
O O3 0.877809 0.250180 0.185718
O O4 0.878505 0.749793 0.185389
O O5 0.318043 0.060365 0.834920
O O6 0.235925 0.011857 0.985871
O O7 0.347371 0.353612 0.958302
O O8 0.387443 0.849729 0.965004
O O9 0.133049 0.756451 0.577413
O O10 0.131982 0.244563 0.578440
O O11 0.000000 0.000000 0.500000
O O12 0.922396 0.498878 0.553916
O O13 0.481336 0.067542 0.789137
O O14 0.367433 0.319706 0.704479
O O15 0.368180 0.813902 0.703131
O O16 0.578522 0.069583 0.661632
O O17 0.500000 0.500000 0.000000
#
# Coordination Sequence:
#
# PCOD9240986 Si02
#       8
#     4   4   4   4   4   4   4   4
#     4  10  20  33  54  80 110 135 191 237 272 314
#     4  10  21  34  52  78 108 139 174 222 275 325
#     4  12  21  35  56  86 108 148 196 239 268 325
#     4  10  19  34  53  81 105 144 180 235 280 325
#     4   8  14  27  45  69  95 117 160 203 248 297
#     4  12  22  35  57  80 114 149 187 233 287 331
#     4   8  14  25  47  73  90 118 159 208 244 290
#     4  10  19  34  55  80 103 139 178 217 263 328
#
# _framework density 24.557863999999999
#
# number of rings (size 3 to 8) (size 9 to 14) (size 15 to 20)
#    0.000    2.000    2.500    2.250    0.000    0.000 
#    0.000    0.000    5.500    0.000    0.000    0.000 
#    0.000    0.000    0.000    0.000    0.000    0.000 
#
# Total GULP energy -178711.776812 kJ/mol
# GULP energy per Si atom -5584.743025 kJ/mol
# Density = 2.450197 g / cm^3
# Si number density = 24.557864 Si / 1000 Ang^3
#
#
#
# Elastic Constant Matrix: (Units=GPa)
#
#
# Indices 1 2 3 4 5 6 
#
# 1 65.8469 15.5913 18.4159 0.0000 -33.7884 0.0000
# 2 15.5913 227.8517 -1.8509 0.0000 -6.7812 0.0000
# 3 18.4159 -1.8509 39.5163 0.0000 -10.6450 0.0000
# 4 0.0000 0.0000 0.0000 23.7991 0.0000 -9.1133
# 5 -33.7884 -6.7812 -10.6450 0.0000 22.5736 0.0000
# 6 0.0000 0.0000 0.0000 -9.1133 0.0000 26.0109
#
#
#
# Elastic Compliance Matrix: (Units=1/GPa)
#
#
# Indices 1 2 3 4 5 6 
#
# 1 0.066918 -0.001726 -0.005068 0.000000 0.097256 0.000000
# 2 -0.001726 0.004487 0.000781 0.000000 -0.000867 0.000000
# 3 -0.005068 0.000781 0.029467 0.000000 0.006545 0.000000
# 4 0.000000 0.000000 0.000000 0.048529 0.000000 0.017003
# 5 0.097256 -0.000867 0.006545 0.000000 0.192700 0.000000
# 6 0.000000 0.000000 0.000000 0.017003 0.000000 0.044403
#
#
# Mechanical properties :
#
#
# Convention : Reuss Voigt Hill
#
# Bulk Modulus (GPa) = 11.25520 44.16973 27.71246
# Shear Modulus (GPa) = 11.67825 34.54728 23.11276
#
# Velocity S-wave (km/s) = 2.18305 3.75476 3.07115
# Velocity P-wave (km/s) = 3.30868 6.06817 4.88723
#
# Compressibility (1/GPa) = 0.08884784
#
# Stress axis : x y z
#
# Youngs Moduli (GPa) = 14.94359 222.84355 33.93577
#
# Poissons Ratio (x) = 0.38456 0.17198
# Poissons Ratio (y) = 0.02579 -0.02650
# Poissons Ratio (z) = 0.07573 -0.17403
#
# Static dielectric constant tensor:
#      x y z
#    x 1.985300 0.000000 0.058030 
#    y 0.000000 2.108920 0.000000 
#    z 0.058030 0.000000 2.063520 
# 
# From -- ./inp_files/58610.got.cif
#   From: 2010.05.17/outbox.cif.g08.bks.cpg/sg14_30_cif.got.tgz:58610.got - 2010.06.03 17:49:19.
