data_PCOD9240724
_publ_section_title
;
Structure prediction by ZEFSAII (Michael W. Deem and Ramdas Pophale) SiO2 
 PCOD9240724
Probable space group: P 21/C
;
_chemical_formula_sum "Si O2"
_cell_formula_units_Z 32
_cell_length_a 16.200520
_cell_length_b 14.954228
_cell_length_c 16.014209
_cell_angle_alpha 90.000000
_cell_angle_beta 19.393295
_cell_angle_gamma 90.000000
_cell_volume 1288.258183
_symmetry_space_group_name_H-M "P 21/C"
_symmetry_group_IT_number 14
_symmetry_cell_setting 'monoclinic'
loop_
_space_group_symop_operation_xyz
x,y,z
-x,1/2+y,1/2-z
-x,-y,-z
x,1/2-y,1/2+z
loop_
_atom_site_type_symbol
_atom_site_label
_atom_site_fract_x
_atom_site_fract_y
_atom_site_fract_z
Si Si1 0.217372 0.069528 0.805895
Si Si2 0.114023 0.797955 0.543271
Si Si3 0.399729 0.188926 0.999861
Si Si4 0.774744 0.223674 0.375419
Si Si5 0.768867 0.729825 0.165798
Si Si6 0.343858 0.519673 0.020882
Si Si7 0.909914 0.512389 0.911503
Si Si8 0.549596 0.489874 0.551582
O O1 0.165937 0.173210 0.856273
O O2 0.364538 0.048032 0.752247
O O3 0.354082 0.050820 0.586945
O O4 0.000000 0.000000 0.000000
O O5 0.231423 0.773923 0.519269
O O6 0.076223 0.905994 0.578724
O O7 0.832575 0.760160 0.818582
O O8 0.320460 0.771978 0.275713
O O9 0.275698 0.171700 0.208882
O O10 0.439685 0.091200 0.922329
O O11 0.510231 0.260655 0.600464
O O12 0.781391 0.117521 0.343722
O O13 0.009549 0.274864 0.111937
O O14 0.202494 0.483051 0.074707
O O15 0.184394 0.547586 0.673023
O O16 0.693719 0.553920 0.175555
O O17 0.500000 0.500000 0.500000
#
# Coordination Sequence:
#
# PCOD9240724 Si02
#       8
#     4   4   4   4   4   4   4   4
#     4  10  19  32  52  79 116 150 178 219 270 328
#     4   9  18  34  55  78 104 134 182 230 266 315
#     4  10  20  35  55  80 105 141 181 226 274 331
#     4  10  19  33  55  81 104 140 186 227 264 316
#     4  11  21  33  54  80 109 146 179 220 272 333
#     4   9  19  32  51  82 112 142 186 223 265 324
#     4   9  19  32  57  83 104 136 180 231 274 323
#     4  10  20  36  58  81 104 138 183 237 285 325
#
# _framework density 24.839739999999999
#
# number of rings (size 3 to 8) (size 9 to 14) (size 15 to 20)
#    0.000    2.250    1.250    1.875    1.750    3.000 
#    0.000    0.000    8.250    0.000    0.000    0.000 
#    0.000    0.000    0.000    0.000    0.000    0.000 
#
# Total GULP energy -178213.804306 kJ/mol
# GULP energy per Si atom -5569.181385 kJ/mol
# Density = 2.478320 g / cm^3
# Si number density = 24.839740 Si / 1000 Ang^3
#
#
#
# Elastic Constant Matrix: (Units=GPa)
#
#
# Indices 1 2 3 4 5 6 
#
# 1 117.6845 -1.8836 33.2005 0.0000 -13.3082 0.0000
# 2 -1.8836 46.8465 19.1228 0.0000 -15.3701 0.0000
# 3 33.2005 19.1228 179.9384 0.0000 -18.9041 0.0000
# 4 0.0000 0.0000 0.0000 33.6491 0.0000 3.5833
# 5 -13.3082 -15.3701 -18.9041 0.0000 68.1684 0.0000
# 6 0.0000 0.0000 0.0000 3.5833 0.0000 21.9333
#
#
#
# Elastic Compliance Matrix: (Units=1/GPa)
#
#
# Indices 1 2 3 4 5 6 
#
# 1 0.009191 0.001614 -0.001690 0.000000 0.001690 0.000000
# 2 0.001614 0.024027 -0.002316 0.000000 0.005090 0.000000
# 3 -0.001690 -0.002316 0.006207 0.000000 0.000869 0.000000
# 4 0.000000 0.000000 0.000000 0.030245 0.000000 -0.004941
# 5 0.001690 0.005090 0.000869 0.000000 0.016388 0.000000
# 6 0.000000 0.000000 0.000000 -0.004941 0.000000 0.046400
#
#
# Mechanical properties :
#
#
# Convention : Reuss Voigt Hill
#
# Bulk Modulus (GPa) = 28.86897 49.48320 39.17609
# Shear Modulus (GPa) = 33.60471 44.35215 38.97843
#
# Velocity S-wave (km/s) = 3.68212 4.23014 3.96561
# Velocity P-wave (km/s) = 5.45203 6.61989 6.06414
#
# Compressibility (1/GPa) = 0.03463927
#
# Stress axis : x y z
#
# Youngs Moduli (GPa) = 108.80331 41.62025 161.11582
#
# Poissons Ratio (x) = -0.06716 0.27225
# Poissons Ratio (y) = -0.17557 0.37321
# Poissons Ratio (z) = 0.18386 0.09641
#
# Static dielectric constant tensor:
#      x y z
#    x 2.462980 0.000000 -0.230620 
#    y 0.000000 2.064460 0.000000 
#    z -0.230620 0.000000 2.258440 
# 
# From -- ./inp_files/47699.got.cif
#   From: 2010.05.17/outbox.cif.g08.bks.cpg/sg14_24_cif.got.tgz:47699.got - 2010.06.03 17:49:19.
