data_PCOD9240224
_publ_section_title
;
Structure prediction by ZEFSAII (Michael W. Deem and Ramdas Pophale) SiO2 
 PCOD9240224
Probable space group: P 21/C
;
_chemical_formula_sum "Si O2"
_cell_formula_units_Z 22
_cell_length_a 10.576912
_cell_length_b 7.807102
_cell_length_c 15.042089
_cell_angle_alpha 90.000000
_cell_angle_beta 39.029839
_cell_angle_gamma 90.000000
_cell_volume 782.182072
_symmetry_space_group_name_H-M "P 21/C"
_symmetry_group_IT_number 14
_symmetry_cell_setting 'monoclinic'
loop_
_space_group_symop_operation_xyz
x,y,z
-x,1/2+y,1/2-z
-x,-y,-z
x,1/2-y,1/2+z
loop_
_atom_site_type_symbol
_atom_site_label
_atom_site_fract_x
_atom_site_fract_y
_atom_site_fract_z
Si Si1 0.670841 0.270881 0.722335
Si Si2 0.256830 0.193757 0.169677
Si Si3 0.283189 0.667720 0.600282
Si Si4 0.000000 0.000000 0.500000
Si Si5 0.241858 0.497324 0.035091
Si Si6 0.655643 0.870787 0.218475
O O1 0.682634 0.247568 0.821169
O O2 0.803606 0.119997 0.611543
O O3 0.450888 0.228724 0.802401
O O4 0.754272 0.450205 0.639194
O O5 0.249730 0.359546 0.111133
O O6 0.200956 0.245762 0.302053
O O7 0.188514 0.019693 0.159591
O O8 0.492611 0.145606 0.061001
O O9 0.170331 0.812589 0.606472
O O10 0.912669 0.924231 0.451683
O O11 0.471631 0.543704 0.878217
#
# Coordination Sequence:
#
# PCOD9240224 Si02
#       6
#     4   4   4   2   4   4
#     4  11  20  39  61  95 128 173 213 277 325 407
#     4  10  18  35  64 101 118 158 213 284 312 392
#     4  10  19  34  67  94 122 162 221 258 334 385
#     4  10  26  40  62  88 144 174 214 270 348 386
#     4  10  19  42  60  89 130 171 206 280 320 391
#     4  10  19  34  65  93 126 163 225 266 328 380
#
# _framework density 28.126441
#
# number of rings (size 3 to 8) (size 9 to 14) (size 15 to 20)
#    0.000    1.818    3.636    2.182    0.000    1.455 
#    3.273    0.909    4.000    0.000    0.000    0.000 
#    0.000    0.000    0.000    0.000    0.000    0.000 
#
# Total GULP energy -122827.859163 kJ/mol
# GULP energy per Si atom -5583.084507 kJ/mol
# Density = 2.806242 g / cm^3
# Si number density = 28.126441 Si / 1000 Ang^3
#
#
#
# Elastic Constant Matrix: (Units=GPa)
#
#
# Indices 1 2 3 4 5 6 
#
# 1 143.3176 20.0769 -5.2204 0.0000 6.8987 0.0000
# 2 20.0769 158.6022 -18.9987 0.0000 -11.3433 0.0000
# 3 -5.2204 -18.9987 42.7871 0.0000 -8.2115 0.0000
# 4 0.0000 0.0000 0.0000 33.0688 0.0000 2.8184
# 5 6.8987 -11.3433 -8.2115 0.0000 33.4188 0.0000
# 6 0.0000 0.0000 0.0000 2.8184 0.0000 51.8148
#
#
#
# Elastic Compliance Matrix: (Units=1/GPa)
#
#
# Indices 1 2 3 4 5 6 
#
# 1 0.007213 -0.001035 0.000071 0.000000 -0.001823 0.000000
# 2 -0.001035 0.007136 0.003724 0.000000 0.003551 0.000000
# 3 0.000071 0.003724 0.026524 0.000000 0.007767 0.000000
# 4 0.000000 0.000000 0.000000 0.030381 0.000000 -0.001653
# 5 -0.001823 0.003551 0.007767 0.000000 0.033413 0.000000
# 6 0.000000 0.000000 0.000000 -0.001653 0.000000 0.019389
#
#
# Mechanical properties :
#
#
# Convention : Reuss Voigt Hill
#
# Bulk Modulus (GPa) = 21.55535 37.38028 29.46781
# Shear Modulus (GPa) = 37.31296 46.91709 42.11503
#
# Velocity S-wave (km/s) = 3.64622 4.08864 3.87375
# Velocity P-wave (km/s) = 5.04053 5.96727 5.52337
#
# Compressibility (1/GPa) = 0.04639220
#
# Stress axis : x y z
#
# Youngs Moduli (GPa) = 138.64215 140.13206 37.70138
#
# Poissons Ratio (x) = 0.14503 -0.00266
# Poissons Ratio (y) = 0.14349 -0.14039
# Poissons Ratio (z) = -0.00979 -0.52183
#
# Static dielectric constant tensor:
#      x y z
#    x 2.101600 0.000000 -0.051590 
#    y 0.000000 3.195190 0.000000 
#    z -0.051590 0.000000 2.287550 
# 
# From -- ./inp_files/56950.got.cif
#   From: 2010.05.17/outbox.cif.g08.bks.cpg/sg14_29_cif.got.tgz:56950.got - 2010.06.03 17:49:19.
