data_PCOD9240988
_publ_section_title
;
Structure prediction by ZEFSAII (Michael W. Deem and Ramdas Pophale) SiO2 
 PCOD9240988
Probable space group: P 21/C
;
_chemical_formula_sum "Si O2"
_cell_formula_units_Z 28
_cell_length_a 20.428579
_cell_length_b 9.596887
_cell_length_c 8.161598
_cell_angle_alpha 90.000000
_cell_angle_beta 126.681670
_cell_angle_gamma 90.000000
_cell_volume 1283.217064
_symmetry_space_group_name_H-M "P 21/C"
_symmetry_group_IT_number 14
_symmetry_cell_setting 'monoclinic'
loop_
_space_group_symop_operation_xyz
x,y,z
-x,1/2+y,1/2-z
-x,-y,-z
x,1/2-y,1/2+z
loop_
_atom_site_type_symbol
_atom_site_label
_atom_site_fract_x
_atom_site_fract_y
_atom_site_fract_z
Si Si1 0.846358 0.033856 0.761922
Si Si2 0.490099 0.115500 0.624343
Si Si3 0.918440 0.711265 0.539941
Si Si4 0.660340 0.456848 0.991720
Si Si5 0.097356 0.466153 0.163262
Si Si6 0.591544 0.186018 0.077839
Si Si7 0.109582 0.774977 0.865703
O O1 0.752834 0.998675 0.656276
O O2 0.850025 0.125902 0.603193
O O3 0.876599 0.142858 0.946188
O O4 0.901911 0.897674 0.867045
O O5 0.514267 0.258628 0.570193
O O6 0.500000 0.000000 0.500000
O O7 0.401305 0.083369 0.563083
O O8 0.555324 0.103986 0.869077
O O9 0.878247 0.860454 0.443326
O O10 0.890909 0.628384 0.657808
O O11 0.014054 0.741214 0.702721
O O12 0.644970 0.401511 0.784338
O O13 0.637763 0.323186 0.074751
O O14 0.136882 0.612983 0.267820
O O15 0.000000 0.500000 0.000000
#
# Coordination Sequence:
#
# PCOD9240988 Si02
#       7
#     4   4   4   4   4   4   4
#     4  11  22  34  55  83 113 144 184 243 287 327
#     4   9  18  33  57  83 110 146 184 221 266 335
#     4  10  20  36  55  76 104 143 189 232 280 337
#     4  10  19  34  53  83 114 141 184 234 283 331
#     4   9  19  34  53  74  98 132 180 233 272 328
#     4   9  18  34  58  81 110 150 185 219 271 345
#     4  10  20  35  53  76 105 146 190 228 279 341
#
# _framework density 21.820160999999999
#
# number of rings (size 3 to 8) (size 9 to 14) (size 15 to 20)
#    0.000    2.286    0.000    3.429    0.000    3.429 
#    0.000    2.857    0.000    3.429    0.000    0.000 
#    0.000    0.000    0.000    0.000    0.000    0.000 
#
# Total GULP energy -156203.483011 kJ/mol
# GULP energy per Si atom -5578.695822 kJ/mol
# Density = 2.177050 g / cm^3
# Si number density = 21.820161 Si / 1000 Ang^3
#
#
#
# Elastic Constant Matrix: (Units=GPa)
#
#
# Indices 1 2 3 4 5 6 
#
# 1 23.6022 1.7749 27.3562 0.0000 2.4184 0.0000
# 2 1.7749 93.4449 34.6070 0.0000 -9.2560 0.0000
# 3 27.3562 34.6070 85.6465 0.0000 -11.6651 0.0000
# 4 0.0000 0.0000 0.0000 36.4068 0.0000 -13.9062
# 5 2.4184 -9.2560 -11.6651 0.0000 36.3091 0.0000
# 6 0.0000 0.0000 0.0000 -13.9062 0.0000 27.6146
#
#
#
# Elastic Compliance Matrix: (Units=1/GPa)
#
#
# Indices 1 2 3 4 5 6 
#
# 1 0.077722 0.008352 -0.029924 0.000000 -0.012662 0.000000
# 2 0.008352 0.013577 -0.008113 0.000000 0.000298 0.000000
# 3 -0.029924 -0.008113 0.025623 0.000000 0.008157 0.000000
# 4 0.000000 0.000000 0.000000 0.034009 0.000000 0.017126
# 5 -0.012662 0.000298 0.008157 0.000000 0.031081 0.000000
# 6 0.000000 0.000000 0.000000 0.017126 0.000000 0.044837
#
#
# Mechanical properties :
#
#
# Convention : Reuss Voigt Hill
#
# Bulk Modulus (GPa) = 17.37574 36.68552 27.03063
# Shear Modulus (GPa) = 16.37169 29.32979 22.85074
#
# Velocity S-wave (km/s) = 2.74213 3.67026 3.23961
# Velocity P-wave (km/s) = 4.24337 5.90002 5.13889
#
# Compressibility (1/GPa) = 0.05755152
#
# Stress axis : x y z
#
# Youngs Moduli (GPa) = 12.86631 73.65362 39.02706
#
# Poissons Ratio (x) = -0.61515 1.16786
# Poissons Ratio (y) = -0.10746 0.31663
# Poissons Ratio (z) = 0.38502 0.59756
#
# Static dielectric constant tensor:
#      x y z
#    x 1.872290 0.000000 -0.072550 
#    y 0.000000 1.777530 0.000000 
#    z -0.072550 0.000000 1.836990 
# 
# From -- ./inp_files/18764.got.cif
#   From: 2010.05.17/outbox.cif.g08.bks.cpg/sg14_10_cif.got.tgz:18764.got - 2010.06.03 17:49:19.
