data_PCOD9240943
_publ_section_title
;
Structure prediction by ZEFSAII (Michael W. Deem and Ramdas Pophale) SiO2 
 PCOD9240943
Probable space group: P 21/C
;
_chemical_formula_sum "Si O2"
_cell_formula_units_Z 28
_cell_length_a 12.485074
_cell_length_b 13.056008
_cell_length_c 8.653032
_cell_angle_alpha 90.000000
_cell_angle_beta 51.562841
_cell_angle_gamma 90.000000
_cell_volume 1104.822904
_symmetry_space_group_name_H-M "P 21/C"
_symmetry_group_IT_number 14
_symmetry_cell_setting 'monoclinic'
loop_
_space_group_symop_operation_xyz
x,y,z
-x,1/2+y,1/2-z
-x,-y,-z
x,1/2-y,1/2+z
loop_
_atom_site_type_symbol
_atom_site_label
_atom_site_fract_x
_atom_site_fract_y
_atom_site_fract_z
Si Si1 0.584947 0.195885 0.227559
Si Si2 0.918715 0.876682 0.212131
Si Si3 0.379125 0.364557 0.438973
Si Si4 0.216210 0.741683 0.711444
Si Si5 0.691719 0.841846 0.638471
Si Si6 0.977196 0.162953 0.368951
Si Si7 0.837845 0.508246 0.474151
O O1 0.530317 0.315805 0.285851
O O2 0.687265 0.181984 0.276505
O O3 0.444032 0.133927 0.342522
O O4 0.674458 0.187407 0.995323
O O5 0.824416 0.893611 0.446644
O O6 0.923557 0.756495 0.172229
O O7 0.864192 0.942119 0.118802
O O8 0.077078 0.903726 0.098206
O O9 0.344443 0.360145 0.651851
O O10 0.297795 0.279773 0.408207
O O11 0.319606 0.470680 0.427806
O O12 0.107179 0.804507 0.708485
O O13 0.135529 0.663350 0.895073
O O14 0.072226 0.070032 0.234815
#
# Coordination Sequence:
#
# PCOD9240943 Si02
#       7
#     4   4   4   4   4   4   4
#     4   9  17  34  56  92 107 155 202 238 284 353
#     4  11  24  40  60  89 122 157 197 248 305 356
#     4  10  19  33  60  87 114 147 198 246 283 344
#     4  10  20  32  60  86 118 154 198 232 296 352
#     4  10  19  33  60  87 114 147 198 246 283 344
#     4  11  21  38  60  88 117 157 194 240 296 361
#     4  11  24  40  60  89 122 157 197 248 305 356
#
# _framework density 25.343430000000001
#
# number of rings (size 3 to 8) (size 9 to 14) (size 15 to 20)
#    0.857    0.857    4.286    0.857    4.000    0.571 
#    0.000    0.000    0.000   10.286    0.000    0.000 
#    0.000    0.000    0.000    0.000    0.000    0.000 
#
# Total GULP energy -156399.770834 kJ/mol
# GULP energy per Si atom -5585.706101 kJ/mol
# Density = 2.528575 g / cm^3
# Si number density = 25.343430 Si / 1000 Ang^3
#
#
#
# Elastic Constant Matrix: (Units=GPa)
#
#
# Indices 1 2 3 4 5 6 
#
# 1 104.9157 7.4664 2.1651 0.0000 -0.9185 0.0000
# 2 7.4664 37.6298 4.0497 0.0000 -5.1282 0.0000
# 3 2.1651 4.0497 119.3764 0.0000 0.3060 0.0000
# 4 0.0000 0.0000 0.0000 17.9729 0.0000 -11.6268
# 5 -0.9185 -5.1282 0.3060 0.0000 46.8292 0.0000
# 6 0.0000 0.0000 0.0000 -11.6268 0.0000 24.7936
#
#
#
# Elastic Compliance Matrix: (Units=1/GPa)
#
#
# Indices 1 2 3 4 5 6 
#
# 1 0.009669 -0.001909 -0.000111 0.000000 -0.000019 0.000000
# 2 -0.001909 0.027456 -0.000904 0.000000 0.002975 0.000000
# 3 -0.000111 -0.000904 0.008410 0.000000 -0.000156 0.000000
# 4 0.000000 0.000000 0.000000 0.079869 0.000000 0.037454
# 5 -0.000019 0.002975 -0.000156 0.000000 0.021681 0.000000
# 6 0.000000 0.000000 0.000000 0.037454 0.000000 0.057897
#
#
# Mechanical properties :
#
#
# Convention : Reuss Voigt Hill
#
# Bulk Modulus (GPa) = 25.19700 32.14271 28.66985
# Shear Modulus (GPa) = 22.31553 34.46853 28.39203
#
# Velocity S-wave (km/s) = 2.97058 3.69190 3.35071
# Velocity P-wave (km/s) = 4.66150 5.55733 5.12901
#
# Compressibility (1/GPa) = 0.03968727
#
# Stress axis : x y z
#
# Youngs Moduli (GPa) = 103.41849 36.42148 118.90678
#
# Poissons Ratio (x) = 0.06954 0.01315
# Poissons Ratio (y) = 0.19745 0.10754
# Poissons Ratio (z) = 0.01143 0.03294
#
# Static dielectric constant tensor:
#      x y z
#    x 2.037870 0.000000 0.006560 
#    y 0.000000 2.083750 0.000000 
#    z 0.006560 0.000000 1.963560 
# 
# From -- ./inp_files/16185.got.cif
#   From: 2010.05.17/outbox.cif.g08.bks.cpg/sg14_9_cif.got.tgz:16185.got - 2010.06.03 17:49:19.
