data_PCOD9240232
_publ_section_title
;
Structure prediction by ZEFSAII (Michael W. Deem and Ramdas Pophale) SiO2 
 PCOD9240232
Probable space group: P 21/C
;
_chemical_formula_sum "Si O2"
_cell_formula_units_Z 24
_cell_length_a 23.147116
_cell_length_b 10.847955
_cell_length_c 13.843577
_cell_angle_alpha 90.000000
_cell_angle_beta 160.744626
_cell_angle_gamma 90.000000
_cell_volume 1146.347625
_symmetry_space_group_name_H-M "P 21/C"
_symmetry_group_IT_number 14
_symmetry_cell_setting 'monoclinic'
loop_
_space_group_symop_operation_xyz
x,y,z
-x,1/2+y,1/2-z
-x,-y,-z
x,1/2-y,1/2+z
loop_
_atom_site_type_symbol
_atom_site_label
_atom_site_fract_x
_atom_site_fract_y
_atom_site_fract_z
Si Si1 0.001495 0.731229 0.303970
Si Si2 0.359154 0.815790 0.305675
Si Si3 0.282353 0.089450 0.135265
Si Si4 0.463888 0.914625 0.849523
Si Si5 0.771775 0.750131 0.270631
Si Si6 0.836059 0.924543 0.700709
O O1 0.895952 0.623788 0.190719
O O2 0.207388 0.719415 0.641312
O O3 0.907032 0.856498 0.190606
O O4 0.951761 0.721434 0.112094
O O5 0.552739 0.842491 0.654136
O O6 0.372155 0.705830 0.249959
O O7 0.303793 0.944580 0.169243
O O8 0.301189 0.138534 0.276085
O O9 0.333816 0.990422 0.576405
O O10 0.638046 0.863104 0.072306
O O11 0.500000 0.000000 0.000000
O O12 0.800914 0.692896 0.212909
O O13 0.000000 0.000000 0.000000
#
# Coordination Sequence:
#
# PCOD9240232 Si02
#       6
#     4   4   4   4   4   4
#     4  10  21  39  66  93 131 175 213 283 335 396
#     4  10  18  35  65  90 123 177 216 266 335 390
#     4   8  19  38  59  93 125 173 224 259 336 409
#     4  11  22  44  68  94 135 174 223 285 339 395
#     4   9  21  42  62  95 134 174 221 277 330 406
#     4  12  23  41  67 102 131 176 232 270 341 418
#
# _framework density 20.936057000000002
#
# number of rings (size 3 to 8) (size 9 to 14) (size 15 to 20)
#    1.000    1.000    1.667    2.000    2.333    0.000 
#   18.000    0.000    0.000    3.000    0.000    0.000 
#    0.000    0.000    0.000    0.000    0.000    0.000 
#
# Total GULP energy -133731.465417 kJ/mol
# GULP energy per Si atom -5572.144392 kJ/mol
# Density = 2.088841 g / cm^3
# Si number density = 20.936057 Si / 1000 Ang^3
#
#
#
# Elastic Constant Matrix: (Units=GPa)
#
#
# Indices 1 2 3 4 5 6 
#
# 1 46.8218 32.3345 36.9523 0.0000 7.7692 0.0000
# 2 32.3345 66.9423 30.8548 0.0000 -3.3235 0.0000
# 3 36.9523 30.8548 91.7693 0.0000 17.2792 0.0000
# 4 0.0000 0.0000 0.0000 30.2868 0.0000 6.1122
# 5 7.7692 -3.3235 17.2792 0.0000 34.5516 0.0000
# 6 0.0000 0.0000 0.0000 6.1122 0.0000 28.4756
#
#
#
# Elastic Compliance Matrix: (Units=1/GPa)
#
#
# Indices 1 2 3 4 5 6 
#
# 1 0.040999 -0.015324 -0.010314 0.000000 -0.005535 0.000000
# 2 -0.015324 0.024279 -0.003402 0.000000 0.007482 0.000000
# 3 -0.010314 -0.003402 0.017463 0.000000 -0.006741 0.000000
# 4 0.000000 0.000000 0.000000 0.034513 0.000000 -0.007408
# 5 -0.005535 0.007482 -0.006741 0.000000 0.034278 0.000000
# 6 0.000000 0.000000 0.000000 -0.007408 0.000000 0.036708
#
#
# Mechanical properties :
#
#
# Convention : Reuss Voigt Hill
#
# Bulk Modulus (GPa) = 40.54945 45.09071 42.82008
# Shear Modulus (GPa) = 19.64331 25.68894 22.66613
#
# Velocity S-wave (km/s) = 3.06641 3.50668 3.29391
# Velocity P-wave (km/s) = 5.65221 6.16278 5.91301
#
# Compressibility (1/GPa) = 0.02466125
#
# Stress axis : x y z
#
# Youngs Moduli (GPa) = 24.39105 41.18733 57.26339
#
# Poissons Ratio (x) = 0.63115 0.59064
# Poissons Ratio (y) = 0.37376 0.19479
# Poissons Ratio (z) = 0.25158 0.14010
#
# Static dielectric constant tensor:
#      x y z
#    x 1.787030 0.000000 0.005400 
#    y 0.000000 1.757040 0.000000 
#    z 0.005400 0.000000 1.838270 
# 
# From -- ./inp_files/51486.got.cif
#   From: 2010.05.17/outbox.cif.g08.bks.cpg/sg14_26_cif.got.tgz:51486.got - 2010.06.03 17:49:19.
