data_PCOD9240890
_publ_section_title
;
Structure prediction by ZEFSAII (Michael W. Deem and Ramdas Pophale) SiO2 
 PCOD9240890
Probable space group: P 21/C
;
_chemical_formula_sum "Si O2"
_cell_formula_units_Z 28
_cell_length_a 5.384047
_cell_length_b 12.456515
_cell_length_c 20.977582
_cell_angle_alpha 90.000000
_cell_angle_beta 101.202919
_cell_angle_gamma 90.000000
_cell_volume 1380.084243
_symmetry_space_group_name_H-M "P 21/C"
_symmetry_group_IT_number 14
_symmetry_cell_setting 'monoclinic'
loop_
_space_group_symop_operation_xyz
x,y,z
-x,1/2+y,1/2-z
-x,-y,-z
x,1/2-y,1/2+z
loop_
_atom_site_type_symbol
_atom_site_label
_atom_site_fract_x
_atom_site_fract_y
_atom_site_fract_z
Si Si1 0.290245 0.833769 0.802076
Si Si2 0.977003 0.880963 0.576854
Si Si3 0.829843 0.774610 0.344779
Si Si4 0.411081 0.067127 0.767921
Si Si5 0.294271 0.423625 0.052701
Si Si6 0.665137 0.241610 0.336321
Si Si7 0.329275 0.026135 0.337335
O O1 0.573715 0.796515 0.835187
O O2 0.241465 0.777037 0.731358
O O3 0.073847 0.793460 0.838404
O O4 0.288387 0.960947 0.790542
O O5 0.727427 0.881852 0.520500
O O6 0.108988 0.770643 0.602048
O O7 0.929113 0.939497 0.642217
O O8 0.169627 0.958331 0.549375
O O9 0.772691 0.861656 0.285989
O O10 0.859196 0.839815 0.411597
O O11 0.520315 0.146654 0.826494
O O12 0.631214 0.026405 0.729550
O O13 0.549562 0.443103 0.105358
O O14 0.481033 0.139456 0.340023
#
# Coordination Sequence:
#
# PCOD9240890 Si02
#       7
#     4   4   4   4   4   4   4
#     4  10  22  37  57  83 117 150 196 230 285 359
#     4  10  19  33  56  82 114 145 192 239 289 354
#     4  10  22  38  57  85 113 153 190 236 288 345
#     4   9  20  37  54  82 118 152 187 242 294 343
#     4   9  20  34  53  83 111 150 190 239 297 333
#     4   9  20  33  50  84 110 145 187 232 291 344
#     4   9  18  34  51  80 111 146 189 234 287 356
#
# _framework density 20.288615
#
# number of rings (size 3 to 8) (size 9 to 14) (size 15 to 20)
#    0.000    2.571    0.000    1.286   12.000    2.286 
#    0.000    0.000    0.000    1.714    0.000    0.000 
#    0.000    0.000    0.000    0.000    0.000    0.000 
#
# Total GULP energy -156147.175761 kJ/mol
# GULP energy per Si atom -5576.684849 kJ/mol
# Density = 2.024244 g / cm^3
# Si number density = 20.288615 Si / 1000 Ang^3
#
#
#
# Elastic Constant Matrix: (Units=GPa)
#
#
# Indices 1 2 3 4 5 6 
#
# 1 69.0552 34.8478 22.1614 0.0000 -9.8037 0.0000
# 2 34.8478 117.9912 31.2577 0.0000 -2.4829 0.0000
# 3 22.1614 31.2577 65.0476 0.0000 -0.2339 0.0000
# 4 0.0000 0.0000 0.0000 22.7854 0.0000 5.5738
# 5 -9.8037 -2.4829 -0.2339 0.0000 15.2462 0.0000
# 6 0.0000 0.0000 0.0000 5.5738 0.0000 27.9300
#
#
#
# Elastic Compliance Matrix: (Units=1/GPa)
#
#
# Indices 1 2 3 4 5 6 
#
# 1 0.019886 -0.004397 -0.004619 0.000000 0.012000 0.000000
# 2 -0.004397 0.010719 -0.003657 0.000000 -0.001138 0.000000
# 3 -0.004619 -0.003657 0.018692 0.000000 -0.003279 0.000000
# 4 0.000000 0.000000 0.000000 0.046140 0.000000 -0.009208
# 5 0.012000 -0.001138 -0.003279 0.000000 0.073071 0.000000
# 6 0.000000 0.000000 0.000000 -0.009208 0.000000 0.037641
#
#
# Mechanical properties :
#
#
# Convention : Reuss Voigt Hill
#
# Bulk Modulus (GPa) = 41.75083 47.62531 44.68807
# Shear Modulus (GPa) = 20.87863 24.11412 22.49638
#
# Velocity S-wave (km/s) = 3.21141 3.45128 3.33350
# Velocity P-wave (km/s) = 5.86293 6.27747 6.07374
#
# Compressibility (1/GPa) = 0.02395162
#
# Stress axis : x y z
#
# Youngs Moduli (GPa) = 50.28634 93.29563 53.49759
#
# Poissons Ratio (x) = 0.41022 0.24711
# Poissons Ratio (y) = 0.22111 0.19563
# Poissons Ratio (z) = 0.23227 0.34116
#
# Static dielectric constant tensor:
#      x y z
#    x 1.846740 0.000000 0.024050 
#    y 0.000000 1.725870 0.000000 
#    z 0.024050 0.000000 1.742190 
# 
# From -- ./inp_files/63312.got.cif
#   From: 2010.05.17/outbox.cif.g08.bks.cpg/sg14_32_cif.got.tgz:63312.got - 2010.06.03 17:49:19.
