data_PCOD9240586
_publ_section_title
;
Structure prediction by ZEFSAII (Michael W. Deem and Ramdas Pophale) SiO2 
 PCOD9240586
Probable space group: P 21/C
;
_chemical_formula_sum "Si O2"
_cell_formula_units_Z 32
_cell_length_a 11.784145
_cell_length_b 6.933094
_cell_length_c 24.233311
_cell_angle_alpha 90.000000
_cell_angle_beta 35.379625
_cell_angle_gamma 90.000000
_cell_volume 1146.330732
_symmetry_space_group_name_H-M "P 21/C"
_symmetry_group_IT_number 14
_symmetry_cell_setting 'monoclinic'
loop_
_space_group_symop_operation_xyz
x,y,z
-x,1/2+y,1/2-z
-x,-y,-z
x,1/2-y,1/2+z
loop_
_atom_site_type_symbol
_atom_site_label
_atom_site_fract_x
_atom_site_fract_y
_atom_site_fract_z
Si Si1 0.116473 0.725423 0.005480
Si Si2 0.815007 0.246081 0.904816
Si Si3 0.639969 0.264016 0.866675
Si Si4 0.591408 0.224255 0.772193
Si Si5 0.748708 0.810448 0.309701
Si Si6 0.984825 0.312644 0.071685
Si Si7 0.692155 0.829934 0.217280
Si Si8 0.917414 0.795917 0.351948
O O1 0.121889 0.490880 0.998827
O O2 0.906646 0.785431 0.111691
O O3 0.243637 0.784461 0.008181
O O4 0.103583 0.793524 0.947168
O O5 0.646412 0.201146 0.927317
O O6 0.863598 0.476913 0.879958
O O7 0.024158 0.151613 0.802216
O O8 0.514751 0.189519 0.864521
O O9 0.630733 0.495859 0.870977
O O10 0.860765 0.218858 0.757592
O O11 0.784303 0.105345 0.678248
O O12 0.444421 0.208748 0.780304
O O13 0.665361 0.445330 0.742475
O O14 0.653192 0.728350 0.291819
O O15 0.787644 0.712733 0.353333
O O16 0.088091 0.214381 0.083525
#
# Coordination Sequence:
#
# PCOD9240586 Si02
#       8
#     4   4   4   4   4   4   4   4
#     4   9  17  29  46  68  92 116 142 174 214 260
#     4   8  13  23  40  61  84 108 136 172 212 251
#     4   8  14  24  39  60  83 107 138 176 213 249
#     4  10  19  30  45  65  89 116 147 181 217 257
#     4   8  14  24  39  60  83 107 138 176 213 249
#     4   9  17  29  46  68  92 116 142 174 214 260
#     4  10  19  30  45  65  89 116 147 181 217 257
#     4   8  13  23  40  61  84 108 136 172 212 251
#
# _framework density 27.915154999999999
#
# number of rings (size 3 to 8) (size 9 to 14) (size 15 to 20)
#    0.000    3.250    0.000    0.750    0.000    1.500 
#    0.000    0.000    0.000    1.500    0.000   10.500 
#    0.000    0.000    0.000    0.000    0.000    0.000 
#
# Total GULP energy -178531.865266 kJ/mol
# GULP energy per Si atom -5579.120790 kJ/mol
# Density = 2.785162 g / cm^3
# Si number density = 27.915155 Si / 1000 Ang^3
#
#
#
# Elastic Constant Matrix: (Units=GPa)
#
#
# Indices 1 2 3 4 5 6 
#
# 1 230.3977 15.6197 61.5538 0.0000 103.0567 0.0000
# 2 15.6197 89.0947 12.1075 0.0000 7.5123 0.0000
# 3 61.5538 12.1075 97.3493 0.0000 22.3577 0.0000
# 4 0.0000 0.0000 0.0000 14.4668 0.0000 -0.9178
# 5 103.0567 7.5123 22.3577 0.0000 72.5773 0.0000
# 6 0.0000 0.0000 0.0000 -0.9178 0.0000 17.4948
#
#
#
# Elastic Compliance Matrix: (Units=1/GPa)
#
#
# Indices 1 2 3 4 5 6 
#
# 1 0.013476 -0.000267 -0.004411 0.000000 -0.017749 0.000000
# 2 -0.000267 0.011466 -0.001153 0.000000 -0.000453 0.000000
# 3 -0.004411 -0.001153 0.012633 0.000000 0.002492 0.000000
# 4 0.000000 0.000000 0.000000 0.069355 0.000000 0.003639
# 5 -0.017749 -0.000453 0.002492 0.000000 0.038260 0.000000
# 6 0.000000 0.000000 0.000000 0.003639 0.000000 0.057351
#
#
# Mechanical properties :
#
#
# Convention : Reuss Voigt Hill
#
# Bulk Modulus (GPa) = 38.59266 66.15598 52.37432
# Shear Modulus (GPa) = 22.43764 42.74517 32.59140
#
# Velocity S-wave (km/s) = 2.83818 3.91737 3.42060
# Velocity P-wave (km/s) = 4.95937 6.64917 5.86544
#
# Compressibility (1/GPa) = 0.02591166
#
# Stress axis : x y z
#
# Youngs Moduli (GPa) = 74.20633 87.21680 79.15908
#
# Poissons Ratio (x) = 0.02324 0.34920
# Poissons Ratio (y) = 0.01978 0.09131
# Poissons Ratio (z) = 0.32735 0.10060
#
# Static dielectric constant tensor:
#      x y z
#    x 2.332050 0.000000 0.027960 
#    y 0.000000 2.245480 0.000000 
#    z 0.027960 0.000000 2.145830 
# 
# From -- ./inp_files/57443.got.cif
#   From: 2010.05.17/outbox.cif.g08.bks.cpg/sg14_29_cif.got.tgz:57443.got - 2010.06.03 17:49:19.
