data_PCOD9240925
_publ_section_title
;
Structure prediction by ZEFSAII (Michael W. Deem and Ramdas Pophale) SiO2 
 PCOD9240925
Probable space group: P 21/C
;
_chemical_formula_sum "Si O2"
_cell_formula_units_Z 20
_cell_length_a 15.937763
_cell_length_b 5.314041
_cell_length_c 18.239206
_cell_angle_alpha 90.000000
_cell_angle_beta 35.068997
_cell_angle_gamma 90.000000
_cell_volume 887.555345
_symmetry_space_group_name_H-M "P 21/C"
_symmetry_group_IT_number 14
_symmetry_cell_setting 'monoclinic'
loop_
_space_group_symop_operation_xyz
x,y,z
-x,1/2+y,1/2-z
-x,-y,-z
x,1/2-y,1/2+z
loop_
_atom_site_type_symbol
_atom_site_label
_atom_site_fract_x
_atom_site_fract_y
_atom_site_fract_z
Si Si1 0.910702 0.738235 0.478322
Si Si2 0.431180 0.956934 0.469070
Si Si3 0.423019 0.321541 0.279204
Si Si4 0.070104 0.235761 0.358068
Si Si5 0.656136 0.545057 0.428906
O O1 0.745361 0.667117 0.580108
O O2 0.919320 0.753906 0.561139
O O3 0.017153 0.515349 0.374871
O O4 0.955664 0.015415 0.419647
O O5 0.553471 0.883765 0.323494
O O6 0.317282 0.727833 0.555061
O O7 0.500000 0.000000 0.500000
O O8 0.364757 0.228791 0.498810
O O9 0.514932 0.542412 0.252085
O O10 0.220482 0.141826 0.214523
O O11 0.500000 0.500000 0.500000
#
# Coordination Sequence:
#
# PCOD9240925 Si02
#       5
#     4   4   4   4   4
#     4  10  21  37  58  89 126 163 206 254 318 373
#     4  10  21  37  62  90 119 156 209 262 303 359
#     4  12  25  42  65  93 130 169 208 260 324 391
#     4  10  20  35  61  92 122 158 207 269 309 358
#     4  10  19  33  58  90 120 149 198 258 312 357
#
# _framework density 22.533804
#
# number of rings (size 3 to 8) (size 9 to 14) (size 15 to 20)
#    0.000    1.600    0.000    6.000    0.000    9.600 
#    0.000    0.000    0.000   24.000    0.000    0.000 
#    0.000    0.000    0.000    0.000    0.000    0.000 
#
# Total GULP energy -111699.708961 kJ/mol
# GULP energy per Si atom -5584.985448 kJ/mol
# Density = 2.248252 g / cm^3
# Si number density = 22.533804 Si / 1000 Ang^3
#
#
#
# Elastic Constant Matrix: (Units=GPa)
#
#
# Indices 1 2 3 4 5 6 
#
# 1 33.9851 13.4350 23.8356 0.0000 2.1438 0.0000
# 2 13.4350 188.2089 37.6519 0.0000 -13.8711 0.0000
# 3 23.8356 37.6519 119.3751 0.0000 -19.7461 0.0000
# 4 0.0000 0.0000 0.0000 42.1227 0.0000 -2.4378
# 5 2.1438 -13.8711 -19.7461 0.0000 27.0102 0.0000
# 6 0.0000 0.0000 0.0000 -2.4378 0.0000 19.2022
#
#
#
# Elastic Compliance Matrix: (Units=1/GPa)
#
#
# Indices 1 2 3 4 5 6 
#
# 1 0.036618 -0.001659 -0.008429 0.000000 -0.009921 0.000000
# 2 -0.001659 0.005826 -0.001126 0.000000 0.002301 0.000000
# 3 -0.008429 -0.001126 0.011865 0.000000 0.008765 0.000000
# 4 0.000000 0.000000 0.000000 0.023916 0.000000 0.003036
# 5 -0.009921 0.002301 0.008765 0.000000 0.045400 0.000000
# 6 0.000000 0.000000 0.000000 0.003036 0.000000 0.052463
#
#
# Mechanical properties :
#
#
# Convention : Reuss Voigt Hill
#
# Bulk Modulus (GPa) = 31.36614 54.60155 42.98384
# Shear Modulus (GPa) = 23.90707 35.44345 29.67526
#
# Velocity S-wave (km/s) = 3.26074 3.97028 3.63288
# Velocity P-wave (km/s) = 5.30343 6.73061 6.05919
#
# Compressibility (1/GPa) = 0.03188152
#
# Stress axis : x y z
#
# Youngs Moduli (GPa) = 27.30886 171.63053 84.28169
#
# Poissons Ratio (x) = 0.28470 0.71044
# Poissons Ratio (y) = 0.04530 0.09490
# Poissons Ratio (z) = 0.23020 0.19325
#
# Static dielectric constant tensor:
#      x y z
#    x 2.021670 0.000000 0.014470 
#    y 0.000000 1.808360 0.000000 
#    z 0.014470 0.000000 1.824980 
# 
# From -- ./inp_files/59932.got.cif
#   From: 2010.05.17/outbox.cif.g08.bks.cpg/sg14_30_cif.got.tgz:59932.got - 2010.06.03 17:49:19.
