data_PCOD9240758
_publ_section_title
;
Structure prediction by ZEFSAII (Michael W. Deem and Ramdas Pophale) SiO2 
 PCOD9240758
Probable space group: P 21/C
;
_chemical_formula_sum "Si O2"
_cell_formula_units_Z 32
_cell_length_a 12.113493
_cell_length_b 11.610163
_cell_length_c 18.189098
_cell_angle_alpha 90.000000
_cell_angle_beta 131.483447
_cell_angle_gamma 90.000000
_cell_volume 1916.399235
_symmetry_space_group_name_H-M "P 21/C"
_symmetry_group_IT_number 14
_symmetry_cell_setting 'monoclinic'
loop_
_space_group_symop_operation_xyz
x,y,z
-x,1/2+y,1/2-z
-x,-y,-z
x,1/2-y,1/2+z
loop_
_atom_site_type_symbol
_atom_site_label
_atom_site_fract_x
_atom_site_fract_y
_atom_site_fract_z
Si Si1 0.424036 0.565954 0.859410
Si Si2 0.381201 0.289863 0.146328
Si Si3 0.608552 0.158615 0.999445
Si Si4 0.856104 0.725669 0.674678
Si Si5 0.616574 0.901870 0.976007
Si Si6 0.633848 0.800029 0.695923
Si Si7 0.822968 0.155532 0.637362
Si Si8 0.757952 0.929884 0.529313
O O1 0.465989 0.646246 0.808222
O O2 0.388856 0.437158 0.818084
O O3 0.293691 0.613699 0.852143
O O4 0.417957 0.430020 0.027244
O O5 0.366844 0.251749 0.223013
O O6 0.372551 0.178082 0.090202
O O7 0.257821 0.379734 0.060355
O O8 0.531046 0.130060 0.043551
O O9 0.499798 0.243217 0.908354
O O10 0.759746 0.225235 0.078157
O O11 0.620117 0.037172 0.963546
O O12 0.750218 0.632445 0.589073
O O13 0.781113 0.763906 0.717783
O O14 0.843812 0.837647 0.616681
O O15 0.017298 0.676595 0.758595
O O16 0.819127 0.055587 0.573688
#
# Coordination Sequence:
#
# PCOD9240758 Si02
#       8
#     4   4   4   4   4   4   4   4
#     4  10  19  36  64  79 105 149 191 231 271 326
#     4   9  20  34  59  80 112 146 185 227 281 325
#     4  10  19  32  55  81 107 136 187 231 265 318
#     4  10  22  33  56  83 112 143 180 232 281 321
#     4   9  19  35  50  78 114 143 172 228 280 315
#     4  11  20  36  57  84 112 144 186 228 276 339
#     4  12  19  34  62  84 105 141 197 232 266 336
#     4   9  19  38  57  85 105 149 186 233 278 318
#
# _framework density 16.697980999999999
#
# number of rings (size 3 to 8) (size 9 to 14) (size 15 to 20)
#    0.750    1.250    3.750    1.125    3.500    0.000 
#    0.000    0.625    5.500    3.750    0.000    0.000 
#    0.000    0.000    0.000    0.000    0.000    0.000 
#
# Total GULP energy -178232.378207 kJ/mol
# GULP energy per Si atom -5569.761819 kJ/mol
# Density = 1.665998 g / cm^3
# Si number density = 16.697981 Si / 1000 Ang^3
#
#
#
# Elastic Constant Matrix: (Units=GPa)
#
#
# Indices 1 2 3 4 5 6 
#
# 1 30.4358 20.6365 24.8992 0.0000 -1.6197 0.0000
# 2 20.6365 91.9121 12.1855 0.0000 0.6152 0.0000
# 3 24.8992 12.1855 36.5586 0.0000 1.9380 0.0000
# 4 0.0000 0.0000 0.0000 11.0767 0.0000 2.6132
# 5 -1.6197 0.6152 1.9380 0.0000 34.7679 0.0000
# 6 0.0000 0.0000 0.0000 2.6132 0.0000 12.2948
#
#
#
# Elastic Compliance Matrix: (Units=1/GPa)
#
#
# Indices 1 2 3 4 5 6 
#
# 1 0.086984 -0.012213 -0.055563 0.000000 0.007365 0.000000
# 2 -0.012213 0.013098 0.004007 0.000000 -0.001024 0.000000
# 3 -0.055563 0.004007 0.064191 0.000000 -0.006237 0.000000
# 4 0.000000 0.000000 0.000000 0.095045 0.000000 -0.020201
# 5 0.007365 -0.001024 -0.006237 0.000000 0.029471 0.000000
# 6 0.000000 0.000000 0.000000 -0.020201 0.000000 0.085629
#
#
# Mechanical properties :
#
#
# Convention : Reuss Voigt Hill
#
# Bulk Modulus (GPa) = 27.22208 30.48320 28.85264
# Shear Modulus (GPa) = 9.72384 18.37358 14.04871
#
# Velocity S-wave (km/s) = 2.41578 3.32075 2.90374
# Velocity P-wave (km/s) = 4.91115 5.74442 5.34405
#
# Compressibility (1/GPa) = 0.03673488
#
# Stress axis : x y z
#
# Youngs Moduli (GPa) = 11.49638 76.34914 15.57851
#
# Poissons Ratio (x) = 0.93245 0.86558
# Poissons Ratio (y) = 0.14040 -0.06242
# Poissons Ratio (z) = 0.63877 -0.30590
#
# Static dielectric constant tensor:
#      x y z
#    x 1.556150 0.000000 -0.003510 
#    y 0.000000 1.587530 0.000000 
#    z -0.003510 0.000000 1.552050 
# 
# From -- ./inp_files/57570.got.cif
#   From: 2010.05.17/outbox.cif.g08.bks.cpg/sg14_29_cif.got.tgz:57570.got - 2010.06.03 17:49:19.
