data_PCOD9240738
_publ_section_title
;
Structure prediction by ZEFSAII (Michael W. Deem and Ramdas Pophale) SiO2 
 PCOD9240738
Probable space group: P 21/C
;
_chemical_formula_sum "Si O2"
_cell_formula_units_Z 28
_cell_length_a 32.170576
_cell_length_b 7.213439
_cell_length_c 5.386117
_cell_angle_alpha 90.000000
_cell_angle_beta 79.519587
_cell_angle_gamma 90.000000
_cell_volume 1229.052959
_symmetry_space_group_name_H-M "P 21/C"
_symmetry_group_IT_number 14
_symmetry_cell_setting 'monoclinic'
loop_
_space_group_symop_operation_xyz
x,y,z
-x,1/2+y,1/2-z
-x,-y,-z
x,1/2-y,1/2+z
loop_
_atom_site_type_symbol
_atom_site_label
_atom_site_fract_x
_atom_site_fract_y
_atom_site_fract_z
Si Si1 0.040050 0.869968 0.993167
Si Si2 0.869490 0.369167 0.696749
Si Si3 0.421170 0.649443 0.615742
Si Si4 0.344071 0.044588 0.041375
Si Si5 0.690225 0.536676 0.921900
Si Si6 0.514835 0.789109 0.495258
Si Si7 0.777387 0.373618 0.721963
O O1 0.038829 0.780946 0.269985
O O2 0.085813 0.967840 0.902733
O O3 0.000000 0.000000 0.000000
O O4 0.869743 0.209729 0.478811
O O5 0.824107 0.462229 0.700139
O O6 0.410663 0.795800 0.407787
O O7 0.392659 0.477867 0.566029
O O8 0.472414 0.660704 0.547314
O O9 0.318222 0.955036 0.296868
O O10 0.327095 0.253604 0.034001
O O11 0.335161 0.956324 0.784296
O O12 0.739103 0.515804 0.799478
O O13 0.538822 0.758866 0.721831
O O14 0.500000 0.000000 0.500000
O O15 0.774287 0.273232 0.456128
#
# Coordination Sequence:
#
# PCOD9240738 Si02
#       7
#     4   4   4   4   4   4   4
#     4  10  19  33  55  79 112 149 190 237 293 357
#     4   8  16  30  49  74 104 140 183 235 281 339
#     4  10  21  37  63  86 117 150 189 234 276 334
#     4  10  21  37  55  79 116 150 186 223 289 333
#     4  10  21  35  55  78 111 151 187 234 279 337
#     4  10  21  40  70  96 126 160 199 242 291 345
#     4  10  19  32  53  82 105 142 197 234 279 332
#
# _framework density 22.781768
#
# number of rings (size 3 to 8) (size 9 to 14) (size 15 to 20)
#    0.000    2.286    0.000    2.571    0.000    3.429 
#    0.000    0.000   81.714    0.000    0.000    0.000 
#    0.000    0.000    0.000    0.000    0.000    0.000 
#
# Total GULP energy -156159.083095 kJ/mol
# GULP energy per Si atom -5577.110111 kJ/mol
# Density = 2.272992 g / cm^3
# Si number density = 22.781768 Si / 1000 Ang^3
#
#
#
# Elastic Constant Matrix: (Units=GPa)
#
#
# Indices 1 2 3 4 5 6 
#
# 1 147.9299 30.2799 20.9491 0.0000 -22.6680 0.0000
# 2 30.2799 57.2873 7.9726 0.0000 -9.8978 0.0000
# 3 20.9491 7.9726 174.3635 0.0000 26.1957 0.0000
# 4 0.0000 0.0000 0.0000 20.3881 0.0000 -7.4469
# 5 -22.6680 -9.8978 26.1957 0.0000 51.5390 0.0000
# 6 0.0000 0.0000 0.0000 -7.4469 0.0000 37.6705
#
#
#
# Elastic Compliance Matrix: (Units=1/GPa)
#
#
# Indices 1 2 3 4 5 6 
#
# 1 0.008236 -0.003532 -0.001375 0.000000 0.003643 0.000000
# 2 -0.003532 0.019919 -0.000896 0.000000 0.002727 0.000000
# 3 -0.001375 -0.000896 0.006559 0.000000 -0.004111 0.000000
# 4 0.000000 0.000000 0.000000 0.052866 0.000000 0.010451
# 5 0.003643 0.002727 -0.004111 0.000000 0.023618 0.000000
# 6 0.000000 0.000000 0.000000 0.010451 0.000000 0.028612
#
#
# Mechanical properties :
#
#
# Convention : Reuss Voigt Hill
#
# Bulk Modulus (GPa) = 43.27848 55.33154 49.30501
# Shear Modulus (GPa) = 31.42299 43.27812 37.35056
#
# Velocity S-wave (km/s) = 3.71793 4.36326 4.05346
# Velocity P-wave (km/s) = 6.12118 7.05156 6.60278
#
# Compressibility (1/GPa) = 0.02310617
#
# Stress axis : x y z
#
# Youngs Moduli (GPa) = 121.41795 50.20370 152.46384
#
# Poissons Ratio (x) = 0.17734 0.20969
# Poissons Ratio (y) = 0.42890 0.13662
# Poissons Ratio (z) = 0.16699 0.04499
#
# Static dielectric constant tensor:
#      x y z
#    x 1.879770 0.000000 0.013290 
#    y 0.000000 1.830640 0.000000 
#    z 0.013290 0.000000 1.935120 
# 
# From -- ./inp_files/4553.got.cif
#   From: 2010.05.17/outbox.cif.g08.bks.cpg/sg14_3_cif.got.tgz:4553.got - 2010.06.03 17:49:19.
