data_PCOD9240906
_publ_section_title
;
Structure prediction by ZEFSAII (Michael W. Deem and Ramdas Pophale) SiO2 
 PCOD9240906
Probable space group: P 21/C
;
_chemical_formula_sum "Si O2"
_cell_formula_units_Z 32
_cell_length_a 11.169408
_cell_length_b 20.095127
_cell_length_c 20.504119
_cell_angle_alpha 90.000000
_cell_angle_beta 156.617463
_cell_angle_gamma 90.000000
_cell_volume 1826.452045
_symmetry_space_group_name_H-M "P 21/C"
_symmetry_group_IT_number 14
_symmetry_cell_setting 'monoclinic'
loop_
_space_group_symop_operation_xyz
x,y,z
-x,1/2+y,1/2-z
-x,-y,-z
x,1/2-y,1/2+z
loop_
_atom_site_type_symbol
_atom_site_label
_atom_site_fract_x
_atom_site_fract_y
_atom_site_fract_z
Si Si1 0.139175 0.425181 0.796312
Si Si2 0.860647 0.091459 0.384359
Si Si3 0.139172 0.574817 0.842860
Si Si4 0.137930 0.677187 0.239352
Si Si5 0.137931 0.322813 0.398578
Si Si6 0.141129 0.560040 0.482785
Si Si7 0.139348 0.408542 0.523707
Si Si8 0.141130 0.439962 0.158344
O O1 0.058110 0.499999 0.779054
O O2 0.987706 0.372281 0.768509
O O3 0.023375 0.417011 0.664767
O O4 0.500002 0.418686 0.979562
O O5 0.943394 0.145696 0.371708
O O6 0.028784 0.096943 0.537124
O O7 0.930189 0.018244 0.389652
O O8 0.499997 0.093680 0.215051
O O9 0.987700 0.627719 0.719196
O O10 0.023369 0.582983 0.858603
O O11 0.499999 0.679502 0.424535
O O12 0.999998 0.750000 0.177737
O O13 0.056603 0.354304 0.428311
O O14 0.069806 0.481757 0.459460
O O15 0.499999 0.566379 0.654794
O O16 0.028792 0.596942 0.491667
#
# Coordination Sequence:
#
# PCOD9240906 Si02
#       8
#     4   4   4   4   4   4   4   4
#     4  11  22  36  58  87 118 153 196 244 291 345
#     4   9  19  35  55  82 115 149 186 235 289 345
#     4  11  22  36  58  87 118 153 196 244 291 345
#     4  11  23  40  60  84 118 156 195 238 292 353
#     4  11  23  40  60  84 118 156 195 238 292 353
#     4  10  19  33  57  86 115 146 188 240 290 339
#     4   9  19  35  55  82 115 149 186 235 289 345
#     4  10  19  33  57  86 115 146 188 240 290 339
#
# _framework density 17.520306999999999
#
# number of rings (size 3 to 8) (size 9 to 14) (size 15 to 20)
#    0.000    1.750    2.500    2.250    0.000    4.000 
#    0.000    1.250    0.000    3.000    0.000    0.000 
#    0.000    0.000    0.000    0.000    0.000    0.000 
#
# Total GULP energy -178742.828408 kJ/mol
# GULP energy per Si atom -5585.713388 kJ/mol
# Density = 1.748043 g / cm^3
# Si number density = 17.520307 Si / 1000 Ang^3
#
#
#
# Elastic Constant Matrix: (Units=GPa)
#
#
# Indices 1 2 3 4 5 6 
#
# 1 150.8706 79.1997 59.9515 0.0000 -11.4661 0.0000
# 2 79.1997 123.0463 61.3277 0.0000 -8.5202 0.0000
# 3 59.9515 61.3277 78.7624 0.0000 -22.9097 0.0000
# 4 0.0000 0.0000 0.0000 24.3975 0.0000 0.1781
# 5 -11.4661 -8.5202 -22.9097 0.0000 27.9735 0.0000
# 6 0.0000 0.0000 0.0000 0.1781 0.0000 24.0250
#
#
#
# Elastic Compliance Matrix: (Units=1/GPa)
#
#
# Indices 1 2 3 4 5 6 
#
# 1 0.010988 -0.004614 -0.005080 0.000000 -0.001062 0.000000
# 2 -0.004614 0.015979 -0.010586 0.000000 -0.005694 0.000000
# 3 -0.005080 -0.010586 0.030536 0.000000 0.019702 0.000000
# 4 0.000000 0.000000 0.000000 0.040990 0.000000 -0.000304
# 5 -0.001062 -0.005694 0.019702 0.000000 0.049714 0.000000
# 6 0.000000 0.000000 0.000000 -0.000304 0.000000 0.041626
#
#
# Mechanical properties :
#
#
# Convention : Reuss Voigt Hill
#
# Bulk Modulus (GPa) = 59.01920 83.73746 71.37833
# Shear Modulus (GPa) = 21.18270 25.42589 23.30430
#
# Velocity S-wave (km/s) = 3.48089 3.81363 3.65105
# Velocity P-wave (km/s) = 7.06504 8.20304 7.65522
#
# Compressibility (1/GPa) = 0.01694364
#
# Stress axis : x y z
#
# Youngs Moduli (GPa) = 91.00453 62.58257 32.74791
#
# Poissons Ratio (x) = 0.28878 0.16636
# Poissons Ratio (y) = 0.41994 0.34666
# Poissons Ratio (z) = 0.46229 0.66248
#
# Static dielectric constant tensor:
#      x y z
#    x 1.576570 0.000000 -0.000170 
#    y 0.000000 1.574660 0.000000 
#    z -0.000170 0.000000 1.576160 
# 
# From -- ./inp_files/56244.got.cif
#   From: 2010.05.17/outbox.cif.g08.bks.cpg/sg14_29_cif.got.tgz:56244.got - 2010.06.03 17:49:19.
