data_PCOD9240435
_publ_section_title
;
Structure prediction by ZEFSAII (Michael W. Deem and Ramdas Pophale) SiO2 
 PCOD9240435
Probable space group: P 21/C
;
_chemical_formula_sum "Si O2"
_cell_formula_units_Z 28
_cell_length_a 20.664846
_cell_length_b 8.254050
_cell_length_c 10.006058
_cell_angle_alpha 90.000000
_cell_angle_beta 126.486478
_cell_angle_gamma 90.000000
_cell_volume 1372.198154
_symmetry_space_group_name_H-M "P 21/C"
_symmetry_group_IT_number 14
_symmetry_cell_setting 'monoclinic'
loop_
_space_group_symop_operation_xyz
x,y,z
-x,1/2+y,1/2-z
-x,-y,-z
x,1/2-y,1/2+z
loop_
_atom_site_type_symbol
_atom_site_label
_atom_site_fract_x
_atom_site_fract_y
_atom_site_fract_z
Si Si1 0.214261 0.914303 0.967233
Si Si2 0.396546 0.989789 0.489105
Si Si3 0.616817 0.552972 0.322719
Si Si4 0.959670 0.562781 0.815196
Si Si5 0.223719 0.901414 0.297186
Si Si6 0.504649 0.301910 0.279929
Si Si7 0.940910 0.945263 0.810606
O O1 0.232810 0.762294 0.894171
O O2 0.125795 0.978456 0.821056
O O3 0.288047 0.041686 0.035437
O O4 0.213515 0.870987 0.124972
O O5 0.454132 0.141112 0.588311
O O6 0.395338 0.952838 0.330271
O O7 0.303849 0.008778 0.412762
O O8 0.432738 0.843972 0.622022
O O9 0.563339 0.458928 0.369391
O O10 0.573704 0.725038 0.240937
O O11 0.943936 0.753093 0.802076
O O12 0.023870 0.524516 0.779143
O O13 0.000000 0.500000 0.000000
O O14 0.146787 0.992918 0.259291
O O15 0.000000 0.000000 0.000000
#
# Coordination Sequence:
#
# PCOD9240435 Si02
#       7
#     4   4   4   4   4   4   4
#     4  11  24  45  68 101 135 180 222 283 334 408
#     4  10  22  40  62  91 132 174 218 284 332 399
#     4  10  22  40  63  90 134 169 227 272 342 389
#     4  12  27  45  74 100 140 178 225 276 341 406
#     4  11  24  44  69  98 139 176 229 276 342 398
#     4  10  18  38  62  88 122 173 219 270 336 388
#     4  12  25  47  70 102 134 180 224 278 337 407
#
# _framework density 20.405214999999998
#
# number of rings (size 3 to 8) (size 9 to 14) (size 15 to 20)
#    0.000    1.143    2.857    4.286    4.000    0.000 
#    0.000   14.286    0.000    0.000    0.000    0.000 
#    0.000    0.000    0.000    0.000    0.000    0.000 
#
# Total GULP energy -155880.106660 kJ/mol
# GULP energy per Si atom -5567.146666 kJ/mol
# Density = 2.035877 g / cm^3
# Si number density = 20.405215 Si / 1000 Ang^3
#
#
#
# Elastic Constant Matrix: (Units=GPa)
#
#
# Indices 1 2 3 4 5 6 
#
# 1 129.4754 6.7250 50.7096 0.0000 29.1147 0.0000
# 2 6.7250 28.9753 15.5282 0.0000 -4.3091 0.0000
# 3 50.7096 15.5282 119.6047 0.0000 13.0852 0.0000
# 4 0.0000 0.0000 0.0000 27.0445 0.0000 4.0134
# 5 29.1147 -4.3091 13.0852 0.0000 40.3618 0.0000
# 6 0.0000 0.0000 0.0000 4.0134 0.0000 28.3841
#
#
#
# Elastic Compliance Matrix: (Units=1/GPa)
#
#
# Indices 1 2 3 4 5 6 
#
# 1 0.010734 -0.001558 -0.003612 0.000000 -0.006738 0.000000
# 2 -0.001558 0.038640 -0.005112 0.000000 0.006906 0.000000
# 3 -0.003612 -0.005112 0.010710 0.000000 -0.001413 0.000000
# 4 0.000000 0.000000 0.000000 0.037769 0.000000 -0.005340
# 5 -0.006738 0.006906 -0.001413 0.000000 0.030832 0.000000
# 6 0.000000 0.000000 0.000000 -0.005340 0.000000 0.035986
#
#
# Mechanical properties :
#
#
# Convention : Reuss Voigt Hill
#
# Bulk Modulus (GPa) = 25.30220 47.10901 36.20561
# Shear Modulus (GPa) = 25.20064 32.83093 29.01579
#
# Velocity S-wave (km/s) = 3.51808 4.01552 3.77500
# Velocity P-wave (km/s) = 5.37860 6.68102 6.06488
#
# Compressibility (1/GPa) = 0.03952225
#
# Stress axis : x y z
#
# Youngs Moduli (GPa) = 93.16082 25.87980 93.36813
#
# Poissons Ratio (x) = 0.04032 0.33720
# Poissons Ratio (y) = 0.14514 0.47727
# Poissons Ratio (z) = 0.33645 0.13229
#
# Static dielectric constant tensor:
#      x y z
#    x 1.734710 0.000000 0.007250 
#    y 0.000000 1.737530 0.000000 
#    z 0.007250 0.000000 1.709560 
# 
# From -- ./inp_files/18779.got.cif
#   From: 2010.05.17/outbox.cif.g08.bks.cpg/sg14_10_cif.got.tgz:18779.got - 2010.06.03 17:49:19.
