data_PCOD9240354
_publ_section_title
;
Structure prediction by ZEFSAII (Michael W. Deem and Ramdas Pophale) SiO2 
 PCOD9240354
Probable space group: P 21/C
;
_chemical_formula_sum "Si O2"
_cell_formula_units_Z 26
_cell_length_a 23.054649
_cell_length_b 8.397847
_cell_length_c 22.132735
_cell_angle_alpha 90.000000
_cell_angle_beta 13.059951
_cell_angle_gamma 90.000000
_cell_volume 968.307327
_symmetry_space_group_name_H-M "P 21/C"
_symmetry_group_IT_number 14
_symmetry_cell_setting 'monoclinic'
loop_
_space_group_symop_operation_xyz
x,y,z
-x,1/2+y,1/2-z
-x,-y,-z
x,1/2-y,1/2+z
loop_
_atom_site_type_symbol
_atom_site_label
_atom_site_fract_x
_atom_site_fract_y
_atom_site_fract_z
Si Si1 0.784705 0.185120 0.213974
Si Si2 0.235973 0.395678 0.895364
Si Si3 0.260591 0.299359 0.033942
Si Si4 0.743327 0.927902 0.848431
Si Si5 0.734043 0.584977 0.693375
Si Si6 0.500000 0.500000 0.500000
Si Si7 0.761919 0.121839 0.490740
O O1 0.546729 0.117249 0.494873
O O2 0.741596 0.370052 0.250877
O O3 0.771777 0.105561 0.159632
O O4 0.029024 0.136349 0.005126
O O5 0.477229 0.461154 0.610405
O O6 0.247263 0.205221 0.882398
O O7 0.271481 0.494478 0.920505
O O8 0.965370 0.456352 0.144972
O O9 0.273390 0.208699 0.084992
O O10 0.015575 0.224020 0.247374
O O11 0.522891 0.241804 0.734794
O O12 0.235433 0.490771 0.065327
O O13 0.705156 0.863054 0.821028
#
# Coordination Sequence:
#
# PCOD9240354 Si02
#       7
#     4   4   4   4   4   2   4
#     4  10  22  30  57  72 112 145 189 232 278 324
#     4  10  18  37  57  81 105 158 187 231 284 370
#     4  10  21  41  60  93 114 159 192 253 289 368
#     4  10  22  33  59  82 117 146 195 228 299 345
#     4  10  18  38  49  78 104 148 189 232 266 342
#     4  12  20  38  54  88 110 162 180 248 286 346
#     4  10  21  37  67  83 121 149 197 239 312 344
#
# _framework density 26.85098
#
# number of rings (size 3 to 8) (size 9 to 14) (size 15 to 20)
#    0.000    1.846    3.077    0.923    0.000    2.462 
#    2.769    0.000    6.769    0.000    0.000    0.000 
#    0.000    0.000    0.000    0.000    0.000    0.000 
#
# Total GULP energy -145044.645335 kJ/mol
# GULP energy per Si atom -5578.640205 kJ/mol
# Density = 2.678987 g / cm^3
# Si number density = 26.850980 Si / 1000 Ang^3
#
#
#
# Elastic Constant Matrix: (Units=GPa)
#
#
# Indices 1 2 3 4 5 6 
#
# 1 47.0206 1.3443 33.3178 0.0000 -16.7507 0.0000
# 2 1.3443 79.5444 34.0926 0.0000 -2.2181 0.0000
# 3 33.3178 34.0926 181.0021 0.0000 -36.4189 0.0000
# 4 0.0000 0.0000 0.0000 32.4575 0.0000 1.9623
# 5 -16.7507 -2.2181 -36.4189 0.0000 34.3458 0.0000
# 6 0.0000 0.0000 0.0000 1.9623 0.0000 31.7879
#
#
#
# Elastic Compliance Matrix: (Units=1/GPa)
#
#
# Indices 1 2 3 4 5 6 
#
# 1 0.027020 0.001197 -0.003219 0.000000 0.009842 0.000000
# 2 0.001197 0.013879 -0.003225 0.000000 -0.001939 0.000000
# 3 -0.003219 -0.003225 0.008094 0.000000 0.006804 0.000000
# 4 0.000000 0.000000 0.000000 0.030925 0.000000 -0.001909
# 5 0.009842 -0.001939 0.006804 0.000000 0.041005 0.000000
# 6 0.000000 0.000000 0.000000 -0.001909 0.000000 0.031576
#
#
# Mechanical properties :
#
#
# Convention : Reuss Voigt Hill
#
# Bulk Modulus (GPa) = 25.97364 49.45294 37.71329
# Shear Modulus (GPa) = 28.43719 35.63906 32.03812
#
# Velocity S-wave (km/s) = 3.25787 3.64715 3.45799
# Velocity P-wave (km/s) = 4.88323 6.01608 5.47901
#
# Compressibility (1/GPa) = 0.03850057
#
# Stress axis : x y z
#
# Youngs Moduli (GPa) = 37.00955 72.04890 123.55150
#
# Poissons Ratio (x) = -0.08628 0.39771
# Poissons Ratio (y) = -0.04432 0.39844
# Poissons Ratio (z) = 0.11913 0.23235
#
# Static dielectric constant tensor:
#      x y z
#    x 2.651860 0.000000 0.226010 
#    y 0.000000 2.113750 0.000000 
#    z 0.226010 0.000000 2.235420 
# 
# From -- ./inp_files/75712.got.cif
#   From: 2010.05.17/outbox.cif.g08.bks.cpg/sg14_38_cif.got.tgz:75712.got - 2010.06.03 17:49:19.
