data_PCOD9240469
_publ_section_title
;
Structure prediction by ZEFSAII (Michael W. Deem and Ramdas Pophale) SiO2 
 PCOD9240469
Probable space group: P 21/C
;
_chemical_formula_sum "Si O2"
_cell_formula_units_Z 32
_cell_length_a 24.994344
_cell_length_b 10.034119
_cell_length_c 12.608550
_cell_angle_alpha 90.000000
_cell_angle_beta 147.476784
_cell_angle_gamma 90.000000
_cell_volume 1700.116803
_symmetry_space_group_name_H-M "P 21/C"
_symmetry_group_IT_number 14
_symmetry_cell_setting 'monoclinic'
loop_
_space_group_symop_operation_xyz
x,y,z
-x,1/2+y,1/2-z
-x,-y,-z
x,1/2-y,1/2+z
loop_
_atom_site_type_symbol
_atom_site_label
_atom_site_fract_x
_atom_site_fract_y
_atom_site_fract_z
Si Si1 0.765304 0.586363 0.532726
Si Si2 0.708365 0.525662 0.652439
Si Si3 0.557482 0.633199 0.073502
Si Si4 0.083845 0.399575 0.398688
Si Si5 0.618068 0.686552 0.943605
Si Si6 0.541523 0.121668 0.999176
Si Si7 0.900557 0.589540 0.114916
Si Si8 0.170802 0.135737 0.276256
O O1 0.742932 0.483532 0.591136
O O2 0.659137 0.643622 0.312980
O O3 0.829865 0.549134 0.537631
O O4 0.827511 0.705689 0.693392
O O5 0.644631 0.659688 0.518613
O O6 0.644487 0.424473 0.617114
O O7 0.802584 0.569440 0.879845
O O8 0.477948 0.751104 0.958580
O O9 0.500000 0.500000 0.000000
O O10 0.594509 0.624884 0.016504
O O11 0.067239 0.243746 0.343798
O O12 0.117268 0.400344 0.577582
O O13 0.986720 0.489486 0.224333
O O14 0.526724 0.662449 0.714280
O O15 0.712468 0.613977 0.048970
O O16 0.500000 0.000000 0.000000
O O17 0.871747 0.567311 0.190045
#
# Coordination Sequence:
#
# PCOD9240469 Si02
#       8
#     4   4   4   4   4   4   4   4
#     4  10  20  40  65  89 127 178 215 258 329 414
#     4  11  21  42  65  93 132 170 226 263 331 397
#     4  12  23  38  62  95 134 171 218 269 335 394
#     4  11  22  41  68  92 125 169 224 271 336 393
#     4  11  20  38  66  90 126 177 218 264 328 403
#     4  12  24  39  67  99 128 174 227 276 321 400
#     4  11  23  41  66  95 126 170 218 280 329 398
#     4  10  18  38  68  89 118 167 225 259 317 401
#
# _framework density 18.822234999999999
#
# number of rings (size 3 to 8) (size 9 to 14) (size 15 to 20)
#    0.000    1.000    7.500    2.625    0.000    0.500 
#    2.250    0.000    2.750    0.000    0.000    0.000 
#    0.000    0.000    0.000    0.000    0.000    0.000 
#
# Total GULP energy -178327.886909 kJ/mol
# GULP energy per Si atom -5572.746466 kJ/mol
# Density = 1.877939 g / cm^3
# Si number density = 18.822235 Si / 1000 Ang^3
#
#
#
# Elastic Constant Matrix: (Units=GPa)
#
#
# Indices 1 2 3 4 5 6 
#
# 1 160.8886 40.4579 38.0769 0.0000 1.4635 0.0000
# 2 40.4579 76.4900 22.2213 0.0000 23.2495 0.0000
# 3 38.0769 22.2213 55.1982 0.0000 6.2137 0.0000
# 4 0.0000 0.0000 0.0000 16.9831 0.0000 5.2502
# 5 1.4635 23.2495 6.2137 0.0000 33.8325 0.0000
# 6 0.0000 0.0000 0.0000 5.2502 0.0000 26.2267
#
#
#
# Elastic Compliance Matrix: (Units=1/GPa)
#
#
# Indices 1 2 3 4 5 6 
#
# 1 0.008256 -0.004071 -0.004423 0.000000 0.003253 0.000000
# 2 -0.004071 0.020338 -0.003907 0.000000 -0.013083 0.000000
# 3 -0.004423 -0.003907 0.022890 0.000000 -0.001328 0.000000
# 4 0.000000 0.000000 0.000000 0.062766 0.000000 -0.012565
# 5 0.003253 -0.013083 -0.001328 0.000000 0.038651 0.000000
# 6 0.000000 0.000000 0.000000 -0.012565 0.000000 0.040644
#
#
# Mechanical properties :
#
#
# Convention : Reuss Voigt Hill
#
# Bulk Modulus (GPa) = 37.47609 54.89877 46.18743
# Shear Modulus (GPa) = 22.00306 28.19649 25.09978
#
# Velocity S-wave (km/s) = 3.42276 3.87465 3.65570
# Velocity P-wave (km/s) = 5.96441 7.01766 6.51236
#
# Compressibility (1/GPa) = 0.02668368
#
# Stress axis : x y z
#
# Youngs Moduli (GPa) = 121.12021 49.16836 43.68779
#
# Poissons Ratio (x) = 0.20015 0.19322
# Poissons Ratio (y) = 0.49305 0.17068
# Poissons Ratio (z) = 0.53568 0.19209
#
# Static dielectric constant tensor:
#      x y z
#    x 1.702610 0.000000 -0.019380 
#    y 0.000000 1.573230 0.000000 
#    z -0.019380 0.000000 1.653740 
# 
# From -- ./inp_files/35930.got.cif
#   From: 2010.05.17/outbox.cif.g08.bks.cpg/sg14_18_cif.got.tgz:35930.got - 2010.06.03 17:49:19.
