data_PCOD9240017
_publ_section_title
;
Structure prediction by ZEFSAII (Michael W. Deem and Ramdas Pophale) SiO2 
 PCOD9240017
Probable space group: P 21/C
;
_chemical_formula_sum "Si O2"
_cell_formula_units_Z 32
_cell_length_a 8.692124
_cell_length_b 13.144914
_cell_length_c 17.275177
_cell_angle_alpha 90.000000
_cell_angle_beta 51.639031
_cell_angle_gamma 90.000000
_cell_volume 1547.699752
_symmetry_space_group_name_H-M "P 21/C"
_symmetry_group_IT_number 14
_symmetry_cell_setting 'monoclinic'
loop_
_space_group_symop_operation_xyz
x,y,z
-x,1/2+y,1/2-z
-x,-y,-z
x,1/2-y,1/2+z
loop_
_atom_site_type_symbol
_atom_site_label
_atom_site_fract_x
_atom_site_fract_y
_atom_site_fract_z
Si Si1 0.036508 0.711020 0.731070
Si Si2 0.824888 0.663833 0.183877
Si Si3 0.669484 0.608611 0.509625
Si Si4 0.730320 0.488757 0.334663
Si Si5 0.988525 0.751738 0.421902
Si Si6 0.224617 0.635213 0.959621
Si Si7 0.314625 0.406908 0.920581
Si Si8 0.432473 0.694015 0.040508
O O1 0.098932 0.594869 0.723334
O O2 0.227819 0.763683 0.635410
O O3 0.866772 0.736145 0.722067
O O4 0.007570 0.759187 0.824456
O O5 0.773128 0.577581 0.261491
O O6 0.668050 0.659891 0.163128
O O7 0.026639 0.636219 0.074582
O O8 0.724242 0.531350 0.424201
O O9 0.485795 0.560392 0.612910
O O10 0.862003 0.654948 0.491301
O O11 0.578715 0.710684 0.499768
O O12 0.863660 0.854559 0.476729
O O13 0.185197 0.778427 0.407541
O O14 0.264342 0.522453 0.915699
O O15 0.400092 0.659717 0.963389
O O16 0.493154 0.392187 0.923840
#
# Coordination Sequence:
#
# PCOD9240017 Si02
#       8
#     4   4   4   4   4   4   4   4
#     4  10  19  33  55  81 111 148 184 240 283 334
#     4  10  19  33  57  85 110 148 186 238 280 337
#     4   9  19  34  57  79 110 157 182 232 280 349
#     4  10  18  34  57  82 114 151 193 220 297 342
#     4  10  18  34  55  83 109 147 192 228 287 334
#     4  10  19  33  58  83 114 150 189 236 286 337
#     4  10  19  34  56  82 113 148 192 234 289 342
#     4   9  20  35  52  79 115 149 188 238 284 337
#
# _framework density 20.675843
#
# number of rings (size 3 to 8) (size 9 to 14) (size 15 to 20)
#    0.000    2.250    1.250    3.375    0.000    0.000 
#    2.250    0.000    2.750   36.000    0.000    0.000 
#    0.000    0.000    0.000    0.000    0.000    0.000 
#
# Total GULP energy -178297.052767 kJ/mol
# GULP energy per Si atom -5571.782899 kJ/mol
# Density = 2.062878 g / cm^3
# Si number density = 20.675843 Si / 1000 Ang^3
#
#
#
# Elastic Constant Matrix: (Units=GPa)
#
#
# Indices 1 2 3 4 5 6 
#
# 1 77.9013 9.4766 1.9096 0.0000 24.9772 0.0000
# 2 9.4766 37.0899 -2.5341 0.0000 -4.6847 0.0000
# 3 1.9096 -2.5341 33.0168 0.0000 10.3676 0.0000
# 4 0.0000 0.0000 0.0000 26.9814 0.0000 6.9211
# 5 24.9772 -4.6847 10.3676 0.0000 23.2730 0.0000
# 6 0.0000 0.0000 0.0000 6.9211 0.0000 26.7304
#
#
#
# Elastic Compliance Matrix: (Units=1/GPa)
#
#
# Indices 1 2 3 4 5 6 
#
# 1 0.023586 -0.009371 0.007508 0.000000 -0.030544 0.000000
# 2 -0.009371 0.031394 -0.002547 0.000000 0.017512 0.000000
# 3 0.007508 -0.002547 0.037610 0.000000 -0.025324 0.000000
# 4 0.000000 0.000000 0.000000 0.039699 0.000000 -0.010279
# 5 -0.030544 0.017512 -0.025324 0.000000 0.090555 0.000000
# 6 0.000000 0.000000 0.000000 -0.010279 0.000000 0.040072
#
#
# Mechanical properties :
#
#
# Convention : Reuss Voigt Hill
#
# Bulk Modulus (GPa) = 11.93776 18.41247 15.17511
# Shear Modulus (GPa) = 16.68553 24.67402 20.67978
#
# Velocity S-wave (km/s) = 2.84387 3.45827 3.16601
# Velocity P-wave (km/s) = 4.07060 4.98707 4.55195
#
# Compressibility (1/GPa) = 0.08376783
#
# Stress axis : x y z
#
# Youngs Moduli (GPa) = 42.39818 31.85348 26.58871
#
# Poissons Ratio (x) = 0.29851 -0.19962
# Poissons Ratio (y) = 0.39733 0.06773
# Poissons Ratio (z) = -0.31831 0.08114
#
# Static dielectric constant tensor:
#      x y z
#    x 1.885810 0.000000 -0.011760 
#    y 0.000000 1.740120 0.000000 
#    z -0.011760 0.000000 1.743970 
# 
# From -- ./inp_files/41223.got.cif
#   From: 2010.05.17/outbox.cif.g08.bks.cpg/sg14_21_cif.got.tgz:41223.got - 2010.06.03 17:49:19.
