data_PCOD9240076
_publ_section_title
;
Structure prediction by ZEFSAII (Michael W. Deem and Ramdas Pophale) SiO2 
 PCOD9240076
Probable space group: P 21/C
;
_chemical_formula_sum "Si O2"
_cell_formula_units_Z 28
_cell_length_a 13.478327
_cell_length_b 12.411876
_cell_length_c 8.643811
_cell_angle_alpha 90.000000
_cell_angle_beta 113.841305
_cell_angle_gamma 90.000000
_cell_volume 1322.642298
_symmetry_space_group_name_H-M "P 21/C"
_symmetry_group_IT_number 14
_symmetry_cell_setting 'monoclinic'
loop_
_space_group_symop_operation_xyz
x,y,z
-x,1/2+y,1/2-z
-x,-y,-z
x,1/2-y,1/2+z
loop_
_atom_site_type_symbol
_atom_site_label
_atom_site_fract_x
_atom_site_fract_y
_atom_site_fract_z
Si Si1 0.664717 0.793614 0.203572
Si Si2 0.095619 0.962355 0.945109
Si Si3 0.762547 0.944502 0.711441
Si Si4 0.418034 0.593500 0.007880
Si Si5 0.966942 0.668640 0.183372
Si Si6 0.901039 0.627420 0.810662
Si Si7 0.505681 0.724279 0.347760
O O1 0.695534 0.666043 0.201156
O O2 0.777987 0.853381 0.288616
O O3 0.585455 0.800370 0.298086
O O4 0.591553 0.832654 0.015434
O O5 0.067222 0.843373 0.866938
O O6 0.087006 0.017582 0.771995
O O7 0.201555 0.999268 0.104142
O O8 0.000000 0.000000 0.000000
O O9 0.869702 0.906632 0.687785
O O10 0.696315 0.033419 0.575578
O O11 0.430067 0.696891 0.901056
O O12 0.500000 0.500000 0.000000
O O13 0.448206 0.642001 0.194638
O O14 0.923047 0.788005 0.186619
O O15 0.975062 0.646948 0.006613
#
# Coordination Sequence:
#
# PCOD9240076 Si02
#       7
#     4   4   4   4   4   4   4
#     4  10  18  34  59  88 112 146 204 252 293 335
#     4  10  21  37  58  88 115 152 198 238 300 357
#     4  10  19  38  60  82 118 162 190 252 304 341
#     4  11  22  39  61  82 128 156 195 249 308 348
#     4  10  21  36  58  89 116 152 199 240 304 357
#     4  11  20  34  61  86 120 144 198 255 294 348
#     4  10  20  35  58  89 115 158 200 241 302 359
#
# _framework density 21.169744000000001
#
# number of rings (size 3 to 8) (size 9 to 14) (size 15 to 20)
#    0.000    1.714    2.857    5.571    0.000    0.000 
#    0.000   10.000    0.000    0.000    0.000    0.000 
#    0.000    0.000    0.000    0.000    0.000    0.000 
#
# Total GULP energy -156065.735503 kJ/mol
# GULP energy per Si atom -5573.776268 kJ/mol
# Density = 2.112156 g / cm^3
# Si number density = 21.169744 Si / 1000 Ang^3
#
#
#
# Elastic Constant Matrix: (Units=GPa)
#
#
# Indices 1 2 3 4 5 6 
#
# 1 14.0336 13.7767 12.8016 0.0000 6.8125 0.0000
# 2 13.7767 46.3858 20.9301 0.0000 16.0348 0.0000
# 3 12.8016 20.9301 121.4887 0.0000 -0.0002 0.0000
# 4 0.0000 0.0000 0.0000 38.2443 0.0000 7.1133
# 5 6.8125 16.0348 -0.0002 0.0000 19.7645 0.0000
# 6 0.0000 0.0000 0.0000 7.1133 0.0000 22.6883
#
#
#
# Elastic Compliance Matrix: (Units=1/GPa)
#
#
# Indices 1 2 3 4 5 6 
#
# 1 0.109777 -0.022288 -0.007728 0.000000 -0.019756 0.000000
# 2 -0.022288 0.038115 -0.004218 0.000000 -0.023240 0.000000
# 3 -0.007728 -0.004218 0.009772 0.000000 0.006086 0.000000
# 4 0.000000 0.000000 0.000000 0.027767 0.000000 -0.008706
# 5 -0.019756 -0.023240 0.006086 0.000000 0.076260 0.000000
# 6 0.000000 0.000000 0.000000 -0.008706 0.000000 0.046805
#
#
# Mechanical properties :
#
#
# Convention : Reuss Voigt Hill
#
# Bulk Modulus (GPa) = 11.21112 30.76944 20.99028
# Shear Modulus (GPa) = 12.29418 25.09939 18.69679
#
# Velocity S-wave (km/s) = 2.41248 3.44703 2.97507
# Velocity P-wave (km/s) = 3.61488 5.51442 4.66241
#
# Compressibility (1/GPa) = 0.08919719
#
# Stress axis : x y z
#
# Youngs Moduli (GPa) = 9.10934 26.23645 102.33112
#
# Poissons Ratio (x) = 0.58476 0.79080
# Poissons Ratio (y) = 0.20303 0.43163
# Poissons Ratio (z) = 0.07040 0.11066
#
# Static dielectric constant tensor:
#      x y z
#    x 1.780430 0.000000 0.016970 
#    y 0.000000 1.795760 0.000000 
#    z 0.016970 0.000000 1.838220 
# 
# From -- ./inp_files/15321.got.cif
#   From: 2010.05.17/outbox.cif.g08.bks.cpg/sg14_8_cif.got.tgz:15321.got - 2010.06.03 17:49:19.
