data_PCOD9240334
_publ_section_title
;
Structure prediction by ZEFSAII (Michael W. Deem and Ramdas Pophale) SiO2 
 PCOD9240334
Probable space group: P 21/C
;
_chemical_formula_sum "Si O2"
_cell_formula_units_Z 32
_cell_length_a 11.211507
_cell_length_b 7.225216
_cell_length_c 23.684753
_cell_angle_alpha 90.000000
_cell_angle_beta 131.139222
_cell_angle_gamma 90.000000
_cell_volume 1444.920496
_symmetry_space_group_name_H-M "P 21/C"
_symmetry_group_IT_number 14
_symmetry_cell_setting 'monoclinic'
loop_
_space_group_symop_operation_xyz
x,y,z
-x,1/2+y,1/2-z
-x,-y,-z
x,1/2-y,1/2+z
loop_
_atom_site_type_symbol
_atom_site_label
_atom_site_fract_x
_atom_site_fract_y
_atom_site_fract_z
Si Si1 0.799613 0.383352 0.818413
Si Si2 0.382621 0.595025 0.007977
Si Si3 0.363689 0.579422 0.124385
Si Si4 0.453374 0.465993 0.420954
Si Si5 0.549153 0.519784 0.336432
Si Si6 0.095466 0.938181 0.347052
Si Si7 0.298965 0.472487 0.727703
Si Si8 0.171291 0.237300 0.792616
O O1 0.781934 0.439859 0.878244
O O2 0.630651 0.450004 0.740313
O O3 0.950186 0.479235 0.837521
O O4 0.801221 0.161300 0.808618
O O5 0.326825 0.508515 0.049855
O O6 0.484954 0.758308 0.065731
O O7 0.500000 0.500000 0.000000
O O8 0.227766 0.659367 0.925905
O O9 0.406902 0.799813 0.148645
O O10 0.524851 0.478531 0.194510
O O11 0.500000 0.500000 0.500000
O O12 0.544266 0.580306 0.400759
O O13 0.271024 0.439861 0.345682
O O14 0.665755 0.601399 0.324887
O O15 0.181822 0.106918 0.343254
O O16 0.011093 0.814070 0.273962
O O17 0.229776 0.329638 0.751902
#
# Coordination Sequence:
#
# PCOD9240334 Si02
#       8
#     4   4   4   4   4   4   4   4
#     4  10  20  34  60  93 121 159 205 256 317 365
#     4  11  22  41  61  85 121 167 207 252 311 369
#     4   9  18  36  61  85 124 160 205 259 301 373
#     4  11  23  41  64  90 126 158 212 257 307 372
#     4   9  18  37  62  93 120 159 207 256 307 370
#     4  12  25  39  62  87 127 164 206 255 319 373
#     4  10  18  36  66  90 122 159 206 257 309 366
#     4  12  24  43  62  93 127 161 210 263 308 373
#
# _framework density 22.146545
#
# number of rings (size 3 to 8) (size 9 to 14) (size 15 to 20)
#    0.000    1.500    5.000    0.750    1.750    2.500 
#    0.000    0.000    2.750    2.250    0.000    0.000 
#    0.000    0.000    0.000    0.000    0.000    0.000 
#
# Total GULP energy -178302.528605 kJ/mol
# GULP energy per Si atom -5571.954019 kJ/mol
# Density = 2.209614 g / cm^3
# Si number density = 22.146545 Si / 1000 Ang^3
#
#
#
# Elastic Constant Matrix: (Units=GPa)
#
#
# Indices 1 2 3 4 5 6 
#
# 1 116.6059 11.1304 24.9076 0.0000 -29.5373 0.0000
# 2 11.1304 33.0488 -8.3716 0.0000 3.7047 0.0000
# 3 24.9076 -8.3716 89.2225 0.0000 -8.7159 0.0000
# 4 0.0000 0.0000 0.0000 25.3553 0.0000 -3.2134
# 5 -29.5373 3.7047 -8.7159 0.0000 47.4015 0.0000
# 6 0.0000 0.0000 0.0000 -3.2134 0.0000 25.9161
#
#
#
# Elastic Compliance Matrix: (Units=1/GPa)
#
#
# Indices 1 2 3 4 5 6 
#
# 1 0.011532 -0.005445 -0.003041 0.000000 0.007052 0.000000
# 2 -0.005445 0.033738 0.004171 0.000000 -0.005262 0.000000
# 3 -0.003041 0.004171 0.012455 0.000000 0.000069 0.000000
# 4 0.000000 0.000000 0.000000 0.040069 0.000000 0.004968
# 5 0.007052 -0.005262 0.000069 0.000000 0.025915 0.000000
# 6 0.000000 0.000000 0.000000 0.004968 0.000000 0.039202
#
#
# Mechanical properties :
#
#
# Convention : Reuss Voigt Hill
#
# Bulk Modulus (GPa) = 20.36799 32.69000 26.52900
# Shear Modulus (GPa) = 26.60923 33.81532 30.21228
#
# Velocity S-wave (km/s) = 3.47004 3.91178 3.69751
# Velocity P-wave (km/s) = 5.02710 5.93258 5.49851
#
# Compressibility (1/GPa) = 0.04909664
#
# Stress axis : x y z
#
# Youngs Moduli (GPa) = 86.71883 29.63975 80.28874
#
# Poissons Ratio (x) = 0.16137 0.24417
# Poissons Ratio (y) = 0.47214 -0.33492
# Poissons Ratio (z) = 0.26372 -0.12364
#
# Static dielectric constant tensor:
#      x y z
#    x 1.991530 0.000000 -0.125740 
#    y 0.000000 1.954230 0.000000 
#    z -0.125740 0.000000 1.845160 
# 
# From -- ./inp_files/73132.got.cif
#   From: 2010.05.17/outbox.cif.g08.bks.cpg/sg14_37_cif.got.tgz:73132.got - 2010.06.03 17:49:19.
