data_PCOD9240845
_publ_section_title
;
Structure prediction by ZEFSAII (Michael W. Deem and Ramdas Pophale) SiO2 
 PCOD9240845
Probable space group: P 21/C
;
_chemical_formula_sum "Si O2"
_cell_formula_units_Z 32
_cell_length_a 25.731320
_cell_length_b 7.741359
_cell_length_c 20.058865
_cell_angle_alpha 90.000000
_cell_angle_beta 157.584741
_cell_angle_gamma 90.000000
_cell_volume 1523.601275
_symmetry_space_group_name_H-M "P 21/C"
_symmetry_group_IT_number 14
_symmetry_cell_setting 'monoclinic'
loop_
_space_group_symop_operation_xyz
x,y,z
-x,1/2+y,1/2-z
-x,-y,-z
x,1/2-y,1/2+z
loop_
_atom_site_type_symbol
_atom_site_label
_atom_site_fract_x
_atom_site_fract_y
_atom_site_fract_z
Si Si1 0.308363 0.183009 0.981776
Si Si2 0.902131 0.817739 0.155065
Si Si3 0.270062 0.435053 0.660630
Si Si4 0.666651 0.716726 0.131816
Si Si5 0.599731 0.065580 0.361844
Si Si6 0.197011 0.944351 0.512780
Si Si7 0.564460 0.337199 0.963475
Si Si8 0.626754 0.187721 0.170142
O O1 0.444336 0.070886 0.152824
O O2 0.355728 0.374216 0.062754
O O3 0.185091 0.131646 0.883385
O O4 0.270897 0.197311 0.859540
O O5 0.854678 0.629680 0.073732
O O6 0.061053 0.832616 0.357032
O O7 0.855053 0.936332 0.037632
O O8 0.245171 0.326366 0.698509
O O9 0.316468 0.626447 0.736642
O O10 0.400591 0.348165 0.777904
O O11 0.614475 0.526539 0.046769
O O12 0.530302 0.817279 0.992866
O O13 0.697680 0.124214 0.418332
O O14 0.606075 0.179256 0.436466
O O15 0.280199 0.947306 0.680604
O O16 0.624365 0.201984 0.087412
#
# Coordination Sequence:
#
# PCOD9240845 Si02
#       8
#     4   4   4   4   4   4   4   4
#     4  10  19  33  54  80 105 132 173 217 257 304
#     4  11  23  36  52  76 107 143 176 211 258 310
#     4   9  16  31  55  78 103 136 169 210 260 307
#     4   8  15  29  53  81 104 130 168 212 259 308
#     4  10  19  33  54  80 105 132 173 217 257 304
#     4  11  23  36  52  76 107 143 176 211 258 310
#     4   8  15  29  53  81 104 130 168 212 259 308
#     4   9  16  31  55  78 103 136 169 210 260 307
#
# _framework density 21.002872
#
# number of rings (size 3 to 8) (size 9 to 14) (size 15 to 20)
#    0.000    2.500    2.500    2.250    0.000    1.000 
#    0.000    5.000    0.000    7.500    0.000    0.000 
#    0.000    0.000    0.000    0.000    0.000    0.000 
#
# Total GULP energy -178724.166449 kJ/mol
# GULP energy per Si atom -5585.130202 kJ/mol
# Density = 2.095507 g / cm^3
# Si number density = 21.002872 Si / 1000 Ang^3
#
#
#
# Elastic Constant Matrix: (Units=GPa)
#
#
# Indices 1 2 3 4 5 6 
#
# 1 83.1223 27.7720 23.0225 0.0000 0.1681 0.0000
# 2 27.7720 48.4045 18.4161 0.0000 3.5355 0.0000
# 3 23.0225 18.4161 65.0961 0.0000 8.4782 0.0000
# 4 0.0000 0.0000 0.0000 25.0733 0.0000 -2.8639
# 5 0.1681 3.5355 8.4782 0.0000 22.6942 0.0000
# 6 0.0000 0.0000 0.0000 -2.8639 0.0000 16.0723
#
#
#
# Elastic Compliance Matrix: (Units=1/GPa)
#
#
# Indices 1 2 3 4 5 6 
#
# 1 0.015629 -0.007757 -0.003653 0.000000 0.002457 0.000000
# 2 -0.007757 0.027033 -0.004587 0.000000 -0.002440 0.000000
# 3 -0.003653 -0.004587 0.018768 0.000000 -0.006270 0.000000
# 4 0.000000 0.000000 0.000000 0.040712 0.000000 0.007254
# 5 0.002457 -0.002440 -0.006270 0.000000 0.046768 0.000000
# 6 0.000000 0.000000 0.000000 0.007254 0.000000 0.063512
#
#
# Mechanical properties :
#
#
# Convention : Reuss Voigt Hill
#
# Bulk Modulus (GPa) = 33.97079 37.22713 35.59896
# Shear Modulus (GPa) = 19.66748 21.26211 20.46479
#
# Velocity S-wave (km/s) = 3.06342 3.18519 3.12489
# Velocity P-wave (km/s) = 5.35931 5.59379 5.47780
#
# Compressibility (1/GPa) = 0.02943706
#
# Stress axis : x y z
#
# Youngs Moduli (GPa) = 63.98404 36.99195 53.28199
#
# Poissons Ratio (x) = 0.28693 0.19464
# Poissons Ratio (y) = 0.49630 0.24438
# Poissons Ratio (z) = 0.23374 0.16967
#
# Static dielectric constant tensor:
#      x y z
#    x 1.757550 0.000000 -0.030440 
#    y 0.000000 1.843170 0.000000 
#    z -0.030440 0.000000 1.715510 
# 
# From -- ./inp_files/70538.got.cif
#   From: 2010.05.17/outbox.cif.g08.bks.cpg/sg14_36_cif.got.tgz:70538.got - 2010.06.03 17:49:19.
