data_PCOD9240112
_publ_section_title
;
Structure prediction by ZEFSAII (Michael W. Deem and Ramdas Pophale) SiO2 
 PCOD9240112
Probable space group: P 21/C
;
_chemical_formula_sum "Si O2"
_cell_formula_units_Z 30
_cell_length_a 10.975402
_cell_length_b 17.683472
_cell_length_c 10.088441
_cell_angle_alpha 90.000000
_cell_angle_beta 38.986396
_cell_angle_gamma 90.000000
_cell_volume 1231.846144
_symmetry_space_group_name_H-M "P 21/C"
_symmetry_group_IT_number 14
_symmetry_cell_setting 'monoclinic'
loop_
_space_group_symop_operation_xyz
x,y,z
-x,1/2+y,1/2-z
-x,-y,-z
x,1/2-y,1/2+z
loop_
_atom_site_type_symbol
_atom_site_label
_atom_site_fract_x
_atom_site_fract_y
_atom_site_fract_z
Si Si1 0.241068 0.958635 0.211563
Si Si2 0.579457 0.624929 0.754509
Si Si3 0.817766 0.634099 0.302352
Si Si4 0.903962 0.718232 0.626039
Si Si5 0.836528 0.352957 0.785671
Si Si6 0.084403 0.394605 0.173606
Si Si7 0.549209 0.978398 0.733583
Si Si8 0.000000 0.500000 0.500000
O O1 0.320622 0.960554 0.293395
O O2 0.192075 0.047098 0.229703
O O3 0.057310 0.909270 0.330163
O O4 0.410854 0.941748 0.961492
O O5 0.641469 0.647161 0.553932
O O6 0.754801 0.656623 0.692887
O O7 0.575171 0.532663 0.757824
O O8 0.379900 0.654284 0.980100
O O9 0.813238 0.699121 0.197409
O O10 0.014372 0.646642 0.218235
O O11 0.928999 0.689080 0.755023
O O12 0.096916 0.709714 0.377008
O O13 0.873702 0.432465 0.680666
O O14 0.004823 0.450069 0.356237
O O15 0.303317 0.420779 0.957084
#
# Coordination Sequence:
#
# PCOD9240112 Si02
#       8
#     4   4   4   4   4   4   4   2
#     4  10  21  39  63  89 124 163 218 269 313 382
#     4  10  21  41  62  90 125 165 212 266 326 382
#     4  10  21  42  59  87 130 173 212 262 322 389
#     4  10  25  38  60  95 131 170 211 264 326 393
#     4  10  20  39  63  91 126 168 209 265 323 383
#     4  11  21  37  61  93 124 164 212 268 320 374
#     4  10  21  36  60  91 118 161 210 267 324 367
#     4  10  18  34  62  96 122 152 214 266 318 378
#
# _framework density 24.353691999999999
#
# number of rings (size 3 to 8) (size 9 to 14) (size 15 to 20)
#    0.000    1.867    2.667    0.400    1.867    5.867 
#    0.000    4.000    0.000    0.000    0.000    0.000 
#    0.000    0.000    0.000    0.000    0.000    0.000 
#
# Total GULP energy -167428.819984 kJ/mol
# GULP energy per Si atom -5580.960666 kJ/mol
# Density = 2.429826 g / cm^3
# Si number density = 24.353692 Si / 1000 Ang^3
#
#
#
# Elastic Constant Matrix: (Units=GPa)
#
#
# Indices 1 2 3 4 5 6 
#
# 1 41.9539 28.2096 9.2199 0.0000 4.6381 0.0000
# 2 28.2096 78.4035 27.2753 0.0000 -3.9211 0.0000
# 3 9.2199 27.2753 152.5855 0.0000 -15.1751 0.0000
# 4 0.0000 0.0000 0.0000 22.5587 0.0000 9.4015
# 5 4.6381 -3.9211 -15.1751 0.0000 22.5339 0.0000
# 6 0.0000 0.0000 0.0000 9.4015 0.0000 14.0614
#
#
#
# Elastic Compliance Matrix: (Units=1/GPa)
#
#
# Indices 1 2 3 4 5 6 
#
# 1 0.033231 -0.012160 -0.000777 0.000000 -0.009479 0.000000
# 2 -0.012160 0.018063 -0.002071 0.000000 0.004251 0.000000
# 3 -0.000777 -0.002071 0.007450 0.000000 0.004817 0.000000
# 4 0.000000 0.000000 0.000000 0.061452 0.000000 -0.041087
# 5 -0.009479 0.004251 0.004817 0.000000 0.050312 0.000000
# 6 0.000000 0.000000 0.000000 -0.041087 0.000000 0.098587
#
#
# Mechanical properties :
#
#
# Convention : Reuss Voigt Hill
#
# Bulk Modulus (GPa) = 34.81076 44.70583 39.75830
# Shear Modulus (GPa) = 16.19761 25.71335 20.95548
#
# Velocity S-wave (km/s) = 2.58175 3.25288 2.93655
# Velocity P-wave (km/s) = 4.81789 5.70132 5.27812
#
# Compressibility (1/GPa) = 0.02872675
#
# Stress axis : x y z
#
# Youngs Moduli (GPa) = 30.09255 55.36196 134.22969
#
# Poissons Ratio (x) = 0.67321 0.10430
# Poissons Ratio (y) = 0.36593 0.27802
# Poissons Ratio (z) = 0.02338 0.11467
#
# Static dielectric constant tensor:
#      x y z
#    x 1.973500 0.000000 0.003740 
#    y 0.000000 1.958330 0.000000 
#    z 0.003740 0.000000 1.971120 
# 
# From -- ./inp_files/30424.got.cif
#   From: 2010.05.17/outbox.cif.g08.bks.cpg/sg14_16_cif.got.tgz:30424.got - 2010.06.03 17:49:19.
