data_PCOD9240459
_publ_section_title
;
Structure prediction by ZEFSAII (Michael W. Deem and Ramdas Pophale) SiO2 
 PCOD9240459
Probable space group: P 21/C
;
_chemical_formula_sum "Si O2"
_cell_formula_units_Z 32
_cell_length_a 9.437839
_cell_length_b 13.832664
_cell_length_c 25.452835
_cell_angle_alpha 90.000000
_cell_angle_beta 27.076392
_cell_angle_gamma 90.000000
_cell_volume 1512.501738
_symmetry_space_group_name_H-M "P 21/C"
_symmetry_group_IT_number 14
_symmetry_cell_setting 'monoclinic'
loop_
_space_group_symop_operation_xyz
x,y,z
-x,1/2+y,1/2-z
-x,-y,-z
x,1/2-y,1/2+z
loop_
_atom_site_type_symbol
_atom_site_label
_atom_site_fract_x
_atom_site_fract_y
_atom_site_fract_z
Si Si1 0.430120 0.694551 0.564850
Si Si2 0.053275 0.169675 0.571334
Si Si3 0.602812 0.128544 0.811676
Si Si4 0.596080 0.839709 0.639912
Si Si5 0.535810 0.076708 0.107294
Si Si6 0.030082 0.368802 0.359765
Si Si7 0.070124 0.070358 0.162929
Si Si8 0.506461 0.291225 0.716921
O O1 0.626581 0.790065 0.510595
O O2 0.279147 0.657636 0.668864
O O3 0.673997 0.614486 0.462003
O O4 0.178872 0.708138 0.602882
O O5 0.151987 0.119499 0.484144
O O6 0.860478 0.119186 0.681126
O O7 0.853304 0.264378 0.621011
O O8 0.397240 0.222344 0.865732
O O9 0.433811 0.027605 0.875691
O O10 0.634415 0.856217 0.689301
O O11 0.249797 0.869971 0.735624
O O12 0.248886 0.073815 0.159868
O O13 0.487715 0.155165 0.168284
O O14 0.844483 0.102003 0.972927
O O15 0.348453 0.314501 0.265041
O O16 0.024861 0.463558 0.324933
#
# Coordination Sequence:
#
# PCOD9240459 Si02
#       8
#     4   4   4   4   4   4   4   4
#     4  10  18  38  65  93 125 156 207 262 321 372
#     4  10  22  41  61  89 131 176 205 254 327 385
#     4  10  19  38  64  94 123 159 219 257 309 388
#     4  10  23  41  62  88 134 177 203 258 329 385
#     4  11  23  38  67  96 125 160 218 274 311 377
#     4  11  23  39  67  99 128 161 216 277 314 365
#     4  11  20  41  66  98 126 163 209 266 326 367
#     4  11  24  41  60  98 129 167 217 265 321 376
#
# _framework density 21.157
#
# number of rings (size 3 to 8) (size 9 to 14) (size 15 to 20)
#    0.000    1.500    5.000    1.500    3.500    2.000 
#    0.000    8.750    0.000    0.000    0.000    0.000 
#    0.000    0.000    0.000    0.000    0.000    0.000 
#
# Total GULP energy -178553.044284 kJ/mol
# GULP energy per Si atom -5579.782634 kJ/mol
# Density = 2.110885 g / cm^3
# Si number density = 21.157000 Si / 1000 Ang^3
#
#
#
# Elastic Constant Matrix: (Units=GPa)
#
#
# Indices 1 2 3 4 5 6 
#
# 1 89.6149 28.4808 38.0119 0.0000 24.3191 0.0000
# 2 28.4808 59.0224 15.3128 0.0000 9.1529 0.0000
# 3 38.0119 15.3128 98.9243 0.0000 34.6174 0.0000
# 4 0.0000 0.0000 0.0000 17.5943 0.0000 8.5736
# 5 24.3191 9.1529 34.6174 0.0000 35.3563 0.0000
# 6 0.0000 0.0000 0.0000 8.5736 0.0000 27.8670
#
#
#
# Elastic Compliance Matrix: (Units=1/GPa)
#
#
# Indices 1 2 3 4 5 6 
#
# 1 0.016112 -0.005980 -0.002934 0.000000 -0.006661 0.000000
# 2 -0.005980 0.020067 -0.000654 0.000000 -0.000441 0.000000
# 3 -0.002934 -0.000654 0.016082 0.000000 -0.013558 0.000000
# 4 0.000000 0.000000 0.000000 0.066860 0.000000 -0.020570
# 5 -0.006661 -0.000441 -0.013558 0.000000 0.046254 0.000000
# 6 0.000000 0.000000 0.000000 -0.020570 0.000000 0.042213
#
#
# Mechanical properties :
#
#
# Convention : Reuss Voigt Hill
#
# Bulk Modulus (GPa) = 30.19023 45.68584 37.93803
# Shear Modulus (GPa) = 21.02903 27.21394 24.12148
#
# Velocity S-wave (km/s) = 3.15612 3.59037 3.38023
# Velocity P-wave (km/s) = 5.25186 6.23124 5.76239
#
# Compressibility (1/GPa) = 0.03312330
#
# Stress axis : x y z
#
# Youngs Moduli (GPa) = 62.06645 49.83421 62.18102
#
# Poissons Ratio (x) = 0.29803 0.18246
# Poissons Ratio (y) = 0.37118 0.04065
# Poissons Ratio (z) = 0.18213 0.03258
#
# Static dielectric constant tensor:
#      x y z
#    x 1.792990 0.000000 0.038870 
#    y 0.000000 1.785030 0.000000 
#    z 0.038870 0.000000 1.786290 
# 
# From -- ./inp_files/72450.got.cif
#   From: 2010.05.17/outbox.cif.g08.bks.cpg/sg14_37_cif.got.tgz:72450.got - 2010.06.03 17:49:19.
