data_PCOD9240142
_publ_section_title
;
Structure prediction by ZEFSAII (Michael W. Deem and Ramdas Pophale) SiO2 
 PCOD9240142
Probable space group: P 21/C
;
_chemical_formula_sum "Si O2"
_cell_formula_units_Z 24
_cell_length_a 19.005189
_cell_length_b 9.050357
_cell_length_c 24.576208
_cell_angle_alpha 90.000000
_cell_angle_beta 160.908463
_cell_angle_gamma 90.000000
_cell_volume 1382.625414
_symmetry_space_group_name_H-M "P 21/C"
_symmetry_group_IT_number 14
_symmetry_cell_setting 'monoclinic'
loop_
_space_group_symop_operation_xyz
x,y,z
-x,1/2+y,1/2-z
-x,-y,-z
x,1/2-y,1/2+z
loop_
_atom_site_type_symbol
_atom_site_label
_atom_site_fract_x
_atom_site_fract_y
_atom_site_fract_z
Si Si1 0.757278 0.499999 0.843643
Si Si2 0.344412 0.999999 0.437176
Si Si3 0.419926 0.752523 0.581361
Si Si4 0.539801 0.000001 0.297820
Si Si5 0.848366 0.500000 0.569641
Si Si6 0.419925 0.252524 0.081360
O O1 0.626020 0.644650 0.727812
O O2 0.720167 0.499998 0.882119
O O3 0.626021 0.355347 0.727813
O O4 0.000000 0.500000 0.000000
O O5 0.388098 0.857520 0.506823
O O6 0.096944 0.999999 0.238071
O O7 0.500000 0.000000 0.500000
O O8 0.388097 0.142477 0.506822
O O9 0.443480 0.857959 0.651221
O O10 0.220027 0.643579 0.445804
O O11 0.556522 0.857959 0.348780
O O12 0.313738 0.000000 0.100248
O O13 0.779972 0.643579 0.554196
#
# Coordination Sequence:
#
# PCOD9240142 Si02
#       6
#     4   4   4   4   4   4
#     4  10  19  33  56  84 105 128 169 222 262 297
#     4  11  23  35  51  77 108 138 174 217 257 297
#     4   9  20  37  54  76 105 139 174 208 255 314
#     4   9  18  35  58  79 102 136 174 209 254 313
#     4  10  18  35  56  76 102 140 174 206 254 317
#     4   9  20  37  54  76 105 139 174 208 255 314
#
# _framework density 17.358280000000001
#
# number of rings (size 3 to 8) (size 9 to 14) (size 15 to 20)
#    0.000    2.667    0.000    5.000    0.000    5.333 
#    0.000    6.667    0.000    0.000    0.000    0.000 
#    0.000    0.000    0.000    0.000    0.000    0.000 
#
# Total GULP energy -133867.358438 kJ/mol
# GULP energy per Si atom -5577.806602 kJ/mol
# Density = 1.731877 g / cm^3
# Si number density = 17.358280 Si / 1000 Ang^3
#
#
#
# Elastic Constant Matrix: (Units=GPa)
#
#
# Indices 1 2 3 4 5 6 
#
# 1 134.5044 61.2937 88.3661 0.0000 13.6237 0.0000
# 2 61.2937 135.4132 52.5316 0.0000 10.3962 0.0000
# 3 88.3661 52.5316 116.4385 0.0000 43.0095 0.0000
# 4 0.0000 0.0000 0.0000 6.0099 0.0000 6.0420
# 5 13.6237 10.3962 43.0095 0.0000 34.2279 0.0000
# 6 0.0000 0.0000 0.0000 6.0420 0.0000 7.3795
#
#
#
# Elastic Compliance Matrix: (Units=1/GPa)
#
#
# Indices 1 2 3 4 5 6 
#
# 1 0.021569 -0.002430 -0.023092 0.000000 0.021169 0.000000
# 2 -0.002430 0.009594 -0.003294 0.000000 0.002192 0.000000
# 3 -0.023092 -0.003294 0.044479 0.000000 -0.045699 0.000000
# 4 0.000000 0.000000 0.000000 0.940793 0.000000 -0.770281
# 5 0.021169 0.002192 -0.045699 0.000000 0.077548 0.000000
# 6 0.000000 0.000000 0.000000 -0.770281 0.000000 0.766185
#
#
# Mechanical properties :
#
#
# Convention : Reuss Voigt Hill
#
# Bulk Modulus (GPa) = 55.52456 87.85987 71.69222
# Shear Modulus (GPa) = 2.59902 21.80109 12.20005
#
# Velocity S-wave (km/s) = 1.22496 3.54778 2.65398
# Velocity P-wave (km/s) = 5.83588 8.21631 7.12619
#
# Compressibility (1/GPa) = 0.01801005
#
# Stress axis : x y z
#
# Youngs Moduli (GPa) = 46.36390 104.22807 22.48254
#
# Poissons Ratio (x) = 0.25327 0.51916
# Poissons Ratio (y) = 0.11266 0.07406
# Poissons Ratio (z) = 1.07062 0.34335
#
# Static dielectric constant tensor:
#      x y z
#    x 1.566020 0.000000 -0.016180 
#    y 0.000000 1.607690 0.000000 
#    z -0.016180 0.000000 1.572230 
# 
# From -- ./inp_files/48493.got.cif
#   From: 2010.05.17/outbox.cif.g08.bks.cpg/sg14_25_cif.got.tgz:48493.got - 2010.06.03 17:49:19.
