data_PCOD9240001
_publ_section_title
;
Structure prediction by ZEFSAII (Michael W. Deem and Ramdas Pophale) SiO2 
 PCOD9240001
Probable space group: P 21/C
;
_chemical_formula_sum "Si O2"
_cell_formula_units_Z 20
_cell_length_a 11.698296
_cell_length_b 7.375946
_cell_length_c 21.307485
_cell_angle_alpha 90.000000
_cell_angle_beta 25.618696
_cell_angle_gamma 90.000000
_cell_volume 794.946905
_symmetry_space_group_name_H-M "P 21/C"
_symmetry_group_IT_number 14
_symmetry_cell_setting 'monoclinic'
loop_
_space_group_symop_operation_xyz
x,y,z
-x,1/2+y,1/2-z
-x,-y,-z
x,1/2-y,1/2+z
loop_
_atom_site_type_symbol
_atom_site_label
_atom_site_fract_x
_atom_site_fract_y
_atom_site_fract_z
Si Si1 0.509118 0.741534 0.078670
Si Si2 0.029846 0.267495 0.341663
Si Si3 0.018247 0.589554 0.758587
Si Si4 0.305703 0.012767 0.278265
Si Si5 0.688326 0.039289 0.582605
O O1 0.282231 0.796506 0.142169
O O2 0.484811 0.903133 0.141121
O O3 0.499132 0.567308 0.129143
O O4 0.765797 0.693974 0.911286
O O5 0.015557 0.428899 0.299655
O O6 0.040088 0.095858 0.287494
O O7 0.257671 0.219392 0.278745
O O8 0.776319 0.232444 0.510497
O O9 0.991586 0.945116 0.431837
O O10 0.397077 0.980359 0.303588
#
# Coordination Sequence:
#
# PCOD9240001 Si02
#       5
#     4   4   4   4   4
#     4  10  18  34  52  76  98 140 160 220 250 310
#     4   8  17  34  52  74 101 142 164 210 248 314
#     4  10  20  32  53  74 109 130 176 198 266 292
#     4   8  16  33  53  68  98 139 167 199 258 307
#     4   8  16  33  53  68  98 139 167 199 258 307
#
# _framework density 25.158912999999998
#
# number of rings (size 3 to 8) (size 9 to 14) (size 15 to 20)
#    1.200    2.000    2.000    0.000    0.000    6.400 
#    0.000    7.000    0.000    0.000    0.000    0.000 
#    0.000    0.000    0.000    0.000    0.000    0.000 
#
# Total GULP energy -111414.895684 kJ/mol
# GULP energy per Si atom -5570.744784 kJ/mol
# Density = 2.510165 g / cm^3
# Si number density = 25.158913 Si / 1000 Ang^3
#
#
#
# Elastic Constant Matrix: (Units=GPa)
#
#
# Indices 1 2 3 4 5 6 
#
# 1 114.0277 -15.4047 25.8408 0.0000 48.0568 0.0000
# 2 -15.4047 48.8535 -6.3231 0.0000 7.7457 0.0000
# 3 25.8408 -6.3231 66.5338 0.0000 8.4147 0.0000
# 4 0.0000 0.0000 0.0000 25.0257 0.0000 4.3913
# 5 48.0568 7.7457 8.4147 0.0000 50.4415 0.0000
# 6 0.0000 0.0000 0.0000 4.3913 0.0000 30.5633
#
#
#
# Elastic Compliance Matrix: (Units=1/GPa)
#
#
# Indices 1 2 3 4 5 6 
#
# 1 0.018449 0.008165 -0.004094 0.000000 -0.018147 0.000000
# 2 0.008165 0.024993 0.000688 0.000000 -0.011731 0.000000
# 3 -0.004094 0.000688 0.016555 0.000000 0.001033 0.000000
# 4 0.000000 0.000000 0.000000 0.040992 0.000000 -0.005890
# 5 -0.018147 -0.011731 0.001033 0.000000 0.038743 0.000000
# 6 0.000000 0.000000 0.000000 -0.005890 0.000000 0.033565
#
#
# Mechanical properties :
#
#
# Convention : Reuss Voigt Hill
#
# Bulk Modulus (GPa) = 14.38573 26.40456 20.39514
# Shear Modulus (GPa) = 26.74485 36.22624 31.48554
#
# Velocity S-wave (km/s) = 3.26396 3.79871 3.54145
# Velocity P-wave (km/s) = 4.46486 5.45511 4.98463
#
# Compressibility (1/GPa) = 0.06951335
#
# Stress axis : x y z
#
# Youngs Moduli (GPa) = 54.20395 40.01127 60.40560
#
# Poissons Ratio (x) = -0.32668 0.24731
# Poissons Ratio (y) = -0.44256 -0.04155
# Poissons Ratio (z) = 0.22192 -0.02752
#
# Static dielectric constant tensor:
#      x y z
#    x 2.047510 0.000000 -0.060740 
#    y 0.000000 2.154140 0.000000 
#    z -0.060740 0.000000 2.021620 
# 
# From -- ./inp_files/73884.got.cif
#   From: 2010.05.17/outbox.cif.g08.bks.cpg/sg14_37_cif.got.tgz:73884.got - 2010.06.03 17:49:19.
