data_PCOD9240505
_publ_section_title
;
Structure prediction by ZEFSAII (Michael W. Deem and Ramdas Pophale) SiO2 
 PCOD9240505
Probable space group: P 21/C
;
_chemical_formula_sum "Si O2"
_cell_formula_units_Z 32
_cell_length_a 16.525742
_cell_length_b 12.784328
_cell_length_c 13.716633
_cell_angle_alpha 90.000000
_cell_angle_beta 31.939272
_cell_angle_gamma 90.000000
_cell_volume 1533.057977
_symmetry_space_group_name_H-M "P 21/C"
_symmetry_group_IT_number 14
_symmetry_cell_setting 'monoclinic'
loop_
_space_group_symop_operation_xyz
x,y,z
-x,1/2+y,1/2-z
-x,-y,-z
x,1/2-y,1/2+z
loop_
_atom_site_type_symbol
_atom_site_label
_atom_site_fract_x
_atom_site_fract_y
_atom_site_fract_z
Si Si1 0.017634 0.010873 0.301254
Si Si2 0.551763 0.343828 0.126452
Si Si3 0.834469 0.296394 0.941572
Si Si4 0.363759 0.218601 0.646015
Si Si5 0.281115 0.338587 0.540241
Si Si6 0.068942 0.590246 0.549573
Si Si7 0.902863 0.722113 0.939677
Si Si8 0.745010 0.509604 0.812444
O O1 0.876741 0.091165 0.441108
O O2 0.954082 0.898380 0.398788
O O3 0.085708 0.987047 0.124237
O O4 0.157645 0.076211 0.204396
O O5 0.492364 0.272065 0.097976
O O6 0.407144 0.382950 0.336536
O O7 0.661218 0.281730 0.088066
O O8 0.656618 0.437214 0.978638
O O9 0.890789 0.205624 0.955427
O O10 0.939690 0.284766 0.736832
O O11 0.363317 0.286272 0.548692
O O12 0.367618 0.097068 0.613662
O O13 0.202671 0.241650 0.864555
O O14 0.191582 0.253416 0.562777
O O15 0.181017 0.558612 0.348851
O O16 0.891883 0.573009 0.702932
#
# Coordination Sequence:
#
# PCOD9240505 Si02
#       8
#     4   4   4   4   4   4   4   4
#     4  10  18  40  62  88 121 172 217 253 320 383
#     4  11  24  39  60  96 136 164 207 262 326 395
#     4  10  20  38  62  94 127 168 209 266 318 376
#     4  11  23  41  62  93 130 167 208 267 323 381
#     4  10  23  41  62  92 133 169 207 264 331 381
#     4  10  21  35  66  98 124 156 216 282 307 368
#     4   9  21  40  65  90 122 163 219 274 308 376
#     4  11  21  38  66  99 121 161 220 268 322 372
#
# _framework density 20.873314000000001
#
# number of rings (size 3 to 8) (size 9 to 14) (size 15 to 20)
#    0.000    1.750    1.250    4.875    3.500    0.500 
#    2.250    0.000    0.000    3.750    0.000    0.000 
#    0.000    0.000    0.000    0.000    0.000    0.000 
#
# Total GULP energy -178565.897384 kJ/mol
# GULP energy per Si atom -5580.184293 kJ/mol
# Density = 2.082581 g / cm^3
# Si number density = 20.873314 Si / 1000 Ang^3
#
#
#
# Elastic Constant Matrix: (Units=GPa)
#
#
# Indices 1 2 3 4 5 6 
#
# 1 47.8523 11.5402 21.0750 0.0000 -12.3127 0.0000
# 2 11.5402 95.4958 16.1547 0.0000 -2.5511 0.0000
# 3 21.0750 16.1547 63.3255 0.0000 -4.7534 0.0000
# 4 0.0000 0.0000 0.0000 17.7016 0.0000 0.8177
# 5 -12.3127 -2.5511 -4.7534 0.0000 26.5285 0.0000
# 6 0.0000 0.0000 0.0000 0.8177 0.0000 23.4969
#
#
#
# Elastic Compliance Matrix: (Units=1/GPa)
#
#
# Indices 1 2 3 4 5 6 
#
# 1 0.027706 -0.001704 -0.007940 0.000000 0.011273 0.000000
# 2 -0.001704 0.011057 -0.002264 0.000000 -0.000133 0.000000
# 3 -0.007940 -0.002264 0.018974 0.000000 -0.000503 0.000000
# 4 0.000000 0.000000 0.000000 0.056583 0.000000 -0.001969
# 5 0.011273 -0.000133 -0.000503 0.000000 0.042824 0.000000
# 6 0.000000 0.000000 0.000000 -0.001969 0.000000 0.042627
#
#
# Mechanical properties :
#
#
# Convention : Reuss Voigt Hill
#
# Bulk Modulus (GPa) = 29.47960 33.80150 31.64055
# Shear Modulus (GPa) = 21.28629 24.07232 22.67930
#
# Velocity S-wave (km/s) = 3.19687 3.39965 3.29982
# Velocity P-wave (km/s) = 5.27071 5.62485 5.45066
#
# Compressibility (1/GPa) = 0.03392176
#
# Stress axis : x y z
#
# Youngs Moduli (GPa) = 36.09339 90.44095 52.70496
#
# Poissons Ratio (x) = 0.15410 0.41847
# Poissons Ratio (y) = 0.06150 0.11931
# Poissons Ratio (z) = 0.28658 0.20473
#
# Static dielectric constant tensor:
#      x y z
#    x 1.815130 0.000000 -0.021450 
#    y 0.000000 1.755500 0.000000 
#    z -0.021450 0.000000 1.750850 
# 
# From -- ./inp_files/48976.got.cif
#   From: 2010.05.17/outbox.cif.g08.bks.cpg/sg14_25_cif.got.tgz:48976.got - 2010.06.03 17:49:19.
