data_PCOD9240769
_publ_section_title
;
Structure prediction by ZEFSAII (Michael W. Deem and Ramdas Pophale) SiO2 
 PCOD9240769
Probable space group: P 21/C
;
_chemical_formula_sum "Si O2"
_cell_formula_units_Z 28
_cell_length_a 12.328054
_cell_length_b 22.687604
_cell_length_c 7.579364
_cell_angle_alpha 90.000000
_cell_angle_beta 139.244428
_cell_angle_gamma 90.000000
_cell_volume 1383.943328
_symmetry_space_group_name_H-M "P 21/C"
_symmetry_group_IT_number 14
_symmetry_cell_setting 'monoclinic'
loop_
_space_group_symop_operation_xyz
x,y,z
-x,1/2+y,1/2-z
-x,-y,-z
x,1/2-y,1/2+z
loop_
_atom_site_type_symbol
_atom_site_label
_atom_site_fract_x
_atom_site_fract_y
_atom_site_fract_z
Si Si1 0.896218 0.934510 0.185939
Si Si2 0.041558 0.368641 0.606750
Si Si3 0.895801 0.248044 0.035749
Si Si4 0.242995 0.316810 0.425486
Si Si5 0.634326 0.796973 0.553748
Si Si6 0.697195 0.319005 0.564851
Si Si7 0.858091 0.063254 0.193851
O O1 0.789575 0.884438 0.154108
O O2 0.052828 0.942809 0.506940
O O3 0.944430 0.906965 0.055317
O O4 0.810643 0.998191 0.069342
O O5 0.220745 0.337323 0.853979
O O6 0.977681 0.408526 0.690066
O O7 0.922526 0.310967 0.447565
O O8 0.737451 0.290562 0.803245
O O9 0.854821 0.213008 0.164957
O O10 0.063549 0.286941 0.252390
O O11 0.366169 0.316686 0.744503
O O12 0.312680 0.271419 0.371441
O O13 0.469770 0.801880 0.238029
O O14 0.718439 0.388230 0.560813
#
# Coordination Sequence:
#
# PCOD9240769 Si02
#       7
#     4   4   4   4   4   4   4
#     4  10  19  35  57  83 104 143 194 222 257 322
#     4   9  20  36  55  78 107 145 182 224 272 327
#     4  10  19  32  56  76 105 142 180 227 274 310
#     4  10  19  35  53  79 104 145 179 222 268 337
#     4  10  21  32  54  80 112 138 172 225 291 313
#     4  11  20  34  51  85 110 137 178 230 272 324
#     4  10  21  34  59  80 108 145 186 226 263 316
#
# _framework density 20.232043000000001
#
# number of rings (size 3 to 8) (size 9 to 14) (size 15 to 20)
#    0.000    2.000    1.429    3.857    4.000    0.000 
#    0.000    2.857    0.000    6.857    0.000    0.000 
#    0.000    0.000    0.000    0.000    0.000    0.000 
#
# Total GULP energy -155926.940133 kJ/mol
# GULP energy per Si atom -5568.819290 kJ/mol
# Density = 2.018599 g / cm^3
# Si number density = 20.232043 Si / 1000 Ang^3
#
#
#
# Elastic Constant Matrix: (Units=GPa)
#
#
# Indices 1 2 3 4 5 6 
#
# 1 19.8717 16.4476 0.0775 0.0000 -3.1095 0.0000
# 2 16.4476 158.7763 8.3424 0.0000 5.7757 0.0000
# 3 0.0775 8.3424 67.7327 0.0000 -0.7339 0.0000
# 4 0.0000 0.0000 0.0000 24.1702 0.0000 -8.1697
# 5 -3.1095 5.7757 -0.7339 0.0000 14.3389 0.0000
# 6 0.0000 0.0000 0.0000 -8.1697 0.0000 25.3910
#
#
#
# Elastic Compliance Matrix: (Units=1/GPa)
#
#
# Indices 1 2 3 4 5 6 
#
# 1 0.058213 -0.006637 0.000917 0.000000 0.015344 0.000000
# 2 -0.006637 0.007194 -0.000926 0.000000 -0.004384 0.000000
# 3 0.000917 -0.000926 0.014891 0.000000 0.001334 0.000000
# 4 0.000000 0.000000 0.000000 0.046422 0.000000 0.014937
# 5 0.015344 -0.004384 0.001334 0.000000 0.074902 0.000000
# 6 0.000000 0.000000 0.000000 0.014937 0.000000 0.044190
#
#
# Mechanical properties :
#
#
# Convention : Reuss Voigt Hill
#
# Bulk Modulus (GPa) = 14.92373 32.90173 23.91273
# Shear Modulus (GPa) = 17.76581 27.54756 22.65669
#
# Velocity S-wave (km/s) = 2.96649 3.69396 3.35003
# Velocity P-wave (km/s) = 4.37330 5.87293 5.17770
#
# Compressibility (1/GPa) = 0.06700739
#
# Stress axis : x y z
#
# Youngs Moduli (GPa) = 17.17821 139.00870 67.15298
#
# Poissons Ratio (x) = 0.92255 -0.06158
# Poissons Ratio (y) = 0.11401 0.06218
# Poissons Ratio (z) = -0.01575 0.12871
#
# Static dielectric constant tensor:
#      x y z
#    x 1.870610 0.000000 -0.071670 
#    y 0.000000 1.780930 0.000000 
#    z -0.071670 0.000000 1.753800 
# 
# From -- ./inp_files/9866.got.cif
#   From: 2010.05.17/outbox.cif.g08.bks.cpg/sg14_5_cif.got.tgz:9866.got - 2010.06.03 17:49:19.
