data_PCOD9240695
_publ_section_title
;
Structure prediction by ZEFSAII (Michael W. Deem and Ramdas Pophale) SiO2 
 PCOD9240695
Probable space group: P 21/C
;
_chemical_formula_sum "Si O2"
_cell_formula_units_Z 32
_cell_length_a 11.654532
_cell_length_b 15.839410
_cell_length_c 14.650691
_cell_angle_alpha 90.000000
_cell_angle_beta 150.084153
_cell_angle_gamma 90.000000
_cell_volume 1348.823905
_symmetry_space_group_name_H-M "P 21/C"
_symmetry_group_IT_number 14
_symmetry_cell_setting 'monoclinic'
loop_
_space_group_symop_operation_xyz
x,y,z
-x,1/2+y,1/2-z
-x,-y,-z
x,1/2-y,1/2+z
loop_
_atom_site_type_symbol
_atom_site_label
_atom_site_fract_x
_atom_site_fract_y
_atom_site_fract_z
Si Si1 0.679092 0.717906 0.933073
Si Si2 0.773902 0.833182 0.304568
Si Si3 0.589273 0.976759 0.707905
Si Si4 0.338369 0.116719 0.415483
Si Si5 0.847427 0.284421 0.375551
Si Si6 0.892035 0.906349 0.055605
Si Si7 0.680638 0.257966 0.576026
Si Si8 0.880235 0.117138 0.601194
O O1 0.732946 0.658314 0.883964
O O2 0.788721 0.677271 0.100127
O O3 0.752433 0.816509 0.972148
O O4 0.400621 0.719128 0.749728
O O5 0.934123 0.748030 0.416714
O O6 0.939401 0.890381 0.357151
O O7 0.517513 0.823652 0.087145
O O8 0.736414 0.933582 0.726283
O O9 0.743875 0.977766 0.904694
O O10 0.369170 0.920982 0.588784
O O11 0.461393 0.052072 0.568880
O O12 0.526333 0.178892 0.502546
O O13 0.913956 0.375480 0.381746
O O14 0.821073 0.225049 0.265764
O O15 0.004458 0.925835 0.230090
O O16 0.826678 0.213674 0.596997
#
# Coordination Sequence:
#
# PCOD9240695 Si02
#       8
#     4   4   4   4   4   4   4   4
#     4  10  19  33  52  80 110 136 175 222 259 309
#     4  11  19  30  53  76 106 143 168 209 268 309
#     4  10  20  37  57  77 106 140 173 222 273 309
#     4   9  18  35  56  77 107 137 171 223 271 308
#     4   9  17  30  48  75 104 133 172 215 263 306
#     4  10  20  33  55  79 105 137 172 217 266 309
#     4   9  18  32  49  76 107 130 170 223 259 307
#     4  10  19  32  50  75 102 137 177 207 255 323
#
# _framework density 23.724373
#
# number of rings (size 3 to 8) (size 9 to 14) (size 15 to 20)
#    0.000    2.250    0.000    6.750    0.000    0.000 
#    0.000   20.000    0.000    0.750    0.000    0.000 
#    0.000    0.000    0.000    0.000    0.000    0.000 
#
# Total GULP energy -178230.457368 kJ/mol
# GULP energy per Si atom -5569.701793 kJ/mol
# Density = 2.367038 g / cm^3
# Si number density = 23.724373 Si / 1000 Ang^3
#
#
#
# Elastic Constant Matrix: (Units=GPa)
#
#
# Indices 1 2 3 4 5 6 
#
# 1 105.3213 -8.5403 1.5654 0.0000 3.6080 0.0000
# 2 -8.5403 16.9685 -7.3732 0.0000 1.9835 0.0000
# 3 1.5654 -7.3732 106.9131 0.0000 -4.2751 0.0000
# 4 0.0000 0.0000 0.0000 26.9399 0.0000 -1.7883
# 5 3.6080 1.9835 -4.2751 0.0000 30.7844 0.0000
# 6 0.0000 0.0000 0.0000 -1.7883 0.0000 22.7820
#
#
#
# Elastic Compliance Matrix: (Units=1/GPa)
#
#
# Indices 1 2 3 4 5 6 
#
# 1 0.009970 0.005260 0.000157 0.000000 -0.001486 0.000000
# 2 0.005260 0.063874 0.004162 0.000000 -0.004154 0.000000
# 3 0.000157 0.004162 0.009680 0.000000 0.001058 0.000000
# 4 0.000000 0.000000 0.000000 0.037314 0.000000 0.002929
# 5 -0.001486 -0.004154 0.001058 0.000000 0.033073 0.000000
# 6 0.000000 0.000000 0.000000 0.002929 0.000000 0.044124
#
#
# Mechanical properties :
#
#
# Convention : Reuss Voigt Hill
#
# Bulk Modulus (GPa) = 9.73874 22.27852 16.00863
# Shear Modulus (GPa) = 23.46267 32.33800 27.90034
#
# Velocity S-wave (km/s) = 3.14820 3.69598 3.43304
# Velocity P-wave (km/s) = 4.16278 5.25592 4.74096
#
# Compressibility (1/GPa) = 0.10268273
#
# Stress axis : x y z
#
# Youngs Moduli (GPa) = 100.30272 15.65579 103.30147
#
# Poissons Ratio (x) = -0.08235 -0.01626
# Poissons Ratio (y) = -0.52758 -0.42993
# Poissons Ratio (z) = -0.01578 -0.06516
#
# Static dielectric constant tensor:
#      x y z
#    x 1.992800 0.000000 0.014430 
#    y 0.000000 1.993590 0.000000 
#    z 0.014430 0.000000 1.965480 
# 
# From -- ./inp_files/45447.got.cif
#   From: 2010.05.17/outbox.cif.g08.bks.cpg/sg14_23_cif.got.tgz:45447.got - 2010.06.03 17:49:19.
