data_PCOD9240842
_publ_section_title
;
Structure prediction by ZEFSAII (Michael W. Deem and Ramdas Pophale) SiO2 
 PCOD9240842
Probable space group: P 21/C
;
_chemical_formula_sum "Si O2"
_cell_formula_units_Z 24
_cell_length_a 5.057025
_cell_length_b 15.787386
_cell_length_c 15.670374
_cell_angle_alpha 90.000000
_cell_angle_beta 74.802532
_cell_angle_gamma 90.000000
_cell_volume 1207.326242
_symmetry_space_group_name_H-M "P 21/C"
_symmetry_group_IT_number 14
_symmetry_cell_setting 'monoclinic'
loop_
_space_group_symop_operation_xyz
x,y,z
-x,1/2+y,1/2-z
-x,-y,-z
x,1/2-y,1/2+z
loop_
_atom_site_type_symbol
_atom_site_label
_atom_site_fract_x
_atom_site_fract_y
_atom_site_fract_z
Si Si1 0.500092 0.284598 0.931782
Si Si2 0.634716 0.412924 0.778638
Si Si3 0.257070 0.390704 0.471195
Si Si4 0.047218 0.002057 0.357550
Si Si5 0.912779 0.368578 0.012539
Si Si6 0.335280 0.917898 0.918115
O O1 0.643416 0.331761 0.840360
O O2 0.413025 0.189046 0.918434
O O3 0.690553 0.301149 0.998443
O O4 0.213556 0.330685 0.975905
O O5 0.855310 0.482129 0.792470
O O6 0.674618 0.388029 0.677705
O O7 0.335422 0.453663 0.815045
O O8 0.388891 0.396196 0.554738
O O9 0.316895 0.479605 0.420538
O O10 0.930390 0.384609 0.508197
O O11 0.889792 0.053744 0.446497
O O12 0.105061 0.909944 0.392469
#
# Coordination Sequence:
#
# PCOD9240842 Si02
#       6
#     4   4   4   4   4   4
#     4  10  19  33  54  79 108 139 176 226 274 315
#     4  10  19  33  55  81 108 138 178 228 272 313
#     4  10  21  38  57  75 103 144 186 221 262 322
#     4   9  17  30  50  77 110 143 172 207 262 330
#     4   9  17  30  50  77 109 144 173 203 263 335
#     4  10  21  38  58  77 102 144 189 221 261 322
#
# _framework density 19.878636
#
# number of rings (size 3 to 8) (size 9 to 14) (size 15 to 20)
#    0.000    2.333    0.000    3.000    0.000    4.000 
#    0.000    5.000    0.000    4.000    0.000    0.000 
#    0.000    0.000    0.000    0.000    0.000    0.000 
#
# Total GULP energy -133824.378691 kJ/mol
# GULP energy per Si atom -5576.015779 kJ/mol
# Density = 1.983339 g / cm^3
# Si number density = 19.878636 Si / 1000 Ang^3
#
#
#
# Elastic Constant Matrix: (Units=GPa)
#
#
# Indices 1 2 3 4 5 6 
#
# 1 77.8385 8.9324 -6.4715 0.0000 10.4326 0.0000
# 2 8.9324 71.2652 11.9403 0.0000 0.1521 0.0000
# 3 -6.4715 11.9403 32.4967 0.0000 13.4944 0.0000
# 4 0.0000 0.0000 0.0000 6.8140 0.0000 3.6302
# 5 10.4326 0.1521 13.4944 0.0000 15.3399 0.0000
# 6 0.0000 0.0000 0.0000 3.6302 0.0000 26.1000
#
#
#
# Elastic Compliance Matrix: (Units=1/GPa)
#
#
# Indices 1 2 3 4 5 6 
#
# 1 0.018530 -0.005110 0.016984 0.000000 -0.027492 0.000000
# 2 -0.005110 0.016911 -0.013557 0.000000 0.015233 0.000000
# 3 0.016984 -0.013557 0.069129 0.000000 -0.072229 0.000000
# 4 0.000000 0.000000 0.000000 0.158501 0.000000 -0.022046
# 5 -0.027492 0.015233 -0.072229 0.000000 0.147275 0.000000
# 6 0.000000 0.000000 0.000000 -0.022046 0.000000 0.041380
#
#
# Mechanical properties :
#
#
# Convention : Reuss Voigt Hill
#
# Bulk Modulus (GPa) = 9.88087 23.37811 16.62949
# Shear Modulus (GPa) = 10.22853 20.79740 15.51296
#
# Velocity S-wave (km/s) = 2.27083 3.23804 2.79657
# Velocity P-wave (km/s) = 3.44339 5.07600 4.33721
#
# Compressibility (1/GPa) = 0.10120561
#
# Stress axis : x y z
#
# Youngs Moduli (GPa) = 53.96572 59.13140 14.46563
#
# Poissons Ratio (x) = 0.30214 -0.24568
# Poissons Ratio (y) = 0.27574 0.19611
# Poissons Ratio (z) = -0.91655 0.80165
#
# Static dielectric constant tensor:
#      x y z
#    x 1.680700 0.000000 0.026040 
#    y 0.000000 1.751570 0.000000 
#    z 0.026040 0.000000 1.704820 
# 
# From -- ./inp_files/37296.got.cif
#   From: 2010.05.17/outbox.cif.g08.bks.cpg/sg14_19_cif.got.tgz:37296.got - 2010.06.03 17:49:19.
