data_PCOD9240803
_publ_section_title
;
Structure prediction by ZEFSAII (Michael W. Deem and Ramdas Pophale) SiO2 
 PCOD9240803
Probable space group: P 21/C
;
_chemical_formula_sum "Si O2"
_cell_formula_units_Z 28
_cell_length_a 17.541917
_cell_length_b 8.521440
_cell_length_c 9.011255
_cell_angle_alpha 90.000000
_cell_angle_beta 90.257305
_cell_angle_gamma 90.000000
_cell_volume 1347.010380
_symmetry_space_group_name_H-M "P 21/C"
_symmetry_group_IT_number 14
_symmetry_cell_setting 'monoclinic'
loop_
_space_group_symop_operation_xyz
x,y,z
-x,1/2+y,1/2-z
-x,-y,-z
x,1/2-y,1/2+z
loop_
_atom_site_type_symbol
_atom_site_label
_atom_site_fract_x
_atom_site_fract_y
_atom_site_fract_z
Si Si1 0.070305 0.924582 0.419178
Si Si2 0.758539 0.374000 0.390850
Si Si3 0.606773 0.958032 0.508704
Si Si4 0.925683 0.085127 0.933079
Si Si5 0.403183 0.837195 0.999014
Si Si6 0.234515 0.541263 0.954862
Si Si7 0.494486 0.006312 0.753022
O O1 0.076750 0.752413 0.487530
O O2 0.061066 0.908720 0.243179
O O3 0.148216 0.019336 0.452464
O O4 0.000000 0.000000 0.500000
O O5 0.835502 0.463837 0.444433
O O6 0.678785 0.415763 0.467899
O O7 0.766062 0.188924 0.432074
O O8 0.751770 0.394696 0.213212
O O9 0.605144 0.149600 0.503693
O O10 0.696318 0.923689 0.510168
O O11 0.558819 0.919169 0.654751
O O12 0.558482 0.903953 0.367010
O O13 0.000000 0.000000 0.000000
O O14 0.460321 0.889724 0.128715
O O15 0.438240 0.896750 0.846086
#
# Coordination Sequence:
#
# PCOD9240803 Si02
#       7
#     4   4   4   4   4   4   4
#     4  10  20  36  58  87 115 148 185 232 280 336
#     4   9  18  31  52  79 105 132 174 223 272 317
#     4  10  19  33  50  75 104 134 173 223 264 306
#     4  10  20  36  58  87 115 148 185 232 280 336
#     4  10  19  33  50  75 104 134 173 223 264 306
#     4   9  18  31  52  79 105 132 174 223 272 317
#     4  10  20  30  50  76  98 134 172 210 270 318
#
# _framework density 20.786776
#
# number of rings (size 3 to 8) (size 9 to 14) (size 15 to 20)
#    0.000    2.286    1.429    1.714    6.000    1.143 
#    0.000    0.000    0.000   10.286    0.000    0.000 
#    0.000    0.000    0.000    0.000    0.000    0.000 
#
# Total GULP energy -156143.517331 kJ/mol
# GULP energy per Si atom -5576.554190 kJ/mol
# Density = 2.073946 g / cm^3
# Si number density = 20.786776 Si / 1000 Ang^3
#
#
#
# Elastic Constant Matrix: (Units=GPa)
#
#
# Indices 1 2 3 4 5 6 
#
# 1 188.1918 21.6003 62.4264 0.0000 -15.5982 0.0000
# 2 21.6003 11.7987 6.8886 0.0000 -4.6781 0.0000
# 3 62.4264 6.8886 106.6846 0.0000 -11.1230 0.0000
# 4 0.0000 0.0000 0.0000 27.3537 0.0000 0.0450
# 5 -15.5982 -4.6781 -11.1230 0.0000 37.0867 0.0000
# 6 0.0000 0.0000 0.0000 0.0450 0.0000 28.3929
#
#
#
# Elastic Compliance Matrix: (Units=1/GPa)
#
#
# Indices 1 2 3 4 5 6 
#
# 1 0.008050 -0.012216 -0.003850 0.000000 0.000690 0.000000
# 2 -0.012216 0.110135 0.000980 0.000000 0.009048 0.000000
# 3 -0.003850 0.000980 0.011775 0.000000 0.002036 0.000000
# 4 0.000000 0.000000 0.000000 0.036558 0.000000 -0.000058
# 5 0.000690 0.009048 0.002036 0.000000 0.029006 0.000000
# 6 0.000000 0.000000 0.000000 -0.000058 0.000000 0.035220
#
#
# Mechanical properties :
#
#
# Convention : Reuss Voigt Hill
#
# Bulk Modulus (GPa) = 10.02116 54.27839 32.14977
# Shear Modulus (GPa) = 16.99645 32.95065 24.97355
#
# Velocity S-wave (km/s) = 2.86257 3.98574 3.46990
# Velocity P-wave (km/s) = 3.96953 6.88115 5.61727
#
# Compressibility (1/GPa) = 0.09978885
#
# Stress axis : x y z
#
# Youngs Moduli (GPa) = 124.22163 9.07977 84.92508
#
# Poissons Ratio (x) = 0.11092 0.32694
# Poissons Ratio (y) = 1.51753 -0.08326
# Poissons Ratio (z) = 0.47822 -0.00890
#
# Static dielectric constant tensor:
#      x y z
#    x 1.842980 0.000000 0.013370 
#    y 0.000000 2.234200 0.000000 
#    z 0.013370 0.000000 1.721220 
# 
# From -- ./inp_files/15325.got.cif
#   From: 2010.05.17/outbox.cif.g08.bks.cpg/sg14_8_cif.got.tgz:15325.got - 2010.06.03 17:49:19.
