data_PCOD9240253
_publ_section_title
;
Structure prediction by ZEFSAII (Michael W. Deem and Ramdas Pophale) SiO2 
 PCOD9240253
Probable space group: P 21/C
;
_chemical_formula_sum "Si O2"
_cell_formula_units_Z 28
_cell_length_a 15.258100
_cell_length_b 11.025989
_cell_length_c 27.986033
_cell_angle_alpha 90.000000
_cell_angle_beta 163.000096
_cell_angle_gamma 90.000000
_cell_volume 1376.551023
_symmetry_space_group_name_H-M "P 21/C"
_symmetry_group_IT_number 14
_symmetry_cell_setting 'monoclinic'
loop_
_space_group_symop_operation_xyz
x,y,z
-x,1/2+y,1/2-z
-x,-y,-z
x,1/2-y,1/2+z
loop_
_atom_site_type_symbol
_atom_site_label
_atom_site_fract_x
_atom_site_fract_y
_atom_site_fract_z
Si Si1 0.086145 0.487433 0.971577
Si Si2 0.907433 0.571792 0.686804
Si Si3 0.795270 0.618068 0.226780
Si Si4 0.526210 0.238242 0.530562
Si Si5 0.766029 0.952703 0.553774
Si Si6 0.952837 0.236627 0.047541
Si Si7 0.606922 0.611518 0.778932
O O1 0.305575 0.415831 0.121228
O O2 0.072637 0.432272 0.912125
O O3 0.186867 0.628311 0.019615
O O4 0.764758 0.503310 0.830625
O O5 0.977539 0.471542 0.682914
O O6 0.024801 0.516847 0.797861
O O7 0.572314 0.623782 0.513052
O O8 0.138192 0.685984 0.798364
O O9 0.641048 0.700247 0.105693
O O10 0.942663 0.693158 0.346006
O O11 0.522954 0.538161 0.105094
O O12 0.376428 0.163655 0.495433
O O13 0.221031 0.269325 0.151250
O O14 0.733680 0.137827 0.910745
#
# Coordination Sequence:
#
# PCOD9240253 Si02
#       7
#     4   4   4   4   4   4   4
#     4   9  19  37  57  78 110 137 184 224 277 307
#     4   9  18  34  50  79 110 144 181 221 261 328
#     4   9  18  32  57  80 106 144 188 213 263 332
#     4   9  18  33  50  76 113 142 176 221 271 308
#     4   9  17  34  55  74 106 147 177 221 268 325
#     4  10  18  36  57  80 104 141 176 219 278 313
#     4   9  21  36  57  81 108 135 181 236 264 325
#
# _framework density 20.340691
#
# number of rings (size 3 to 8) (size 9 to 14) (size 15 to 20)
#    0.857    2.000    0.000    3.429    0.000    1.143 
#    2.571    8.571    0.000    0.000    0.000    0.000 
#    0.000    0.000    0.000    0.000    0.000    0.000 
#
# Total GULP energy -156033.316139 kJ/mol
# GULP energy per Si atom -5572.618434 kJ/mol
# Density = 2.029439 g / cm^3
# Si number density = 20.340691 Si / 1000 Ang^3
#
#
#
# Elastic Constant Matrix: (Units=GPa)
#
#
# Indices 1 2 3 4 5 6 
#
# 1 102.1389 25.2953 26.1266 0.0000 -21.8872 0.0000
# 2 25.2953 42.4259 25.7849 0.0000 -8.8195 0.0000
# 3 26.1266 25.7849 52.8737 0.0000 -7.2859 0.0000
# 4 0.0000 0.0000 0.0000 21.0373 0.0000 5.1729
# 5 -21.8872 -8.8195 -7.2859 0.0000 13.2176 0.0000
# 6 0.0000 0.0000 0.0000 5.1729 0.0000 26.5833
#
#
#
# Elastic Compliance Matrix: (Units=1/GPa)
#
#
# Indices 1 2 3 4 5 6 
#
# 1 0.016378 -0.002773 -0.003526 0.000000 0.023327 0.000000
# 2 -0.002773 0.036727 -0.014930 0.000000 0.011685 0.000000
# 3 -0.003526 -0.014930 0.027877 0.000000 -0.000435 0.000000
# 4 0.000000 0.000000 0.000000 0.049923 0.000000 -0.009715
# 5 0.023327 0.011685 -0.000435 0.000000 0.121841 0.000000
# 6 0.000000 0.000000 0.000000 -0.009715 0.000000 0.039508
#
#
# Mechanical properties :
#
#
# Convention : Reuss Voigt Hill
#
# Bulk Modulus (GPa) = 25.95875 39.09469 32.52672
# Shear Modulus (GPa) = 14.38632 20.18309 17.28470
#
# Velocity S-wave (km/s) = 2.66234 3.15342 2.91823
# Velocity P-wave (km/s) = 4.71597 5.70267 5.23263
#
# Compressibility (1/GPa) = 0.03852265
#
# Stress axis : x y z
#
# Youngs Moduli (GPa) = 61.05799 27.22816 35.87241
#
# Poissons Ratio (x) = 0.07549 0.12650
# Poissons Ratio (y) = 0.16928 0.53559
# Poissons Ratio (z) = 0.21532 0.40652
#
# Static dielectric constant tensor:
#      x y z
#    x 1.727110 0.000000 0.045360 
#    y 0.000000 1.758090 0.000000 
#    z 0.045360 0.000000 1.731000 
# 
# From -- ./inp_files/77566.got.cif
#   From: 2010.05.17/outbox.cif.g08.bks.cpg/sg14_39_cif.got.tgz:77566.got - 2010.06.03 17:49:19.
