data_PCOD9240990
_publ_section_title
;
Structure prediction by ZEFSAII (Michael W. Deem and Ramdas Pophale) SiO2 
 PCOD9240990
Probable space group: P 21/C
;
_chemical_formula_sum "Si O2"
_cell_formula_units_Z 26
_cell_length_a 10.986935
_cell_length_b 4.828205
_cell_length_c 25.222274
_cell_angle_alpha 90.000000
_cell_angle_beta 54.380886
_cell_angle_gamma 90.000000
_cell_volume 1087.644835
_symmetry_space_group_name_H-M "P 21/C"
_symmetry_group_IT_number 14
_symmetry_cell_setting 'monoclinic'
loop_
_space_group_symop_operation_xyz
x,y,z
-x,1/2+y,1/2-z
-x,-y,-z
x,1/2-y,1/2+z
loop_
_atom_site_type_symbol
_atom_site_label
_atom_site_fract_x
_atom_site_fract_y
_atom_site_fract_z
Si Si1 0.700019 0.281743 0.710358
Si Si2 0.180498 0.208410 0.958714
Si Si3 0.248304 0.841992 0.028389
Si Si4 0.974047 0.971803 0.595061
Si Si5 0.500000 0.500000 0.500000
Si Si6 0.423079 0.279534 0.703151
Si Si7 0.515501 0.969729 0.579881
O O1 0.861784 0.162181 0.655895
O O2 0.587642 0.252129 0.688578
O O3 0.626417 0.093843 0.775515
O O4 0.687763 0.594641 0.732886
O O5 0.122170 0.251621 0.914866
O O6 0.340171 0.352352 0.925388
O O7 0.062172 0.341929 0.029566
O O8 0.202054 0.907608 0.979352
O O9 0.110442 0.688342 0.088671
O O10 0.317876 0.107429 0.038761
O O11 0.416574 0.704349 0.978591
O O12 0.449723 0.710803 0.565637
O O13 0.423659 0.149058 0.645061
#
# Coordination Sequence:
#
# PCOD9240990 Si02
#       7
#     4   4   4   4   2   4   4
#     4  10  22  36  57  86 125 164 204 238 302 373
#     4   9  19  32  54  87 119 152 189 246 311 370
#     4  10  21  34  58  86 115 157 194 260 306 362
#     4  10  19  34  53  86 121 158 196 241 312 373
#     4  10  22  38  58  86 112 150 206 258 304 356
#     4  10  22  37  57  87 121 167 199 250 295 375
#     4  10  20  37  59  85 117 152 203 248 321 360
#
# _framework density 23.904862999999999
#
# number of rings (size 3 to 8) (size 9 to 14) (size 15 to 20)
#    0.000    2.154    1.538    0.923    6.462    1.231 
#    0.000    0.000    0.000    1.846    0.000    0.000 
#    0.000    0.000    0.000    0.000    0.000    0.000 
#
# Total GULP energy -144935.173022 kJ/mol
# GULP energy per Si atom -5574.429732 kJ/mol
# Density = 2.385045 g / cm^3
# Si number density = 23.904863 Si / 1000 Ang^3
#
#
#
# Elastic Constant Matrix: (Units=GPa)
#
#
# Indices 1 2 3 4 5 6 
#
# 1 92.7057 5.9918 18.6486 0.0000 -6.2837 0.0000
# 2 5.9918 78.3098 3.3229 0.0000 6.2131 0.0000
# 3 18.6486 3.3229 78.6766 0.0000 -4.8651 0.0000
# 4 0.0000 0.0000 0.0000 27.9231 0.0000 -0.2381
# 5 -6.2837 6.2131 -4.8651 0.0000 31.9078 0.0000
# 6 0.0000 0.0000 0.0000 -0.2381 0.0000 34.1399
#
#
#
# Elastic Compliance Matrix: (Units=1/GPa)
#
#
# Indices 1 2 3 4 5 6 
#
# 1 0.011502 -0.000935 -0.002560 0.000000 0.002057 0.000000
# 2 -0.000935 0.013086 -0.000505 0.000000 -0.002809 0.000000
# 3 -0.002560 -0.000505 0.013440 0.000000 0.001643 0.000000
# 4 0.000000 0.000000 0.000000 0.035815 0.000000 0.000250
# 5 0.002057 -0.002809 0.001643 0.000000 0.032543 0.000000
# 6 0.000000 0.000000 0.000000 0.000250 0.000000 0.029293
#
#
# Mechanical properties :
#
#
# Convention : Reuss Voigt Hill
#
# Bulk Modulus (GPa) = 33.30110 33.95763 33.62937
# Shear Modulus (GPa) = 32.53400 33.57607 33.05503
#
# Velocity S-wave (km/s) = 3.69315 3.75183 3.72260
# Velocity P-wave (km/s) = 5.66981 5.74495 5.70750
#
# Compressibility (1/GPa) = 0.03002904
#
# Stress axis : x y z
#
# Youngs Moduli (GPa) = 86.94507 76.41985 74.40541
#
# Poissons Ratio (x) = 0.07142 0.19044
# Poissons Ratio (y) = 0.08126 0.03756
# Poissons Ratio (z) = 0.22254 0.03858
#
# Static dielectric constant tensor:
#      x y z
#    x 2.039710 0.000000 0.031630 
#    y 0.000000 2.150410 0.000000 
#    z 0.031630 0.000000 1.934860 
# 
# From -- ./inp_files/72737.got.cif
#   From: 2010.05.17/outbox.cif.g08.bks.cpg/sg14_37_cif.got.tgz:72737.got - 2010.06.03 17:49:19.
