data_PCOD9240378
_publ_section_title
;
Structure prediction by ZEFSAII (Michael W. Deem and Ramdas Pophale) SiO2 
 PCOD9240378
Probable space group: P 21/C
;
_chemical_formula_sum "Si O2"
_cell_formula_units_Z 32
_cell_length_a 14.574286
_cell_length_b 16.049657
_cell_length_c 13.879614
_cell_angle_alpha 90.000000
_cell_angle_beta 150.210095
_cell_angle_gamma 90.000000
_cell_volume 1612.985374
_symmetry_space_group_name_H-M "P 21/C"
_symmetry_group_IT_number 14
_symmetry_cell_setting 'monoclinic'
loop_
_space_group_symop_operation_xyz
x,y,z
-x,1/2+y,1/2-z
-x,-y,-z
x,1/2-y,1/2+z
loop_
_atom_site_type_symbol
_atom_site_label
_atom_site_fract_x
_atom_site_fract_y
_atom_site_fract_z
Si Si1 0.830531 0.309669 0.569811
Si Si2 0.039402 0.543223 0.680172
Si Si3 0.583398 0.881775 0.011546
Si Si4 0.455586 0.834782 0.699139
Si Si5 0.757286 0.418997 0.326434
Si Si6 0.579895 0.428714 0.443188
Si Si7 0.394592 0.478053 0.078291
Si Si8 0.850119 0.809663 0.119192
O O1 0.685777 0.235567 0.459369
O O2 0.801616 0.340219 0.433935
O O3 0.766949 0.386056 0.577904
O O4 0.030125 0.272575 0.770237
O O5 0.155139 0.585544 0.698952
O O6 0.970410 0.612142 0.692164
O O7 0.863547 0.496179 0.474991
O O8 0.181339 0.475880 0.854205
O O9 0.513982 0.877792 0.056271
O O10 0.764795 0.830809 0.146348
O O11 0.435048 0.852400 0.795802
O O12 0.618014 0.978571 0.016777
O O13 0.432768 0.923000 0.626236
O O14 0.668064 0.805542 0.886569
O O15 0.539196 0.438546 0.134513
O O16 0.449379 0.436950 0.230322
#
# Coordination Sequence:
#
# PCOD9240378 Si02
#       8
#     4   4   4   4   4   4   4   4
#     4  11  21  36  58  86 115 150 191 238 291 342
#     4  11  20  38  62  82 112 155 189 238 294 334
#     4   8  18  39  60  77 116 155 186 241 287 333
#     4   9  19  36  57  78 120 151 185 232 291 342
#     4  10  23  37  56  90 114 139 203 246 268 347
#     4   9  18  36  63  85 110 151 198 239 282 339
#     4  10  18  37  62  81 110 155 191 231 289 338
#     4  10  20  37  58  82 118 154 184 237 292 341
#
# _framework density 19.838989999999999
#
# number of rings (size 3 to 8) (size 9 to 14) (size 15 to 20)
#    0.750    1.500    2.500    1.125    0.000    3.000 
#    2.250    0.625    5.500    0.000    0.000    0.000 
#    0.000    0.000    0.000    0.000    0.000    0.000 
#
# Total GULP energy -178394.487035 kJ/mol
# GULP energy per Si atom -5574.827720 kJ/mol
# Density = 1.979384 g / cm^3
# Si number density = 19.838990 Si / 1000 Ang^3
#
#
#
# Elastic Constant Matrix: (Units=GPa)
#
#
# Indices 1 2 3 4 5 6 
#
# 1 79.6290 1.4457 6.1071 0.0000 10.1548 0.0000
# 2 1.4457 21.7282 -3.6682 0.0000 -1.9721 0.0000
# 3 6.1071 -3.6682 46.2913 0.0000 6.9664 0.0000
# 4 0.0000 0.0000 0.0000 25.5695 0.0000 13.7888
# 5 10.1548 -1.9721 6.9664 0.0000 11.6198 0.0000
# 6 0.0000 0.0000 0.0000 13.7888 0.0000 18.0841
#
#
#
# Elastic Compliance Matrix: (Units=1/GPa)
#
#
# Indices 1 2 3 4 5 6 
#
# 1 0.014228 -0.002123 -0.000132 0.000000 -0.012716 0.000000
# 2 -0.002123 0.047383 0.002798 0.000000 0.008220 0.000000
# 3 -0.000132 0.002798 0.023910 0.000000 -0.013745 0.000000
# 4 0.000000 0.000000 0.000000 0.066419 0.000000 -0.050643
# 5 -0.012716 0.008220 -0.013745 0.000000 0.106808 0.000000
# 6 0.000000 0.000000 0.000000 -0.050643 0.000000 0.093912
#
#
# Mechanical properties :
#
#
# Convention : Reuss Voigt Hill
#
# Bulk Modulus (GPa) = 11.54638 17.26861 14.40750
# Shear Modulus (GPa) = 13.14260 20.63897 16.89079
#
# Velocity S-wave (km/s) = 2.57663 3.22890 2.92103
# Velocity P-wave (km/s) = 3.83206 4.75651 4.31909
#
# Compressibility (1/GPa) = 0.08660721
#
# Stress axis : x y z
#
# Youngs Moduli (GPa) = 70.28149 21.10477 41.82371
#
# Poissons Ratio (x) = 0.04481 0.00551
# Poissons Ratio (y) = 0.14921 -0.11702
# Poissons Ratio (z) = 0.00926 -0.05905
#
# Static dielectric constant tensor:
#      x y z
#    x 1.695440 0.000000 -0.001380 
#    y 0.000000 1.707190 0.000000 
#    z -0.001380 0.000000 1.710020 
# 
# From -- ./inp_files/47545.got.cif
#   From: 2010.05.17/outbox.cif.g08.bks.cpg/sg14_24_cif.got.tgz:47545.got - 2010.06.03 17:49:19.
