data_PCOD9240359
_publ_section_title
;
Structure prediction by ZEFSAII (Michael W. Deem and Ramdas Pophale) SiO2 
 PCOD9240359
Probable space group: P 21/C
;
_chemical_formula_sum "Si O2"
_cell_formula_units_Z 32
_cell_length_a 12.037192
_cell_length_b 7.067080
_cell_length_c 29.091412
_cell_angle_alpha 90.000000
_cell_angle_beta 28.958275
_cell_angle_gamma 90.000000
_cell_volume 1198.202355
_symmetry_space_group_name_H-M "P 21/C"
_symmetry_group_IT_number 14
_symmetry_cell_setting 'monoclinic'
loop_
_space_group_symop_operation_xyz
x,y,z
-x,1/2+y,1/2-z
-x,-y,-z
x,1/2-y,1/2+z
loop_
_atom_site_type_symbol
_atom_site_label
_atom_site_fract_x
_atom_site_fract_y
_atom_site_fract_z
Si Si1 0.658505 0.425648 0.363853
Si Si2 0.042295 0.143950 0.656550
Si Si3 0.655325 0.631389 0.690476
Si Si4 0.987287 0.906936 0.194277
Si Si5 0.426727 0.153790 0.586299
Si Si6 0.268324 0.108001 0.942173
Si Si7 0.903202 0.267321 0.943365
Si Si8 0.837583 0.271564 0.133471
O O1 0.851576 0.466067 0.255521
O O2 0.804494 0.326267 0.349950
O O3 0.558354 0.616580 0.421559
O O4 0.454309 0.321864 0.411841
O O5 0.951024 0.134392 0.637376
O O6 0.020871 0.368032 0.675920
O O7 0.290855 0.095659 0.588756
O O8 0.629089 0.596053 0.645441
O O9 0.401316 0.659850 0.800997
O O10 0.760054 0.443091 0.675054
O O11 0.842224 0.799485 0.627444
O O12 0.019675 0.806411 0.134525
O O13 0.753212 0.885336 0.307335
O O14 0.681400 0.104082 0.512051
O O15 0.045280 0.239600 0.023254
O O16 0.191967 0.901259 0.988611
#
# Coordination Sequence:
#
# PCOD9240359 Si02
#       8
#     4   4   4   4   4   4   4   4
#     4   9  19  34  60  86 114 148 184 239 282 335
#     4  10  18  37  58  84 118 145 193 227 290 335
#     4  11  23  40  58  87 117 148 200 233 285 331
#     4  10  19  34  59  86 116 144 190 233 284 337
#     4   9  21  34  59  87 115 149 183 241 282 336
#     4  10  20  37  59  85 112 150 195 238 273 335
#     4  10  20  35  58  86 111 152 189 233 279 343
#     4  11  22  39  60  83 112 160 186 241 280 341
#
# _framework density 26.706676000000002
#
# number of rings (size 3 to 8) (size 9 to 14) (size 15 to 20)
#    0.000    2.000    3.750    1.500    1.750    4.500 
#    0.000    1.875    0.000    3.000    0.000    0.000 
#    0.000    0.000    0.000    0.000    0.000    0.000 
#
# Total GULP energy -178828.623927 kJ/mol
# GULP energy per Si atom -5588.394498 kJ/mol
# Density = 2.664589 g / cm^3
# Si number density = 26.706676 Si / 1000 Ang^3
#
#
#
# Elastic Constant Matrix: (Units=GPa)
#
#
# Indices 1 2 3 4 5 6 
#
# 1 132.4751 24.7716 45.5345 0.0000 -27.8462 0.0000
# 2 24.7716 57.6434 24.8446 0.0000 -13.6830 0.0000
# 3 45.5345 24.8446 103.7870 0.0000 -55.0847 0.0000
# 4 0.0000 0.0000 0.0000 37.3999 0.0000 -7.4200
# 5 -27.8462 -13.6830 -55.0847 0.0000 64.6351 0.0000
# 6 0.0000 0.0000 0.0000 -7.4200 0.0000 32.9885
#
#
#
# Elastic Compliance Matrix: (Units=1/GPa)
#
#
# Indices 1 2 3 4 5 6 
#
# 1 0.009223 -0.002466 -0.002966 0.000000 0.000924 0.000000
# 2 -0.002466 0.020006 -0.003694 0.000000 0.000024 0.000000
# 3 -0.002966 -0.003694 0.019587 0.000000 0.014633 0.000000
# 4 0.000000 0.000000 0.000000 0.027987 0.000000 0.006295
# 5 0.000924 0.000024 0.014633 0.000000 0.028346 0.000000
# 6 0.000000 0.000000 0.000000 0.006295 0.000000 0.031730
#
#
# Mechanical properties :
#
#
# Convention : Reuss Voigt Hill
#
# Bulk Modulus (GPa) = 32.71788 53.80075 43.25931
# Shear Modulus (GPa) = 30.24464 40.25502 35.24983
#
# Velocity S-wave (km/s) = 3.36888 3.88661 3.63697
# Velocity P-wave (km/s) = 5.23544 6.35057 5.81978
#
# Compressibility (1/GPa) = 0.03056433
#
# Stress axis : x y z
#
# Youngs Moduli (GPa) = 108.42046 49.98557 51.05385
#
# Poissons Ratio (x) = 0.12326 0.15142
# Poissons Ratio (y) = 0.26737 0.18860
# Poissons Ratio (z) = 0.32156 0.18465
#
# Static dielectric constant tensor:
#      x y z
#    x 2.064400 0.000000 -0.063510 
#    y 0.000000 2.231940 0.000000 
#    z -0.063510 0.000000 2.063100 
# 
# From -- ./inp_files/79996.got.cif
#   From: 2010.05.17/outbox.cif.g08.bks.cpg/sg14_40_cif.got.tgz:79996.got - 2010.06.03 17:49:19.
