data_PCOD9240846
_publ_section_title
;
Structure prediction by ZEFSAII (Michael W. Deem and Ramdas Pophale) SiO2 
 PCOD9240846
Probable space group: P 21/C
;
_chemical_formula_sum "Si O2"
_cell_formula_units_Z 24
_cell_length_a 13.317428
_cell_length_b 5.501223
_cell_length_c 20.190188
_cell_angle_alpha 90.000000
_cell_angle_beta 131.560008
_cell_angle_gamma 90.000000
_cell_volume 1106.810494
_symmetry_space_group_name_H-M "P 21/C"
_symmetry_group_IT_number 14
_symmetry_cell_setting 'monoclinic'
loop_
_space_group_symop_operation_xyz
x,y,z
-x,1/2+y,1/2-z
-x,-y,-z
x,1/2-y,1/2+z
loop_
_atom_site_type_symbol
_atom_site_label
_atom_site_fract_x
_atom_site_fract_y
_atom_site_fract_z
Si Si1 0.025845 0.960145 0.590335
Si Si2 0.368488 0.865743 0.160301
Si Si3 0.413915 0.750689 0.456265
Si Si4 0.270638 0.980657 0.511086
Si Si5 0.882120 0.958562 0.894433
Si Si6 0.525059 0.301130 0.653031
O O1 0.880498 0.925526 0.559804
O O2 0.089161 0.221164 0.636324
O O3 0.000000 0.000000 0.500000
O O4 0.115301 0.721021 0.640239
O O5 0.483724 0.929873 0.157836
O O6 0.285095 0.657454 0.087582
O O7 0.257775 0.070422 0.127967
O O8 0.433375 0.813132 0.259160
O O9 0.500000 0.500000 0.500000
O O10 0.305147 0.793349 0.466327
O O11 0.370649 0.733518 0.360405
O O12 0.500000 0.000000 0.500000
O O13 0.386393 0.183367 0.565646
O O14 0.000000 0.000000 0.000000
#
# Coordination Sequence:
#
# PCOD9240846 Si02
#       6
#     4   4   4   4   4   4
#     4  10  19  33  54  80 107 139 196 238 275 322
#     4  12  21  33  59  84 119 147 189 245 296 345
#     4  10  22  38  57  80 118 156 195 229 286 360
#     4  11  21  36  58  83 112 155 191 240 285 353
#     4  10  20  33  52  82 108 144 187 240 279 331
#     4  11  23  36  54  90 121 151 190 242 309 354
#
# _framework density 21.683928000000002
#
# number of rings (size 3 to 8) (size 9 to 14) (size 15 to 20)
#    0.000    1.333    6.667    2.000    0.000    0.000 
#    0.000    0.000    0.000    2.000    0.000    0.000 
#    0.000    0.000    0.000    0.000    0.000    0.000 
#
# Total GULP energy -133707.415279 kJ/mol
# GULP energy per Si atom -5571.142303 kJ/mol
# Density = 2.163457 g / cm^3
# Si number density = 21.683928 Si / 1000 Ang^3
#
#
#
# Elastic Constant Matrix: (Units=GPa)
#
#
# Indices 1 2 3 4 5 6 
#
# 1 102.9842 18.8548 28.5920 0.0000 -14.2314 0.0000
# 2 18.8548 117.4772 13.1679 0.0000 -5.3971 0.0000
# 3 28.5920 13.1679 41.4743 0.0000 -21.6340 0.0000
# 4 0.0000 0.0000 0.0000 18.4805 0.0000 -0.7967
# 5 -14.2314 -5.3971 -21.6340 0.0000 29.7802 0.0000
# 6 0.0000 0.0000 0.0000 -0.7967 0.0000 39.3467
#
#
#
# Elastic Compliance Matrix: (Units=1/GPa)
#
#
# Indices 1 2 3 4 5 6 
#
# 1 0.012134 -0.001042 -0.008225 0.000000 -0.000365 0.000000
# 2 -0.001042 0.008925 -0.002465 0.000000 -0.000672 0.000000
# 3 -0.008225 -0.002465 0.045536 0.000000 0.028703 0.000000
# 4 0.000000 0.000000 0.000000 0.054158 0.000000 0.001097
# 5 -0.000365 -0.000672 0.028703 0.000000 0.054135 0.000000
# 6 0.000000 0.000000 0.000000 0.001097 0.000000 0.025437
#
#
# Mechanical properties :
#
#
# Convention : Reuss Voigt Hill
#
# Bulk Modulus (GPa) = 23.18546 42.57390 32.87968
# Shear Modulus (GPa) = 20.99369 30.94289 25.96829
#
# Velocity S-wave (km/s) = 3.11492 3.78166 3.46436
# Velocity P-wave (km/s) = 4.86339 6.22450 5.58556
#
# Compressibility (1/GPa) = 0.04313048
#
# Stress axis : x y z
#
# Youngs Moduli (GPa) = 82.41276 112.04383 21.96062
#
# Poissons Ratio (x) = 0.11679 0.18062
# Poissons Ratio (y) = 0.08590 0.05414
# Poissons Ratio (z) = 0.67781 0.27624
#
# Static dielectric constant tensor:
#      x y z
#    x 1.871820 0.000000 -0.020830 
#    y 0.000000 2.021090 0.000000 
#    z -0.020830 0.000000 1.787620 
# 
# From -- ./inp_files/66350.got.cif
#   From: 2010.05.17/outbox.cif.g08.bks.cpg/sg14_34_cif.got.tgz:66350.got - 2010.06.03 17:49:19.
