data_PCOD9240589
_publ_section_title
;
Structure prediction by ZEFSAII (Michael W. Deem and Ramdas Pophale) SiO2 
 PCOD9240589
Probable space group: P 21/C
;
_chemical_formula_sum "Si O2"
_cell_formula_units_Z 28
_cell_length_a 19.607028
_cell_length_b 13.424735
_cell_length_c 5.141829
_cell_angle_alpha 90.000000
_cell_angle_beta 66.835890
_cell_angle_gamma 90.000000
_cell_volume 1244.317132
_symmetry_space_group_name_H-M "P 21/C"
_symmetry_group_IT_number 14
_symmetry_cell_setting 'monoclinic'
loop_
_space_group_symop_operation_xyz
x,y,z
-x,1/2+y,1/2-z
-x,-y,-z
x,1/2-y,1/2+z
loop_
_atom_site_type_symbol
_atom_site_label
_atom_site_fract_x
_atom_site_fract_y
_atom_site_fract_z
Si Si1 0.343732 0.818459 0.390671
Si Si2 0.969024 0.389342 0.592502
Si Si3 0.813752 0.817961 0.570918
Si Si4 0.030976 0.389342 0.999575
Si Si5 0.813751 0.182039 0.487829
Si Si6 0.500000 0.681144 0.540789
Si Si7 0.343732 0.318459 0.578133
O O1 0.343826 0.773467 0.681272
O O2 0.265326 0.870203 0.450053
O O3 0.421841 0.871879 0.216561
O O4 0.886335 0.382326 0.822462
O O5 0.000000 0.500000 0.500000
O O6 0.975278 0.344444 0.296246
O O7 0.024721 0.344444 0.722081
O O8 0.815391 0.772053 0.280344
O O9 0.886335 0.882326 0.518534
O O10 0.734674 0.870203 0.746031
O O11 0.000000 0.500000 0.000000
O O12 0.815391 0.227946 0.773483
O O13 0.500000 0.772970 0.751006
O O14 0.578159 0.871879 0.982083
O O15 0.343826 0.226533 0.787249
#
# Coordination Sequence:
#
# PCOD9240589 Si02
#       7
#     4   4   4   4   4   4   4
#     4   8  14  23  36  57  84 112 139 170 209 252
#     4  10  21  35  48  63  87 117 151 186 225 271
#     4  10  19  30  46  68  91 115 148 188 224 257
#     4  10  21  35  48  63  87 117 151 186 225 271
#     4  10  19  30  46  68  91 115 148 188 224 257
#     4   8  12  20  34  52  80 114 138 160 202 254
#     4   8  14  23  36  57  84 112 139 170 209 252
#
# _framework density 22.502303000000001
#
# number of rings (size 3 to 8) (size 9 to 14) (size 15 to 20)
#    0.000    2.857    0.000    1.714    0.000    3.429 
#    0.000    0.000    0.000    0.000    0.000    0.000 
#    0.000    9.143    0.000    0.000    0.000   35.429 
#
# Total GULP energy -155970.991619 kJ/mol
# GULP energy per Si atom -5570.392558 kJ/mol
# Density = 2.245109 g / cm^3
# Si number density = 22.502303 Si / 1000 Ang^3
#
#
#
# Elastic Constant Matrix: (Units=GPa)
#
#
# Indices 1 2 3 4 5 6 
#
# 1 167.6499 6.4467 31.5284 0.0000 -42.6008 0.0000
# 2 6.4467 43.3131 -4.2360 0.0000 -7.8067 0.0000
# 3 31.5284 -4.2360 120.6291 0.0000 8.2397 0.0000
# 4 0.0000 0.0000 0.0000 5.0802 0.0000 2.9056
# 5 -42.6008 -7.8067 8.2397 0.0000 76.0655 0.0000
# 6 0.0000 0.0000 0.0000 2.9056 0.0000 1.1042
#
#
#
# Elastic Compliance Matrix: (Units=1/GPa)
#
#
# Indices 1 2 3 4 5 6 
#
# 1 0.007538 -0.000551 -0.002291 0.000000 0.004414 0.000000
# 2 -0.000551 0.023616 0.000835 0.000000 0.002025 0.000000
# 3 -0.002291 0.000835 0.009067 0.000000 -0.002180 0.000000
# 4 0.000000 0.000000 0.000000 -0.389794 0.000000 1.025684
# 5 0.004414 0.002025 -0.002180 0.000000 0.016062 0.000000
# 6 0.000000 0.000000 0.000000 1.025684 0.000000 -1.793322
#
#
# Mechanical properties :
#
#
# Convention : Reuss Voigt Hill
#
# Bulk Modulus (GPa) = 27.61821 44.34114 35.97968
# Shear Modulus (GPa) = -2.36883 36.30686 16.96902
#
# Velocity S-wave (km/s) = -1.02713 4.02116 2.74907
# Velocity P-wave (km/s) = 3.30053 6.42710 5.10887
#
# Compressibility (1/GPa) = 0.03620799
#
# Stress axis : x y z
#
# Youngs Moduli (GPa) = 132.65494 42.34367 110.29151
#
# Poissons Ratio (x) = 0.02331 0.25269
# Poissons Ratio (y) = 0.07304 -0.09208
# Poissons Ratio (z) = 0.30392 -0.03535
#
# Static dielectric constant tensor:
#      x y z
#    x 1.944230 0.000000 0.005910 
#    y 0.000000 1.710440 0.000000 
#    z 0.005910 0.000000 1.952310 
# 
# From -- ./inp_files/4219.got.cif
#   From: 2010.05.17/outbox.cif.g08.bks.cpg/sg14_3_cif.got.tgz:4219.got - 2010.06.03 17:49:19.
