data_PCOD9240405
_publ_section_title
;
Structure prediction by ZEFSAII (Michael W. Deem and Ramdas Pophale) SiO2 
 PCOD9240405
Probable space group: P 21/C
;
_chemical_formula_sum "Si O2"
_cell_formula_units_Z 28
_cell_length_a 9.878974
_cell_length_b 26.038748
_cell_length_c 9.876476
_cell_angle_alpha 90.000000
_cell_angle_beta 33.034145
_cell_angle_gamma 90.000000
_cell_volume 1384.972015
_symmetry_space_group_name_H-M "P 21/C"
_symmetry_group_IT_number 14
_symmetry_cell_setting 'monoclinic'
loop_
_space_group_symop_operation_xyz
x,y,z
-x,1/2+y,1/2-z
-x,-y,-z
x,1/2-y,1/2+z
loop_
_atom_site_type_symbol
_atom_site_label
_atom_site_fract_x
_atom_site_fract_y
_atom_site_fract_z
Si Si1 0.175564 0.038206 0.180929
Si Si2 0.483824 0.662914 0.241517
Si Si3 0.179942 0.890477 0.409422
Si Si4 0.226336 0.196091 0.252203
Si Si5 0.344995 0.359116 0.384230
Si Si6 0.575806 0.436688 0.558852
Si Si7 0.908139 0.688175 0.662101
O O1 0.905614 0.055551 0.454928
O O2 0.237697 0.983314 0.066100
O O3 0.259808 0.085464 0.014562
O O4 0.333290 0.040865 0.188301
O O5 0.555660 0.691582 0.321218
O O6 0.490310 0.601788 0.266231
O O7 0.197171 0.675189 0.446409
O O8 0.704044 0.677737 0.952178
O O9 0.358452 0.864511 0.370488
O O10 0.306855 0.902674 0.160630
O O11 0.959273 0.851230 0.563517
O O12 0.104821 0.251473 0.361216
O O13 0.307831 0.183787 0.031097
O O14 0.197405 0.343807 0.376115
#
# Coordination Sequence:
#
# PCOD9240405 Si02
#       7
#     4   4   4   4   4   4   4
#     4   9  19  36  67  96 124 174 223 277 327 386
#     4  12  26  46  66 102 135 171 223 281 326 395
#     4  10  18  37  68  95 128 165 229 278 318 388
#     4  11  24  43  69  92 129 178 229 270 321 395
#     4  10  23  43  62  94 132 174 224 267 331 408
#     4  10  19  37  64 100 129 164 228 280 329 378
#     4  12  30  42  67  98 142 177 215 273 346 388
#
# _framework density 20.217015
#
# number of rings (size 3 to 8) (size 9 to 14) (size 15 to 20)
#    0.000    1.429    4.286    2.143    8.000    0.000 
#    0.000    1.429    0.000    0.000    0.000    0.000 
#    0.000    0.000    0.000    0.000    0.000    0.000 
#
# Total GULP energy -156177.654815 kJ/mol
# GULP energy per Si atom -5577.773386 kJ/mol
# Density = 2.017100 g / cm^3
# Si number density = 20.217015 Si / 1000 Ang^3
#
#
#
# Elastic Constant Matrix: (Units=GPa)
#
#
# Indices 1 2 3 4 5 6 
#
# 1 118.6864 28.0774 35.5851 0.0000 -16.6130 0.0000
# 2 28.0774 96.0724 6.9953 0.0000 1.3214 0.0000
# 3 35.5851 6.9953 65.9819 0.0000 -8.7164 0.0000
# 4 0.0000 0.0000 0.0000 21.7001 0.0000 -6.6882
# 5 -16.6130 1.3214 -8.7164 0.0000 29.1976 0.0000
# 6 0.0000 0.0000 0.0000 -6.6882 0.0000 13.9101
#
#
#
# Elastic Compliance Matrix: (Units=1/GPa)
#
#
# Indices 1 2 3 4 5 6 
#
# 1 0.011399 -0.003026 -0.005155 0.000000 0.005084 0.000000
# 2 -0.003026 0.011313 0.000143 0.000000 -0.002191 0.000000
# 3 -0.005155 0.000143 0.018252 0.000000 0.002509 0.000000
# 4 0.000000 0.000000 0.000000 0.054100 0.000000 0.026012
# 5 0.005084 -0.002191 0.002509 0.000000 0.037990 0.000000
# 6 0.000000 0.000000 0.000000 0.026012 0.000000 0.084398
#
#
# Mechanical properties :
#
#
# Convention : Reuss Voigt Hill
#
# Bulk Modulus (GPa) = 40.18011 46.89516 43.53763
# Shear Modulus (GPa) = 20.67629 26.96707 23.82168
#
# Velocity S-wave (km/s) = 3.20146 3.65619 3.43636
# Velocity P-wave (km/s) = 5.79512 6.40858 6.10955
#
# Compressibility (1/GPa) = 0.02488794
#
# Stress axis : x y z
#
# Youngs Moduli (GPa) = 87.73027 88.39517 54.78796
#
# Poissons Ratio (x) = 0.26747 0.28244
# Poissons Ratio (y) = 0.26546 -0.00784
# Poissons Ratio (z) = 0.45226 -0.01265
#
# Static dielectric constant tensor:
#      x y z
#    x 1.720140 0.000000 -0.029940 
#    y 0.000000 1.738950 0.000000 
#    z -0.029940 0.000000 1.823360 
# 
# From -- ./inp_files/11145.got.cif
#   From: 2010.05.17/outbox.cif.g08.bks.cpg/sg14_6_cif.got.tgz:11145.got - 2010.06.03 17:49:19.
