data_PCOD9240479
_publ_section_title
;
Structure prediction by ZEFSAII (Michael W. Deem and Ramdas Pophale) SiO2 
 PCOD9240479
Probable space group: P 21/C
;
_chemical_formula_sum "Si O2"
_cell_formula_units_Z 26
_cell_length_a 10.709031
_cell_length_b 14.498479
_cell_length_c 14.400945
_cell_angle_alpha 90.000000
_cell_angle_beta 152.829842
_cell_angle_gamma 90.000000
_cell_volume 1021.015762
_symmetry_space_group_name_H-M "P 21/C"
_symmetry_group_IT_number 14
_symmetry_cell_setting 'monoclinic'
loop_
_space_group_symop_operation_xyz
x,y,z
-x,1/2+y,1/2-z
-x,-y,-z
x,1/2-y,1/2+z
loop_
_atom_site_type_symbol
_atom_site_label
_atom_site_fract_x
_atom_site_fract_y
_atom_site_fract_z
Si Si1 0.035572 0.628303 0.673449
Si Si2 0.524078 0.852347 0.148116
Si Si3 0.632904 0.479671 0.842286
Si Si4 0.987207 0.938860 0.738466
Si Si5 0.000000 0.500000 0.500000
Si Si6 0.438418 0.203947 0.458786
Si Si7 0.531265 0.278926 0.714585
O O1 0.949879 0.527341 0.656089
O O2 0.294839 0.655071 0.907813
O O3 0.085193 0.598541 0.600460
O O4 0.793939 0.700284 0.513802
O O5 0.639391 0.948574 0.260606
O O6 0.441357 0.795000 0.185363
O O7 0.686658 0.781421 0.190167
O O8 0.260274 0.879832 0.912603
O O9 0.672200 0.375251 0.833819
O O10 0.335309 0.479828 0.696967
O O11 0.853593 0.521829 0.058297
O O12 0.771934 0.874646 0.650934
O O13 0.587252 0.246148 0.647694
#
# Coordination Sequence:
#
# PCOD9240479 Si02
#       7
#     4   4   4   4   2   4   4
#     4  11  23  41  73 104 135 189 242 298 351 431
#     4  12  26  46  71 104 149 187 241 305 359 431
#     4  11  24  45  70 103 146 186 241 294 362 430
#     4  12  24  47  72 107 140 192 248 304 353 434
#     4  10  18  38  72  96 130 182 230 290 348 400
#     4  12  26  41  75 109 143 189 243 296 371 426
#     4  11  25  48  71 107 148 187 244 303 359 435
#
# _framework density 25.464838
#
# number of rings (size 3 to 8) (size 9 to 14) (size 15 to 20)
#    0.000    0.615    6.154    2.308    4.308    0.615 
#    0.000    0.769    0.000    0.000    0.000    0.000 
#    0.000    0.000    0.000    0.000    0.000    0.000 
#
# Total GULP energy -144976.990134 kJ/mol
# GULP energy per Si atom -5576.038082 kJ/mol
# Density = 2.540688 g / cm^3
# Si number density = 25.464838 Si / 1000 Ang^3
#
#
#
# Elastic Constant Matrix: (Units=GPa)
#
#
# Indices 1 2 3 4 5 6 
#
# 1 25.2063 3.9374 3.3627 0.0000 -14.2284 0.0000
# 2 3.9374 107.1593 19.9037 0.0000 -7.1113 0.0000
# 3 3.3627 19.9037 108.9829 0.0000 -11.6348 0.0000
# 4 0.0000 0.0000 0.0000 -1.0503 0.0000 -6.9896
# 5 -14.2284 -7.1113 -11.6348 0.0000 26.7296 0.0000
# 6 0.0000 0.0000 0.0000 -6.9896 0.0000 38.4103
#
#
#
# Elastic Compliance Matrix: (Units=1/GPa)
#
#
# Indices 1 2 3 4 5 6 
#
# 1 0.056974 -0.000339 0.001607 0.000000 0.030937 0.000000
# 2 -0.000339 0.009753 -0.001587 0.000000 0.001724 0.000000
# 3 0.001607 -0.001587 0.009923 0.000000 0.004752 0.000000
# 4 0.000000 0.000000 0.000000 -0.430621 0.000000 -0.078361
# 5 0.030937 0.001724 0.004752 0.000000 0.056407 0.000000
# 6 0.000000 0.000000 0.000000 -0.078361 0.000000 0.011775
#
#
# Mechanical properties :
#
#
# Convention : Reuss Voigt Hill
#
# Bulk Modulus (GPa) = 13.15558 32.86179 23.00869
# Shear Modulus (GPa) = -19.24465 27.09423 3.92479
#
# Velocity S-wave (km/s) = -2.75204 3.26542 1.24282
# Velocity P-wave (km/s) = 2.21832 5.21057 3.33385
#
# Compressibility (1/GPa) = 0.07601336
#
# Stress axis : x y z
#
# Youngs Moduli (GPa) = 17.55174 102.52752 100.77250
#
# Poissons Ratio (x) = 0.03474 -0.16191
# Poissons Ratio (y) = 0.00595 0.15991
# Poissons Ratio (z) = -0.02820 0.16269
#
# Static dielectric constant tensor:
#      x y z
#    x 2.170420 0.000000 -0.003190 
#    y 0.000000 2.131170 0.000000 
#    z -0.003190 0.000000 1.963620 
# 
# From -- ./inp_files/45193.got.cif
#   From: 2010.05.17/outbox.cif.g08.bks.cpg/sg14_23_cif.got.tgz:45193.got - 2010.06.03 17:49:19.
