data_PCOD9240289
_publ_section_title
;
Structure prediction by ZEFSAII (Michael W. Deem and Ramdas Pophale) SiO2 
 PCOD9240289
Probable space group: P 21/C
;
_chemical_formula_sum "Si O2"
_cell_formula_units_Z 28
_cell_length_a 15.146237
_cell_length_b 10.418830
_cell_length_c 20.117611
_cell_angle_alpha 90.000000
_cell_angle_beta 150.538409
_cell_angle_gamma 90.000000
_cell_volume 1561.435135
_symmetry_space_group_name_H-M "P 21/C"
_symmetry_group_IT_number 14
_symmetry_cell_setting 'monoclinic'
loop_
_space_group_symop_operation_xyz
x,y,z
-x,1/2+y,1/2-z
-x,-y,-z
x,1/2-y,1/2+z
loop_
_atom_site_type_symbol
_atom_site_label
_atom_site_fract_x
_atom_site_fract_y
_atom_site_fract_z
Si Si1 0.253968 0.712096 0.087382
Si Si2 0.505054 0.710079 0.489394
Si Si3 0.785354 0.512619 0.716727
Si Si4 0.511060 0.834378 0.638135
Si Si5 0.145484 0.071884 0.489899
Si Si6 0.122009 0.196161 0.607908
Si Si7 0.488476 0.360069 0.142169
O O1 0.359005 0.727909 0.086394
O O2 0.367209 0.786658 0.217242
O O3 0.236532 0.556480 0.080784
O O4 0.045326 0.751506 0.959897
O O5 0.688034 0.625840 0.612586
O O6 0.343080 0.609058 0.374270
O O7 0.484903 0.787222 0.545272
O O8 0.509690 0.800207 0.429231
O O9 0.802633 0.573895 0.801672
O O10 0.990725 0.474070 0.837902
O O11 0.708396 0.787445 0.788401
O O12 0.510699 0.987041 0.647965
O O13 0.060992 0.150920 0.495301
O O14 0.296900 0.153214 0.552919
#
# Coordination Sequence:
#
# PCOD9240289 Si02
#       7
#     4   4   4   4   4   4   4
#     4  10  20  36  60  81 109 150 188 230 280 323
#     4  10  20  38  59  79 116 149 183 230 283 333
#     4   9  19  36  59  82 104 146 194 228 276 321
#     4  10  22  37  55  86 116 148 185 228 280 336
#     4  10  19  35  58  88 109 141 194 235 268 328
#     4  10  18  36  61  83 113 141 188 239 270 325
#     4  11  21  36  58  82 117 151 182 224 288 335
#
# _framework density 17.932221999999999
#
# number of rings (size 3 to 8) (size 9 to 14) (size 15 to 20)
#    0.000    2.000    1.429    3.857    0.000    0.571 
#   10.286    0.000    0.000    0.000    0.000    0.000 
#    0.000    0.000    0.000    0.000    0.000    0.000 
#
# Total GULP energy -155934.406154 kJ/mol
# GULP energy per Si atom -5569.085934 kJ/mol
# Density = 1.789141 g / cm^3
# Si number density = 17.932222 Si / 1000 Ang^3
#
#
#
# Elastic Constant Matrix: (Units=GPa)
#
#
# Indices 1 2 3 4 5 6 
#
# 1 95.1618 42.0666 47.2304 0.0000 2.2449 0.0000
# 2 42.0666 66.0048 46.5544 0.0000 -0.0609 0.0000
# 3 47.2304 46.5544 105.2201 0.0000 3.2616 0.0000
# 4 0.0000 0.0000 0.0000 27.0278 0.0000 3.2937
# 5 2.2449 -0.0609 3.2616 0.0000 27.5545 0.0000
# 6 0.0000 0.0000 0.0000 3.2937 0.0000 11.2155
#
#
#
# Elastic Compliance Matrix: (Units=1/GPa)
#
#
# Indices 1 2 3 4 5 6 
#
# 1 0.015622 -0.007311 -0.003751 0.000000 -0.000845 0.000000
# 2 -0.007311 0.025485 -0.008044 0.000000 0.001604 0.000000
# 3 -0.003751 -0.008044 0.014792 0.000000 -0.001463 0.000000
# 4 0.000000 0.000000 0.000000 0.038372 0.000000 -0.011269
# 5 -0.000845 0.001604 -0.001463 0.000000 0.036537 0.000000
# 6 0.000000 0.000000 0.000000 -0.011269 0.000000 0.092472
#
#
# Mechanical properties :
#
#
# Convention : Reuss Voigt Hill
#
# Bulk Modulus (GPa) = 56.54006 59.78771 58.16389
# Shear Modulus (GPa) = 18.69936 21.86190 20.28063
#
# Velocity S-wave (km/s) = 3.23271 3.49541 3.36662
# Velocity P-wave (km/s) = 6.74776 7.05009 6.90058
#
# Compressibility (1/GPa) = 0.01768658
#
# Stress axis : x y z
#
# Youngs Moduli (GPa) = 64.01154 39.23886 67.60418
#
# Poissons Ratio (x) = 0.28689 0.25360
# Poissons Ratio (y) = 0.46801 0.54378
# Poissons Ratio (z) = 0.24013 0.31562
#
# Static dielectric constant tensor:
#      x y z
#    x 1.618030 0.000000 0.030210 
#    y 0.000000 1.618840 0.000000 
#    z 0.030210 0.000000 1.629350 
# 
# From -- ./inp_files/40012.got.cif
#   From: 2010.05.17/outbox.cif.g08.bks.cpg/sg14_21_cif.got.tgz:40012.got - 2010.06.03 17:49:19.
