data_PCOD9240541
_publ_section_title
;
Structure prediction by ZEFSAII (Michael W. Deem and Ramdas Pophale) SiO2 
 PCOD9240541
Probable space group: P 21/C
;
_chemical_formula_sum "Si O2"
_cell_formula_units_Z 24
_cell_length_a 10.746973
_cell_length_b 13.711319
_cell_length_c 13.423926
_cell_angle_alpha 90.000000
_cell_angle_beta 30.281163
_cell_angle_gamma 90.000000
_cell_volume 997.436961
_symmetry_space_group_name_H-M "P 21/C"
_symmetry_group_IT_number 14
_symmetry_cell_setting 'monoclinic'
loop_
_space_group_symop_operation_xyz
x,y,z
-x,1/2+y,1/2-z
-x,-y,-z
x,1/2-y,1/2+z
loop_
_atom_site_type_symbol
_atom_site_label
_atom_site_fract_x
_atom_site_fract_y
_atom_site_fract_z
Si Si1 0.160485 0.388383 0.632918
Si Si2 0.274663 0.302001 0.171195
Si Si3 0.542724 0.133756 0.294806
Si Si4 0.220055 0.990244 0.734926
Si Si5 0.461436 0.673294 0.799848
Si Si6 0.090346 0.496127 0.050081
O O1 0.153733 0.296164 0.712805
O O2 0.381172 0.367114 0.403190
O O3 0.936289 0.408806 0.712208
O O4 0.142796 0.484790 0.715626
O O5 0.119839 0.402545 0.279086
O O6 0.382018 0.303427 0.208828
O O7 0.487576 0.319003 0.941028
O O8 0.726632 0.043750 0.189186
O O9 0.641414 0.221373 0.160941
O O10 0.275848 0.094210 0.441422
O O11 0.500000 0.000000 0.500000
O O12 0.262934 0.589412 0.954148
O O13 0.000000 0.500000 0.000000
#
# Coordination Sequence:
#
# PCOD9240541 Si02
#       6
#     4   4   4   4   4   4
#     4  11  24  42  70 104 138 177 242 285 338 429
#     4  10  20  41  67  98 140 176 231 280 346 417
#     4  10  21  43  69  99 141 181 230 287 343 424
#     4  10  18  41  70  92 138 183 217 281 350 405
#     4  11  25  43  68 105 136 183 240 282 345 428
#     4  12  24  46  71  98 144 187 227 294 363 400
#
# _framework density 24.061672000000002
#
# number of rings (size 3 to 8) (size 9 to 14) (size 15 to 20)
#    0.000    1.333    5.000    2.000    0.000    5.333 
#    3.000    0.000    0.000    0.000    0.000    0.000 
#    0.000    0.000    0.000    0.000    0.000    0.000 
#
# Total GULP energy -133817.994052 kJ/mol
# GULP energy per Si atom -5575.749752 kJ/mol
# Density = 2.400691 g / cm^3
# Si number density = 24.061672 Si / 1000 Ang^3
#
#
#
# Elastic Constant Matrix: (Units=GPa)
#
#
# Indices 1 2 3 4 5 6 
#
# 1 108.7315 -3.1134 -5.2850 0.0000 20.7129 0.0000
# 2 -3.1134 61.8836 -4.4640 0.0000 -1.5527 0.0000
# 3 -5.2850 -4.4640 64.5237 0.0000 15.1852 0.0000
# 4 0.0000 0.0000 0.0000 42.7975 0.0000 -2.6955
# 5 20.7129 -1.5527 15.1852 0.0000 29.7856 0.0000
# 6 0.0000 0.0000 0.0000 -2.6955 0.0000 63.9361
#
#
#
# Elastic Compliance Matrix: (Units=1/GPa)
#
#
# Indices 1 2 3 4 5 6 
#
# 1 0.011142 0.000553 0.003145 0.000000 -0.009322 0.000000
# 2 0.000553 0.016270 0.001207 0.000000 -0.000152 0.000000
# 3 0.003145 0.001207 0.018567 0.000000 -0.011590 0.000000
# 4 0.000000 0.000000 0.000000 0.023428 0.000000 0.000988
# 5 -0.009322 -0.000152 -0.011590 0.000000 0.045957 0.000000
# 6 0.000000 0.000000 0.000000 0.000988 0.000000 0.015682
#
#
# Mechanical properties :
#
#
# Convention : Reuss Voigt Hill
#
# Bulk Modulus (GPa) = 17.92475 23.26822 20.59649
# Shear Modulus (GPa) = 35.75724 43.83725 39.79724
#
# Velocity S-wave (km/s) = 3.85914 4.27297 4.07131
# Velocity P-wave (km/s) = 5.22713 5.83400 5.53888
#
# Compressibility (1/GPa) = 0.05578877
#
# Stress axis : x y z
#
# Youngs Moduli (GPa) = 89.75443 61.46111 53.85963
#
# Poissons Ratio (x) = -0.03402 -0.16938
# Poissons Ratio (y) = -0.04968 -0.06499
# Poissons Ratio (z) = -0.28226 -0.07417
#
# Static dielectric constant tensor:
#      x y z
#    x 1.934320 0.000000 0.040970 
#    y 0.000000 2.029310 0.000000 
#    z 0.040970 0.000000 2.073630 
# 
# From -- ./inp_files/45019.got.cif
#   From: 2010.05.17/outbox.cif.g08.bks.cpg/sg14_23_cif.got.tgz:45019.got - 2010.06.03 17:49:19.
