data_PCOD9240840
_publ_section_title
;
Structure prediction by ZEFSAII (Michael W. Deem and Ramdas Pophale) SiO2 
 PCOD9240840
Probable space group: P 21/C
;
_chemical_formula_sum "Si O2"
_cell_formula_units_Z 20
_cell_length_a 6.001706
_cell_length_b 9.102757
_cell_length_c 13.674557
_cell_angle_alpha 90.000000
_cell_angle_beta 97.364964
_cell_angle_gamma 90.000000
_cell_volume 740.905853
_symmetry_space_group_name_H-M "P 21/C"
_symmetry_group_IT_number 14
_symmetry_cell_setting 'monoclinic'
loop_
_space_group_symop_operation_xyz
x,y,z
-x,1/2+y,1/2-z
-x,-y,-z
x,1/2-y,1/2+z
loop_
_atom_site_type_symbol
_atom_site_label
_atom_site_fract_x
_atom_site_fract_y
_atom_site_fract_z
Si Si1 0.412733 0.191989 0.478882
Si Si2 0.518665 0.704861 0.312480
Si Si3 0.218145 0.704190 0.627145
Si Si4 0.159002 0.039919 0.858011
Si Si5 0.132888 0.056207 0.316897
O O1 0.379008 0.206697 0.591567
O O2 0.665493 0.221825 0.458637
O O3 0.304070 0.336856 0.420424
O O4 0.301849 0.050510 0.419358
O O5 0.393513 0.808955 0.226873
O O6 0.329250 0.595045 0.348536
O O7 0.704894 0.623739 0.257668
O O8 0.078347 0.557651 0.595964
O O9 0.043904 0.824282 0.655576
O O10 0.035564 0.060237 0.743667
#
# Coordination Sequence:
#
# PCOD9240840 Si02
#       5
#     4   4   4   4   4
#     4  10  20  34  54  79 104 134 174 212 250 304
#     4  10  20  34  54  79 104 134 174 212 250 304
#     4   9  20  35  52  76 108 137 166 211 261 302
#     4  10  19  33  54  78 105 135 169 212 257 301
#     4   9  20  35  52  76 108 137 166 211 261 302
#
# _framework density 26.993983
#
# number of rings (size 3 to 8) (size 9 to 14) (size 15 to 20)
#    0.000    2.400    0.000    1.800    0.000    8.000 
#    0.000    1.000    0.000   21.600    0.000    0.000 
#    0.000    0.000    0.000    0.000    0.000    0.000 
#
# Total GULP energy -111430.087135 kJ/mol
# GULP energy per Si atom -5571.504357 kJ/mol
# Density = 2.693254 g / cm^3
# Si number density = 26.993983 Si / 1000 Ang^3
#
#
#
# Elastic Constant Matrix: (Units=GPa)
#
#
# Indices 1 2 3 4 5 6 
#
# 1 119.4081 27.9010 54.9493 0.0000 -6.9489 0.0000
# 2 27.9010 53.5424 44.0721 0.0000 -12.1967 0.0000
# 3 54.9493 44.0721 162.6994 0.0000 -26.7558 0.0000
# 4 0.0000 0.0000 0.0000 36.6894 0.0000 11.2018
# 5 -6.9489 -12.1967 -26.7558 0.0000 0.6103 0.0000
# 6 0.0000 0.0000 0.0000 11.2018 0.0000 52.5372
#
#
#
# Elastic Compliance Matrix: (Units=1/GPa)
#
#
# Indices 1 2 3 4 5 6 
#
# 1 0.010020 -0.002145 -0.001435 0.000000 0.008321 0.000000
# 2 -0.002145 0.021263 -0.009796 0.000000 -0.028950 0.000000
# 3 -0.001435 -0.009796 0.004122 0.000000 -0.031391 0.000000
# 4 0.000000 0.000000 0.000000 0.029154 0.000000 -0.006216
# 5 0.008321 -0.028950 -0.031391 0.000000 -0.221484 0.000000
# 6 0.000000 0.000000 0.000000 -0.006216 0.000000 0.020359
#
#
# Mechanical properties :
#
#
# Convention : Reuss Voigt Hill
#
# Bulk Modulus (GPa) = 115.55642 65.49941 90.52791
# Shear Modulus (GPa) = -46.76033 31.88253 -7.43890
#
# Velocity S-wave (km/s) = -4.16655 3.44044 -1.66185
# Velocity P-wave (km/s) = 4.44458 6.33240 5.47054
#
# Compressibility (1/GPa) = 0.00865378
#
# Stress axis : x y z
#
# Youngs Moduli (GPa) = 99.79662 47.02905 242.58749
#
# Poissons Ratio (x) = 0.10089 0.34806
# Poissons Ratio (y) = 0.21408 2.37643
# Poissons Ratio (z) = 0.14319 0.46070
#
# Static dielectric constant tensor:
#      x y z
#    x 2.246150 0.000000 0.060930 
#    y 0.000000 2.207370 0.000000 
#    z 0.060930 0.000000 2.146560 
# 
# From -- ./inp_files/20600.got.cif
#   From: 2010.05.17/outbox.cif.g08.bks.cpg/sg14_11_cif.got.tgz:20600.got - 2010.06.03 17:49:19.
