data_PCOD9240801
_publ_section_title
;
Structure prediction by ZEFSAII (Michael W. Deem and Ramdas Pophale) SiO2 
 PCOD9240801
Probable space group: P 21/C
;
_chemical_formula_sum "Si O2"
_cell_formula_units_Z 32
_cell_length_a 20.225978
_cell_length_b 7.589591
_cell_length_c 7.934719
_cell_angle_alpha 90.000000
_cell_angle_beta 69.551163
_cell_angle_gamma 90.000000
_cell_volume 1141.279138
_symmetry_space_group_name_H-M "P 21/C"
_symmetry_group_IT_number 14
_symmetry_cell_setting 'monoclinic'
loop_
_space_group_symop_operation_xyz
x,y,z
-x,1/2+y,1/2-z
-x,-y,-z
x,1/2-y,1/2+z
loop_
_atom_site_type_symbol
_atom_site_label
_atom_site_fract_x
_atom_site_fract_y
_atom_site_fract_z
Si Si1 0.925477 0.779703 0.607302
Si Si2 0.593767 0.987176 0.554634
Si Si3 0.281098 0.563155 0.228258
Si Si4 0.015096 0.926451 0.221190
Si Si5 0.455907 0.845474 0.756504
Si Si6 0.209029 0.473684 0.826307
Si Si7 0.337722 0.551425 0.556369
Si Si8 0.162669 0.809789 0.034238
O O1 0.977297 0.859282 0.422921
O O2 0.952119 0.588171 0.640764
O O3 0.845633 0.813329 0.620059
O O4 0.943077 0.899983 0.757291
O O5 0.675352 0.944485 0.442966
O O6 0.579565 0.153839 0.690037
O O7 0.565685 0.056855 0.397077
O O8 0.540562 0.841589 0.674108
O O9 0.309821 0.525580 0.390966
O O10 0.198981 0.584201 0.347432
O O11 0.310969 0.755966 0.144242
O O12 0.078590 0.798762 0.104275
O O13 0.421101 0.946775 0.947390
O O14 0.290638 0.429462 0.719124
O O15 0.196221 0.613994 0.986950
O O16 0.182624 0.586396 0.686303
#
# Coordination Sequence:
#
# PCOD9240801 Si02
#       8
#     4   4   4   4   4   4   4   4
#     4  10  21  34  50  71  97 125 157 193 233 279
#     4   9  17  29  45  69  95 122 155 189 230 274
#     4   8  14  24  41  66  90 116 150 191 225 264
#     4  10  19  33  50  73  96 122 157 195 237 279
#     4   9  17  29  47  70  95 123 154 191 231 275
#     4   9  17  30  48  70  94 121 154 195 235 276
#     4   8  14  26  45  66  90 119 152 189 232 270
#     4   9  15  26  46  69  93 119 151 191 233 270
#
# _framework density 28.038715
#
# number of rings (size 3 to 8) (size 9 to 14) (size 15 to 20)
#    0.000    3.000    0.000    2.250    0.000    1.000 
#    0.000    2.500    0.000    7.500    0.000    7.000 
#    0.000    0.000    0.000    0.000    0.000    0.000 
#
# Total GULP energy -178571.978440 kJ/mol
# GULP energy per Si atom -5580.374326 kJ/mol
# Density = 2.797490 g / cm^3
# Si number density = 28.038715 Si / 1000 Ang^3
#
#
#
# Elastic Constant Matrix: (Units=GPa)
#
#
# Indices 1 2 3 4 5 6 
#
# 1 24.7468 4.0649 33.3104 0.0000 6.0138 0.0000
# 2 4.0649 79.4510 21.5438 0.0000 -1.5290 0.0000
# 3 33.3104 21.5438 157.4550 0.0000 -4.3039 0.0000
# 4 0.0000 0.0000 0.0000 26.3321 0.0000 -7.7302
# 5 6.0138 -1.5290 -4.3039 0.0000 41.5896 0.0000
# 6 0.0000 0.0000 0.0000 -7.7302 0.0000 27.4538
#
#
#
# Elastic Compliance Matrix: (Units=1/GPa)
#
#
# Indices 1 2 3 4 5 6 
#
# 1 0.060451 0.000265 -0.013101 0.000000 -0.010087 0.000000
# 2 0.000265 0.013076 -0.001838 0.000000 0.000252 0.000000
# 3 -0.013101 -0.001838 0.009451 0.000000 0.002805 0.000000
# 4 0.000000 0.000000 0.000000 0.041398 0.000000 0.011657
# 5 -0.010087 0.000252 0.002805 0.000000 0.025803 0.000000
# 6 0.000000 0.000000 0.000000 0.011657 0.000000 0.039707
#
#
# Mechanical properties :
#
#
# Convention : Reuss Voigt Hill
#
# Bulk Modulus (GPa) = 18.64601 42.16566 30.40583
# Shear Modulus (GPa) = 21.08717 32.59068 26.83893
#
# Velocity S-wave (km/s) = 2.74537 3.41302 3.09724
# Velocity P-wave (km/s) = 4.08827 5.53196 4.86398
#
# Compressibility (1/GPa) = 0.05363078
#
# Stress axis : x y z
#
# Youngs Moduli (GPa) = 16.54219 76.47514 105.81135
#
# Poissons Ratio (x) = -0.02030 1.38622
# Poissons Ratio (y) = -0.00439 0.19452
# Poissons Ratio (z) = 0.21672 0.14059
#
# Static dielectric constant tensor:
#      x y z
#    x 2.331900 0.000000 -0.048820 
#    y 0.000000 2.310290 0.000000 
#    z -0.048820 0.000000 2.186370 
# 
# From -- ./inp_files/36363.got.cif
#   From: 2010.05.17/outbox.cif.g08.bks.cpg/sg14_19_cif.got.tgz:36363.got - 2010.06.03 17:49:19.
