data_PCOD9240223
_publ_section_title
;
Structure prediction by ZEFSAII (Michael W. Deem and Ramdas Pophale) SiO2 
 PCOD9240223
Probable space group: P 21/C
;
_chemical_formula_sum "Si O2"
_cell_formula_units_Z 28
_cell_length_a 7.557789
_cell_length_b 31.331520
_cell_length_c 5.524166
_cell_angle_alpha 90.000000
_cell_angle_beta 117.796846
_cell_angle_gamma 90.000000
_cell_volume 1157.159291
_symmetry_space_group_name_H-M "P 21/C"
_symmetry_group_IT_number 14
_symmetry_cell_setting 'monoclinic'
loop_
_space_group_symop_operation_xyz
x,y,z
-x,1/2+y,1/2-z
-x,-y,-z
x,1/2-y,1/2+z
loop_
_atom_site_type_symbol
_atom_site_label
_atom_site_fract_x
_atom_site_fract_y
_atom_site_fract_z
Si Si1 0.123160 0.005639 0.829909
Si Si2 0.947352 0.353665 0.425629
Si Si3 0.283400 0.398758 0.432674
Si Si4 0.089417 0.262003 0.600975
Si Si5 0.405453 0.860198 0.605178
Si Si6 0.707768 0.416177 0.584610
Si Si7 0.359452 0.729118 0.270347
O O1 0.279589 0.966523 0.931093
O O2 0.214633 0.052711 0.893923
O O3 0.000000 0.000000 0.500000
O O4 0.000000 0.000000 0.000000
O O5 0.724790 0.341309 0.192080
O O6 0.887770 0.393708 0.555458
O O7 0.093145 0.367939 0.298998
O O8 0.040848 0.311909 0.603856
O O9 0.480652 0.399221 0.386337
O O10 0.377039 0.381246 0.749089
O O11 0.189852 0.257067 0.402826
O O12 0.881520 0.236628 0.413174
O O13 0.277938 0.900033 0.629665
O O14 0.408517 0.820850 0.793166
O O15 0.428117 0.749640 0.564034
#
# Coordination Sequence:
#
# PCOD9240223 Si02
#       7
#     4   4   4   4   4   4   4
#     4  12  25  49  77 104 142 195 233 292 372 433
#     4  12  21  44  71  97 144 189 235 296 363 417
#     4  10  26  45  67 113 136 183 246 292 353 445
#     4  10  20  36  67  96 134 190 234 285 354 418
#     4  10  23  40  67  99 139 183 231 297 352 413
#     4  10  24  43  71  99 142 183 227 302 351 422
#     4  10  18  35  63  93 131 184 228 278 355 407
#
# _framework density 24.197189000000002
#
# number of rings (size 3 to 8) (size 9 to 14) (size 15 to 20)
#    0.857    0.571    4.286    3.000    0.000    1.143 
#    2.571    3.571    0.000    0.000    0.000    0.000 
#    0.000    0.000    0.000    0.000    0.000    0.000 
#
# Total GULP energy -155985.607694 kJ/mol
# GULP energy per Si atom -5570.914561 kJ/mol
# Density = 2.414211 g / cm^3
# Si number density = 24.197189 Si / 1000 Ang^3
#
#
#
# Elastic Constant Matrix: (Units=GPa)
#
#
# Indices 1 2 3 4 5 6 
#
# 1 108.0972 21.5006 16.9198 0.0000 -4.1298 0.0000
# 2 21.5006 139.5957 -0.2778 0.0000 -8.1910 0.0000
# 3 16.9198 -0.2778 102.2270 0.0000 -10.3112 0.0000
# 4 0.0000 0.0000 0.0000 21.6678 0.0000 -0.7860
# 5 -4.1298 -8.1910 -10.3112 0.0000 28.7947 0.0000
# 6 0.0000 0.0000 0.0000 -0.7860 0.0000 15.4138
#
#
#
# Elastic Compliance Matrix: (Units=1/GPa)
#
#
# Indices 1 2 3 4 5 6 
#
# 1 0.009811 -0.001490 -0.001586 0.000000 0.000415 0.000000
# 2 -0.001490 0.007517 0.000478 0.000000 0.002096 0.000000
# 3 -0.001586 0.000478 0.010413 0.000000 0.003637 0.000000
# 4 0.000000 0.000000 0.000000 0.046237 0.000000 0.002358
# 5 0.000415 0.002096 0.003637 0.000000 0.036687 0.000000
# 6 0.000000 0.000000 0.000000 0.002358 0.000000 0.064997
#
#
# Mechanical properties :
#
#
# Convention : Reuss Voigt Hill
#
# Bulk Modulus (GPa) = 44.35360 47.35614 45.85487
# Shear Modulus (GPa) = 26.54313 33.96042 30.25178
#
# Velocity S-wave (km/s) = 3.31562 3.75038 3.53968
# Velocity P-wave (km/s) = 5.74697 6.19413 5.97473
#
# Compressibility (1/GPa) = 0.02254609
#
# Stress axis : x y z
#
# Youngs Moduli (GPa) = 101.92218 133.03249 96.03517
#
# Poissons Ratio (x) = 0.19821 0.15232
# Poissons Ratio (y) = 0.15186 -0.04595
# Poissons Ratio (z) = 0.16165 -0.06365
#
# Static dielectric constant tensor:
#      x y z
#    x 2.033080 0.000000 0.003220 
#    y 0.000000 1.951150 0.000000 
#    z 0.003220 0.000000 2.039180 
# 
# From -- ./inp_files/2273.got.cif
#   From: 2010.05.17/outbox.cif.g08.bks.cpg/sg14_2_cif.got.tgz:2273.got - 2010.06.03 17:49:19.
