data_PCOD9240494
_publ_section_title
;
Structure prediction by ZEFSAII (Michael W. Deem and Ramdas Pophale) SiO2 
 PCOD9240494
Probable space group: P 21/C
;
_chemical_formula_sum "Si O2"
_cell_formula_units_Z 32
_cell_length_a 10.978484
_cell_length_b 13.471671
_cell_length_c 9.327571
_cell_angle_alpha 90.000000
_cell_angle_beta 67.130694
_cell_angle_gamma 90.000000
_cell_volume 1271.093969
_symmetry_space_group_name_H-M "P 21/C"
_symmetry_group_IT_number 14
_symmetry_cell_setting 'monoclinic'
loop_
_space_group_symop_operation_xyz
x,y,z
-x,1/2+y,1/2-z
-x,-y,-z
x,1/2-y,1/2+z
loop_
_atom_site_type_symbol
_atom_site_label
_atom_site_fract_x
_atom_site_fract_y
_atom_site_fract_z
Si Si1 0.220184 0.363909 0.825985
Si Si2 0.570631 0.259075 0.314406
Si Si3 0.397718 0.317787 0.137082
Si Si4 0.092321 0.622146 0.575009
Si Si5 0.148188 0.768797 0.793294
Si Si6 0.819064 0.944887 0.343348
Si Si7 0.652042 0.463082 0.408756
Si Si8 0.939252 0.399565 0.955663
O O1 0.301407 0.271363 0.729626
O O2 0.291853 0.463406 0.738671
O O3 0.073359 0.355937 0.829016
O O4 0.198146 0.373781 0.007394
O O5 0.516259 0.307047 0.194819
O O6 0.459349 0.201093 0.452710
O O7 0.703085 0.197263 0.237297
O O8 0.620971 0.350310 0.385053
O O9 0.311612 0.417458 0.185037
O O10 0.125002 0.727261 0.644053
O O11 0.065148 0.651597 0.422428
O O12 0.219242 0.549942 0.544085
O O13 0.956237 0.580926 0.703004
O O14 0.121581 0.665777 0.891965
O O15 0.832945 0.057082 0.393828
O O16 0.500000 0.500000 0.500000
O O17 0.000000 0.500000 0.000000
#
# Coordination Sequence:
#
# PCOD9240494 Si02
#       8
#     4   4   4   4   4   4   4   4
#     4  11  20  39  63  92 118 169 208 249 308 380
#     4  11  23  41  58  95 125 167 210 252 313 377
#     4  12  24  39  64  90 131 164 211 255 310 373
#     4  11  22  39  64  97 121 159 214 256 316 367
#     4  11  22  39  64  90 124 163 204 264 309 375
#     4  11  21  37  63  92 121 162 212 262 301 366
#     4  11  22  40  68  91 124 169 208 259 311 386
#     4  10  18  39  63  89 119 160 212 248 306 373
#
# _framework density 25.175163000000001
#
# number of rings (size 3 to 8) (size 9 to 14) (size 15 to 20)
#    0.000    1.000    6.250    4.500    0.000    0.000 
#    0.000    3.750    0.000    2.250    0.000    0.000 
#    0.000    0.000    0.000    0.000    0.000    0.000 
#
# Total GULP energy -178759.110164 kJ/mol
# GULP energy per Si atom -5586.222193 kJ/mol
# Density = 2.511786 g / cm^3
# Si number density = 25.175163 Si / 1000 Ang^3
#
#
#
# Elastic Constant Matrix: (Units=GPa)
#
#
# Indices 1 2 3 4 5 6 
#
# 1 94.2831 4.8881 26.3560 0.0000 -10.9455 0.0000
# 2 4.8881 20.2632 7.2688 0.0000 -15.7404 0.0000
# 3 26.3560 7.2688 112.5776 0.0000 -17.3034 0.0000
# 4 0.0000 0.0000 0.0000 35.5441 0.0000 -8.9557
# 5 -10.9455 -15.7404 -17.3034 0.0000 48.5070 0.0000
# 6 0.0000 0.0000 0.0000 -8.9557 0.0000 41.3172
#
#
#
# Elastic Compliance Matrix: (Units=1/GPa)
#
#
# Indices 1 2 3 4 5 6 
#
# 1 0.011493 -0.000750 -0.002413 0.000000 0.001489 0.000000
# 2 -0.000750 0.066144 -0.000870 0.000000 0.020984 0.000000
# 3 -0.002413 -0.000870 0.009921 0.000000 0.002712 0.000000
# 4 0.000000 0.000000 0.000000 0.029759 0.000000 0.006451
# 5 0.001489 0.020984 0.002712 0.000000 0.028728 0.000000
# 6 0.000000 0.000000 0.000000 0.006451 0.000000 0.025601
#
#
# Mechanical properties :
#
#
# Convention : Reuss Voigt Hill
#
# Bulk Modulus (GPa) = 12.58001 33.79441 23.18721
# Shear Modulus (GPa) = 24.24715 37.64775 30.94745
#
# Velocity S-wave (km/s) = 3.10681 3.87128 3.50992
# Velocity P-wave (km/s) = 4.22819 5.78232 5.06521
#
# Compressibility (1/GPa) = 0.07949121
#
# Stress axis : x y z
#
# Youngs Moduli (GPa) = 87.01157 15.11851 100.79864
#
# Poissons Ratio (x) = 0.01134 0.24326
# Poissons Ratio (y) = 0.06526 0.08768
# Poissons Ratio (z) = 0.20999 0.01315
#
# Static dielectric constant tensor:
#      x y z
#    x 2.204550 0.000000 0.010440 
#    y 0.000000 2.069820 0.000000 
#    z 0.010440 0.000000 2.057580 
# 
# From -- ./inp_files/30027.got.cif
#   From: 2010.05.17/outbox.cif.g08.bks.cpg/sg14_16_cif.got.tgz:30027.got - 2010.06.03 17:49:19.
