data_PCOD9240425
_publ_section_title
;
Structure prediction by ZEFSAII (Michael W. Deem and Ramdas Pophale) SiO2 
 PCOD9240425
Probable space group: P 21/C
;
_chemical_formula_sum "Si O2"
_cell_formula_units_Z 28
_cell_length_a 7.854415
_cell_length_b 8.628587
_cell_length_c 22.316439
_cell_angle_alpha 90.000000
_cell_angle_beta 98.112820
_cell_angle_gamma 90.000000
_cell_volume 1497.304584
_symmetry_space_group_name_H-M "P 21/C"
_symmetry_group_IT_number 14
_symmetry_cell_setting 'monoclinic'
loop_
_space_group_symop_operation_xyz
x,y,z
-x,1/2+y,1/2-z
-x,-y,-z
x,1/2-y,1/2+z
loop_
_atom_site_type_symbol
_atom_site_label
_atom_site_fract_x
_atom_site_fract_y
_atom_site_fract_z
Si Si1 0.873059 0.123407 0.816186
Si Si2 0.863962 0.218849 0.014330
Si Si3 0.693272 0.159515 0.391649
Si Si4 0.885604 0.711577 0.258629
Si Si5 0.148738 0.109927 0.935661
Si Si6 0.313868 0.340271 0.859931
Si Si7 0.001000 0.930626 0.371704
O O1 0.718340 0.195934 0.846906
O O2 0.945990 0.253456 0.774124
O O3 0.017334 0.090589 0.873682
O O4 0.854600 0.962423 0.780443
O O5 0.923805 0.330473 0.070112
O O6 0.796742 0.057676 0.038535
O O7 0.726086 0.286987 0.961260
O O8 0.034621 0.184558 0.982848
O O9 0.504496 0.093267 0.371739
O O10 0.849762 0.043906 0.385735
O O11 0.729502 0.746152 0.204936
O O12 0.917969 0.822287 0.316652
O O13 0.290059 0.223531 0.914833
O O14 0.162607 0.467137 0.857492
#
# Coordination Sequence:
#
# PCOD9240425 Si02
#       7
#     4   4   4   4   4   4   4
#     4  10  18  38  61  89 112 156 203 241 298 349
#     4  10  20  38  65  87 118 162 202 245 300 354
#     4  11  24  40  60  91 125 157 198 251 299 357
#     4  11  20  38  67  85 117 160 198 246 299 353
#     4   9  19  38  62  86 115 158 203 244 294 354
#     4  11  24  40  61  90 124 156 200 251 299 356
#     4  12  22  40  63  89 122 162 199 243 305 356
#
# _framework density 18.70027
#
# number of rings (size 3 to 8) (size 9 to 14) (size 15 to 20)
#    0.000    1.429    7.143    0.429    0.000    2.286 
#    0.000    1.429    0.000    0.000    0.000    0.000 
#    0.000    0.000    0.000    0.000    0.000    0.000 
#
# Total GULP energy -156072.729205 kJ/mol
# GULP energy per Si atom -5574.026043 kJ/mol
# Density = 1.865771 g / cm^3
# Si number density = 18.700270 Si / 1000 Ang^3
#
#
#
# Elastic Constant Matrix: (Units=GPa)
#
#
# Indices 1 2 3 4 5 6 
#
# 1 81.4201 25.9207 18.2729 0.0000 21.0557 0.0000
# 2 25.9207 85.6241 48.5246 0.0000 8.5441 0.0000
# 3 18.2729 48.5246 116.7954 0.0000 7.6985 0.0000
# 4 0.0000 0.0000 0.0000 38.8197 0.0000 2.9570
# 5 21.0557 8.5441 7.6985 0.0000 9.1646 0.0000
# 6 0.0000 0.0000 0.0000 2.9570 0.0000 4.3464
#
#
#
# Elastic Compliance Matrix: (Units=1/GPa)
#
#
# Indices 1 2 3 4 5 6 
#
# 1 0.030818 -0.003010 0.000964 0.000000 -0.068808 0.000000
# 2 -0.003010 0.016381 -0.006123 0.000000 -0.003213 0.000000
# 3 0.000964 -0.006123 0.011353 0.000000 -0.006045 0.000000
# 4 0.000000 0.000000 0.000000 0.027168 0.000000 -0.018483
# 5 -0.068808 -0.003213 -0.006045 0.000000 0.275274 0.000000
# 6 0.000000 0.000000 0.000000 -0.018483 0.000000 0.242651
#
#
# Mechanical properties :
#
#
# Convention : Reuss Voigt Hill
#
# Bulk Modulus (GPa) = 23.68822 52.14177 37.91499
# Shear Modulus (GPa) = 7.88577 23.20756 15.54666
#
# Velocity S-wave (km/s) = 2.05574 3.52664 2.88646
# Velocity P-wave (km/s) = 4.28131 6.67281 5.60607
#
# Compressibility (1/GPa) = 0.04221508
#
# Stress axis : x y z
#
# Youngs Moduli (GPa) = 32.44873 61.04738 88.07929
#
# Poissons Ratio (x) = 0.18375 -0.08495
# Poissons Ratio (y) = 0.09767 0.53931
# Poissons Ratio (z) = -0.03129 0.37379
#
# Static dielectric constant tensor:
#      x y z
#    x 1.621710 0.000000 -0.024530 
#    y 0.000000 1.684970 0.000000 
#    z -0.024530 0.000000 1.685760 
# 
# From -- ./inp_files/64573.got.cif
#   From: 2010.05.17/outbox.cif.g08.bks.cpg/sg14_33_cif.got.tgz:64573.got - 2010.06.03 17:49:19.
