data_PCOD9240196
_publ_section_title
;
Structure prediction by ZEFSAII (Michael W. Deem and Ramdas Pophale) SiO2 
 PCOD9240196
Probable space group: P 21/C
;
_chemical_formula_sum "Si O2"
_cell_formula_units_Z 32
_cell_length_a 7.787600
_cell_length_b 15.429076
_cell_length_c 13.251703
_cell_angle_alpha 90.000000
_cell_angle_beta 120.012567
_cell_angle_gamma 90.000000
_cell_volume 1378.766968
_symmetry_space_group_name_H-M "P 21/C"
_symmetry_group_IT_number 14
_symmetry_cell_setting 'monoclinic'
loop_
_space_group_symop_operation_xyz
x,y,z
-x,1/2+y,1/2-z
-x,-y,-z
x,1/2-y,1/2+z
loop_
_atom_site_type_symbol
_atom_site_label
_atom_site_fract_x
_atom_site_fract_y
_atom_site_fract_z
Si Si1 0.580813 0.679096 0.406326
Si Si2 0.910195 0.931210 0.746167
Si Si3 0.246091 0.327502 0.159702
Si Si4 0.154034 0.701653 0.087862
Si Si5 0.136751 0.247747 0.340071
Si Si6 0.832501 0.014678 0.365423
Si Si7 0.258064 0.851129 0.972801
Si Si8 0.771956 0.998139 0.892822
O O1 0.590455 0.759285 0.331395
O O2 0.729472 0.704624 0.539751
O O3 0.383262 0.659999 0.409125
O O4 0.665682 0.592245 0.383034
O O5 0.798542 0.853059 0.656499
O O6 0.790640 0.000656 0.776979
O O7 0.053594 0.976430 0.707763
O O8 0.041671 0.876329 0.865785
O O9 0.166121 0.298127 0.244881
O O10 0.300891 0.428964 0.174553
O O11 0.056495 0.317747 0.029666
O O12 0.257733 0.609441 0.138356
O O13 0.081167 0.743129 0.172342
O O14 0.259843 0.766483 0.043104
O O15 0.000000 0.000000 0.500000
O O16 0.326180 0.927859 0.067495
O O17 0.000000 0.000000 0.000000
#
# Coordination Sequence:
#
# PCOD9240196 Si02
#       8
#     4   4   4   4   4   4   4   4
#     4  11  23  38  58  87 126 156 191 250 313 354
#     4  10  19  37  64  90 111 156 207 244 288 363
#     4  10  18  36  60  83 114 155 198 238 292 365
#     4   9  19  37  56  87 110 151 201 251 289 347
#     4  10  18  35  61  81 111 154 200 240 290 353
#     4   9  20  34  60  88 114 144 201 252 286 336
#     4  11  22  38  58  88 124 153 190 258 309 350
#     4  10  20  37  61  89 113 154 200 249 296 357
#
# _framework density 23.209143999999998
#
# number of rings (size 3 to 8) (size 9 to 14) (size 15 to 20)
#    0.000    2.000    2.500    3.375    5.250    0.000 
#    4.500    0.625    0.000    0.000    0.000    0.000 
#    0.000    0.000    0.000    0.000    0.000    0.000 
#
# Total GULP energy -178723.422553 kJ/mol
# GULP energy per Si atom -5585.106955 kJ/mol
# Density = 2.315632 g / cm^3
# Si number density = 23.209144 Si / 1000 Ang^3
#
#
#
# Elastic Constant Matrix: (Units=GPa)
#
#
# Indices 1 2 3 4 5 6 
#
# 1 69.3048 32.0798 27.0753 0.0000 -23.4483 0.0000
# 2 32.0798 103.5152 35.9777 0.0000 -18.8289 0.0000
# 3 27.0753 35.9777 93.3277 0.0000 -29.7736 0.0000
# 4 0.0000 0.0000 0.0000 24.1467 0.0000 -19.9095
# 5 -23.4483 -18.8289 -29.7736 0.0000 41.1266 0.0000
# 6 0.0000 0.0000 0.0000 -19.9095 0.0000 22.6461
#
#
#
# Elastic Compliance Matrix: (Units=1/GPa)
#
#
# Indices 1 2 3 4 5 6 
#
# 1 0.019705 -0.004078 -0.001503 0.000000 0.008280 0.000000
# 2 -0.004078 0.012216 -0.003229 0.000000 0.000930 0.000000
# 3 -0.001503 -0.003229 0.015150 0.000000 0.008632 0.000000
# 4 0.000000 0.000000 0.000000 0.150532 0.000000 0.132341
# 5 0.008280 0.000930 0.008632 0.000000 0.035711 0.000000
# 6 0.000000 0.000000 0.000000 0.132341 0.000000 0.160506
#
#
# Mechanical properties :
#
#
# Convention : Reuss Voigt Hill
#
# Bulk Modulus (GPa) = 33.95698 50.71259 42.33478
# Shear Modulus (GPa) = 11.86923 28.98489 20.42706
#
# Velocity S-wave (km/s) = 2.26388 3.53775 2.96992
# Velocity P-wave (km/s) = 4.63639 6.21170 5.48094
#
# Compressibility (1/GPa) = 0.02944903
#
# Stress axis : x y z
#
# Youngs Moduli (GPa) = 50.74784 81.86107 66.00744
#
# Poissons Ratio (x) = 0.33385 0.09922
# Poissons Ratio (y) = 0.20696 0.21317
# Poissons Ratio (z) = 0.07628 0.26437
#
# Static dielectric constant tensor:
#      x y z
#    x 1.952300 0.000000 0.028960 
#    y 0.000000 1.933690 0.000000 
#    z 0.028960 0.000000 1.908900 
# 
# From -- ./inp_files/40983.got.cif
#   From: 2010.05.17/outbox.cif.g08.bks.cpg/sg14_21_cif.got.tgz:40983.got - 2010.06.03 17:49:19.
