data_PCOD9240629
_publ_section_title
;
Structure prediction by ZEFSAII (Michael W. Deem and Ramdas Pophale) SiO2 
 PCOD9240629
Probable space group: P 21/C
;
_chemical_formula_sum "Si O2"
_cell_formula_units_Z 32
_cell_length_a 5.531449
_cell_length_b 20.462110
_cell_length_c 13.732730
_cell_angle_alpha 90.000000
_cell_angle_beta 107.541137
_cell_angle_gamma 90.000000
_cell_volume 1482.065075
_symmetry_space_group_name_H-M "P 21/C"
_symmetry_group_IT_number 14
_symmetry_cell_setting 'monoclinic'
loop_
_space_group_symop_operation_xyz
x,y,z
-x,1/2+y,1/2-z
-x,-y,-z
x,1/2-y,1/2+z
loop_
_atom_site_type_symbol
_atom_site_label
_atom_site_fract_x
_atom_site_fract_y
_atom_site_fract_z
Si Si1 0.932349 0.985885 0.832498
Si Si2 0.459382 0.335612 0.529186
Si Si3 0.554212 0.441923 0.083763
Si Si4 0.608606 0.429775 0.725230
Si Si5 0.913934 0.105244 0.964288
Si Si6 0.552276 0.696167 0.034742
Si Si7 0.945716 0.557844 0.915371
Si Si8 0.902128 0.339780 0.908718
O O1 0.662015 0.954690 0.765768
O O2 0.192804 0.978962 0.802643
O O3 0.002214 0.940509 0.934946
O O4 0.875626 0.057056 0.869110
O O5 0.538930 0.375249 0.635306
O O6 0.163464 0.351329 0.473351
O O7 0.477905 0.257467 0.540157
O O8 0.657856 0.359088 0.469745
O O9 0.505891 0.373917 0.021558
O O10 0.347963 0.445234 0.142429
O O11 0.848166 0.446870 0.143342
O O12 0.500000 0.500000 0.000000
O O13 0.780705 0.395484 0.827347
O O14 0.336847 0.704361 0.090878
O O15 0.844960 0.692056 0.105038
O O16 0.998859 0.624321 0.981175
O O17 0.000000 0.500000 0.000000
#
# Coordination Sequence:
#
# PCOD9240629 Si02
#       8
#     4   4   4   4   4   4   4   4
#     4   9  17  30  49  74 102 130 161 202 258 306
#     4  10  19  31  49  76  99 133 174 212 241 309
#     4   8  14  25  42  65  88 110 149 206 239 274
#     4  10  19  31  49  76 106 125 168 217 264 294
#     4   9  17  30  49  74 100 131 165 204 249 300
#     4  10  19  31  48  74  95 132 179 205 248 303
#     4   8  14  25  42  65  86 113 149 193 242 285
#     4  10  19  31  48  74 100 128 167 217 257 296
#
# _framework density 21.591493
#
# number of rings (size 3 to 8) (size 9 to 14) (size 15 to 20)
#    0.000    2.750    0.000    2.250    0.000    3.000 
#    0.000    0.000    0.000    0.000   78.000    0.000 
#    0.000    0.000    0.000    0.000    0.000    0.000 
#
# Total GULP energy -178291.381761 kJ/mol
# GULP energy per Si atom -5571.605680 kJ/mol
# Density = 2.154235 g / cm^3
# Si number density = 21.591493 Si / 1000 Ang^3
#
#
#
# Elastic Constant Matrix: (Units=GPa)
#
#
# Indices 1 2 3 4 5 6 
#
# 1 221.3826 14.3430 14.1006 0.0000 1.3073 0.0000
# 2 14.3430 88.0020 1.6585 0.0000 -6.2401 0.0000
# 3 14.1006 1.6585 32.4082 0.0000 2.8036 0.0000
# 4 0.0000 0.0000 0.0000 22.1333 0.0000 -0.9662
# 5 1.3073 -6.2401 2.8036 0.0000 22.4379 0.0000
# 6 0.0000 0.0000 0.0000 -0.9662 0.0000 19.7876
#
#
#
# Elastic Compliance Matrix: (Units=1/GPa)
#
#
# Indices 1 2 3 4 5 6 
#
# 1 0.004693 -0.000744 -0.001984 0.000000 -0.000232 0.000000
# 2 -0.000744 0.011735 -0.000569 0.000000 0.003378 0.000000
# 3 -0.001984 -0.000569 0.032099 0.000000 -0.004053 0.000000
# 4 0.000000 0.000000 0.000000 0.045277 0.000000 0.002211
# 5 -0.000232 0.003378 -0.004053 0.000000 0.046027 0.000000
# 6 0.000000 0.000000 0.000000 0.002211 0.000000 0.050645
#
#
# Mechanical properties :
#
#
# Convention : Reuss Voigt Hill
#
# Bulk Modulus (GPa) = 23.84720 44.66632 34.25676
# Shear Modulus (GPa) = 23.69137 33.65115 28.67126
#
# Velocity S-wave (km/s) = 3.31608 3.95211 3.64798
# Velocity P-wave (km/s) = 5.07253 6.44651 5.80035
#
# Compressibility (1/GPa) = 0.04193365
#
# Stress axis : x y z
#
# Youngs Moduli (GPa) = 213.08385 85.21599 31.15336
#
# Poissons Ratio (x) = 0.06340 0.06180
# Poissons Ratio (y) = 0.15853 0.01773
# Poissons Ratio (z) = 0.42269 0.04849
#
# Static dielectric constant tensor:
#      x y z
#    x 1.884780 0.000000 -0.007050 
#    y 0.000000 1.773830 0.000000 
#    z -0.007050 0.000000 1.780030 
# 
# From -- ./inp_files/53643.got.cif
#   From: 2010.05.17/outbox.cif.g08.bks.cpg/sg14_27_cif.got.tgz:53643.got - 2010.06.03 17:49:19.
