data_PCOD9240187
_publ_section_title
;
Structure prediction by ZEFSAII (Michael W. Deem and Ramdas Pophale) SiO2 
 PCOD9240187
Probable space group: P 21/C
;
_chemical_formula_sum "Si O2"
_cell_formula_units_Z 32
_cell_length_a 7.039242
_cell_length_b 7.803076
_cell_length_c 21.027519
_cell_angle_alpha 90.000000
_cell_angle_beta 74.342473
_cell_angle_gamma 90.000000
_cell_volume 1112.134670
_symmetry_space_group_name_H-M "P 21/C"
_symmetry_group_IT_number 14
_symmetry_cell_setting 'monoclinic'
loop_
_space_group_symop_operation_xyz
x,y,z
-x,1/2+y,1/2-z
-x,-y,-z
x,1/2-y,1/2+z
loop_
_atom_site_type_symbol
_atom_site_label
_atom_site_fract_x
_atom_site_fract_y
_atom_site_fract_z
Si Si1 0.919715 0.920197 0.683002
Si Si2 0.506957 0.757511 0.722036
Si Si3 0.235038 0.485005 0.485288
Si Si4 0.795724 0.699169 0.841507
Si Si5 0.671626 0.430871 0.655189
Si Si6 0.589188 0.022659 0.618121
Si Si7 0.799224 0.588758 0.989995
Si Si8 0.110838 0.574100 0.628164
O O1 0.728051 0.813379 0.725826
O O2 0.800555 0.009797 0.634661
O O3 0.076756 0.770140 0.652168
O O4 0.043298 0.072691 0.705485
O O5 0.518274 0.563634 0.699449
O O6 0.331338 0.797306 0.786190
O O7 0.485328 0.857307 0.657741
O O8 0.568220 0.663034 0.845701
O O9 0.346544 0.586850 0.419527
O O10 0.255742 0.279552 0.479004
O O11 0.000000 0.500000 0.500000
O O12 0.258612 0.562805 0.553854
O O13 0.807856 0.625180 0.914025
O O14 0.833881 0.901302 0.838380
O O15 0.883817 0.522305 0.634147
O O16 0.634813 0.025575 0.539994
O O17 0.000000 0.500000 0.000000
#
# Coordination Sequence:
#
# PCOD9240187 Si02
#       8
#     4   4   4   4   4   4   4   4
#     4   9  20  42  62  92 135 173 222 275 345 409
#     4   9  20  35  62  86 124 172 220 274 330 411
#     4   9  17  32  57  93 122 167 217 274 337 407
#     4  11  22  35  69  92 130 179 219 276 353 401
#     4  10  18  35  60  90 127 170 223 276 336 408
#     4  10  20  39  59  95 130 167 228 280 331 413
#     4  11  18  34  61  91 125 171 218 270 341 410
#     4   9  20  37  64  97 133 173 223 285 342 415
#
# _framework density 28.773496000000002
#
# number of rings (size 3 to 8) (size 9 to 14) (size 15 to 20)
#    0.750    1.500    2.500    1.125    1.750    0.000 
#    2.250    1.250   11.000    2.250    0.000    0.000 
#    0.000    0.000    0.000    0.000    0.000    0.000 
#
# Total GULP energy -178533.009418 kJ/mol
# GULP energy per Si atom -5579.156544 kJ/mol
# Density = 2.870801 g / cm^3
# Si number density = 28.773496 Si / 1000 Ang^3
#
#
#
# Elastic Constant Matrix: (Units=GPa)
#
#
# Indices 1 2 3 4 5 6 
#
# 1 90.2437 29.7251 20.0075 0.0000 -16.1936 0.0000
# 2 29.7251 135.8508 58.4195 0.0000 -29.5499 0.0000
# 3 20.0075 58.4195 181.1972 0.0000 -29.0753 0.0000
# 4 0.0000 0.0000 0.0000 58.3248 0.0000 -21.2260
# 5 -16.1936 -29.5499 -29.0753 0.0000 32.0077 0.0000
# 6 0.0000 0.0000 0.0000 -21.2260 0.0000 39.6680
#
#
#
# Elastic Compliance Matrix: (Units=1/GPa)
#
#
# Indices 1 2 3 4 5 6 
#
# 1 0.012495 -0.001675 -0.000086 0.000000 0.004697 0.000000
# 2 -0.001675 0.010016 -0.001986 0.000000 0.006595 0.000000
# 3 -0.000086 -0.001986 0.006869 0.000000 0.004362 0.000000
# 4 0.000000 0.000000 0.000000 0.021292 0.000000 0.011393
# 5 0.004697 0.006595 0.004362 0.000000 0.043670 0.000000
# 6 0.000000 0.000000 0.000000 0.011393 0.000000 0.031306
#
#
# Mechanical properties :
#
#
# Convention : Reuss Voigt Hill
#
# Bulk Modulus (GPa) = 45.69310 69.28845 57.49077
# Shear Modulus (GPa) = 35.60320 45.94273 40.77296
#
# Velocity S-wave (km/s) = 3.52143 4.00021 3.76843
# Velocity P-wave (km/s) = 5.69638 6.74303 6.24168
#
# Compressibility (1/GPa) = 0.02188514
#
# Stress axis : x y z
#
# Youngs Moduli (GPa) = 80.03341 99.83759 145.58922
#
# Poissons Ratio (x) = 0.16727 0.01250
# Poissons Ratio (y) = 0.13409 0.28914
# Poissons Ratio (z) = 0.00687 0.19828
#
# Static dielectric constant tensor:
#      x y z
#    x 2.379890 0.000000 0.154650 
#    y 0.000000 11.254260 0.000000 
#    z 0.154650 0.000000 2.338690 
# 
# From -- ./inp_files/72993.got.cif
#   From: 2010.05.17/outbox.cif.g08.bks.cpg/sg14_37_cif.got.tgz:72993.got - 2010.06.03 17:49:19.
