data_PCOD9240219
_publ_section_title
;
Structure prediction by ZEFSAII (Michael W. Deem and Ramdas Pophale) SiO2 
 PCOD9240219
Probable space group: P 21/C
;
_chemical_formula_sum "Si O2"
_cell_formula_units_Z 28
_cell_length_a 15.546237
_cell_length_b 17.288960
_cell_length_c 8.941418
_cell_angle_alpha 90.000000
_cell_angle_beta 144.574516
_cell_angle_gamma 90.000000
_cell_volume 1393.033778
_symmetry_space_group_name_H-M "P 21/C"
_symmetry_group_IT_number 14
_symmetry_cell_setting 'monoclinic'
loop_
_space_group_symop_operation_xyz
x,y,z
-x,1/2+y,1/2-z
-x,-y,-z
x,1/2-y,1/2+z
loop_
_atom_site_type_symbol
_atom_site_label
_atom_site_fract_x
_atom_site_fract_y
_atom_site_fract_z
Si Si1 0.713331 0.719716 0.678911
Si Si2 0.895096 0.821673 0.156614
Si Si3 0.156374 0.796437 0.048082
Si Si4 0.711698 0.340604 0.582868
Si Si5 0.383112 0.152020 0.660395
Si Si6 0.074897 0.429608 0.695615
Si Si7 0.066395 0.538823 0.949798
O O1 0.841867 0.685114 0.754140
O O2 0.638848 0.662219 0.691769
O O3 0.612687 0.764598 0.417812
O O4 0.775788 0.785101 0.878582
O O5 0.035239 0.766783 0.326699
O O6 0.941019 0.908792 0.192101
O O7 0.264533 0.744970 0.307303
O O8 0.236017 0.831232 0.014864
O O9 0.051405 0.862650 0.973079
O O10 0.547451 0.376455 0.360124
O O11 0.813532 0.399854 0.821129
O O12 0.235985 0.108735 0.389806
O O13 0.000000 0.500000 0.500000
O O14 0.111212 0.470286 0.905244
O O15 0.000000 0.500000 0.000000
#
# Coordination Sequence:
#
# PCOD9240219 Si02
#       7
#     4   4   4   4   4   4   4
#     4  10  18  35  63  91 115 157 205 265 301 360
#     4  10  19  34  64  91 114 156 214 261 293 362
#     4  11  22  41  67  94 122 164 223 260 312 377
#     4  11  25  41  65  92 129 165 210 272 317 377
#     4  11  23  40  62  95 128 159 210 263 329 367
#     4  12  25  40  66  94 129 168 215 260 319 390
#     4  11  22  38  61  89 124 167 207 254 317 379
#
# _framework density 20.100016
#
# number of rings (size 3 to 8) (size 9 to 14) (size 15 to 20)
#    0.000    1.143    4.286    4.286    4.000    0.571 
#    0.000    0.714    3.143    0.000    0.000    0.000 
#    0.000    0.000    0.000    0.000    0.000    0.000 
#
# Total GULP energy -155969.427473 kJ/mol
# GULP energy per Si atom -5570.336695 kJ/mol
# Density = 2.005427 g / cm^3
# Si number density = 20.100016 Si / 1000 Ang^3
#
#
#
# Elastic Constant Matrix: (Units=GPa)
#
#
# Indices 1 2 3 4 5 6 
#
# 1 103.3878 20.7325 42.5774 0.0000 10.5266 0.0000
# 2 20.7325 79.7816 19.2410 0.0000 7.6394 0.0000
# 3 42.5774 19.2410 68.2976 0.0000 12.0787 0.0000
# 4 0.0000 0.0000 0.0000 26.9037 0.0000 -8.3412
# 5 10.5266 7.6394 12.0787 0.0000 22.9922 0.0000
# 6 0.0000 0.0000 0.0000 -8.3412 0.0000 23.9226
#
#
#
# Elastic Compliance Matrix: (Units=1/GPa)
#
#
# Indices 1 2 3 4 5 6 
#
# 1 0.013242 -0.001465 -0.007559 0.000000 -0.001605 0.000000
# 2 -0.001465 0.013767 -0.002508 0.000000 -0.002586 0.000000
# 3 -0.007559 -0.002508 0.021278 0.000000 -0.006884 0.000000
# 4 0.000000 0.000000 0.000000 0.041675 0.000000 0.014531
# 5 -0.001605 -0.002586 -0.006884 0.000000 0.048704 0.000000
# 6 0.000000 0.000000 0.000000 0.014531 0.000000 0.046868
#
#
# Mechanical properties :
#
#
# Convention : Reuss Voigt Hill
#
# Bulk Modulus (GPa) = 39.64384 46.28541 42.96462
# Shear Modulus (GPa) = 23.04082 26.02478 24.53280
#
# Velocity S-wave (km/s) = 3.38939 3.60219 3.49741
# Velocity P-wave (km/s) = 5.92312 6.35441 6.14255
#
# Compressibility (1/GPa) = 0.02522460
#
# Stress axis : x y z
#
# Youngs Moduli (GPa) = 75.51514 72.63567 46.99635
#
# Poissons Ratio (x) = 0.10638 0.35524
# Poissons Ratio (y) = 0.11059 0.11788
# Poissons Ratio (z) = 0.57081 0.18219
#
# Static dielectric constant tensor:
#      x y z
#    x 1.707260 0.000000 0.020990 
#    y 0.000000 1.851820 0.000000 
#    z 0.020990 0.000000 1.742890 
# 
# From -- ./inp_files/16643.got.cif
#   From: 2010.05.17/outbox.cif.g08.bks.cpg/sg14_9_cif.got.tgz:16643.got - 2010.06.03 17:49:19.
