data_PCOD9240636
_publ_section_title
;
Structure prediction by ZEFSAII (Michael W. Deem and Ramdas Pophale) SiO2 
 PCOD9240636
Probable space group: P 21/C
;
_chemical_formula_sum "Si O2"
_cell_formula_units_Z 32
_cell_length_a 9.552188
_cell_length_b 35.466694
_cell_length_c 6.989544
_cell_angle_alpha 90.000000
_cell_angle_beta 32.748682
_cell_angle_gamma 90.000000
_cell_volume 1280.954347
_symmetry_space_group_name_H-M "P 21/C"
_symmetry_group_IT_number 14
_symmetry_cell_setting 'monoclinic'
loop_
_space_group_symop_operation_xyz
x,y,z
-x,1/2+y,1/2-z
-x,-y,-z
x,1/2-y,1/2+z
loop_
_atom_site_type_symbol
_atom_site_label
_atom_site_fract_x
_atom_site_fract_y
_atom_site_fract_z
Si Si1 0.176512 0.037705 0.312927
Si Si2 0.317917 0.924414 0.173875
Si Si3 0.720091 0.339104 0.316389
Si Si4 0.671309 0.790308 0.233206
Si Si5 0.350898 0.459937 0.176918
Si Si6 0.223121 0.202406 0.333979
Si Si7 0.162317 0.580282 0.307478
Si Si8 0.849169 0.167780 0.212333
O O1 0.952951 0.067131 0.619159
O O2 0.443938 0.045516 0.121694
O O3 0.268955 0.044063 0.991225
O O4 0.000000 0.000000 0.500000
O O5 0.377749 0.881844 0.050241
O O6 0.240726 0.924596 0.490579
O O7 0.475387 0.313903 0.642101
O O8 0.792659 0.335668 0.007046
O O9 0.963641 0.322409 0.152510
O O10 0.759857 0.746896 0.145790
O O11 0.380089 0.805198 0.601668
O O12 0.720796 0.800963 0.956786
O O13 0.876806 0.812407 0.123785
O O14 0.083412 0.447992 0.379775
O O15 0.500000 0.500000 0.000000
O O16 0.582191 0.431299 0.870811
O O17 0.124089 0.624525 0.384657
#
# Coordination Sequence:
#
# PCOD9240636 Si02
#       8
#     4   4   4   4   4   4   4   4
#     4  10  19  31  49  73  99 128 161 203 250 296
#     4   9  17  30  49  72  96 124 163 207 246 286
#     4   9  17  30  49  72  96 124 163 207 246 286
#     4  10  19  31  49  73  99 128 161 203 250 296
#     4  10  19  31  49  73  99 128 161 203 250 296
#     4  10  19  31  49  73  99 128 161 203 250 296
#     4   9  17  30  49  72  96 124 163 207 246 286
#     4   9  17  30  49  72  96 124 163 207 246 286
#
# _framework density 24.981373999999999
#
# number of rings (size 3 to 8) (size 9 to 14) (size 15 to 20)
#    0.000    2.500    0.000    3.000    0.000    6.000 
#    0.000    0.000    0.000    6.000    0.000    0.000 
#    0.000    0.000    0.000    0.000    0.000    0.000 
#
# Total GULP energy -178666.817923 kJ/mol
# GULP energy per Si atom -5583.338060 kJ/mol
# Density = 2.492452 g / cm^3
# Si number density = 24.981374 Si / 1000 Ang^3
#
#
#
# Elastic Constant Matrix: (Units=GPa)
#
#
# Indices 1 2 3 4 5 6 
#
# 1 91.4213 -45.7077 -1.9027 0.0000 -6.8660 0.0000
# 2 -45.7077 -144.5712 -209.4918 0.0000 66.3315 0.0000
# 3 -1.9027 -209.4918 -92.9142 0.0000 56.3086 0.0000
# 4 0.0000 0.0000 0.0000 44.0108 0.0000 -31.6158
# 5 -6.8660 66.3315 56.3086 0.0000 21.1608 0.0000
# 6 0.0000 0.0000 0.0000 -31.6158 0.0000 171.8684
#
#
#
# Elastic Compliance Matrix: (Units=1/GPa)
#
#
# Indices 1 2 3 4 5 6 
#
# 1 0.012400 0.002383 -0.002953 0.000000 0.004412 0.000000
# 2 0.002383 0.004285 -0.006653 0.000000 0.005045 0.000000
# 3 -0.002953 -0.006653 0.006261 0.000000 0.003237 0.000000
# 4 0.000000 0.000000 0.000000 0.026181 0.000000 0.004816
# 5 0.004412 0.005045 0.003237 0.000000 0.024260 0.000000
# 6 0.000000 0.000000 0.000000 0.004816 0.000000 0.006704
#
#
# Mechanical properties :
#
#
# Convention : Reuss Voigt Hill
#
# Bulk Modulus (GPa) = 117.66190 -73.36316 22.14937
# Shear Modulus (GPa) = 51.34992 54.81054 53.08023
#
# Velocity S-wave (km/s) = 4.53871 4.68916 4.61455
# Velocity P-wave (km/s) = 8.64110 0.33661 6.10554
#
# Compressibility (1/GPa) = 0.00849893
#
# Stress axis : x y z
#
# Youngs Moduli (GPa) = 80.64778 233.36124 159.72366
#
# Poissons Ratio (x) = -0.55607 0.47166
# Poissons Ratio (y) = -0.19217 1.06268
# Poissons Ratio (z) = 0.23815 1.55261
#
# Static dielectric constant tensor:
#      x y z
#    x 2.034870 0.000000 0.010910 
#    y 0.000000 1.980970 0.000000 
#    z 0.010910 0.000000 1.943740 
# 
# From -- ./inp_files/33176.got.cif
#   From: 2010.05.17/outbox.cif.g08.bks.cpg/sg14_17_cif.got.tgz:33176.got - 2010.06.03 17:49:19.
