data_PCOD9240951
_publ_section_title
;
Structure prediction by ZEFSAII (Michael W. Deem and Ramdas Pophale) SiO2 
 PCOD9240951
Probable space group: P 21/C
;
_chemical_formula_sum "Si O2"
_cell_formula_units_Z 28
_cell_length_a 8.465466
_cell_length_b 13.779914
_cell_length_c 14.775094
_cell_angle_alpha 90.000000
_cell_angle_beta 55.851016
_cell_angle_gamma 90.000000
_cell_volume 1426.389049
_symmetry_space_group_name_H-M "P 21/C"
_symmetry_group_IT_number 14
_symmetry_cell_setting 'monoclinic'
loop_
_space_group_symop_operation_xyz
x,y,z
-x,1/2+y,1/2-z
-x,-y,-z
x,1/2-y,1/2+z
loop_
_atom_site_type_symbol
_atom_site_label
_atom_site_fract_x
_atom_site_fract_y
_atom_site_fract_z
Si Si1 0.395165 0.978953 0.626580
Si Si2 0.663432 0.996355 0.022184
Si Si3 0.146540 0.808316 0.663509
Si Si4 0.112420 0.191319 0.094617
Si Si5 0.535297 0.781951 0.625410
Si Si6 0.332132 0.122544 0.801764
Si Si7 0.904019 0.316779 0.485467
O O1 0.201027 0.920533 0.664811
O O2 0.517627 0.897269 0.640472
O O3 0.500000 0.000000 0.500000
O O4 0.370285 0.073047 0.694770
O O5 0.748006 0.101521 0.016617
O O6 0.822735 0.920957 0.933355
O O7 0.500000 0.000000 0.000000
O O8 0.602398 0.947779 0.137032
O O9 0.334439 0.754283 0.643130
O O10 0.128173 0.777127 0.566052
O O11 0.961974 0.782972 0.782396
O O12 0.290716 0.251782 0.997103
O O13 0.937245 0.204041 0.080485
O O14 0.569736 0.724789 0.706966
O O15 0.106561 0.138002 0.888409
#
# Coordination Sequence:
#
# PCOD9240951 Si02
#       7
#     4   4   4   4   4   4   4
#     4  10  22  39  61  90 130 160 208 254 324 374
#     4  10  19  35  58  87 115 153 212 257 304 365
#     4  10  21  37  59  89 122 164 200 251 322 367
#     4  10  20  39  57  84 125 154 210 257 299 382
#     4   8  21  39  59  90 117 164 211 249 309 375
#     4  10  20  40  62  87 122 167 204 262 312 374
#     4  10  19  33  61  84 116 158 208 252 309 364
#
# _framework density 19.629987
#
# number of rings (size 3 to 8) (size 9 to 14) (size 15 to 20)
#    0.857    1.714    0.000    5.143    2.000    1.143 
#    5.143    0.000    0.000    4.286    0.000    0.000 
#    0.000    0.000    0.000    0.000    0.000    0.000 
#
# Total GULP energy -156020.899654 kJ/mol
# GULP energy per Si atom -5572.174988 kJ/mol
# Density = 1.958531 g / cm^3
# Si number density = 19.629987 Si / 1000 Ang^3
#
#
#
# Elastic Constant Matrix: (Units=GPa)
#
#
# Indices 1 2 3 4 5 6 
#
# 1 55.0679 7.8093 14.8037 0.0000 13.5237 0.0000
# 2 7.8093 53.6067 11.8754 0.0000 8.5114 0.0000
# 3 14.8037 11.8754 40.2541 0.0000 7.6556 0.0000
# 4 0.0000 0.0000 0.0000 30.6331 0.0000 5.7523
# 5 13.5237 8.5114 7.6556 0.0000 24.7110 0.0000
# 6 0.0000 0.0000 0.0000 5.7523 0.0000 17.0986
#
#
#
# Elastic Compliance Matrix: (Units=1/GPa)
#
#
# Indices 1 2 3 4 5 6 
#
# 1 0.022378 -0.000260 -0.006207 0.000000 -0.010235 0.000000
# 2 -0.000260 0.020655 -0.004964 0.000000 -0.005434 0.000000
# 3 -0.006207 -0.004964 0.029347 0.000000 -0.003985 0.000000
# 4 0.000000 0.000000 0.000000 0.034846 0.000000 -0.011723
# 5 -0.010235 -0.005434 -0.003985 0.000000 0.049175 0.000000
# 6 0.000000 0.000000 0.000000 -0.011723 0.000000 0.062428
#
#
# Mechanical properties :
#
#
# Convention : Reuss Voigt Hill
#
# Bulk Modulus (GPa) = 20.19458 24.21172 22.20315
# Shear Modulus (GPa) = 19.36504 22.11790 20.74147
#
# Velocity S-wave (km/s) = 3.14427 3.36034 3.25410
# Velocity P-wave (km/s) = 4.84684 5.23609 5.04522
#
# Compressibility (1/GPa) = 0.04951824
#
# Stress axis : x y z
#
# Youngs Moduli (GPa) = 44.68634 48.41494 34.07491
#
# Poissons Ratio (x) = 0.01259 0.21149
# Poissons Ratio (y) = 0.01162 0.16916
# Poissons Ratio (z) = 0.27735 0.24035
#
# Static dielectric constant tensor:
#      x y z
#    x 1.701860 0.000000 -0.007180 
#    y 0.000000 1.716900 0.000000 
#    z -0.007180 0.000000 1.689030 
# 
# From -- ./inp_files/40737.got.cif
#   From: 2010.05.17/outbox.cif.g08.bks.cpg/sg14_21_cif.got.tgz:40737.got - 2010.06.03 17:49:19.
