data_PCOD9240345
_publ_section_title
;
Structure prediction by ZEFSAII (Michael W. Deem and Ramdas Pophale) SiO2 
 PCOD9240345
Probable space group: P 21/C
;
_chemical_formula_sum "Si O2"
_cell_formula_units_Z 30
_cell_length_a 8.554771
_cell_length_b 4.958017
_cell_length_c 32.511526
_cell_angle_alpha 90.000000
_cell_angle_beta 88.042842
_cell_angle_gamma 90.000000
_cell_volume 1378.162194
_symmetry_space_group_name_H-M "P 21/C"
_symmetry_group_IT_number 14
_symmetry_cell_setting 'monoclinic'
loop_
_space_group_symop_operation_xyz
x,y,z
-x,1/2+y,1/2-z
-x,-y,-z
x,1/2-y,1/2+z
loop_
_atom_site_type_symbol
_atom_site_label
_atom_site_fract_x
_atom_site_fract_y
_atom_site_fract_z
Si Si1 0.082318 0.162939 0.646687
Si Si2 0.308308 0.662402 0.646047
Si Si3 0.929238 0.490565 0.231789
Si Si4 0.214612 0.844156 0.502225
Si Si5 0.026553 0.259945 0.057353
Si Si6 0.584270 0.084372 0.765574
Si Si7 0.631502 0.521010 0.442690
Si Si8 0.500000 0.000000 0.500000
O O1 0.171112 0.442144 0.655225
O O2 0.989831 0.192856 0.604982
O O3 0.220959 0.944703 0.639283
O O4 0.974839 0.067651 0.684674
O O5 0.409649 0.664956 0.686504
O O6 0.395315 0.572076 0.603526
O O7 0.757966 0.398412 0.246020
O O8 0.045696 0.302068 0.257284
O O9 0.373916 0.728795 0.524391
O O10 0.319050 0.077975 0.481268
O O11 0.118222 0.678842 0.469880
O O12 0.094196 0.968171 0.535717
O O13 0.180150 0.072440 0.055636
O O14 0.474330 0.282447 0.740900
O O15 0.540699 0.777785 0.458986
#
# Coordination Sequence:
#
# PCOD9240345 Si02
#       8
#     4   4   4   4   4   4   4   2
#     4  11  20  40  64  97 119 163 223 271 319 383
#     4  11  22  40  68  91 126 167 218 269 323 401
#     4  12  22  41  70  93 125 173 219 271 326 395
#     4  10  18  37  56  85 119 160 207 256 322 375
#     4   9  20  33  60  87 116 151 208 272 313 363
#     4  12  25  43  65  98 135 172 212 270 342 401
#     4  10  20  37  62  84 118 167 216 259 320 379
#     4  10  22  36  56  84 120 170 208 248 316 398
#
# _framework density 21.768122000000002
#
# number of rings (size 3 to 8) (size 9 to 14) (size 15 to 20)
#    0.000    1.333    4.000    2.400    0.000    0.000 
#    2.400    0.000    0.000    0.000    0.000    0.000 
#    0.000    0.000    0.000    0.000    0.000    0.000 
#
# Total GULP energy -167202.791039 kJ/mol
# GULP energy per Si atom -5573.426368 kJ/mol
# Density = 2.171858 g / cm^3
# Si number density = 21.768122 Si / 1000 Ang^3
#
#
#
# Elastic Constant Matrix: (Units=GPa)
#
#
# Indices 1 2 3 4 5 6 
#
# 1 58.9007 -5.6965 39.7907 0.0000 -9.6197 0.0000
# 2 -5.6965 69.4064 9.0396 0.0000 -1.2300 0.0000
# 3 39.7907 9.0396 137.7883 0.0000 -8.4899 0.0000
# 4 0.0000 0.0000 0.0000 25.6708 0.0000 3.4603
# 5 -9.6197 -1.2300 -8.4899 0.0000 32.1408 0.0000
# 6 0.0000 0.0000 0.0000 3.4603 0.0000 27.0287
#
#
#
# Elastic Compliance Matrix: (Units=1/GPa)
#
#
# Indices 1 2 3 4 5 6 
#
# 1 0.022349 0.002748 -0.006318 0.000000 0.005125 0.000000
# 2 0.002748 0.014873 -0.001711 0.000000 0.000940 0.000000
# 3 -0.006318 -0.001711 0.009224 0.000000 0.000480 0.000000
# 4 0.000000 0.000000 0.000000 0.039639 0.000000 -0.005075
# 5 0.005125 0.000940 0.000480 0.000000 0.032810 0.000000
# 6 0.000000 0.000000 0.000000 -0.005075 0.000000 0.037647
#
#
# Mechanical properties :
#
#
# Convention : Reuss Voigt Hill
#
# Bulk Modulus (GPa) = 27.86891 39.15145 33.51018
# Shear Modulus (GPa) = 27.92259 31.83217 29.87738
#
# Velocity S-wave (km/s) = 3.58541 3.82819 3.70879
# Velocity P-wave (km/s) = 5.47454 6.12901 5.81100
#
# Compressibility (1/GPa) = 0.03588228
#
# Stress axis : x y z
#
# Youngs Moduli (GPa) = 44.74472 67.23594 108.41264
#
# Poissons Ratio (x) = -0.18477 0.68500
# Poissons Ratio (y) = -0.12296 0.18554
# Poissons Ratio (z) = 0.28272 0.11507
#
# Static dielectric constant tensor:
#      x y z
#    x 1.813080 0.000000 0.006190 
#    y 0.000000 1.937480 0.000000 
#    z 0.006190 0.000000 1.834000 
# 
# From -- ./inp_files/79117.got.cif
#   From: 2010.05.17/outbox.cif.g08.bks.cpg/sg14_40_cif.got.tgz:79117.got - 2010.06.03 17:49:19.
