data_PCOD9240689
_publ_section_title
;
Structure prediction by ZEFSAII (Michael W. Deem and Ramdas Pophale) SiO2 
 PCOD9240689
Probable space group: P 21/C
;
_chemical_formula_sum "Si O2"
_cell_formula_units_Z 24
_cell_length_a 27.514157
_cell_length_b 5.765905
_cell_length_c 18.672656
_cell_angle_alpha 90.000000
_cell_angle_beta 161.331549
_cell_angle_gamma 90.000000
_cell_volume 948.208324
_symmetry_space_group_name_H-M "P 21/C"
_symmetry_group_IT_number 14
_symmetry_cell_setting 'monoclinic'
loop_
_space_group_symop_operation_xyz
x,y,z
-x,1/2+y,1/2-z
-x,-y,-z
x,1/2-y,1/2+z
loop_
_atom_site_type_symbol
_atom_site_label
_atom_site_fract_x
_atom_site_fract_y
_atom_site_fract_z
Si Si1 0.698737 0.692428 0.893025
Si Si2 0.727683 0.196503 0.535896
Si Si3 0.547693 0.538482 0.896315
Si Si4 0.964153 0.735300 0.104670
Si Si5 0.960018 0.254502 0.620909
Si Si6 0.425498 0.249740 0.418364
O O1 0.689396 0.432553 0.907291
O O2 0.716142 0.739703 0.833364
O O3 0.544742 0.821516 0.699188
O O4 0.861356 0.768048 0.150454
O O5 0.693453 0.025414 0.553325
O O6 0.899097 0.270726 0.763586
O O7 0.587911 0.374032 0.345060
O O8 0.592624 0.713977 0.022572
O O9 0.903057 0.999925 0.011859
O O10 0.041474 0.734122 0.293704
O O11 0.886948 0.480994 0.990034
O O12 0.500000 0.500000 0.500000
O O13 0.500000 0.000000 0.500000
#
# Coordination Sequence:
#
# PCOD9240689 Si02
#       6
#     4   4   4   4   4   4
#     4  10  19  32  50  71  98 133 169 208 246 298
#     4  11  19  30  50  72 104 131 165 206 255 302
#     4  11  20  31  48  73 105 134 164 204 255 305
#     4   9  18  30  46  72  98 125 162 210 251 289
#     4   9  17  30  49  70  95 126 166 209 249 285
#     4  10  21  34  49  70 102 135 170 203 243 299
#
# _framework density 25.310891000000002
#
# number of rings (size 3 to 8) (size 9 to 14) (size 15 to 20)
#    0.000    2.000    5.000    0.000    0.000    0.000 
#    0.000    0.000    0.000    1.000    0.000    0.000 
#    0.000   24.000    0.000    0.000    0.000    3.333 
#
# Total GULP energy -133603.925233 kJ/mol
# GULP energy per Si atom -5566.830218 kJ/mol
# Density = 2.525328 g / cm^3
# Si number density = 25.310891 Si / 1000 Ang^3
#
#
#
# Elastic Constant Matrix: (Units=GPa)
#
#
# Indices 1 2 3 4 5 6 
#
# 1 78.9648 31.9366 3.8923 0.0000 20.8551 0.0000
# 2 31.9366 177.2482 24.8301 0.0000 15.3714 0.0000
# 3 3.8923 24.8301 32.1484 0.0000 6.0250 0.0000
# 4 0.0000 0.0000 0.0000 24.0658 0.0000 7.0077
# 5 20.8551 15.3714 6.0250 0.0000 31.4315 0.0000
# 6 0.0000 0.0000 0.0000 7.0077 0.0000 23.5123
#
#
#
# Elastic Compliance Matrix: (Units=1/GPa)
#
#
# Indices 1 2 3 4 5 6 
#
# 1 0.016118 -0.002279 0.001664 0.000000 -0.009899 0.000000
# 2 -0.002279 0.006804 -0.004812 0.000000 -0.000893 0.000000
# 3 0.001664 -0.004812 0.035668 0.000000 -0.005588 0.000000
# 4 0.000000 0.000000 0.000000 0.045502 0.000000 -0.013561
# 5 -0.009899 -0.000893 -0.005588 0.000000 0.039891 0.000000
# 6 0.000000 0.000000 0.000000 -0.013561 0.000000 0.046573
#
#
# Mechanical properties :
#
#
# Convention : Reuss Voigt Hill
#
# Bulk Modulus (GPa) = 20.94854 45.51994 33.23424
# Shear Modulus (GPa) = 23.00748 30.98209 26.99478
#
# Velocity S-wave (km/s) = 3.01823 3.50245 3.26932
# Velocity P-wave (km/s) = 4.52114 5.86341 5.23547
#
# Compressibility (1/GPa) = 0.04773603
#
# Stress axis : x y z
#
# Youngs Moduli (GPa) = 62.04315 146.97447 28.03641
#
# Poissons Ratio (x) = 0.33491 -0.04664
# Poissons Ratio (y) = 0.14138 0.13490
# Poissons Ratio (z) = -0.10322 0.70721
#
# Static dielectric constant tensor:
#      x y z
#    x 2.219520 0.000000 0.154420 
#    y 0.000000 2.363880 0.000000 
#    z 0.154420 0.000000 2.142070 
# 
# From -- ./inp_files/56586.got.cif
#   From: 2010.05.17/outbox.cif.g08.bks.cpg/sg14_29_cif.got.tgz:56586.got - 2010.06.03 17:49:19.
