data_PCOD9240395
_publ_section_title
;
Structure prediction by ZEFSAII (Michael W. Deem and Ramdas Pophale) SiO2 
 PCOD9240395
Probable space group: P 21/C
;
_chemical_formula_sum "Si O2"
_cell_formula_units_Z 32
_cell_length_a 10.409703
_cell_length_b 9.344028
_cell_length_c 14.250191
_cell_angle_alpha 90.000000
_cell_angle_beta 84.054897
_cell_angle_gamma 90.000000
_cell_volume 1378.640517
_symmetry_space_group_name_H-M "P 21/C"
_symmetry_group_IT_number 14
_symmetry_cell_setting 'monoclinic'
loop_
_space_group_symop_operation_xyz
x,y,z
-x,1/2+y,1/2-z
-x,-y,-z
x,1/2-y,1/2+z
loop_
_atom_site_type_symbol
_atom_site_label
_atom_site_fract_x
_atom_site_fract_y
_atom_site_fract_z
Si Si1 0.339527 0.788392 0.241627
Si Si2 0.756435 0.710578 0.108215
Si Si3 0.555825 0.904188 0.754043
Si Si4 0.644737 0.658342 0.445012
Si Si5 0.083960 0.938612 0.334571
Si Si6 0.354483 0.679854 0.523002
Si Si7 0.914561 0.216537 0.027290
Si Si8 0.058397 0.064113 0.849383
O O1 0.411571 0.652531 0.279859
O O2 0.200149 0.837293 0.287157
O O3 0.335028 0.769287 0.130584
O O4 0.432292 0.925804 0.251616
O O5 0.616757 0.664513 0.156975
O O6 0.850633 0.583298 0.133162
O O7 0.806080 0.853836 0.155384
O O8 0.742022 0.748370 0.999400
O O9 0.648598 0.852641 0.832528
O O10 0.499130 0.708372 0.478620
O O11 0.660490 0.493366 0.476937
O O12 0.024751 0.853501 0.426680
O O13 0.992349 0.958301 0.251749
O O14 0.237758 0.745168 0.473567
O O15 0.968118 0.166267 0.922179
O O16 0.936796 0.084247 0.095574
#
# Coordination Sequence:
#
# PCOD9240395 Si02
#       8
#     4   4   4   4   4   4   4   4
#     4  10  20  39  61  91 124 155 201 245 306 363
#     4  11  23  41  61  90 125 158 201 253 309 358
#     4  10  22  37  61  90 123 159 195 251 300 366
#     4  10  20  36  64  90 119 158 199 246 300 366
#     4  11  24  41  61  92 128 156 198 263 308 351
#     4  10  18  37  65  88 117 156 206 246 291 363
#     4  11  23  41  66  90 117 162 209 254 296 363
#     4  11  24  42  67  86 116 167 217 247 296 360
#
# _framework density 23.211271
#
# number of rings (size 3 to 8) (size 9 to 14) (size 15 to 20)
#    0.000    1.500    3.750    1.500    0.000    2.500 
#    2.250    3.125    0.000    0.000    0.000    0.000 
#    0.000    0.000    0.000    0.000    0.000    0.000 
#
# Total GULP energy -178932.152585 kJ/mol
# GULP energy per Si atom -5591.629768 kJ/mol
# Density = 2.315844 g / cm^3
# Si number density = 23.211271 Si / 1000 Ang^3
#
#
#
# Elastic Constant Matrix: (Units=GPa)
#
#
# Indices 1 2 3 4 5 6 
#
# 1 51.4728 10.0228 20.0925 0.0000 17.0990 0.0000
# 2 10.0228 33.7201 24.0956 0.0000 2.6270 0.0000
# 3 20.0925 24.0956 75.9211 0.0000 18.5499 0.0000
# 4 0.0000 0.0000 0.0000 29.7469 0.0000 -0.3106
# 5 17.0990 2.6270 18.5499 0.0000 30.4297 0.0000
# 6 0.0000 0.0000 0.0000 -0.3106 0.0000 28.9074
#
#
#
# Elastic Compliance Matrix: (Units=1/GPa)
#
#
# Indices 1 2 3 4 5 6 
#
# 1 0.025399 -0.005127 -0.002016 0.000000 -0.012601 0.000000
# 2 -0.005127 0.040003 -0.013159 0.000000 0.007449 0.000000
# 3 -0.002016 -0.013159 0.020360 0.000000 -0.010142 0.000000
# 4 0.000000 0.000000 0.000000 0.033621 0.000000 0.000361
# 5 -0.012601 0.007449 -0.010142 0.000000 0.045483 0.000000
# 6 0.000000 0.000000 0.000000 0.000361 0.000000 0.034597
#
#
# Mechanical properties :
#
#
# Convention : Reuss Voigt Hill
#
# Bulk Modulus (GPa) = 22.14509 29.94842 26.04675
# Shear Modulus (GPa) = 19.59872 24.94369 22.27120
#
# Velocity S-wave (km/s) = 2.90894 3.28172 3.10094
# Velocity P-wave (km/s) = 4.56552 5.22400 4.90582
#
# Compressibility (1/GPa) = 0.04515673
#
# Stress axis : x y z
#
# Youngs Moduli (GPa) = 39.37177 24.99823 49.11694
#
# Poissons Ratio (x) = 0.12817 0.09901
# Poissons Ratio (y) = 0.20187 0.64634
# Poissons Ratio (z) = 0.07936 0.32896
#
# Static dielectric constant tensor:
#      x y z
#    x 1.897940 0.000000 -0.032440 
#    y 0.000000 1.829630 0.000000 
#    z -0.032440 0.000000 1.878390 
# 
# From -- ./inp_files/43754.got.cif
#   From: 2010.05.17/outbox.cif.g08.bks.cpg/sg14_22_cif.got.tgz:43754.got - 2010.06.03 17:49:19.
