data_PCOD9240384
_publ_section_title
;
Structure prediction by ZEFSAII (Michael W. Deem and Ramdas Pophale) SiO2 
 PCOD9240384
Probable space group: P 21/C
;
_chemical_formula_sum "Si O2"
_cell_formula_units_Z 20
_cell_length_a 7.403753
_cell_length_b 6.738223
_cell_length_c 18.983896
_cell_angle_alpha 90.000000
_cell_angle_beta 53.484982
_cell_angle_gamma 90.000000
_cell_volume 761.162027
_symmetry_space_group_name_H-M "P 21/C"
_symmetry_group_IT_number 14
_symmetry_cell_setting 'monoclinic'
loop_
_space_group_symop_operation_xyz
x,y,z
-x,1/2+y,1/2-z
-x,-y,-z
x,1/2-y,1/2+z
loop_
_atom_site_type_symbol
_atom_site_label
_atom_site_fract_x
_atom_site_fract_y
_atom_site_fract_z
Si Si1 0.753491 0.759931 0.175894
Si Si2 0.391554 0.695360 0.140804
Si Si3 0.457076 0.777452 0.364087
Si Si4 0.773420 0.399253 0.452783
Si Si5 0.121255 0.798974 0.830393
O O1 0.599020 0.735591 0.144410
O O2 0.649969 0.675878 0.271938
O O3 0.016460 0.742239 0.100713
O O4 0.738764 0.995517 0.196860
O O5 0.427615 0.459507 0.120819
O O6 0.385834 0.822896 0.071944
O O7 0.165522 0.749847 0.238594
O O8 0.331892 0.635960 0.447276
O O9 0.257132 0.838407 0.354013
O O10 0.881605 0.615727 0.411025
#
# Coordination Sequence:
#
# PCOD9240384 Si02
#       5
#     4   4   4   4   4
#     4   8  20  38  56  82 122 158 193 250 308 356
#     4  10  19  38  58  87 117 157 200 250 296 362
#     4  10  18  37  63  84 119 159 201 248 301 363
#     4  10  20  37  61  86 119 155 205 250 300 357
#     4   8  19  39  56  83 120 159 190 247 301 357
#
# _framework density 26.275614999999998
#
# number of rings (size 3 to 8) (size 9 to 14) (size 15 to 20)
#    1.200    1.600    0.000    1.200    0.000    0.800 
#   14.400    5.000    0.000    0.000    0.000    0.000 
#    0.000    0.000    0.000    0.000    0.000    0.000 
#
# Total GULP energy -111612.669274 kJ/mol
# GULP energy per Si atom -5580.633464 kJ/mol
# Density = 2.621581 g / cm^3
# Si number density = 26.275615 Si / 1000 Ang^3
#
#
#
# Elastic Constant Matrix: (Units=GPa)
#
#
# Indices 1 2 3 4 5 6 
#
# 1 69.8503 5.9857 26.1863 0.0000 -18.0075 0.0000
# 2 5.9857 49.3743 13.4373 0.0000 -4.0738 0.0000
# 3 26.1863 13.4373 148.7475 0.0000 -8.2079 0.0000
# 4 0.0000 0.0000 0.0000 12.1424 0.0000 0.8763
# 5 -18.0075 -4.0738 -8.2079 0.0000 38.6903 0.0000
# 6 0.0000 0.0000 0.0000 0.8763 0.0000 51.2422
#
#
#
# Elastic Compliance Matrix: (Units=1/GPa)
#
#
# Indices 1 2 3 4 5 6 
#
# 1 0.017251 -0.000784 -0.002558 0.000000 0.007404 0.000000
# 2 -0.000784 0.020926 -0.001670 0.000000 0.001484 0.000000
# 3 -0.002558 -0.001670 0.007334 0.000000 0.000190 0.000000
# 4 0.000000 0.000000 0.000000 0.082458 0.000000 -0.001410
# 5 0.007404 0.001484 0.000190 0.000000 0.029489 0.000000
# 6 0.000000 0.000000 0.000000 -0.001410 0.000000 0.019539
#
#
# Mechanical properties :
#
#
# Convention : Reuss Voigt Hill
#
# Bulk Modulus (GPa) = 28.17985 39.91008 34.04496
# Shear Modulus (GPa) = 25.14454 35.23918 30.19186
#
# Velocity S-wave (km/s) = 3.09682 3.66613 3.39343
# Velocity P-wave (km/s) = 4.85130 5.75696 5.32342
#
# Compressibility (1/GPa) = 0.03548635
#
# Stress axis : x y z
#
# Youngs Moduli (GPa) = 57.96734 47.78847 136.34358
#
# Poissons Ratio (x) = 0.03749 0.34871
# Poissons Ratio (y) = 0.04547 0.22774
# Poissons Ratio (z) = 0.14825 0.07982
#
# Static dielectric constant tensor:
#      x y z
#    x 2.096500 0.000000 -0.057700 
#    y 0.000000 2.129810 0.000000 
#    z -0.057700 0.000000 2.070240 
# 
# From -- ./inp_files/54441.got.cif
#   From: 2010.05.17/outbox.cif.g08.bks.cpg/sg14_28_cif.got.tgz:54441.got - 2010.06.03 17:49:19.
