data_PCOD9240401
_publ_section_title
;
Structure prediction by ZEFSAII (Michael W. Deem and Ramdas Pophale) SiO2 
 PCOD9240401
Probable space group: P 21/C
;
_chemical_formula_sum "Si O2"
_cell_formula_units_Z 24
_cell_length_a 12.672621
_cell_length_b 9.745608
_cell_length_c 25.704652
_cell_angle_alpha 90.000000
_cell_angle_beta 160.016926
_cell_angle_gamma 90.000000
_cell_volume 1084.891093
_symmetry_space_group_name_H-M "P 21/C"
_symmetry_group_IT_number 14
_symmetry_cell_setting 'monoclinic'
loop_
_space_group_symop_operation_xyz
x,y,z
-x,1/2+y,1/2-z
-x,-y,-z
x,1/2-y,1/2+z
loop_
_atom_site_type_symbol
_atom_site_label
_atom_site_fract_x
_atom_site_fract_y
_atom_site_fract_z
Si Si1 0.289056 0.897947 0.935890
Si Si2 0.427893 0.455446 0.601120
Si Si3 0.291482 0.556046 0.167360
Si Si4 0.665778 0.176724 0.663973
Si Si5 0.776882 0.125598 0.834122
Si Si6 0.242909 0.315868 0.881130
O O1 0.957846 0.894531 0.754565
O O2 0.465964 0.754962 0.010832
O O3 0.500000 0.000000 0.000000
O O4 0.300389 0.934995 0.001491
O O5 0.686530 0.497368 0.762595
O O6 0.554775 0.332597 0.624429
O O7 0.142578 0.398419 0.502451
O O8 0.285439 0.721909 0.171451
O O9 0.585267 0.489912 0.274782
O O10 0.000000 0.500000 0.000000
O O11 0.687212 0.117519 0.731485
O O12 0.405085 0.112142 0.505848
O O13 0.998498 0.204215 0.791713
#
# Coordination Sequence:
#
# PCOD9240401 Si02
#       6
#     4   4   4   4   4   4
#     4  11  21  40  63  92 132 173 217 276 324 392
#     4  11  22  41  67  88 133 177 219 270 342 395
#     4  11  25  43  70 100 131 172 231 282 339 407
#     4  10  18  37  67  94 124 174 224 258 326 409
#     4  11  23  44  70 100 129 177 223 279 342 399
#     4  10  20  36  64  94 130 171 218 261 329 385
#
# _framework density 22.122036999999999
#
# number of rings (size 3 to 8) (size 9 to 14) (size 15 to 20)
#    0.000    1.333    5.000    2.500    2.333    0.000 
#    6.000    9.167    0.000    0.000    0.000    0.000 
#    0.000    0.000    0.000    0.000    0.000    0.000 
#
# Total GULP energy -133989.366234 kJ/mol
# GULP energy per Si atom -5582.890260 kJ/mol
# Density = 2.207169 g / cm^3
# Si number density = 22.122037 Si / 1000 Ang^3
#
#
#
# Elastic Constant Matrix: (Units=GPa)
#
#
# Indices 1 2 3 4 5 6 
#
# 1 93.3037 45.7977 51.8729 0.0000 -21.9439 0.0000
# 2 45.7977 58.9209 41.7705 0.0000 -6.3699 0.0000
# 3 51.8729 41.7705 174.7982 0.0000 -39.3904 0.0000
# 4 0.0000 0.0000 0.0000 33.1575 0.0000 -0.2077
# 5 -21.9439 -6.3699 -39.3904 0.0000 57.7280 0.0000
# 6 0.0000 0.0000 0.0000 -0.2077 0.0000 44.8187
#
#
#
# Elastic Compliance Matrix: (Units=1/GPa)
#
#
# Indices 1 2 3 4 5 6 
#
# 1 0.019235 -0.013432 -0.001400 0.000000 0.004874 0.000000
# 2 -0.013432 0.029892 -0.004212 0.000000 -0.004681 0.000000
# 3 -0.001400 -0.004212 0.008175 0.000000 0.004581 0.000000
# 4 0.000000 0.000000 0.000000 0.030160 0.000000 0.000140
# 5 0.004874 -0.004681 0.004581 0.000000 0.021785 0.000000
# 6 0.000000 0.000000 0.000000 0.000140 0.000000 0.022313
#
#
# Mechanical properties :
#
#
# Convention : Reuss Voigt Hill
#
# Bulk Modulus (GPa) = 52.04291 67.32276 59.68283
# Shear Modulus (GPa) = 28.40056 39.64628 34.02342
#
# Velocity S-wave (km/s) = 3.58692 4.23799 3.92597
# Velocity P-wave (km/s) = 6.38209 7.37874 6.89844
#
# Compressibility (1/GPa) = 0.01921491
#
# Stress axis : x y z
#
# Youngs Moduli (GPa) = 51.98771 33.45393 122.31913
#
# Poissons Ratio (x) = 0.44934 0.17127
# Poissons Ratio (y) = 0.69827 0.51522
# Poissons Ratio (z) = 0.07279 0.14091
#
# Static dielectric constant tensor:
#      x y z
#    x 1.816860 0.000000 -0.036130 
#    y 0.000000 1.862040 0.000000 
#    z -0.036130 0.000000 1.862690 
# 
# From -- ./inp_files/73327.got.cif
#   From: 2010.05.17/outbox.cif.g08.bks.cpg/sg14_37_cif.got.tgz:73327.got - 2010.06.03 17:49:19.
