data_PCOD9240513
_publ_section_title
;
Structure prediction by ZEFSAII (Michael W. Deem and Ramdas Pophale) SiO2 
 PCOD9240513
Probable space group: P 21/C
;
_chemical_formula_sum "Si O2"
_cell_formula_units_Z 24
_cell_length_a 7.061599
_cell_length_b 8.593003
_cell_length_c 16.010490
_cell_angle_alpha 90.000000
_cell_angle_beta 69.489090
_cell_angle_gamma 90.000000
_cell_volume 909.932835
_symmetry_space_group_name_H-M "P 21/C"
_symmetry_group_IT_number 14
_symmetry_cell_setting 'monoclinic'
loop_
_space_group_symop_operation_xyz
x,y,z
-x,1/2+y,1/2-z
-x,-y,-z
x,1/2-y,1/2+z
loop_
_atom_site_type_symbol
_atom_site_label
_atom_site_fract_x
_atom_site_fract_y
_atom_site_fract_z
Si Si1 0.205657 0.949923 0.018834
Si Si2 0.810063 0.886140 0.529059
Si Si3 0.252316 0.684151 0.269144
Si Si4 0.609305 0.181617 0.588436
Si Si5 0.363386 0.128124 0.847293
Si Si6 0.817214 0.700078 0.353036
O O1 0.289716 0.775766 0.003495
O O2 0.369330 0.036473 0.934483
O O3 0.185529 0.025146 0.111545
O O4 0.000000 0.000000 0.000000
O O5 0.801402 0.762756 0.606338
O O6 0.807088 0.800688 0.440625
O O7 0.618066 0.000125 0.569831
O O8 0.000000 0.000000 0.500000
O O9 0.240908 0.771795 0.360219
O O10 0.430249 0.778804 0.198227
O O11 0.308526 0.505480 0.287300
O O12 0.025459 0.707467 0.270041
O O13 0.394400 0.248487 0.652944
#
# Coordination Sequence:
#
# PCOD9240513 Si02
#       6
#     4   4   4   4   4   4
#     4  10  18  40  63  90 118 162 205 252 307 358
#     4  11  21  38  64  90 122 165 209 253 306 361
#     4  11  22  41  61  88 126 160 206 250 315 375
#     4  11  21  37  63  91 125 160 206 253 306 362
#     4  10  22  38  66  86 123 168 200 254 312 367
#     4  11  22  37  63  90 124 160 208 254 303 366
#
# _framework density 26.375572999999999
#
# number of rings (size 3 to 8) (size 9 to 14) (size 15 to 20)
#    0.000    1.333    5.000    3.000    0.000    0.000 
#    0.000    6.667    7.333    0.000    0.000    0.000 
#    0.000    0.000    0.000    0.000    0.000    0.000 
#
# Total GULP energy -134091.521180 kJ/mol
# GULP energy per Si atom -5587.146716 kJ/mol
# Density = 2.631554 g / cm^3
# Si number density = 26.375573 Si / 1000 Ang^3
#
#
#
# Elastic Constant Matrix: (Units=GPa)
#
#
# Indices 1 2 3 4 5 6 
#
# 1 93.5406 23.9087 20.1497 0.0000 -34.2587 0.0000
# 2 23.9087 158.9642 50.7835 0.0000 -22.8288 0.0000
# 3 20.1497 50.7835 78.3221 0.0000 -39.6092 0.0000
# 4 0.0000 0.0000 0.0000 58.1109 0.0000 -8.5913
# 5 -34.2587 -22.8288 -39.6092 0.0000 49.3027 0.0000
# 6 0.0000 0.0000 0.0000 -8.5913 0.0000 29.8718
#
#
#
# Elastic Compliance Matrix: (Units=1/GPa)
#
#
# Indices 1 2 3 4 5 6 
#
# 1 0.014885 -0.001561 0.003449 0.000000 0.012391 0.000000
# 2 -0.001561 0.008115 -0.005910 0.000000 -0.002075 0.000000
# 3 0.003449 -0.005910 0.026175 0.000000 0.020689 0.000000
# 4 0.000000 0.000000 0.000000 0.017973 0.000000 0.005169
# 5 0.012391 -0.002075 0.020689 0.000000 0.044554 0.000000
# 6 0.000000 0.000000 0.000000 0.005169 0.000000 0.034963
#
#
# Mechanical properties :
#
#
# Convention : Reuss Voigt Hill
#
# Bulk Modulus (GPa) = 24.31160 57.83451 41.07305
# Shear Modulus (GPa) = 29.68787 43.18941 36.43864
#
# Velocity S-wave (km/s) = 3.35861 4.05097 3.72093
# Velocity P-wave (km/s) = 4.92725 6.62234 5.83666
#
# Compressibility (1/GPa) = 0.04113264
#
# Stress axis : x y z
#
# Youngs Moduli (GPa) = 67.18281 123.22102 38.20405
#
# Poissons Ratio (x) = 0.19237 -0.13178
# Poissons Ratio (y) = 0.10488 0.22577
# Poissons Ratio (z) = -0.23174 0.72820
#
# Static dielectric constant tensor:
#      x y z
#    x 2.129980 0.000000 -0.063670 
#    y 0.000000 2.147580 0.000000 
#    z -0.063670 0.000000 2.123350 
# 
# From -- ./inp_files/71888.got.cif
#   From: 2010.05.17/outbox.cif.g08.bks.cpg/sg14_36_cif.got.tgz:71888.got - 2010.06.03 17:49:19.
