data_PCOD9240896
_publ_section_title
;
Structure prediction by ZEFSAII (Michael W. Deem and Ramdas Pophale) SiO2 
 PCOD9240896
Probable space group: P 21/C
;
_chemical_formula_sum "Si O2"
_cell_formula_units_Z 28
_cell_length_a 8.653010
_cell_length_b 13.745542
_cell_length_c 12.628460
_cell_angle_alpha 90.000000
_cell_angle_beta 57.387111
_cell_angle_gamma 90.000000
_cell_volume 1265.209205
_symmetry_space_group_name_H-M "P 21/C"
_symmetry_group_IT_number 14
_symmetry_cell_setting 'monoclinic'
loop_
_space_group_symop_operation_xyz
x,y,z
-x,1/2+y,1/2-z
-x,-y,-z
x,1/2-y,1/2+z
loop_
_atom_site_type_symbol
_atom_site_label
_atom_site_fract_x
_atom_site_fract_y
_atom_site_fract_z
Si Si1 0.434211 0.111211 0.142806
Si Si2 0.561150 0.687122 0.133700
Si Si3 0.951939 0.172047 0.796587
Si Si4 0.107048 0.317902 0.442611
Si Si5 0.358244 0.808286 0.511233
Si Si6 0.768100 0.981999 0.960888
Si Si7 0.218181 0.804602 0.352663
O O1 0.403078 0.119255 0.278961
O O2 0.265719 0.087214 0.128093
O O3 0.530864 0.210820 0.066737
O O4 0.574079 0.022093 0.073854
O O5 0.744503 0.749498 0.055406
O O6 0.485221 0.642232 0.052878
O O7 0.399146 0.762157 0.229168
O O8 0.825377 0.266944 0.864469
O O9 0.917168 0.151040 0.685675
O O10 0.128515 0.190197 0.806606
O O11 0.874332 0.076313 0.882531
O O12 0.140484 0.422553 0.479273
O O13 0.905330 0.281301 0.550663
O O14 0.293340 0.861565 0.427991
#
# Coordination Sequence:
#
# PCOD9240896 Si02
#       7
#     4   4   4   4   4   4   4
#     4   9  18  31  54  85 112 141 182 233 278 328
#     4  10  19  33  56  85 111 149 187 229 282 324
#     4   9  19  32  51  82 112 143 177 233 283 325
#     4  11  21  33  59  88 110 143 195 229 273 336
#     4   8  15  33  50  77 109 145 184 228 265 325
#     4  10  19  34  56  85 116 138 184 238 283 323
#     4   9  20  34  53  83 116 145 186 236 273 327
#
# _framework density 22.130728000000001
#
# number of rings (size 3 to 8) (size 9 to 14) (size 15 to 20)
#    0.000    2.571    1.429    1.286    4.000    0.000 
#    0.000    0.000    0.000    1.714    0.000    0.000 
#    0.000    0.000    0.000    0.000    0.000    0.000 
#
# Total GULP energy -155940.031348 kJ/mol
# GULP energy per Si atom -5569.286834 kJ/mol
# Density = 2.208036 g / cm^3
# Si number density = 22.130728 Si / 1000 Ang^3
#
#
#
# Elastic Constant Matrix: (Units=GPa)
#
#
# Indices 1 2 3 4 5 6 
#
# 1 112.4187 13.1039 42.8395 0.0000 46.6449 0.0000
# 2 13.1039 20.2179 7.2288 0.0000 10.4468 0.0000
# 3 42.8395 7.2288 63.7241 0.0000 43.1230 0.0000
# 4 0.0000 0.0000 0.0000 20.2402 0.0000 9.7151
# 5 46.6449 10.4468 43.1230 0.0000 68.7482 0.0000
# 6 0.0000 0.0000 0.0000 9.7151 0.0000 19.3888
#
#
#
# Elastic Compliance Matrix: (Units=1/GPa)
#
#
# Indices 1 2 3 4 5 6 
#
# 1 0.013522 -0.004187 -0.004930 0.000000 -0.005446 0.000000
# 2 -0.004187 0.055008 0.000537 0.000000 -0.005855 0.000000
# 3 -0.004930 0.000537 0.029082 0.000000 -0.014979 0.000000
# 4 0.000000 0.000000 0.000000 0.065052 0.000000 -0.032596
# 5 -0.005446 -0.005855 -0.014979 0.000000 0.028526 0.000000
# 6 0.000000 0.000000 0.000000 -0.032596 0.000000 0.067909
#
#
# Mechanical properties :
#
#
# Convention : Reuss Voigt Hill
#
# Bulk Modulus (GPa) = 12.42990 35.85612 24.14301
# Shear Modulus (GPa) = 16.49745 30.55466 23.52606
#
# Velocity S-wave (km/s) = 2.73326 3.71973 3.26398
# Velocity P-wave (km/s) = 3.94838 5.88946 5.01375
#
# Compressibility (1/GPa) = 0.08045120
#
# Stress axis : x y z
#
# Youngs Moduli (GPa) = 73.95605 18.17913 34.38498
#
# Poissons Ratio (x) = 0.07612 0.16952
# Poissons Ratio (y) = 0.30968 -0.01846
# Poissons Ratio (z) = 0.36460 -0.00976
#
# Static dielectric constant tensor:
#      x y z
#    x 1.895140 0.000000 0.061810 
#    y 0.000000 1.781530 0.000000 
#    z 0.061810 0.000000 1.900450 
# 
# From -- ./inp_files/25183.got.cif
#   From: 2010.05.17/outbox.cif.g08.bks.cpg/sg14_13_cif.got.tgz:25183.got - 2010.06.03 17:49:19.
