data_PCOD9240550
_publ_section_title
;
Structure prediction by ZEFSAII (Michael W. Deem and Ramdas Pophale) SiO2 
 PCOD9240550
Probable space group: P 21/C
;
_chemical_formula_sum "Si O2"
_cell_formula_units_Z 26
_cell_length_a 7.150183
_cell_length_b 20.409580
_cell_length_c 9.929036
_cell_angle_alpha 90.000000
_cell_angle_beta 132.989389
_cell_angle_gamma 90.000000
_cell_volume 1059.889921
_symmetry_space_group_name_H-M "P 21/C"
_symmetry_group_IT_number 14
_symmetry_cell_setting 'monoclinic'
loop_
_space_group_symop_operation_xyz
x,y,z
-x,1/2+y,1/2-z
-x,-y,-z
x,1/2-y,1/2+z
loop_
_atom_site_type_symbol
_atom_site_label
_atom_site_fract_x
_atom_site_fract_y
_atom_site_fract_z
Si Si1 0.480182 0.415706 0.855008
Si Si2 0.754580 0.359755 0.435510
Si Si3 0.796814 0.124039 0.267217
Si Si4 0.076762 0.497597 0.794824
Si Si5 0.029415 0.262545 0.401330
Si Si6 0.507003 0.198266 0.572400
Si Si7 0.000000 0.500000 0.500000
O O1 0.569780 0.389939 0.757570
O O2 0.226848 0.461380 0.737626
O O3 0.716192 0.457628 0.032093
O O4 0.423060 0.357455 0.929508
O O5 0.720273 0.360982 0.576852
O O6 0.989211 0.311756 0.505961
O O7 0.527009 0.329626 0.234510
O O8 0.811724 0.432452 0.414990
O O9 0.949518 0.187623 0.394958
O O10 0.969831 0.058229 0.338685
O O11 0.877069 0.528313 0.595878
O O12 0.803093 0.285161 0.188978
O O13 0.309795 0.257450 0.478715
#
# Coordination Sequence:
#
# PCOD9240550 Si02
#       7
#     4   4   4   4   4   4   2
#     4  11  22  41  72 104 138 192 234 299 358 435
#     4   9  23  42  70 100 144 186 239 304 359 438
#     4  11  23  41  66 106 140 184 241 296 360 434
#     4  10  21  41  70  98 149 185 237 294 366 429
#     4  10  23  43  69  98 142 189 241 298 364 440
#     4  10  22  46  71  99 142 192 240 294 373 435
#     4  10  18  42  68 100 136 192 236 294 358 426
#
# _framework density 24.530850000000001
#
# number of rings (size 3 to 8) (size 9 to 14) (size 15 to 20)
#    0.923    0.923    3.077    0.462    2.154    2.462 
#    2.769    4.615    0.000    0.000    0.000    0.000 
#    0.000    0.000    0.000    0.000    0.000    0.000 
#
# Total GULP energy -144948.003132 kJ/mol
# GULP energy per Si atom -5574.923197 kJ/mol
# Density = 2.447502 g / cm^3
# Si number density = 24.530850 Si / 1000 Ang^3
#
#
#
# Elastic Constant Matrix: (Units=GPa)
#
#
# Indices 1 2 3 4 5 6 
#
# 1 107.2231 40.7237 34.2693 0.0000 -13.5289 0.0000
# 2 40.7237 69.2513 42.8154 0.0000 -3.0522 0.0000
# 3 34.2693 42.8154 99.9881 0.0000 10.8302 0.0000
# 4 0.0000 0.0000 0.0000 39.9220 0.0000 8.5855
# 5 -13.5289 -3.0522 10.8302 0.0000 27.3746 0.0000
# 6 0.0000 0.0000 0.0000 8.5855 0.0000 43.6336
#
#
#
# Elastic Compliance Matrix: (Units=1/GPa)
#
#
# Indices 1 2 3 4 5 6 
#
# 1 0.013319 -0.005745 -0.002871 0.000000 0.007078 0.000000
# 2 -0.005745 0.023029 -0.008215 0.000000 0.002978 0.000000
# 3 -0.002871 -0.008215 0.015416 0.000000 -0.008434 0.000000
# 4 0.000000 0.000000 0.000000 0.026156 0.000000 -0.005146
# 5 0.007078 0.002978 -0.008434 0.000000 0.043697 0.000000
# 6 0.000000 0.000000 0.000000 -0.005146 0.000000 0.023931
#
#
# Mechanical properties :
#
#
# Convention : Reuss Voigt Hill
#
# Bulk Modulus (GPa) = 55.24278 56.89771 56.07025
# Shear Modulus (GPa) = 26.99142 32.76297 29.87719
#
# Velocity S-wave (km/s) = 3.32068 3.65853 3.49369
# Velocity P-wave (km/s) = 6.10501 6.41024 6.25949
#
# Compressibility (1/GPa) = 0.01810191
#
# Stress axis : x y z
#
# Youngs Moduli (GPa) = 75.07959 43.42426 64.86596
#
# Poissons Ratio (x) = 0.24948 0.18626
# Poissons Ratio (y) = 0.43134 0.53284
# Poissons Ratio (z) = 0.21559 0.35671
#
# Static dielectric constant tensor:
#      x y z
#    x 1.981090 0.000000 0.011830 
#    y 0.000000 2.011990 0.000000 
#    z 0.011830 0.000000 2.032220 
# 
# From -- ./inp_files/22022.got.cif
#   From: 2010.05.17/outbox.cif.g08.bks.cpg/sg14_12_cif.got.tgz:22022.got - 2010.06.03 17:49:19.
