data_PCOD9240307
_publ_section_title
;
Structure prediction by ZEFSAII (Michael W. Deem and Ramdas Pophale) SiO2 
 PCOD9240307
Probable space group: P 21/C
;
_chemical_formula_sum "Si O2"
_cell_formula_units_Z 28
_cell_length_a 15.482966
_cell_length_b 14.745446
_cell_length_c 7.756651
_cell_angle_alpha 90.000000
_cell_angle_beta 46.520359
_cell_angle_gamma 90.000000
_cell_volume 1284.975722
_symmetry_space_group_name_H-M "P 21/C"
_symmetry_group_IT_number 14
_symmetry_cell_setting 'monoclinic'
loop_
_space_group_symop_operation_xyz
x,y,z
-x,1/2+y,1/2-z
-x,-y,-z
x,1/2-y,1/2+z
loop_
_atom_site_type_symbol
_atom_site_label
_atom_site_fract_x
_atom_site_fract_y
_atom_site_fract_z
Si Si1 0.613670 0.841106 0.761221
Si Si2 0.751053 0.564029 0.616618
Si Si3 0.675353 0.031272 0.547302
Si Si4 0.466096 0.340364 0.241065
Si Si5 0.169830 0.959309 0.334605
Si Si6 0.862037 0.741012 0.354442
Si Si7 0.022844 0.364914 0.094197
O O1 0.522284 0.765007 0.822452
O O2 0.742382 0.801353 0.527649
O O3 0.601257 0.941366 0.704163
O O4 0.601548 0.845715 0.982980
O O5 0.620738 0.610494 0.776723
O O6 0.771707 0.505995 0.414396
O O7 0.841356 0.648827 0.493435
O O8 0.757860 0.503381 0.777328
O O9 0.588240 0.107282 0.595062
O O10 0.742613 0.061197 0.628752
O O11 0.093672 0.877422 0.360058
O O12 0.078266 0.035099 0.536748
O O13 0.974480 0.805899 0.237938
O O14 0.882776 0.695340 0.141449
#
# Coordination Sequence:
#
# PCOD9240307 Si02
#       7
#     4   4   4   4   4   4   4
#     4  11  20  38  63  94 126 158 215 263 301 376
#     4  10  21  38  63  93 122 157 212 258 310 376
#     4  12  22  40  67  90 129 169 209 260 319 378
#     4  11  23  38  63  98 124 167 212 258 321 367
#     4  10  22  40  59  90 125 162 200 258 322 374
#     4  10  18  36  63  90 114 158 207 262 309 355
#     4  10  20  38  61  89 123 154 208 265 311 365
#
# _framework density 21.790293999999999
#
# number of rings (size 3 to 8) (size 9 to 14) (size 15 to 20)
#    0.000    1.429    2.857    5.143    0.000    0.000 
#    2.571    3.571    0.000    0.000    0.000    0.000 
#    0.000    0.000    0.000    0.000    0.000    0.000 
#
# Total GULP energy -156330.172611 kJ/mol
# GULP energy per Si atom -5583.220450 kJ/mol
# Density = 2.174070 g / cm^3
# Si number density = 21.790294 Si / 1000 Ang^3
#
#
#
# Elastic Constant Matrix: (Units=GPa)
#
#
# Indices 1 2 3 4 5 6 
#
# 1 95.9476 50.4936 -3.6754 0.0000 -1.3348 0.0000
# 2 50.4936 66.6107 -7.0474 0.0000 -12.5509 0.0000
# 3 -3.6754 -7.0474 14.7191 0.0000 9.0172 0.0000
# 4 0.0000 0.0000 0.0000 16.7386 0.0000 -8.0066
# 5 -1.3348 -12.5509 9.0172 0.0000 23.2568 0.0000
# 6 0.0000 0.0000 0.0000 -8.0066 0.0000 50.8381
#
#
#
# Elastic Compliance Matrix: (Units=1/GPa)
#
#
# Indices 1 2 3 4 5 6 
#
# 1 0.018414 -0.015236 0.002220 0.000000 -0.008026 0.000000
# 2 -0.015236 0.029438 0.001434 0.000000 0.014456 0.000000
# 3 0.002220 0.001434 0.090006 0.000000 -0.033996 0.000000
# 4 0.000000 0.000000 0.000000 0.064610 0.000000 0.010175
# 5 -0.008026 0.014456 -0.033996 0.000000 0.063520 0.000000
# 6 0.000000 0.000000 0.000000 0.010175 0.000000 0.021273
#
#
# Mechanical properties :
#
#
# Convention : Reuss Voigt Hill
#
# Bulk Modulus (GPa) = 8.71882 28.53547 18.62714
# Shear Modulus (GPa) = 14.34082 27.33379 20.83731
#
# Velocity S-wave (km/s) = 2.56819 3.54560 3.09571
# Velocity P-wave (km/s) = 3.57827 5.46677 4.62004
#
# Compressibility (1/GPa) = 0.11469442
#
# Stress axis : x y z
#
# Youngs Moduli (GPa) = 54.30718 33.97026 11.11032
#
# Poissons Ratio (x) = 0.51756 -0.02467
# Poissons Ratio (y) = 0.82741 -0.01593
# Poissons Ratio (z) = -0.12057 -0.04871
#
# Static dielectric constant tensor:
#      x y z
#    x 1.878420 0.000000 0.051670 
#    y 0.000000 1.848920 0.000000 
#    z 0.051670 0.000000 1.863650 
# 
# From -- ./inp_files/16205.got.cif
#   From: 2010.05.17/outbox.cif.g08.bks.cpg/sg14_9_cif.got.tgz:16205.got - 2010.06.03 17:49:19.
