data_PCOD9240212
_publ_section_title
;
Structure prediction by ZEFSAII (Michael W. Deem and Ramdas Pophale) SiO2 
 PCOD9240212
Probable space group: P 21/C
;
_chemical_formula_sum "Si O2"
_cell_formula_units_Z 28
_cell_length_a 13.265503
_cell_length_b 9.395553
_cell_length_c 17.774401
_cell_angle_alpha 90.000000
_cell_angle_beta 148.017012
_cell_angle_gamma 90.000000
_cell_volume 1173.395238
_symmetry_space_group_name_H-M "P 21/C"
_symmetry_group_IT_number 14
_symmetry_cell_setting 'monoclinic'
loop_
_space_group_symop_operation_xyz
x,y,z
-x,1/2+y,1/2-z
-x,-y,-z
x,1/2-y,1/2+z
loop_
_atom_site_type_symbol
_atom_site_label
_atom_site_fract_x
_atom_site_fract_y
_atom_site_fract_z
Si Si1 0.665366 0.122708 0.601913
Si Si2 0.270084 0.541587 0.176195
Si Si3 0.442217 0.679401 0.805807
Si Si4 0.662333 0.775382 0.175902
Si Si5 0.930148 0.833741 0.552732
Si Si6 0.204702 0.063907 0.108374
Si Si7 0.835190 0.867970 0.643910
O O1 0.692631 0.165882 0.704928
O O2 0.555081 0.246325 0.487775
O O3 0.500000 0.000000 0.500000
O O4 0.833659 0.030677 0.672482
O O5 0.426433 0.662499 0.264169
O O6 0.313749 0.427442 0.269531
O O7 0.218974 0.455839 0.068995
O O8 0.088180 0.631280 0.089790
O O9 0.353233 0.565105 0.692384
O O10 0.646214 0.653966 0.972776
O O11 0.714030 0.658191 0.271346
O O12 0.801504 0.738034 0.193041
O O13 0.841503 0.678996 0.484293
O O14 0.993472 0.847543 0.679751
O O15 0.000000 0.000000 0.000000
#
# Coordination Sequence:
#
# PCOD9240212 Si02
#       7
#     4   4   4   4   4   4   4
#     4   8  15  32  59  82 101 144 185 227 282 330
#     4  10  21  38  53  82 121 156 177 226 304 338
#     4  10  18  35  63  82 107 155 193 229 278 350
#     4   9  18  37  60  79 110 152 180 229 288 345
#     4  10  23  36  55  82 121 153 182 242 282 334
#     4  11  18  34  61  79 103 155 196 209 275 361
#     4  10  19  37  59  87 112 138 203 243 277 316
#
# _framework density 23.862378
#
# number of rings (size 3 to 8) (size 9 to 14) (size 15 to 20)
#    0.000    2.571    5.714    0.000    0.000    3.429 
#    5.143    0.000    3.143    0.000    0.000    0.000 
#    0.000    0.000    0.000    0.000    0.000    0.000 
#
# Total GULP energy -156200.426739 kJ/mol
# GULP energy per Si atom -5578.586669 kJ/mol
# Density = 2.380807 g / cm^3
# Si number density = 23.862378 Si / 1000 Ang^3
#
#
#
# Elastic Constant Matrix: (Units=GPa)
#
#
# Indices 1 2 3 4 5 6 
#
# 1 87.5477 13.4218 -13.2971 0.0000 -17.9799 0.0000
# 2 13.4218 127.9658 26.0772 0.0000 -15.9780 0.0000
# 3 -13.2971 26.0772 53.3077 0.0000 -5.4757 0.0000
# 4 0.0000 0.0000 0.0000 42.2544 0.0000 -10.2268
# 5 -17.9799 -15.9780 -5.4757 0.0000 34.4835 0.0000
# 6 0.0000 0.0000 0.0000 -10.2268 0.0000 23.9345
#
#
#
# Elastic Compliance Matrix: (Units=1/GPa)
#
#
# Indices 1 2 3 4 5 6 
#
# 1 0.013925 -0.001562 0.004991 0.000000 0.007329 0.000000
# 2 -0.001562 0.009267 -0.004641 0.000000 0.002742 0.000000
# 3 0.004991 -0.004641 0.022691 0.000000 0.004055 0.000000
# 4 0.000000 0.000000 0.000000 0.026396 0.000000 0.011279
# 5 0.007329 0.002742 0.004055 0.000000 0.034735 0.000000
# 6 0.000000 0.000000 0.000000 0.011279 0.000000 0.046600
#
#
# Mechanical properties :
#
#
# Convention : Reuss Voigt Hill
#
# Bulk Modulus (GPa) = 23.01150 35.69167 29.35159
# Shear Modulus (GPa) = 29.32125 36.30910 32.81517
#
# Velocity S-wave (km/s) = 3.50918 3.90501 3.71237
# Velocity P-wave (km/s) = 5.10720 5.94322 5.54100
#
# Compressibility (1/GPa) = 0.04345653
#
# Stress axis : x y z
#
# Youngs Moduli (GPa) = 71.81290 107.91407 44.07088
#
# Poissons Ratio (x) = 0.16861 -0.21994
# Poissons Ratio (y) = 0.11220 0.20454
# Poissons Ratio (z) = -0.35839 0.50084
#
# Static dielectric constant tensor:
#      x y z
#    x 2.064810 0.000000 0.142910 
#    y 0.000000 1.985610 0.000000 
#    z 0.142910 0.000000 2.013950 
# 
# From -- ./inp_files/68359.got.cif
#   From: 2010.05.17/outbox.cif.g08.bks.cpg/sg14_35_cif.got.tgz:68359.got - 2010.06.03 17:49:19.
