data_PCOD9240488
_publ_section_title
;
Structure prediction by ZEFSAII (Michael W. Deem and Ramdas Pophale) SiO2 
 PCOD9240488
Probable space group: P 21/C
;
_chemical_formula_sum "Si O2"
_cell_formula_units_Z 28
_cell_length_a 9.223132
_cell_length_b 14.645297
_cell_length_c 10.409879
_cell_angle_alpha 90.000000
_cell_angle_beta 108.752845
_cell_angle_gamma 90.000000
_cell_volume 1331.474654
_symmetry_space_group_name_H-M "P 21/C"
_symmetry_group_IT_number 14
_symmetry_cell_setting 'monoclinic'
loop_
_space_group_symop_operation_xyz
x,y,z
-x,1/2+y,1/2-z
-x,-y,-z
x,1/2-y,1/2+z
loop_
_atom_site_type_symbol
_atom_site_label
_atom_site_fract_x
_atom_site_fract_y
_atom_site_fract_z
Si Si1 0.175153 0.200508 0.434658
Si Si2 0.340871 0.297037 0.707961
Si Si3 0.424249 0.694672 0.575087
Si Si4 0.360434 0.623268 0.920257
Si Si5 0.340592 0.034983 0.610109
Si Si6 0.825480 0.256344 0.307482
Si Si7 0.395627 0.589196 0.330823
O O1 0.252072 0.275227 0.551559
O O2 0.238889 0.191565 0.306747
O O3 0.219474 0.107706 0.522512
O O4 0.998520 0.227438 0.373927
O O5 0.451923 0.211807 0.778359
O O6 0.454662 0.380497 0.708475
O O7 0.445671 0.785250 0.493814
O O8 0.256724 0.708487 0.586730
O O9 0.433464 0.605466 0.490831
O O10 0.487459 0.567313 0.877624
O O11 0.215036 0.661692 0.802125
O O12 0.313068 0.558745 0.023256
O O13 0.334940 0.005067 0.756691
O O14 0.730397 0.167863 0.233448
#
# Coordination Sequence:
#
# PCOD9240488 Si02
#       7
#     4   4   4   4   4   4   4
#     4  12  25  37  66  95 129 166 215 266 318 382
#     4  11  20  40  61  94 121 170 223 257 305 391
#     4  10  18  39  61  90 120 176 211 256 304 398
#     4  10  19  37  64  92 121 167 212 269 315 367
#     4  11  19  38  68 100 118 159 225 276 310 364
#     4  10  23  38  59  90 133 170 209 246 327 399
#     4  10  20  36  65  90 124 164 215 274 312 364
#
# _framework density 21.029313999999999
#
# number of rings (size 3 to 8) (size 9 to 14) (size 15 to 20)
#    0.000    1.429    5.714    2.571    4.000    0.571 
#    0.000    2.857    0.000    3.429    0.000    0.000 
#    0.000    0.000    0.000    0.000    0.000    0.000 
#
# Total GULP energy -156266.926270 kJ/mol
# GULP energy per Si atom -5580.961653 kJ/mol
# Density = 2.098145 g / cm^3
# Si number density = 21.029314 Si / 1000 Ang^3
#
#
#
# Elastic Constant Matrix: (Units=GPa)
#
#
# Indices 1 2 3 4 5 6 
#
# 1 103.5090 3.7789 47.0419 0.0000 18.6603 0.0000
# 2 3.7789 52.5638 15.6098 0.0000 16.8483 0.0000
# 3 47.0419 15.6098 91.6245 0.0000 16.0456 0.0000
# 4 0.0000 0.0000 0.0000 48.0099 0.0000 -4.3914
# 5 18.6603 16.8483 16.0456 0.0000 36.5633 0.0000
# 6 0.0000 0.0000 0.0000 -4.3914 0.0000 15.0844
#
#
#
# Elastic Compliance Matrix: (Units=1/GPa)
#
#
# Indices 1 2 3 4 5 6 
#
# 1 0.013430 0.002623 -0.006424 0.000000 -0.005244 0.000000
# 2 0.002623 0.023238 -0.003462 0.000000 -0.010528 0.000000
# 3 -0.006424 -0.003462 0.015110 0.000000 -0.001757 0.000000
# 4 0.000000 0.000000 0.000000 0.021399 0.000000 0.006230
# 5 -0.005244 -0.010528 -0.001757 0.000000 0.035648 0.000000
# 6 0.000000 0.000000 0.000000 0.006230 0.000000 0.068107
#
#
# Mechanical properties :
#
#
# Convention : Reuss Voigt Hill
#
# Bulk Modulus (GPa) = 26.84403 42.28427 34.56415
# Shear Modulus (GPa) = 24.52476 32.01598 28.27037
#
# Velocity S-wave (km/s) = 3.41870 3.90609 3.67049
# Velocity P-wave (km/s) = 5.32692 6.36351 5.86815
#
# Compressibility (1/GPa) = 0.03725224
#
# Stress axis : x y z
#
# Youngs Moduli (GPa) = 74.46027 43.03213 66.18238
#
# Poissons Ratio (x) = -0.11287 0.42514
# Poissons Ratio (y) = -0.19530 0.22913
# Poissons Ratio (z) = 0.47832 0.14898
#
# Static dielectric constant tensor:
#      x y z
#    x 1.759030 0.000000 -0.053810 
#    y 0.000000 1.785360 0.000000 
#    z -0.053810 0.000000 1.859190 
# 
# From -- ./inp_files/25604.got.cif
#   From: 2010.05.17/outbox.cif.g08.bks.cpg/sg14_13_cif.got.tgz:25604.got - 2010.06.03 17:49:19.
