data_PCOD9240592
_publ_section_title
;
Structure prediction by ZEFSAII (Michael W. Deem and Ramdas Pophale) SiO2 
 PCOD9240592
Probable space group: P 21/C
;
_chemical_formula_sum "Si O2"
_cell_formula_units_Z 28
_cell_length_a 9.215125
_cell_length_b 5.609046
_cell_length_c 21.783024
_cell_angle_alpha 90.000000
_cell_angle_beta 65.796495
_cell_angle_gamma 90.000000
_cell_volume 1026.948099
_symmetry_space_group_name_H-M "P 21/C"
_symmetry_group_IT_number 14
_symmetry_cell_setting 'monoclinic'
loop_
_space_group_symop_operation_xyz
x,y,z
-x,1/2+y,1/2-z
-x,-y,-z
x,1/2-y,1/2+z
loop_
_atom_site_type_symbol
_atom_site_label
_atom_site_fract_x
_atom_site_fract_y
_atom_site_fract_z
Si Si1 0.103935 0.290203 0.509960
Si Si2 0.523051 0.729835 0.321870
Si Si3 0.647893 0.273188 0.847734
Si Si4 0.052144 0.745678 0.296780
Si Si5 0.152033 0.249756 0.785123
Si Si6 0.229110 0.898861 0.418880
Si Si7 0.326413 0.887255 0.026075
O O1 0.208356 0.388872 0.546664
O O2 0.000000 0.500000 0.500000
O O3 0.959742 0.128609 0.556545
O O4 0.227112 0.175644 0.439817
O O5 0.553805 0.473250 0.347796
O O6 0.655314 0.742871 0.244729
O O7 0.335190 0.780072 0.346918
O O8 0.560863 0.975953 0.351687
O O9 0.798708 0.264987 0.776795
O O10 0.697135 0.267321 0.909733
O O11 0.074574 0.489830 0.325219
O O12 0.897109 0.746620 0.279427
O O13 0.074660 0.006430 0.321218
O O14 0.289151 0.758988 0.470327
O O15 0.500000 0.000000 0.000000
#
# Coordination Sequence:
#
# PCOD9240592 Si02
#       7
#     4   4   4   4   4   4   4
#     4   9  21  36  48  65  93 132 171 201 242 285
#     4  10  19  30  47  73  98 127 161 201 243 291
#     4  10  20  29  45  74 102 127 159 196 246 293
#     4   8  14  26  40  61  96 127 149 188 237 291
#     4   8  14  25  42  62  92 126 154 186 239 288
#     4  10  20  34  50  66  98 133 166 207 239 291
#     4  11  20  31  49  72 101 130 161 201 248 294
#
# _framework density 27.265255
#
# number of rings (size 3 to 8) (size 9 to 14) (size 15 to 20)
#    0.000    2.571    1.429    0.857    4.000    1.143 
#    0.000    0.000    0.000    0.000    0.000    0.000 
#   12.857    0.000    0.000    0.000    0.000    0.000 
#
# Total GULP energy -156488.204726 kJ/mol
# GULP energy per Si atom -5588.864454 kJ/mol
# Density = 2.720320 g / cm^3
# Si number density = 27.265255 Si / 1000 Ang^3
#
#
#
# Elastic Constant Matrix: (Units=GPa)
#
#
# Indices 1 2 3 4 5 6 
#
# 1 119.1087 42.5151 32.5061 0.0000 -18.1882 0.0000
# 2 42.5151 195.1670 30.5064 0.0000 3.2694 0.0000
# 3 32.5061 30.5064 83.6328 0.0000 -5.1143 0.0000
# 4 0.0000 0.0000 0.0000 22.4439 0.0000 -3.3572
# 5 -18.1882 3.2694 -5.1143 0.0000 32.2870 0.0000
# 6 0.0000 0.0000 0.0000 -3.3572 0.0000 49.7801
#
#
#
# Elastic Compliance Matrix: (Units=1/GPa)
#
#
# Indices 1 2 3 4 5 6 
#
# 1 0.010843 -0.001968 -0.003141 0.000000 0.005810 0.000000
# 2 -0.001968 0.005815 -0.001474 0.000000 -0.001931 0.000000
# 3 -0.003141 -0.001474 0.013750 0.000000 0.000558 0.000000
# 4 0.000000 0.000000 0.000000 0.045010 0.000000 0.003035
# 5 0.005810 -0.001931 0.000558 0.000000 0.034529 0.000000
# 6 0.000000 0.000000 0.000000 0.003035 0.000000 0.020293
#
#
# Mechanical properties :
#
#
# Convention : Reuss Voigt Hill
#
# Bulk Modulus (GPa) = 58.00301 67.66265 62.83283
# Shear Modulus (GPa) = 33.52250 40.39425 36.95837
#
# Velocity S-wave (km/s) = 3.51022 3.85324 3.68572
# Velocity P-wave (km/s) = 6.14399 6.68333 6.41933
#
# Compressibility (1/GPa) = 0.01724048
#
# Stress axis : x y z
#
# Youngs Moduli (GPa) = 92.22831 171.95737 72.72850
#
# Poissons Ratio (x) = 0.33847 0.22844
# Poissons Ratio (y) = 0.18153 0.10722
# Poissons Ratio (z) = 0.28969 0.25352
#
# Static dielectric constant tensor:
#      x y z
#    x 2.225850 0.000000 0.012110 
#    y 0.000000 2.367890 0.000000 
#    z 0.012110 0.000000 2.158790 
# 
# From -- ./inp_files/79017.got.cif
#   From: 2010.05.17/outbox.cif.g08.bks.cpg/sg14_40_cif.got.tgz:79017.got - 2010.06.03 17:49:19.
