data_PCOD9240688
_publ_section_title
;
Structure prediction by ZEFSAII (Michael W. Deem and Ramdas Pophale) SiO2 
 PCOD9240688
Probable space group: P 21/C
;
_chemical_formula_sum "Si O2"
_cell_formula_units_Z 32
_cell_length_a 15.577947
_cell_length_b 8.547184
_cell_length_c 21.045241
_cell_angle_alpha 90.000000
_cell_angle_beta 42.247245
_cell_angle_gamma 90.000000
_cell_volume 1883.954689
_symmetry_space_group_name_H-M "P 21/C"
_symmetry_group_IT_number 14
_symmetry_cell_setting 'monoclinic'
loop_
_space_group_symop_operation_xyz
x,y,z
-x,1/2+y,1/2-z
-x,-y,-z
x,1/2-y,1/2+z
loop_
_atom_site_type_symbol
_atom_site_label
_atom_site_fract_x
_atom_site_fract_y
_atom_site_fract_z
Si Si1 0.105497 0.849998 0.561068
Si Si2 0.367600 0.055736 0.895890
Si Si3 0.332814 0.534827 0.763977
Si Si4 0.840609 0.444220 0.395907
Si Si5 0.791681 0.344409 0.611828
Si Si6 0.227648 0.150063 0.438904
Si Si7 0.015345 0.844467 0.888165
Si Si8 0.139209 0.534888 0.763973
O O1 0.144881 0.739638 0.597669
O O2 0.123527 0.743236 0.488485
O O3 0.196114 0.000022 0.499973
O O4 0.964798 0.916228 0.649678
O O5 0.515875 0.017050 0.816736
O O6 0.340266 0.239590 0.902268
O O7 0.296954 0.967437 0.876142
O O8 0.291637 0.000018 0.999999
O O9 0.293251 0.707736 0.810188
O O10 0.264110 0.416149 0.850319
O O11 0.271500 0.513610 0.728486
O O12 0.850669 0.482877 0.316740
O O13 0.950785 0.532474 0.376137
O O14 0.885458 0.410336 0.614536
O O15 0.100507 0.256825 0.511523
O O16 0.086376 0.707805 0.810176
#
# Coordination Sequence:
#
# PCOD9240688 Si02
#       8
#     4   4   4   4   4   4   4   4
#     4   9  18  32  51  73  96 123 157 200 247 285
#     4  10  20  32  49  72  99 130 161 196 236 284
#     4  10  19  32  50  71  98 130 162 197 236 283
#     4  10  20  32  49  72  99 130 161 196 236 284
#     4   9  18  32  50  73  98 124 158 202 248 285
#     4   9  18  32  51  73  96 123 157 200 247 285
#     4   9  18  32  50  73  98 124 158 202 248 285
#     4  10  19  32  50  71  98 130 162 197 236 283
#
# _framework density 16.985548000000001
#
# number of rings (size 3 to 8) (size 9 to 14) (size 15 to 20)
#    0.000    2.500    0.000    2.250    0.000    9.000 
#    0.000    0.000    0.000    0.750    0.000    0.000 
#    0.000    0.000    0.000    0.000    0.000    0.000 
#
# Total GULP energy -178440.810154 kJ/mol
# GULP energy per Si atom -5576.275317 kJ/mol
# Density = 1.694689 g / cm^3
# Si number density = 16.985548 Si / 1000 Ang^3
#
#
#
# Elastic Constant Matrix: (Units=GPa)
#
#
# Indices 1 2 3 4 5 6 
#
# 1 133.8151 53.0186 81.0838 0.0000 -0.9738 0.0000
# 2 53.0186 68.3615 22.7159 0.0000 -1.1957 0.0000
# 3 81.0838 22.7159 80.4429 0.0000 -1.0954 0.0000
# 4 0.0000 0.0000 0.0000 13.6154 0.0000 0.1050
# 5 -0.9738 -1.1957 -1.0954 0.0000 13.7116 0.0000
# 6 0.0000 0.0000 0.0000 0.1050 0.0000 10.9288
#
#
#
# Elastic Compliance Matrix: (Units=1/GPa)
#
#
# Indices 1 2 3 4 5 6 
#
# 1 0.026727 -0.013012 -0.023280 0.000000 -0.001096 0.000000
# 2 -0.013012 0.022492 0.006785 0.000000 0.001579 0.000000
# 3 -0.023280 0.006785 0.034003 0.000000 0.001655 0.000000
# 4 0.000000 0.000000 0.000000 0.073452 0.000000 -0.000706
# 5 -0.001096 0.001579 0.001655 0.000000 0.073123 0.000000
# 6 0.000000 0.000000 0.000000 -0.000706 0.000000 0.091508
#
#
# Mechanical properties :
#
#
# Convention : Reuss Voigt Hill
#
# Bulk Modulus (GPa) = 41.30658 66.25066 53.77862
# Shear Modulus (GPa) = 12.87372 16.03792 14.45582
#
# Velocity S-wave (km/s) = 2.75602 3.07613 2.92047
# Velocity P-wave (km/s) = 5.87359 7.19066 6.56523
#
# Compressibility (1/GPa) = 0.02420922
#
# Stress axis : x y z
#
# Youngs Moduli (GPa) = 37.41568 44.45949 29.40880
#
# Poissons Ratio (x) = 0.57849 0.68465
# Poissons Ratio (y) = 0.48684 -0.19955
# Poissons Ratio (z) = 0.87105 -0.30167
#
# Static dielectric constant tensor:
#      x y z
#    x 1.556400 0.000000 0.000420 
#    y 0.000000 1.602150 0.000000 
#    z 0.000420 0.000000 1.566810 
# 
# From -- ./inp_files/50629.got.cif
#   From: 2010.05.17/outbox.cif.g08.bks.cpg/sg14_26_cif.got.tgz:50629.got - 2010.06.03 17:49:19.
