data_PCOD9240950
_publ_section_title
;
Structure prediction by ZEFSAII (Michael W. Deem and Ramdas Pophale) SiO2 
 PCOD9240950
Probable space group: P 21/C
;
_chemical_formula_sum "Si O2"
_cell_formula_units_Z 24
_cell_length_a 6.942670
_cell_length_b 19.215321
_cell_length_c 12.190478
_cell_angle_alpha 90.000000
_cell_angle_beta 39.480091
_cell_angle_gamma 90.000000
_cell_volume 1034.004185
_symmetry_space_group_name_H-M "P 21/C"
_symmetry_group_IT_number 14
_symmetry_cell_setting 'monoclinic'
loop_
_space_group_symop_operation_xyz
x,y,z
-x,1/2+y,1/2-z
-x,-y,-z
x,1/2-y,1/2+z
loop_
_atom_site_type_symbol
_atom_site_label
_atom_site_fract_x
_atom_site_fract_y
_atom_site_fract_z
Si Si1 0.071063 0.245687 0.305234
Si Si2 0.485583 0.656794 0.967639
Si Si3 0.716099 0.443782 0.780287
Si Si4 0.793359 0.970496 0.761743
Si Si5 0.386280 0.849169 0.875015
Si Si6 0.324898 0.932221 0.357649
O O1 0.252954 0.287941 0.133193
O O2 0.321752 0.202094 0.262943
O O3 0.833905 0.190853 0.361493
O O4 0.870218 0.302306 0.457008
O O5 0.458968 0.638251 0.849428
O O6 0.509437 0.587106 0.027360
O O7 0.737531 0.383150 0.681452
O O8 0.560961 0.508565 0.790537
O O9 0.020227 0.465469 0.708660
O O10 0.515392 0.916337 0.885036
O O11 0.018096 0.942539 0.564751
O O12 0.724912 0.048279 0.747107
#
# Coordination Sequence:
#
# PCOD9240950 Si02
#       6
#     4   4   4   4   4   4
#     4  10  21  36  55  77 114 150 176 218 278 327
#     4  10  19  36  57  83 106 146 183 221 270 327
#     4  10  19  33  61  84 106 139 189 229 267 318
#     4   9  16  32  54  79 105 136 176 224 268 309
#     4  10  20  36  54  79 110 143 180 224 271 323
#     4   9  17  31  58  84 105 139 184 230 263 323
#
# _framework density 23.210736000000001
#
# number of rings (size 3 to 8) (size 9 to 14) (size 15 to 20)
#    0.000    2.333    3.333    2.000    0.000    1.333 
#    0.000    3.333    0.000    5.000    0.000    0.000 
#    0.000    0.000    0.000    0.000    0.000    0.000 
#
# Total GULP energy -133917.382146 kJ/mol
# GULP energy per Si atom -5579.890923 kJ/mol
# Density = 2.315791 g / cm^3
# Si number density = 23.210736 Si / 1000 Ang^3
#
#
#
# Elastic Constant Matrix: (Units=GPa)
#
#
# Indices 1 2 3 4 5 6 
#
# 1 99.8447 2.9831 25.0582 0.0000 -14.7399 0.0000
# 2 2.9831 42.7980 12.2290 0.0000 -11.7030 0.0000
# 3 25.0582 12.2290 55.0072 0.0000 -18.4274 0.0000
# 4 0.0000 0.0000 0.0000 -1.0713 0.0000 10.1886
# 5 -14.7399 -11.7030 -18.4274 0.0000 15.5321 0.0000
# 6 0.0000 0.0000 0.0000 10.1886 0.0000 19.1043
#
#
#
# Elastic Compliance Matrix: (Units=1/GPa)
#
#
# Indices 1 2 3 4 5 6 
#
# 1 0.012142 0.002774 -0.002635 0.000000 0.010487 0.000000
# 2 0.002774 0.030135 0.000872 0.000000 0.026373 0.000000
# 3 -0.002635 0.000872 0.030816 0.000000 0.034717 0.000000
# 4 0.000000 0.000000 0.000000 -0.153726 0.000000 0.081984
# 5 0.010487 0.026373 0.034717 0.000000 0.135395 0.000000
# 6 0.000000 0.000000 0.000000 0.081984 0.000000 0.008621
#
#
# Mechanical properties :
#
#
# Convention : Reuss Voigt Hill
#
# Bulk Modulus (GPa) = 13.31288 30.91003 22.11145
# Shear Modulus (GPa) = 57.87111 17.20498 37.53804
#
# Velocity S-wave (km/s) = 4.99870 2.72555 4.02589
# Velocity P-wave (km/s) = 6.25013 4.82191 5.58189
#
# Compressibility (1/GPa) = 0.07511521
#
# Stress axis : x y z
#
# Youngs Moduli (GPa) = 82.35768 33.18432 32.45051
#
# Poissons Ratio (x) = -0.09206 0.08550
# Poissons Ratio (y) = -0.22848 -0.02828
# Poissons Ratio (z) = 0.21699 -0.02892
#
# Static dielectric constant tensor:
#      x y z
#    x 1.931890 0.000000 0.008590 
#    y 0.000000 1.948400 0.000000 
#    z 0.008590 0.000000 1.902240 
# 
# From -- ./inp_files/56172.got.cif
#   From: 2010.05.17/outbox.cif.g08.bks.cpg/sg14_29_cif.got.tgz:56172.got - 2010.06.03 17:49:19.
