data_PCOD9240800
_publ_section_title
;
Structure prediction by ZEFSAII (Michael W. Deem and Ramdas Pophale) SiO2 
 PCOD9240800
Probable space group: P 21/C
;
_chemical_formula_sum "Si O2"
_cell_formula_units_Z 28
_cell_length_a 10.895225
_cell_length_b 12.226139
_cell_length_c 18.155515
_cell_angle_alpha 90.000000
_cell_angle_beta 140.399783
_cell_angle_gamma 90.000000
_cell_volume 1541.574428
_symmetry_space_group_name_H-M "P 21/C"
_symmetry_group_IT_number 14
_symmetry_cell_setting 'monoclinic'
loop_
_space_group_symop_operation_xyz
x,y,z
-x,1/2+y,1/2-z
-x,-y,-z
x,1/2-y,1/2+z
loop_
_atom_site_type_symbol
_atom_site_label
_atom_site_fract_x
_atom_site_fract_y
_atom_site_fract_z
Si Si1 0.687819 0.497546 0.841424
Si Si2 0.320912 0.576967 0.325986
Si Si3 0.004012 0.327414 0.029071
Si Si4 0.091737 0.605490 0.451723
Si Si5 0.258333 0.073422 0.920016
Si Si6 0.059750 0.766772 0.164350
Si Si7 0.271738 0.956126 0.191493
O O1 0.640740 0.439703 0.742461
O O2 0.841830 0.421574 0.954122
O O3 0.492535 0.511794 0.795443
O O4 0.792438 0.611598 0.870271
O O5 0.523883 0.605110 0.457876
O O6 0.252265 0.465095 0.332918
O O7 0.154692 0.668038 0.253041
O O8 0.003511 0.274770 0.946355
O O9 0.947834 0.234844 0.062141
O O10 0.198503 0.537925 0.436946
O O11 0.215655 0.579505 0.582438
O O12 0.881086 0.550741 0.361404
O O13 0.112814 0.168576 0.876287
O O14 0.224082 0.855913 0.222947
#
# Coordination Sequence:
#
# PCOD9240800 Si02
#       7
#     4   4   4   4   4   4   4
#     4  10  19  33  49  80 108 133 175 213 262 313
#     4  10  21  35  55  77 104 142 171 212 258 305
#     4   9  20  31  51  80 105 138 167 218 269 299
#     4   9  17  32  49  75 100 131 169 216 254 298
#     4  10  20  36  55  78 105 134 183 210 242 326
#     4   9  20  35  55  77 102 142 169 212 270 299
#     4   9  17  30  52  74 101 129 170 215 255 309
#
# _framework density 18.163247999999999
#
# number of rings (size 3 to 8) (size 9 to 14) (size 15 to 20)
#    0.000    2.571    1.429    0.857    2.000    3.429 
#    0.000    0.000    3.143    0.857    0.000    0.000 
#    0.000    0.000    0.000    0.000    0.000    0.000 
#
# Total GULP energy -156005.142751 kJ/mol
# GULP energy per Si atom -5571.612241 kJ/mol
# Density = 1.812191 g / cm^3
# Si number density = 18.163248 Si / 1000 Ang^3
#
#
#
# Elastic Constant Matrix: (Units=GPa)
#
#
# Indices 1 2 3 4 5 6 
#
# 1 28.7780 -2.6309 10.9664 0.0000 17.1730 0.0000
# 2 -2.6309 67.0465 18.5205 0.0000 7.2954 0.0000
# 3 10.9664 18.5205 46.8999 0.0000 16.1945 0.0000
# 4 0.0000 0.0000 0.0000 13.3718 0.0000 1.4456
# 5 17.1730 7.2954 16.1945 0.0000 25.1864 0.0000
# 6 0.0000 0.0000 0.0000 1.4456 0.0000 21.4461
#
#
#
# Elastic Compliance Matrix: (Units=1/GPa)
#
#
# Indices 1 2 3 4 5 6 
#
# 1 0.062085 0.007880 -0.002858 0.000000 -0.042777 0.000000
# 2 0.007880 0.017753 -0.006713 0.000000 -0.006199 0.000000
# 3 -0.002858 -0.006713 0.029945 0.000000 -0.015361 0.000000
# 4 0.000000 0.000000 0.000000 0.075333 0.000000 -0.005078
# 5 -0.042777 -0.006199 -0.015361 0.000000 0.080543 0.000000
# 6 0.000000 0.000000 0.000000 -0.005078 0.000000 0.046971
#
#
# Mechanical properties :
#
#
# Convention : Reuss Voigt Hill
#
# Bulk Modulus (GPa) = 9.39829 21.82625 15.61227
# Shear Modulus (GPa) = 14.22560 19.72543 16.97552
#
# Velocity S-wave (km/s) = 2.80162 3.29904 3.06045
# Velocity P-wave (km/s) = 3.95614 5.15309 4.59377
#
# Compressibility (1/GPa) = 0.10640237
#
# Stress axis : x y z
#
# Youngs Moduli (GPa) = 16.10695 56.32840 33.39423
#
# Poissons Ratio (x) = -0.44389 0.09545
# Poissons Ratio (y) = -0.12693 0.22416
# Poissons Ratio (z) = 0.04604 0.37811
#
# Static dielectric constant tensor:
#      x y z
#    x 1.628190 0.000000 -0.005650 
#    y 0.000000 1.650660 0.000000 
#    z -0.005650 0.000000 1.607840 
# 
# From -- ./inp_files/28564.got.cif
#   From: 2010.05.17/outbox.cif.g08.bks.cpg/sg14_15_cif.got.tgz:28564.got - 2010.06.03 17:49:19.
