data_PCOD9240472
_publ_section_title
;
Structure prediction by ZEFSAII (Michael W. Deem and Ramdas Pophale) SiO2 
 PCOD9240472
Probable space group: P 21/C
;
_chemical_formula_sum "Si O2"
_cell_formula_units_Z 28
_cell_length_a 14.510313
_cell_length_b 12.355846
_cell_length_c 14.141845
_cell_angle_alpha 90.000000
_cell_angle_beta 150.173764
_cell_angle_gamma 90.000000
_cell_volume 1261.060809
_symmetry_space_group_name_H-M "P 21/C"
_symmetry_group_IT_number 14
_symmetry_cell_setting 'monoclinic'
loop_
_space_group_symop_operation_xyz
x,y,z
-x,1/2+y,1/2-z
-x,-y,-z
x,1/2-y,1/2+z
loop_
_atom_site_type_symbol
_atom_site_label
_atom_site_fract_x
_atom_site_fract_y
_atom_site_fract_z
Si Si1 0.227826 0.060893 0.468968
Si Si2 0.720901 0.309101 0.567903
Si Si3 0.602168 0.524130 0.379801
Si Si4 0.303550 0.272535 0.654109
Si Si5 0.384685 0.824881 0.815254
Si Si6 0.756865 0.705405 0.185212
Si Si7 0.076783 0.662865 0.885774
O O1 0.223335 0.164696 0.534155
O O2 0.189605 0.101604 0.329238
O O3 0.099539 0.963985 0.389454
O O4 0.437118 0.014828 0.663634
O O5 0.725060 0.421855 0.515574
O O6 0.520449 0.256190 0.365603
O O7 0.718674 0.333487 0.677144
O O8 0.874116 0.226807 0.666350
O O9 0.493483 0.567917 0.376352
O O10 0.702338 0.624857 0.420117
O O11 0.222782 0.300956 0.684539
O O12 0.238606 0.801155 0.603030
O O13 0.545208 0.735530 0.970227
O O14 0.886621 0.801492 0.263106
#
# Coordination Sequence:
#
# PCOD9240472 Si02
#       7
#     4   4   4   4   4   4   4
#     4  10  21  42  64  94 138 166 221 272 319 395
#     4  10  20  37  64  94 127 173 214 265 327 386
#     4  10  18  38  69  92 131 169 216 274 321 384
#     4  10  20  40  65  99 127 172 217 266 327 390
#     4  10  20  41  64  95 127 166 221 264 320 389
#     4  11  24  40  67  96 130 173 216 262 337 388
#     4  11  24  44  63  98 131 168 219 271 322 387
#
# _framework density 22.203529
#
# number of rings (size 3 to 8) (size 9 to 14) (size 15 to 20)
#    0.000    1.714    4.286    1.286    0.000    4.571 
#    2.571    0.714    0.000    0.000    0.000    0.000 
#    0.000    0.000    0.000    0.000    0.000    0.000 
#
# Total GULP energy -156650.502726 kJ/mol
# GULP energy per Si atom -5594.660812 kJ/mol
# Density = 2.215299 g / cm^3
# Si number density = 22.203529 Si / 1000 Ang^3
#
#
#
# Elastic Constant Matrix: (Units=GPa)
#
#
# Indices 1 2 3 4 5 6 
#
# 1 167.9181 71.6547 33.8702 0.0000 -17.1586 0.0000
# 2 71.6547 106.4900 17.7656 0.0000 -11.9576 0.0000
# 3 33.8702 17.7656 53.0046 0.0000 8.1420 0.0000
# 4 0.0000 0.0000 0.0000 32.4936 0.0000 -2.2811
# 5 -17.1586 -11.9576 8.1420 0.0000 20.5541 0.0000
# 6 0.0000 0.0000 0.0000 -2.2811 0.0000 13.7171
#
#
#
# Elastic Compliance Matrix: (Units=1/GPa)
#
#
# Indices 1 2 3 4 5 6 
#
# 1 0.010060 -0.004873 -0.006016 0.000000 0.007946 0.000000
# 2 -0.004873 0.013551 -0.002144 0.000000 0.004665 0.000000
# 3 -0.006016 -0.002144 0.025973 0.000000 -0.016558 0.000000
# 4 0.000000 0.000000 0.000000 0.031139 0.000000 0.005178
# 5 0.007946 0.004665 -0.016558 0.000000 0.064558 0.000000
# 6 0.000000 0.000000 0.000000 0.005178 0.000000 0.073763
#
#
# Mechanical properties :
#
#
# Convention : Reuss Voigt Hill
#
# Bulk Modulus (GPa) = 42.52247 63.77708 53.14977
# Shear Modulus (GPa) = 19.76670 26.96109 23.36390
#
# Velocity S-wave (km/s) = 2.98694 3.48842 3.24738
# Velocity P-wave (km/s) = 5.57571 6.70907 6.16848
#
# Compressibility (1/GPa) = 0.02351698
#
# Stress axis : x y z
#
# Youngs Moduli (GPa) = 99.40061 73.79337 38.50222
#
# Poissons Ratio (x) = 0.35963 0.23162
# Poissons Ratio (y) = 0.48443 0.08256
# Poissons Ratio (z) = 0.59797 0.15824
#
# Static dielectric constant tensor:
#      x y z
#    x 1.792240 0.000000 -0.002090 
#    y 0.000000 1.784790 0.000000 
#    z -0.002090 0.000000 1.855630 
# 
# From -- ./inp_files/37549.got.cif
#   From: 2010.05.17/outbox.cif.g08.bks.cpg/sg14_19_cif.got.tgz:37549.got - 2010.06.03 17:49:19.
