data_PCOD9240251
_publ_section_title
;
Structure prediction by ZEFSAII (Michael W. Deem and Ramdas Pophale) SiO2 
 PCOD9240251
Probable space group: P 21/C
;
_chemical_formula_sum "Si O2"
_cell_formula_units_Z 26
_cell_length_a 7.459015
_cell_length_b 16.585755
_cell_length_c 17.189634
_cell_angle_alpha 90.000000
_cell_angle_beta 146.368292
_cell_angle_gamma 90.000000
_cell_volume 1177.815883
_symmetry_space_group_name_H-M "P 21/C"
_symmetry_group_IT_number 14
_symmetry_cell_setting 'monoclinic'
loop_
_space_group_symop_operation_xyz
x,y,z
-x,1/2+y,1/2-z
-x,-y,-z
x,1/2-y,1/2+z
loop_
_atom_site_type_symbol
_atom_site_label
_atom_site_fract_x
_atom_site_fract_y
_atom_site_fract_z
Si Si1 0.517975 0.001736 0.188544
Si Si2 0.989303 0.092647 0.195426
Si Si3 0.847789 0.241456 0.852000
Si Si4 0.500000 0.000000 0.000000
Si Si5 0.186773 0.094914 0.434631
Si Si6 0.237273 0.575064 0.741622
Si Si7 0.817839 0.665602 0.392211
O O1 0.273794 0.077895 0.106886
O O2 0.878758 0.036184 0.336823
O O3 0.507149 0.965057 0.098736
O O4 0.412130 0.946584 0.223429
O O5 0.211975 0.097998 0.350428
O O6 0.104309 0.148245 0.168986
O O7 0.968638 0.995226 0.161371
O O8 0.611944 0.092710 0.075556
O O9 0.889908 0.165248 0.810583
O O10 0.494332 0.278205 0.713966
O O11 0.088737 0.315433 0.925060
O O12 0.903617 0.207399 0.958296
O O13 0.500294 0.068346 0.595016
#
# Coordination Sequence:
#
# PCOD9240251 Si02
#       7
#     4   4   4   2   4   4   4
#     4   9  20  35  63  87 120 153 206 252 293 356
#     4  10  22  39  62  89 121 154 211 254 296 359
#     4  11  21  38  61  85 124 163 201 243 315 362
#     4  10  18  36  56  92 112 146 196 258 294 336
#     4  10  21  39  58  90 126 159 193 262 299 364
#     4  11  20  38  64  90 115 168 205 244 309 362
#     4  10  21  40  58  86 121 161 197 251 300 370
#
# _framework density 22.074759
#
# number of rings (size 3 to 8) (size 9 to 14) (size 15 to 20)
#    0.000    1.846    1.538    2.769    0.000    2.462 
#    2.769    4.615    0.000    0.000    0.000    0.000 
#    0.000    0.000    0.000    0.000    0.000    0.000 
#
# Total GULP energy -144908.919554 kJ/mol
# GULP energy per Si atom -5573.419983 kJ/mol
# Density = 2.202452 g / cm^3
# Si number density = 22.074759 Si / 1000 Ang^3
#
#
#
# Elastic Constant Matrix: (Units=GPa)
#
#
# Indices 1 2 3 4 5 6 
#
# 1 73.4711 8.1994 31.2018 0.0000 -30.4612 0.0000
# 2 8.1994 80.7991 39.4134 0.0000 -1.3774 0.0000
# 3 31.2018 39.4134 154.2908 0.0000 -24.1197 0.0000
# 4 0.0000 0.0000 0.0000 14.6599 0.0000 -11.1991
# 5 -30.4612 -1.3774 -24.1197 0.0000 38.1549 0.0000
# 6 0.0000 0.0000 0.0000 -11.1991 0.0000 25.9232
#
#
#
# Elastic Compliance Matrix: (Units=1/GPa)
#
#
# Indices 1 2 3 4 5 6 
#
# 1 0.020868 -0.001128 -0.001480 0.000000 0.015683 0.000000
# 2 -0.001128 0.014333 -0.003876 0.000000 -0.002834 0.000000
# 3 -0.001480 -0.003876 0.008394 0.000000 0.003985 0.000000
# 4 0.000000 0.000000 0.000000 0.101815 0.000000 0.043985
# 5 0.015683 -0.002834 0.003985 0.000000 0.041146 0.000000
# 6 0.000000 0.000000 0.000000 0.043985 0.000000 0.057577
#
#
# Mechanical properties :
#
#
# Convention : Reuss Voigt Hill
#
# Bulk Modulus (GPa) = 32.65261 51.79890 42.22575
# Shear Modulus (GPa) = 18.70481 31.06401 24.88441
#
# Velocity S-wave (km/s) = 2.91407 3.75536 3.36114
# Velocity P-wave (km/s) = 5.11335 6.50537 5.85090
#
# Compressibility (1/GPa) = 0.03062543
#
# Stress axis : x y z
#
# Youngs Moduli (GPa) = 47.92109 69.76714 119.13781
#
# Poissons Ratio (x) = 0.07872 0.17633
# Poissons Ratio (y) = 0.05407 0.46181
# Poissons Ratio (z) = 0.07093 0.27044
#
# Static dielectric constant tensor:
#      x y z
#    x 1.947270 0.000000 0.073470 
#    y 0.000000 1.827850 0.000000 
#    z 0.073470 0.000000 1.909460 
# 
# From -- ./inp_files/9370.got.cif
#   From: 2010.05.17/outbox.cif.g08.bks.cpg/sg14_5_cif.got.tgz:9370.got - 2010.06.03 17:49:19.
