data_PCOD9240024
_publ_section_title
;
Structure prediction by ZEFSAII (Michael W. Deem and Ramdas Pophale) SiO2 
 PCOD9240024
Probable space group: P 21/C
;
_chemical_formula_sum "Si O2"
_cell_formula_units_Z 32
_cell_length_a 9.588801
_cell_length_b 16.514535
_cell_length_c 12.613319
_cell_angle_alpha 90.000000
_cell_angle_beta 60.417879
_cell_angle_gamma 90.000000
_cell_volume 1737.016913
_symmetry_space_group_name_H-M "P 21/C"
_symmetry_group_IT_number 14
_symmetry_cell_setting 'monoclinic'
loop_
_space_group_symop_operation_xyz
x,y,z
-x,1/2+y,1/2-z
-x,-y,-z
x,1/2-y,1/2+z
loop_
_atom_site_type_symbol
_atom_site_label
_atom_site_fract_x
_atom_site_fract_y
_atom_site_fract_z
Si Si1 0.752268 0.435673 0.512156
Si Si2 0.234580 0.115275 0.993179
Si Si3 0.755180 0.789157 0.805295
Si Si4 0.515047 0.157724 0.246812
Si Si5 0.995824 0.710266 0.569439
Si Si6 0.613270 0.372197 0.358951
Si Si7 0.277292 0.682795 0.892812
Si Si8 0.536085 0.198242 0.475805
O O1 0.819585 0.524252 0.508236
O O2 0.617068 0.411114 0.648952
O O3 0.669569 0.433942 0.427496
O O4 0.886179 0.365937 0.460652
O O5 0.145506 0.179423 0.953272
O O6 0.425696 0.118059 0.903995
O O7 0.204574 0.142370 0.124652
O O8 0.655704 0.828806 0.745494
O O9 0.910705 0.742739 0.706457
O O10 0.631206 0.727785 0.910018
O O11 0.613320 0.240131 0.183274
O O12 0.510099 0.151420 0.375530
O O13 0.101903 0.781983 0.479943
O O14 0.709684 0.375173 0.213173
O O15 0.624769 0.283081 0.410476
O O16 0.358007 0.655564 0.973223
#
# Coordination Sequence:
#
# PCOD9240024 Si02
#       8
#     4   4   4   4   4   4   4   4
#     4  11  21  37  55  85 114 149 186 234 290 334
#     4  11  22  35  59  83 113 148 186 235 288 338
#     4  10  19  33  55  84 110 147 192 234 280 331
#     4   9  17  32  54  80 111 140 191 238 273 327
#     4  11  22  34  53  87 118 145 185 239 284 336
#     4  10  18  34  56  78 107 144 192 233 269 335
#     4   9  18  31  53  80 109 142 186 231 280 321
#     4   9  15  32  53  81 106 141 186 235 273 320
#
# _framework density 18.422388999999999
#
# number of rings (size 3 to 8) (size 9 to 14) (size 15 to 20)
#    0.000    2.000    5.000    3.750    1.750    1.000 
#    0.000    0.000    0.000    5.250    0.000    0.000 
#    0.000    0.000    0.000    0.000    0.000    0.000 
#
# Total GULP energy -178464.225312 kJ/mol
# GULP energy per Si atom -5577.007041 kJ/mol
# Density = 1.838046 g / cm^3
# Si number density = 18.422389 Si / 1000 Ang^3
#
#
#
# Elastic Constant Matrix: (Units=GPa)
#
#
# Indices 1 2 3 4 5 6 
#
# 1 41.4593 -1.8252 28.2595 0.0000 5.4931 0.0000
# 2 -1.8252 26.5632 30.5906 0.0000 0.9172 0.0000
# 3 28.2595 30.5906 124.3724 0.0000 11.9888 0.0000
# 4 0.0000 0.0000 0.0000 7.9385 0.0000 -0.4087
# 5 5.4931 0.9172 11.9888 0.0000 26.3454 0.0000
# 6 0.0000 0.0000 0.0000 -0.4087 0.0000 11.0442
#
#
#
# Elastic Compliance Matrix: (Units=1/GPa)
#
#
# Indices 1 2 3 4 5 6 
#
# 1 0.032406 0.014683 -0.010745 0.000000 -0.002378 0.000000
# 2 0.014683 0.059632 -0.018311 0.000000 0.003195 0.000000
# 3 -0.010745 -0.018311 0.015383 0.000000 -0.004122 0.000000
# 4 0.000000 0.000000 0.000000 0.126209 0.000000 0.004671
# 5 -0.002378 0.003195 -0.004122 0.000000 0.040218 0.000000
# 6 0.000000 0.000000 0.000000 0.004671 0.000000 0.090718
#
#
# Mechanical properties :
#
#
# Convention : Reuss Voigt Hill
#
# Bulk Modulus (GPa) = 12.71062 34.04941 23.38001
# Shear Modulus (GPa) = 11.91786 18.09027 15.00406
#
# Velocity S-wave (km/s) = 2.54623 3.13704 2.85695
# Velocity P-wave (km/s) = 3.94448 5.62531 4.85814
#
# Compressibility (1/GPa) = 0.07867438
#
# Stress axis : x y z
#
# Youngs Moduli (GPa) = 30.85865 16.76938 65.00612
#
# Poissons Ratio (x) = -0.24623 0.69852
# Poissons Ratio (y) = -0.45311 1.19036
# Poissons Ratio (z) = 0.33159 0.30707
#
# Static dielectric constant tensor:
#      x y z
#    x 1.665210 0.000000 0.017470 
#    y 0.000000 1.634760 0.000000 
#    z 0.017470 0.000000 1.650410 
# 
# From -- ./inp_files/26640.got.cif
#   From: 2010.05.17/outbox.cif.g08.bks.cpg/sg14_14_cif.got.tgz:26640.got - 2010.06.03 17:49:19.
