data_PCOD9240551
_publ_section_title
;
Structure prediction by ZEFSAII (Michael W. Deem and Ramdas Pophale) SiO2 
 PCOD9240551
Probable space group: P 21/C
;
_chemical_formula_sum "Si O2"
_cell_formula_units_Z 30
_cell_length_a 6.972835
_cell_length_b 7.138821
_cell_length_c 28.764814
_cell_angle_alpha 90.000000
_cell_angle_beta 51.095872
_cell_angle_gamma 90.000000
_cell_volume 1114.262482
_symmetry_space_group_name_H-M "P 21/C"
_symmetry_group_IT_number 14
_symmetry_cell_setting 'monoclinic'
loop_
_space_group_symop_operation_xyz
x,y,z
-x,1/2+y,1/2-z
-x,-y,-z
x,1/2-y,1/2+z
loop_
_atom_site_type_symbol
_atom_site_label
_atom_site_fract_x
_atom_site_fract_y
_atom_site_fract_z
Si Si1 0.632302 0.633212 0.415262
Si Si2 0.500000 0.500000 0.000000
Si Si3 0.494178 0.372613 0.219815
Si Si4 0.492179 0.712876 0.679311
Si Si5 0.752981 0.276714 0.095267
Si Si6 0.278421 0.205140 0.997864
Si Si7 0.979424 0.662829 0.088593
Si Si8 0.054015 0.820760 0.173634
O O1 0.495197 0.737819 0.395063
O O2 0.701147 0.767033 0.448671
O O3 0.440829 0.472563 0.461279
O O4 0.872547 0.516474 0.363237
O O5 0.417595 0.391679 0.962301
O O6 0.259067 0.654290 0.029798
O O7 0.559220 0.389447 0.264224
O O8 0.508509 0.575218 0.194705
O O9 0.671176 0.243901 0.161474
O O10 0.206785 0.321469 0.261207
O O11 0.277261 0.698700 0.675213
O O12 0.764919 0.678797 0.615494
O O13 0.990270 0.174611 0.036520
O O14 0.863170 0.484750 0.081091
O O15 0.018719 0.667648 0.138517
#
# Coordination Sequence:
#
# PCOD9240551 Si02
#       8
#     4   2   4   4   4   4   4   4
#     4  11  24  42  67 102 128 183 224 285 345 412
#     4  10  18  42  68  90 128 180 206 280 338 406
#     4  10  25  41  66  96 130 175 219 280 335 399
#     4  10  24  43  65  96 132 171 221 278 330 408
#     4  10  23  41  67  97 133 171 229 276 342 407
#     4  10  23  43  68  95 142 168 230 284 346 409
#     4   9  21  43  62  97 130 173 220 278 337 403
#     4  11  24  41  69  95 135 177 228 274 349 411
#
# _framework density 26.923639999999999
#
# number of rings (size 3 to 8) (size 9 to 14) (size 15 to 20)
#    0.000    1.867    1.333    0.400    5.600    7.467 
#    2.400    2.000    0.000    0.000    0.000    0.000 
#    0.000    0.000    0.000    0.000    0.000    0.000 
#
# Total GULP energy -167254.375194 kJ/mol
# GULP energy per Si atom -5575.145840 kJ/mol
# Density = 2.686236 g / cm^3
# Si number density = 26.923640 Si / 1000 Ang^3
#
#
#
# Elastic Constant Matrix: (Units=GPa)
#
#
# Indices 1 2 3 4 5 6 
#
# 1 189.9180 27.1354 32.3503 0.0000 2.8132 0.0000
# 2 27.1354 80.0522 28.3763 0.0000 2.3107 0.0000
# 3 32.3503 28.3763 67.1257 0.0000 -22.2618 0.0000
# 4 0.0000 0.0000 0.0000 41.4219 0.0000 -4.0936
# 5 2.8132 2.3107 -22.2618 0.0000 45.7905 0.0000
# 6 0.0000 0.0000 0.0000 -4.0936 0.0000 38.1094
#
#
#
# Elastic Compliance Matrix: (Units=1/GPa)
#
#
# Indices 1 2 3 4 5 6 
#
# 1 0.005945 -0.000860 -0.003110 0.000000 -0.001834 0.000000
# 2 -0.000860 0.015633 -0.007676 0.000000 -0.004468 0.000000
# 3 -0.003110 -0.007676 0.023645 0.000000 0.012074 0.000000
# 4 0.000000 0.000000 0.000000 0.024401 0.000000 0.002621
# 5 -0.001834 -0.004468 0.012074 0.000000 0.028047 0.000000
# 6 0.000000 0.000000 0.000000 0.002621 0.000000 0.026522
#
#
# Mechanical properties :
#
#
# Convention : Reuss Voigt Hill
#
# Bulk Modulus (GPa) = 45.59508 56.97998 51.28753
# Shear Modulus (GPa) = 32.30073 41.67994 36.99034
#
# Velocity S-wave (km/s) = 3.46745 3.93883 3.71063
# Velocity P-wave (km/s) = 5.74480 6.47266 6.11956
#
# Compressibility (1/GPa) = 0.02193219
#
# Stress axis : x y z
#
# Youngs Moduli (GPa) = 168.20332 63.96626 42.29173
#
# Poissons Ratio (x) = 0.05501 0.13152
# Poissons Ratio (y) = 0.14465 0.32463
# Poissons Ratio (z) = 0.52308 0.49100
#
# Static dielectric constant tensor:
#      x y z
#    x 1.955270 0.000000 0.221380 
#    y 0.000000 1.696560 0.000000 
#    z 0.221380 0.000000 1.984880 
# 
# From -- ./inp_files/78771.got.cif
#   From: 2010.05.17/outbox.cif.g08.bks.cpg/sg14_40_cif.got.tgz:78771.got - 2010.06.03 17:49:19.
