data_PCOD9240388
_publ_section_title
;
Structure prediction by ZEFSAII (Michael W. Deem and Ramdas Pophale) SiO2 
 PCOD9240388
Probable space group: P 21/C
;
_chemical_formula_sum "Si O2"
_cell_formula_units_Z 32
_cell_length_a 7.014198
_cell_length_b 9.352529
_cell_length_c 23.195899
_cell_angle_alpha 90.000000
_cell_angle_beta 118.388881
_cell_angle_gamma 90.000000
_cell_volume 1338.668536
_symmetry_space_group_name_H-M "P 21/C"
_symmetry_group_IT_number 14
_symmetry_cell_setting 'monoclinic'
loop_
_space_group_symop_operation_xyz
x,y,z
-x,1/2+y,1/2-z
-x,-y,-z
x,1/2-y,1/2+z
loop_
_atom_site_type_symbol
_atom_site_label
_atom_site_fract_x
_atom_site_fract_y
_atom_site_fract_z
Si Si1 0.308471 0.068809 0.089217
Si Si2 0.599236 0.853048 0.651586
Si Si3 0.619926 0.882955 0.354729
Si Si4 0.936157 0.828725 0.154647
Si Si5 0.979574 0.594219 0.062395
Si Si6 0.420002 0.861185 0.206384
Si Si7 0.800768 0.453528 0.549359
Si Si8 0.276675 0.660616 0.004179
O O1 0.367670 0.231788 0.111889
O O2 0.056060 0.044923 0.069649
O O3 0.432420 0.969892 0.154199
O O4 0.320735 0.024071 0.023481
O O5 0.817554 0.762080 0.686763
O O6 0.450163 0.793202 0.681519
O O7 0.482148 0.817077 0.574486
O O8 0.583972 0.022658 0.652712
O O9 0.590850 0.870573 0.282063
O O10 0.835086 0.976563 0.397571
O O11 0.951538 0.712214 0.105943
O O12 0.181771 0.876244 0.200100
O O13 0.797097 0.958465 0.108114
O O14 0.072413 0.674951 0.019513
O O15 0.762693 0.500749 0.022660
O O16 0.734559 0.287579 0.542816
#
# Coordination Sequence:
#
# PCOD9240388 Si02
#       8
#     4   4   4   4   4   4   4   4
#     4  10  19  34  64  93 118 165 215 254 318 378
#     4  11  24  43  64  95 127 161 213 261 320 382
#     4  11  22  39  67  91 120 172 220 255 312 381
#     4  11  24  41  64  93 130 166 203 266 325 373
#     4  10  20  36  61  92 127 165 210 259 314 375
#     4  11  22  44  64  89 123 171 212 266 311 367
#     4  10  19  35  61  93 128 161 204 264 323 375
#     4  10  18  37  63  91 125 168 206 257 318 377
#
# _framework density 23.904349
#
# number of rings (size 3 to 8) (size 9 to 14) (size 15 to 20)
#    0.000    1.500    5.000    2.250    3.500    1.000 
#    2.250    0.000    0.000    0.000    0.000    0.000 
#    0.000    0.000    0.000    0.000    0.000    0.000 
#
# Total GULP energy -178849.603158 kJ/mol
# GULP energy per Si atom -5589.050099 kJ/mol
# Density = 2.384994 g / cm^3
# Si number density = 23.904349 Si / 1000 Ang^3
#
#
#
# Elastic Constant Matrix: (Units=GPa)
#
#
# Indices 1 2 3 4 5 6 
#
# 1 66.0429 5.7282 12.4679 0.0000 2.1577 0.0000
# 2 5.7282 124.9131 22.8365 0.0000 -1.7916 0.0000
# 3 12.4679 22.8365 84.6823 0.0000 8.0624 0.0000
# 4 0.0000 0.0000 0.0000 15.7732 0.0000 -8.5437
# 5 2.1577 -1.7916 8.0624 0.0000 15.4281 0.0000
# 6 0.0000 0.0000 0.0000 -8.5437 0.0000 28.2151
#
#
#
# Elastic Compliance Matrix: (Units=1/GPa)
#
#
# Indices 1 2 3 4 5 6 
#
# 1 0.015604 -0.000349 -0.002096 0.000000 -0.001127 0.000000
# 2 -0.000349 0.008505 -0.002464 0.000000 0.002324 0.000000
# 3 -0.002096 -0.002464 0.013450 0.000000 -0.007022 0.000000
# 4 0.000000 0.000000 0.000000 0.075837 0.000000 0.022964
# 5 -0.001127 0.002324 -0.007022 0.000000 0.068914 0.000000
# 6 0.000000 0.000000 0.000000 0.022964 0.000000 0.042396
#
#
# Mechanical properties :
#
#
# Convention : Reuss Voigt Hill
#
# Bulk Modulus (GPa) = 36.04437 39.74484 37.89460
# Shear Modulus (GPa) = 20.51103 27.52365 24.01734
#
# Velocity S-wave (km/s) = 2.93242 3.39692 3.17318
# Velocity P-wave (km/s) = 5.15527 5.66111 5.41410
#
# Compressibility (1/GPa) = 0.02774358
#
# Stress axis : x y z
#
# Youngs Moduli (GPa) = 64.08426 117.57419 74.34757
#
# Poissons Ratio (x) = 0.04098 0.15584
# Poissons Ratio (y) = 0.02234 0.18316
# Poissons Ratio (z) = 0.13433 0.28965
#
# Static dielectric constant tensor:
#      x y z
#    x 2.014670 0.000000 0.020970 
#    y 0.000000 1.911470 0.000000 
#    z 0.020970 0.000000 1.896640 
# 
# From -- ./inp_files/72077.got.cif
#   From: 2010.05.17/outbox.cif.g08.bks.cpg/sg14_37_cif.got.tgz:72077.got - 2010.06.03 17:49:19.
