data_PCOD9240811
_publ_section_title
;
Structure prediction by ZEFSAII (Michael W. Deem and Ramdas Pophale) SiO2 
 PCOD9240811
Probable space group: P 21/C
;
_chemical_formula_sum "Si O2"
_cell_formula_units_Z 20
_cell_length_a 13.072793
_cell_length_b 7.142546
_cell_length_c 18.349557
_cell_angle_alpha 90.000000
_cell_angle_beta 151.825439
_cell_angle_gamma 90.000000
_cell_volume 808.976074
_symmetry_space_group_name_H-M "P 21/C"
_symmetry_group_IT_number 14
_symmetry_cell_setting 'monoclinic'
loop_
_space_group_symop_operation_xyz
x,y,z
-x,1/2+y,1/2-z
-x,-y,-z
x,1/2-y,1/2+z
loop_
_atom_site_type_symbol
_atom_site_label
_atom_site_fract_x
_atom_site_fract_y
_atom_site_fract_z
Si Si1 0.690009 0.361444 0.551139
Si Si2 0.712035 0.560171 0.362458
Si Si3 0.029809 0.575099 0.692088
Si Si4 0.786541 0.705404 0.763936
Si Si5 0.758262 0.335608 0.934773
O O1 0.856332 0.533575 0.647573
O O2 0.434432 0.394953 0.397097
O O3 0.715795 0.252548 0.488813
O O4 0.790562 0.223094 0.673448
O O5 0.870326 0.627719 0.525750
O O6 0.741463 0.688143 0.311531
O O7 0.456070 0.553724 0.221291
O O8 0.772923 0.343013 0.390164
O O9 0.150128 0.379919 0.748569
O O10 0.001784 0.581019 0.910134
#
# Coordination Sequence:
#
# PCOD9240811 Si02
#       5
#     4   4   4   4   4
#     4   9  19  33  50  73 102 130 161 201 244 291
#     4   9  18  33  53  75  97 125 167 207 242 287
#     4  10  19  33  51  75 100 130 165 201 242 292
#     4   9  17  34  55  73  95 131 168 201 240 294
#     4   9  18  33  51  74 100 128 162 204 244 288
#
# _framework density 24.72261
#
# number of rings (size 3 to 8) (size 9 to 14) (size 15 to 20)
#    0.000    3.200    0.000    3.000    0.000    3.200 
#    0.000   17.000    0.000    9.600    0.000    1.400 
#    0.000    0.000    0.000    0.000    0.000    0.000 
#
# Total GULP energy -111750.968241 kJ/mol
# GULP energy per Si atom -5587.548412 kJ/mol
# Density = 2.466634 g / cm^3
# Si number density = 24.722610 Si / 1000 Ang^3
#
#
#
# Elastic Constant Matrix: (Units=GPa)
#
#
# Indices 1 2 3 4 5 6 
#
# 1 54.2273 16.4732 34.7714 0.0000 14.1918 0.0000
# 2 16.4732 50.9629 41.8515 0.0000 -6.4445 0.0000
# 3 34.7714 41.8515 170.7076 0.0000 31.9826 0.0000
# 4 0.0000 0.0000 0.0000 41.6704 0.0000 0.3958
# 5 14.1918 -6.4445 31.9826 0.0000 46.1175 0.0000
# 6 0.0000 0.0000 0.0000 0.3958 0.0000 28.5885
#
#
#
# Elastic Compliance Matrix: (Units=1/GPa)
#
#
# Indices 1 2 3 4 5 6 
#
# 1 0.023545 -0.007061 -0.001750 0.000000 -0.007019 0.000000
# 2 -0.007061 0.030195 -0.008232 0.000000 0.012101 0.000000
# 3 -0.001750 -0.008232 0.009594 0.000000 -0.007265 0.000000
# 4 0.000000 0.000000 0.000000 0.024001 0.000000 -0.000332
# 5 -0.007019 0.012101 -0.007265 0.000000 0.030573 0.000000
# 6 0.000000 0.000000 0.000000 -0.000332 0.000000 0.034984
#
#
# Mechanical properties :
#
#
# Convention : Reuss Voigt Hill
#
# Bulk Modulus (GPa) = 34.19030 51.34333 42.76681
# Shear Modulus (GPa) = 25.41619 35.46206 30.43912
#
# Velocity S-wave (km/s) = 3.20981 3.79145 3.51269
# Velocity P-wave (km/s) = 5.25326 6.32295 5.81276
#
# Compressibility (1/GPa) = 0.02924806
#
# Stress axis : x y z
#
# Youngs Moduli (GPa) = 42.47229 33.11841 104.23652
#
# Poissons Ratio (x) = 0.23386 0.18238
# Poissons Ratio (y) = 0.29991 0.85803
# Poissons Ratio (z) = 0.07431 0.27262
#
# Static dielectric constant tensor:
#      x y z
#    x 2.060180 0.000000 0.031280 
#    y 0.000000 1.983610 0.000000 
#    z 0.031280 0.000000 1.957800 
# 
# From -- ./inp_files/23525.got.cif
#   From: 2010.05.17/outbox.cif.g08.bks.cpg/sg14_12_cif.got.tgz:23525.got - 2010.06.03 17:49:19.
