data_PCOD9240655
_publ_section_title
;
Structure prediction by ZEFSAII (Michael W. Deem and Ramdas Pophale) SiO2 
 PCOD9240655
Probable space group: P 21/C
;
_chemical_formula_sum "Si O2"
_cell_formula_units_Z 32
_cell_length_a 12.617727
_cell_length_b 7.679457
_cell_length_c 20.314951
_cell_angle_alpha 90.000000
_cell_angle_beta 128.243205
_cell_angle_gamma 90.000000
_cell_volume 1546.012418
_symmetry_space_group_name_H-M "P 21/C"
_symmetry_group_IT_number 14
_symmetry_cell_setting 'monoclinic'
loop_
_space_group_symop_operation_xyz
x,y,z
-x,1/2+y,1/2-z
-x,-y,-z
x,1/2-y,1/2+z
loop_
_atom_site_type_symbol
_atom_site_label
_atom_site_fract_x
_atom_site_fract_y
_atom_site_fract_z
Si Si1 0.392267 0.209513 0.007367
Si Si2 0.889050 0.447410 0.743217
Si Si3 0.590474 0.573563 0.349187
Si Si4 0.186303 0.338129 0.826427
Si Si5 0.342142 0.682265 0.084815
Si Si6 0.363764 0.034365 0.275541
Si Si7 0.682283 0.190284 0.063284
Si Si8 0.292140 0.861723 0.708118
O O1 0.292437 0.326648 0.926786
O O2 0.356981 0.008754 0.973180
O O3 0.378881 0.208276 0.080826
O O4 0.546082 0.251725 0.047202
O O5 0.848132 0.641226 0.707558
O O6 0.805507 0.323361 0.660964
O O7 0.832192 0.409579 0.793809
O O8 0.047000 0.422597 0.795004
O O9 0.645627 0.386479 0.391496
O O10 0.644367 0.630578 0.298694
O O11 0.429661 0.539770 0.281002
O O12 0.255585 0.421761 0.789329
O O13 0.489384 0.591221 0.141019
O O14 0.267359 0.610516 0.120952
O O15 0.288026 0.695179 0.989849
O O16 0.339515 0.835205 0.244536
#
# Coordination Sequence:
#
# PCOD9240655 Si02
#       8
#     4   4   4   4   4   4   4   4
#     4   9  16  31  56  80 100 133 180 219 252 299
#     4  11  22  37  56  76 106 141 176 216 261 314
#     4   9  17  32  54  79 105 136 176 218 256 302
#     4  11  22  37  56  76 106 141 176 216 261 314
#     4   9  17  32  54  79 105 136 176 218 256 302
#     4  10  19  31  51  80 110 137 170 213 265 313
#     4   9  16  31  56  80 100 133 180 219 252 299
#     4  10  19  31  51  80 110 137 170 213 265 313
#
# _framework density 20.698411
#
# number of rings (size 3 to 8) (size 9 to 14) (size 15 to 20)
#    0.000    2.250    2.500    1.500    0.000    1.000 
#    0.000    5.000    0.000    7.500    0.000    0.000 
#    0.000    0.000    0.000    0.000    0.000    0.000 
#
# Total GULP energy -178665.024232 kJ/mol
# GULP energy per Si atom -5583.282007 kJ/mol
# Density = 2.065130 g / cm^3
# Si number density = 20.698411 Si / 1000 Ang^3
#
#
#
# Elastic Constant Matrix: (Units=GPa)
#
#
# Indices 1 2 3 4 5 6 
#
# 1 122.4881 7.3973 22.6530 0.0000 -19.7695 0.0000
# 2 7.3973 18.5674 33.2367 0.0000 -16.3200 0.0000
# 3 22.6530 33.2367 16.6554 0.0000 -1.9700 0.0000
# 4 0.0000 0.0000 0.0000 21.7763 0.0000 -5.0131
# 5 -19.7695 -16.3200 -1.9700 0.0000 28.6610 0.0000
# 6 0.0000 0.0000 0.0000 -5.0131 0.0000 17.2740
#
#
#
# Elastic Compliance Matrix: (Units=1/GPa)
#
#
# Indices 1 2 3 4 5 6 
#
# 1 0.008338 -0.007099 0.003052 0.000000 0.001919 0.000000
# 2 -0.007099 -0.012769 0.033972 0.000000 -0.009832 0.000000
# 3 0.003052 0.033972 -0.009444 0.000000 0.020801 0.000000
# 4 0.000000 0.000000 0.000000 0.049209 0.000000 0.014281
# 5 0.001919 -0.009832 0.020801 0.000000 0.032046 0.000000
# 6 0.000000 0.000000 0.000000 0.014281 0.000000 0.062035
#
#
# Mechanical properties :
#
#
# Convention : Reuss Voigt Hill
#
# Bulk Modulus (GPa) = 21.74995 31.58722 26.66859
# Shear Modulus (GPa) = 58.90091 19.83720 39.36906
#
# Velocity S-wave (km/s) = 5.34027 3.09915 4.36596
# Velocity P-wave (km/s) = 6.96818 5.30096 6.19095
#
# Compressibility (1/GPa) = 0.04597712
#
# Stress axis : x y z
#
# Youngs Moduli (GPa) = 119.93250 -78.31652 -105.88599
#
# Poissons Ratio (x) = -0.55594 0.32318
# Poissons Ratio (y) = 0.85136 3.59721
# Poissons Ratio (z) = -0.36605 2.66060
#
# Static dielectric constant tensor:
#      x y z
#    x 1.716790 0.000000 -0.048850 
#    y 0.000000 1.808940 0.000000 
#    z -0.048850 0.000000 1.734930 
# 
# From -- ./inp_files/67050.got.cif
#   From: 2010.05.17/outbox.cif.g08.bks.cpg/sg14_34_cif.got.tgz:67050.got - 2010.06.03 17:49:19.
