data_PCOD9240562
_publ_section_title
;
Structure prediction by ZEFSAII (Michael W. Deem and Ramdas Pophale) SiO2 
 PCOD9240562
Probable space group: P 21/C
;
_chemical_formula_sum "Si O2"
_cell_formula_units_Z 24
_cell_length_a 4.987388
_cell_length_b 5.234011
_cell_length_c 36.325573
_cell_angle_alpha 90.000000
_cell_angle_beta 103.241755
_cell_angle_gamma 90.000000
_cell_volume 923.032642
_symmetry_space_group_name_H-M "P 21/C"
_symmetry_group_IT_number 14
_symmetry_cell_setting 'monoclinic'
loop_
_space_group_symop_operation_xyz
x,y,z
-x,1/2+y,1/2-z
-x,-y,-z
x,1/2-y,1/2+z
loop_
_atom_site_type_symbol
_atom_site_label
_atom_site_fract_x
_atom_site_fract_y
_atom_site_fract_z
Si Si1 0.789211 0.822480 0.705479
Si Si2 0.691232 0.517827 0.602627
Si Si3 0.794698 0.553007 0.526677
Si Si4 0.126542 0.659671 0.089864
Si Si5 0.546643 0.657668 0.850533
Si Si6 0.832691 0.673616 0.287767
O O1 0.678597 0.314128 0.634181
O O2 0.554925 0.886343 0.668558
O O3 0.674061 0.828361 0.743594
O O4 0.986693 0.068744 0.707869
O O5 0.766194 0.403571 0.564773
O O6 0.399269 0.669163 0.589869
O O7 0.919587 0.817551 0.548426
O O8 0.500000 0.500000 0.500000
O O9 0.940516 0.714324 0.615897
O O10 0.000000 0.500000 0.500000
O O11 0.235039 0.399597 0.110386
O O12 0.648578 0.810322 0.818253
O O13 0.031652 0.070674 0.793736
#
# Coordination Sequence:
#
# PCOD9240562 Si02
#       6
#     4   4   4   4   4   4
#     4  10  26  49  75 110 156 213 276 338 409 483
#     4  10  25  44  72 111 157 200 264 320 410 464
#     4  10  18  44  76 105 156 208 252 327 392 496
#     4  10  25  44  72 111 157 200 264 320 410 464
#     4  12  28  44  78 107 162 202 276 331 408 480
#     4  10  26  49  75 110 156 213 276 338 409 483
#
# _framework density 26.001252000000001
#
# number of rings (size 3 to 8) (size 9 to 14) (size 15 to 20)
#    1.000    0.667    1.667    0.000    9.333    4.000 
#    0.000    1.667    0.000    0.000    0.000    0.000 
#    0.000    0.000    0.000    0.000    0.000    0.000 
#
# Total GULP energy -134197.079382 kJ/mol
# GULP energy per Si atom -5591.544974 kJ/mol
# Density = 2.594207 g / cm^3
# Si number density = 26.001252 Si / 1000 Ang^3
#
#
#
# Elastic Constant Matrix: (Units=GPa)
#
#
# Indices 1 2 3 4 5 6 
#
# 1 135.7987 26.7197 41.0487 0.0000 -20.8817 0.0000
# 2 26.7197 101.5848 29.3440 0.0000 -21.4398 0.0000
# 3 41.0487 29.3440 171.9303 0.0000 -32.7368 0.0000
# 4 0.0000 0.0000 0.0000 30.3320 0.0000 0.0226
# 5 -20.8817 -21.4398 -32.7368 0.0000 63.8151 0.0000
# 6 0.0000 0.0000 0.0000 0.0226 0.0000 36.5256
#
#
#
# Elastic Compliance Matrix: (Units=1/GPa)
#
#
# Indices 1 2 3 4 5 6 
#
# 1 0.008318 -0.001454 -0.001455 0.000000 0.001487 0.000000
# 2 -0.001454 0.011099 -0.001028 0.000000 0.002726 0.000000
# 3 -0.001455 -0.001028 0.006852 0.000000 0.002694 0.000000
# 4 0.000000 0.000000 0.000000 0.032969 0.000000 -0.000020
# 5 0.001487 0.002726 0.002694 0.000000 0.018454 0.000000
# 6 0.000000 0.000000 0.000000 -0.000020 0.000000 0.027378
#
#
# Mechanical properties :
#
#
# Convention : Reuss Voigt Hill
#
# Bulk Modulus (GPa) = 54.36114 67.05984 60.71049
# Shear Modulus (GPa) = 41.99025 46.94795 44.46910
#
# Velocity S-wave (km/s) = 4.02298 4.25385 4.14002
# Velocity P-wave (km/s) = 6.52163 7.06923 6.80094
#
# Compressibility (1/GPa) = 0.01839549
#
# Stress axis : x y z
#
# Youngs Moduli (GPa) = 120.21667 90.10115 145.94315
#
# Poissons Ratio (x) = 0.13099 0.21230
# Poissons Ratio (y) = 0.17478 0.15005
# Poissons Ratio (z) = 0.17488 0.09264
#
# Static dielectric constant tensor:
#      x y z
#    x 2.076490 0.000000 0.059390 
#    y 0.000000 2.096360 0.000000 
#    z 0.059390 0.000000 2.041390 
# 
# From -- ./inp_files/75742.got.cif
#   From: 2010.05.17/outbox.cif.g08.bks.cpg/sg14_38_cif.got.tgz:75742.got - 2010.06.03 17:49:19.
