data_PCOD9240749
_publ_section_title
;
Structure prediction by ZEFSAII (Michael W. Deem and Ramdas Pophale) SiO2 
 PCOD9240749
Probable space group: P 21/C
;
_chemical_formula_sum "Si O2"
_cell_formula_units_Z 32
_cell_length_a 8.472038
_cell_length_b 20.997476
_cell_length_c 15.867738
_cell_angle_alpha 90.000000
_cell_angle_beta 33.372363
_cell_angle_gamma 90.000000
_cell_volume 1552.724019
_symmetry_space_group_name_H-M "P 21/C"
_symmetry_group_IT_number 14
_symmetry_cell_setting 'monoclinic'
loop_
_space_group_symop_operation_xyz
x,y,z
-x,1/2+y,1/2-z
-x,-y,-z
x,1/2-y,1/2+z
loop_
_atom_site_type_symbol
_atom_site_label
_atom_site_fract_x
_atom_site_fract_y
_atom_site_fract_z
Si Si1 0.318023 0.745802 0.004156
Si Si2 0.333959 0.375029 0.617490
Si Si3 0.921498 0.067286 0.825265
Si Si4 0.828271 0.821976 0.986618
Si Si5 0.717905 0.581706 0.975506
Si Si6 0.584930 0.203475 0.349148
Si Si7 0.772221 0.830760 0.200936
Si Si8 0.162637 0.953589 0.618735
O O1 0.528228 0.807529 0.918224
O O2 0.476920 0.696582 0.871085
O O3 0.301026 0.714061 0.105236
O O4 0.015996 0.776080 0.109532
O O5 0.597239 0.424491 0.497878
O O6 0.223301 0.366424 0.571166
O O7 0.074874 0.400351 0.790787
O O8 0.994634 0.102325 0.702892
O O9 0.117789 0.106220 0.801411
O O10 0.024021 0.996560 0.756755
O O11 0.152683 0.798255 0.831406
O O12 0.622574 0.761889 0.071075
O O13 0.766824 0.848416 0.105693
O O14 0.779250 0.508982 0.976332
O O15 0.594840 0.638610 0.083949
O O16 0.461560 0.572208 0.020720
#
# Coordination Sequence:
#
# PCOD9240749 Si02
#       8
#     4   4   4   4   4   4   4   4
#     4  10  20  33  57  75 106 139 182 217 263 314
#     4  10  19  32  54  82 106 135 179 223 262 313
#     4   9  19  33  56  79 105 135 181 220 258 313
#     4  11  24  33  54  79 117 138 174 216 278 318
#     4   9  18  31  57  79 104 132 184 224 258 302
#     4  11  20  37  54  82 103 145 178 224 258 323
#     4  11  21  37  49  83 109 144 171 219 273 323
#     4   9  17  33  53  85 100 137 179 230 258 302
#
# _framework density 20.608941000000002
#
# number of rings (size 3 to 8) (size 9 to 14) (size 15 to 20)
#    0.750    1.250    2.500    2.625    3.500    0.000 
#    0.000    0.625    0.000    0.000    0.000    9.625 
#    0.000    0.000    0.000    0.000    0.000    0.000 
#
# Total GULP energy -178238.503602 kJ/mol
# GULP energy per Si atom -5569.953238 kJ/mol
# Density = 2.056203 g / cm^3
# Si number density = 20.608941 Si / 1000 Ang^3
#
#
#
# Elastic Constant Matrix: (Units=GPa)
#
#
# Indices 1 2 3 4 5 6 
#
# 1 31.9421 -14.2872 -15.6416 0.0000 3.3708 0.0000
# 2 -14.2872 69.1635 8.8044 0.0000 2.3604 0.0000
# 3 -15.6416 8.8044 87.0044 0.0000 0.8354 0.0000
# 4 0.0000 0.0000 0.0000 69.2935 0.0000 -10.1297
# 5 3.3708 2.3604 0.8354 0.0000 22.7104 0.0000
# 6 0.0000 0.0000 0.0000 -10.1297 0.0000 7.9557
#
#
#
# Elastic Compliance Matrix: (Units=1/GPa)
#
#
# Indices 1 2 3 4 5 6 
#
# 1 0.038346 0.007358 0.006213 0.000000 -0.006685 0.000000
# 2 0.007358 0.016108 -0.000281 0.000000 -0.002756 0.000000
# 3 0.006213 -0.000281 0.012652 0.000000 -0.001358 0.000000
# 4 0.000000 0.000000 0.000000 0.017732 0.000000 0.022577
# 5 -0.006685 -0.002756 -0.001358 0.000000 0.045361 0.000000
# 6 0.000000 0.000000 0.000000 0.022577 0.000000 0.154442
#
#
# Mechanical properties :
#
#
# Convention : Reuss Voigt Hill
#
# Bulk Modulus (GPa) = 10.67368 16.20680 13.44024
# Shear Modulus (GPa) = 17.28374 33.94087 25.61231
#
# Velocity S-wave (km/s) = 2.89909 4.06260 3.52913
# Velocity P-wave (km/s) = 4.04928 5.46694 4.81062
#
# Compressibility (1/GPa) = 0.09368843
#
# Stress axis : x y z
#
# Youngs Moduli (GPa) = 26.07835 62.07975 79.03792
#
# Poissons Ratio (x) = -0.45681 -0.49109
# Poissons Ratio (y) = -0.19189 0.02219
# Poissons Ratio (z) = -0.16203 0.01743
#
# Static dielectric constant tensor:
#      x y z
#    x 1.752890 0.000000 -0.005770 
#    y 0.000000 1.770400 0.000000 
#    z -0.005770 0.000000 1.758830 
# 
# From -- ./inp_files/56256.got.cif
#   From: 2010.05.17/outbox.cif.g08.bks.cpg/sg14_29_cif.got.tgz:56256.got - 2010.06.03 17:49:19.
