data_PCOD9240461
_publ_section_title
;
Structure prediction by ZEFSAII (Michael W. Deem and Ramdas Pophale) SiO2 
 PCOD9240461
Probable space group: P 21/C
;
_chemical_formula_sum "Si O2"
_cell_formula_units_Z 28
_cell_length_a 6.878591
_cell_length_b 14.217924
_cell_length_c 13.453194
_cell_angle_alpha 90.000000
_cell_angle_beta 120.009589
_cell_angle_gamma 90.000000
_cell_volume 1139.330544
_symmetry_space_group_name_H-M "P 21/C"
_symmetry_group_IT_number 14
_symmetry_cell_setting 'monoclinic'
loop_
_space_group_symop_operation_xyz
x,y,z
-x,1/2+y,1/2-z
-x,-y,-z
x,1/2-y,1/2+z
loop_
_atom_site_type_symbol
_atom_site_label
_atom_site_fract_x
_atom_site_fract_y
_atom_site_fract_z
Si Si1 0.236847 0.433151 0.104052
Si Si2 0.427730 0.855984 0.919452
Si Si3 0.445959 0.058145 0.857724
Si Si4 0.919962 0.668922 0.270723
Si Si5 0.195052 0.501955 0.892446
Si Si6 0.874109 0.726779 0.477284
Si Si7 0.004415 0.358545 0.296647
O O1 0.421088 0.415250 0.236679
O O2 0.105115 0.337317 0.040914
O O3 0.053337 0.495190 0.116772
O O4 0.333049 0.482882 0.029598
O O5 0.618700 0.780112 0.951380
O O6 0.185698 0.832475 0.815902
O O7 0.514674 0.950489 0.888086
O O8 0.409067 0.878006 0.031976
O O9 0.197719 0.061740 0.847629
O O10 0.799662 0.587328 0.179139
O O11 0.889435 0.667927 0.380340
O O12 0.860429 0.773924 0.222024
O O13 0.184903 0.596815 0.822939
O O14 0.031823 0.682205 0.602930
#
# Coordination Sequence:
#
# PCOD9240461 Si02
#       7
#     4   4   4   4   4   4   4
#     4  10  18  38  66  89 128 184 203 259 341 375
#     4  10  22  40  63  95 128 168 218 267 325 379
#     4   9  18  41  62  85 134 171 202 269 329 372
#     4  12  21  41  68  97 128 165 220 273 314 388
#     4  10  20  36  67  92 129 174 209 260 335 383
#     4  11  23  39  67  96 128 171 222 268 322 379
#     4  10  20  39  63  96 131 168 216 268 325 381
#
# _framework density 24.575835000000001
#
# number of rings (size 3 to 8) (size 9 to 14) (size 15 to 20)
#    0.000    1.714    7.143    0.000    0.000    0.571 
#    2.571    0.000    0.000    1.714    0.000    0.000 
#    0.000    0.000    0.000    0.000    0.000    0.000 
#
# Total GULP energy -156243.628408 kJ/mol
# GULP energy per Si atom -5580.129586 kJ/mol
# Density = 2.451990 g / cm^3
# Si number density = 24.575835 Si / 1000 Ang^3
#
#
#
# Elastic Constant Matrix: (Units=GPa)
#
#
# Indices 1 2 3 4 5 6 
#
# 1 41.3248 6.7101 13.8667 0.0000 -17.1809 0.0000
# 2 6.7101 103.5107 57.7108 0.0000 -19.3532 0.0000
# 3 13.8667 57.7108 192.6998 0.0000 -44.3069 0.0000
# 4 0.0000 0.0000 0.0000 46.2767 0.0000 -8.7381
# 5 -17.1809 -19.3532 -44.3069 0.0000 48.3744 0.0000
# 6 0.0000 0.0000 0.0000 -8.7381 0.0000 19.1482
#
#
#
# Elastic Compliance Matrix: (Units=1/GPa)
#
#
# Indices 1 2 3 4 5 6 
#
# 1 0.028410 -0.000109 0.000378 0.000000 0.010393 0.000000
# 2 -0.000109 0.011730 -0.003084 0.000000 0.001829 0.000000
# 3 0.000378 -0.003084 0.007389 0.000000 0.005668 0.000000
# 4 0.000000 0.000000 0.000000 0.023647 0.000000 0.010791
# 5 0.010393 0.001829 0.005668 0.000000 0.030286 0.000000
# 6 0.000000 0.000000 0.000000 0.010791 0.000000 0.057149
#
#
# Mechanical properties :
#
#
# Convention : Reuss Voigt Hill
#
# Bulk Modulus (GPa) = 23.86792 54.90117 39.38455
# Shear Modulus (GPa) = 28.05704 40.04303 34.05003
#
# Velocity S-wave (km/s) = 3.38250 4.04092 3.72628
# Velocity P-wave (km/s) = 4.99881 6.64530 5.87997
#
# Compressibility (1/GPa) = 0.04189724
#
# Stress axis : x y z
#
# Youngs Moduli (GPa) = 35.19858 85.25478 135.33183
#
# Poissons Ratio (x) = 0.00932 -0.05114
# Poissons Ratio (y) = 0.00385 0.41743
# Poissons Ratio (z) = -0.01330 0.26297
#
# Static dielectric constant tensor:
#      x y z
#    x 1.972640 0.000000 0.022160 
#    y 0.000000 1.961300 0.000000 
#    z 0.022160 0.000000 2.052480 
# 
# From -- ./inp_files/41017.got.cif
#   From: 2010.05.17/outbox.cif.g08.bks.cpg/sg14_21_cif.got.tgz:41017.got - 2010.06.03 17:49:19.
