data_PCOD9240241
_publ_section_title
;
Structure prediction by ZEFSAII (Michael W. Deem and Ramdas Pophale) SiO2 
 PCOD9240241
Probable space group: P 21/C
;
_chemical_formula_sum "Si O2"
_cell_formula_units_Z 32
_cell_length_a 17.088567
_cell_length_b 5.611492
_cell_length_c 14.825506
_cell_angle_alpha 90.000000
_cell_angle_beta 105.521461
_cell_angle_gamma 90.000000
_cell_volume 1369.805448
_symmetry_space_group_name_H-M "P 21/C"
_symmetry_group_IT_number 14
_symmetry_cell_setting 'monoclinic'
loop_
_space_group_symop_operation_xyz
x,y,z
-x,1/2+y,1/2-z
-x,-y,-z
x,1/2-y,1/2+z
loop_
_atom_site_type_symbol
_atom_site_label
_atom_site_fract_x
_atom_site_fract_y
_atom_site_fract_z
Si Si1 0.766696 0.900727 0.235581
Si Si2 0.916992 0.983188 0.375793
Si Si3 0.079448 0.726643 0.928433
Si Si4 0.311520 0.043216 0.162395
Si Si5 0.486695 0.370982 0.689664
Si Si6 0.233607 0.464180 0.912660
Si Si7 0.836627 0.896133 0.972663
Si Si8 0.640895 0.260722 0.140705
O O1 0.845350 0.053778 0.286288
O O2 0.718910 0.796598 0.307011
O O3 0.791933 0.672697 0.185853
O O4 0.700995 0.037622 0.156061
O O5 0.882773 0.735974 0.406918
O O6 0.003805 0.910034 0.362631
O O7 0.924092 0.149328 0.466149
O O8 0.164156 0.654837 0.910695
O O9 0.091810 0.008117 0.940918
O O10 0.393843 0.080841 0.132859
O O11 0.232887 0.931865 0.089657
O O12 0.337103 0.888007 0.257006
O O13 0.512443 0.621948 0.749389
O O14 0.548722 0.318889 0.626945
O O15 0.323980 0.565884 0.925374
O O16 0.220011 0.282127 0.989189
#
# Coordination Sequence:
#
# PCOD9240241 Si02
#       8
#     4   4   4   4   4   4   4   4
#     4  10  18  36  54  79 111 145 186 239 286 348
#     4   9  20  34  59  83 103 142 197 238 283 346
#     4  10  19  37  54  81 110 147 187 238 290 340
#     4   9  19  33  57  89 104 145 196 239 288 346
#     4  10  19  35  59  93 121 150 199 257 304 350
#     4  10  22  35  50  79 114 155 188 223 296 353
#     4  10  19  36  58  78 115 149 191 235 287 348
#     4  10  19  34  58  79 116 151 188 241 300 348
#
# _framework density 23.360982
#
# number of rings (size 3 to 8) (size 9 to 14) (size 15 to 20)
#    0.000    2.250    1.250    1.875    0.000    0.000 
#    4.500    0.625    0.000    3.000    0.000    0.000 
#    0.000    0.000    0.000    0.000    0.000    0.000 
#
# Total GULP energy -178263.297585 kJ/mol
# GULP energy per Si atom -5570.728050 kJ/mol
# Density = 2.330781 g / cm^3
# Si number density = 23.360982 Si / 1000 Ang^3
#
#
#
# Elastic Constant Matrix: (Units=GPa)
#
#
# Indices 1 2 3 4 5 6 
#
# 1 104.5213 12.0267 3.6459 0.0000 -12.9603 0.0000
# 2 12.0267 51.2453 -2.1403 0.0000 -4.0834 0.0000
# 3 3.6459 -2.1403 24.1687 0.0000 -8.9026 0.0000
# 4 0.0000 0.0000 0.0000 22.3220 0.0000 -7.0617
# 5 -12.9603 -4.0834 -8.9026 0.0000 26.4187 0.0000
# 6 0.0000 0.0000 0.0000 -7.0617 0.0000 29.7139
#
#
#
# Elastic Compliance Matrix: (Units=1/GPa)
#
#
# Indices 1 2 3 4 5 6 
#
# 1 0.010397 -0.002058 0.000012 0.000000 0.004787 0.000000
# 2 -0.002058 0.020395 0.003318 0.000000 0.003261 0.000000
# 3 0.000012 0.003318 0.047791 0.000000 0.016624 0.000000
# 4 0.000000 0.000000 0.000000 0.048441 0.000000 0.011512
# 5 0.004787 0.003261 0.016624 0.000000 0.046306 0.000000
# 6 0.000000 0.000000 0.000000 0.011512 0.000000 0.036390
#
#
# Mechanical properties :
#
#
# Convention : Reuss Voigt Hill
#
# Bulk Modulus (GPa) = 12.32624 22.99999 17.66311
# Shear Modulus (GPa) = 21.34751 26.78446 24.06598
#
# Velocity S-wave (km/s) = 3.02621 3.38974 3.21312
# Velocity P-wave (km/s) = 4.18312 5.01870 4.61984
#
# Compressibility (1/GPa) = 0.08112777
#
# Stress axis : x y z
#
# Youngs Moduli (GPa) = 96.17824 49.03062 20.92446
#
# Poissons Ratio (x) = 0.10092 -0.00026
# Poissons Ratio (y) = 0.19795 -0.06942
# Poissons Ratio (z) = -0.00120 -0.16267
#
# Static dielectric constant tensor:
#      x y z
#    x 1.926930 0.000000 0.034820 
#    y 0.000000 2.019680 0.000000 
#    z 0.034820 0.000000 1.920100 
# 
# From -- ./inp_files/58606.got.cif
#   From: 2010.05.17/outbox.cif.g08.bks.cpg/sg14_30_cif.got.tgz:58606.got - 2010.06.03 17:49:19.
