data_PCOD9240934
_publ_section_title
;
Structure prediction by ZEFSAII (Michael W. Deem and Ramdas Pophale) SiO2 
 PCOD9240934
Probable space group: P 21/C
;
_chemical_formula_sum "Si O2"
_cell_formula_units_Z 16
_cell_length_a 9.981163
_cell_length_b 5.061591
_cell_length_c 17.534052
_cell_angle_alpha 90.000000
_cell_angle_beta 134.350017
_cell_angle_gamma 90.000000
_cell_volume 633.441922
_symmetry_space_group_name_H-M "P 21/C"
_symmetry_group_IT_number 14
_symmetry_cell_setting 'monoclinic'
loop_
_space_group_symop_operation_xyz
x,y,z
-x,1/2+y,1/2-z
-x,-y,-z
x,1/2-y,1/2+z
loop_
_atom_site_type_symbol
_atom_site_label
_atom_site_fract_x
_atom_site_fract_y
_atom_site_fract_z
Si Si1 0.499565 0.929652 0.198762
Si Si2 0.415890 0.789419 0.904272
Si Si3 0.810114 0.933719 0.578491
Si Si4 0.898321 0.422320 0.536878
O O1 0.453531 0.158092 0.241598
O O2 0.642812 0.051198 0.194165
O O3 0.314934 0.891808 0.075386
O O4 0.255322 0.596109 0.872627
O O5 0.600218 0.613736 0.959669
O O6 0.500000 0.000000 0.000000
O O7 0.942624 0.134871 0.586072
O O8 0.901072 0.645658 0.603803
O O9 0.000000 0.500000 0.500000
#
# Coordination Sequence:
#
# PCOD9240934 Si02
#       4
#     4   4   4   4
#     4  11  23  36  58  93 120 145 192 258 308 326
#     4  10  19  35  61  86 117 149 204 243 283 349
#     4  10  19  33  59  88 106 152 208 236 272 339
#     4  11  22  38  59  88 121 159 196 233 291 367
#
# _framework density 25.25883
#
# number of rings (size 3 to 8) (size 9 to 14) (size 15 to 20)
#    0.000    1.500    5.000    3.750    3.500    0.000 
#    0.000    0.000    0.000    6.000    0.000    0.000 
#    0.000    0.000    0.000    0.000    0.000    0.000 
#
# Total GULP energy -89293.358234 kJ/mol
# GULP energy per Si atom -5580.834890 kJ/mol
# Density = 2.520134 g / cm^3
# Si number density = 25.258830 Si / 1000 Ang^3
#
#
#
# Elastic Constant Matrix: (Units=GPa)
#
#
# Indices 1 2 3 4 5 6 
#
# 1 77.9646 20.6454 4.8614 0.0000 -11.8850 0.0000
# 2 20.6454 174.0287 29.9088 0.0000 -6.5426 0.0000
# 3 4.8614 29.9088 63.6899 0.0000 -3.3076 0.0000
# 4 0.0000 0.0000 0.0000 34.5661 0.0000 -22.7206
# 5 -11.8850 -6.5426 -3.3076 0.0000 20.1254 0.0000
# 6 0.0000 0.0000 0.0000 -22.7206 0.0000 41.5522
#
#
#
# Elastic Compliance Matrix: (Units=1/GPa)
#
#
# Indices 1 2 3 4 5 6 
#
# 1 0.014428 -0.001405 -0.000023 0.000000 0.008060 0.000000
# 2 -0.001405 0.006437 -0.002874 0.000000 0.000791 0.000000
# 3 -0.000023 -0.002874 0.017150 0.000000 0.001870 0.000000
# 4 0.000000 0.000000 0.000000 0.045162 0.000000 0.024694
# 5 0.008060 0.000791 0.001870 0.000000 0.055013 0.000000
# 6 0.000000 0.000000 0.000000 0.024694 0.000000 0.037569
#
#
# Mechanical properties :
#
#
# Convention : Reuss Voigt Hill
#
# Bulk Modulus (GPa) = 34.00139 47.39048 40.69594
# Shear Modulus (GPa) = 25.75114 36.59990 31.17552
#
# Velocity S-wave (km/s) = 3.19641 3.81070 3.51699
# Velocity P-wave (km/s) = 5.20703 6.17775 5.71304
#
# Compressibility (1/GPa) = 0.02941056
#
# Stress axis : x y z
#
# Youngs Moduli (GPa) = 69.30742 155.36334 58.30988
#
# Poissons Ratio (x) = 0.21824 0.00135
# Poissons Ratio (y) = 0.09736 0.16760
# Poissons Ratio (z) = 0.00160 0.44656
#
# Static dielectric constant tensor:
#      x y z
#    x 2.123790 0.000000 -0.061240 
#    y 0.000000 2.092820 0.000000 
#    z -0.061240 0.000000 2.026590 
# 
# From -- ./inp_files/50944.got.cif
#   From: 2010.05.17/outbox.cif.g08.bks.cpg/sg14_26_cif.got.tgz:50944.got - 2010.06.03 17:49:19.
