data_PCOD9240161
_publ_section_title
;
Structure prediction by ZEFSAII (Michael W. Deem and Ramdas Pophale) SiO2 
 PCOD9240161
Probable space group: P 21/C
;
_chemical_formula_sum "Si O2"
_cell_formula_units_Z 32
_cell_length_a 9.933167
_cell_length_b 11.683109
_cell_length_c 18.177124
_cell_angle_alpha 90.000000
_cell_angle_beta 144.426217
_cell_angle_gamma 90.000000
_cell_volume 1227.180277
_symmetry_space_group_name_H-M "P 21/C"
_symmetry_group_IT_number 14
_symmetry_cell_setting 'monoclinic'
loop_
_space_group_symop_operation_xyz
x,y,z
-x,1/2+y,1/2-z
-x,-y,-z
x,1/2-y,1/2+z
loop_
_atom_site_type_symbol
_atom_site_label
_atom_site_fract_x
_atom_site_fract_y
_atom_site_fract_z
Si Si1 0.303963 0.921903 0.944331
Si Si2 0.454372 0.833408 0.161927
Si Si3 0.185260 0.399690 0.596420
Si Si4 0.321090 0.910425 0.529467
Si Si5 0.814380 0.609019 0.232252
Si Si6 0.113385 0.737218 0.636890
Si Si7 0.722109 0.022279 0.331486
Si Si8 0.096593 0.699973 0.797232
O O1 0.347678 0.911409 0.050131
O O2 0.449399 0.060835 0.208455
O O3 0.293910 0.796996 0.903093
O O4 0.500000 0.000000 0.000000
O O5 0.406326 0.710696 0.102656
O O6 0.319170 0.817033 0.178690
O O7 0.698737 0.894490 0.288650
O O8 0.042933 0.536290 0.314030
O O9 0.116456 0.300252 0.509327
O O10 0.000000 0.500000 0.500000
O O11 0.152915 0.363816 0.666713
O O12 0.572117 0.954269 0.614046
O O13 0.217951 0.974477 0.554699
O O14 0.152554 0.890254 0.386478
O O15 0.859199 0.729043 0.209911
O O16 0.152265 0.873862 0.654435
O O17 0.111032 0.685973 0.716798
#
# Coordination Sequence:
#
# PCOD9240161 Si02
#       8
#     4   4   4   4   4   4   4   4
#     4   9  16  31  55  85 113 141 188 251 291 330
#     4  10  18  35  58  86 111 146 199 246 285 347
#     4  11  19  35  62  89 112 150 209 255 287 342
#     4   9  19  35  57  80 117 162 186 244 301 352
#     4   9  18  34  54  83 118 150 193 239 301 344
#     4  11  20  35  57  89 118 152 197 245 300 353
#     4  10  20  33  61  89 113 150 200 253 298 341
#     4   9  20  33  53  80 119 161 184 230 299 363
#
# _framework density 26.076038
#
# number of rings (size 3 to 8) (size 9 to 14) (size 15 to 20)
#    0.750    1.500    2.500    1.500    0.000    1.000 
#    0.000    1.875    0.000   12.000    3.250    0.000 
#    0.000    0.000    0.000    0.000    0.000    0.000 
#
# Total GULP energy -178748.557907 kJ/mol
# GULP energy per Si atom -5585.892435 kJ/mol
# Density = 2.601669 g / cm^3
# Si number density = 26.076038 Si / 1000 Ang^3
#
#
#
# Elastic Constant Matrix: (Units=GPa)
#
#
# Indices 1 2 3 4 5 6 
#
# 1 96.6488 20.0667 42.5825 0.0000 -23.7217 0.0000
# 2 20.0667 86.4459 39.0690 0.0000 -8.0513 0.0000
# 3 42.5825 39.0690 126.6758 0.0000 -43.7154 0.0000
# 4 0.0000 0.0000 0.0000 43.4245 0.0000 5.0671
# 5 -23.7217 -8.0513 -43.7154 0.0000 35.5912 0.0000
# 6 0.0000 0.0000 0.0000 5.0671 0.0000 36.0020
#
#
#
# Elastic Compliance Matrix: (Units=1/GPa)
#
#
# Indices 1 2 3 4 5 6 
#
# 1 0.012959 -0.001656 -0.001725 0.000000 0.006143 0.000000
# 2 -0.001656 0.013918 -0.005260 0.000000 -0.004416 0.000000
# 3 -0.001725 -0.005260 0.016123 0.000000 0.017463 0.000000
# 4 0.000000 0.000000 0.000000 0.023413 0.000000 -0.003295
# 5 0.006143 -0.004416 0.017463 0.000000 0.052642 0.000000
# 6 0.000000 0.000000 0.000000 -0.003295 0.000000 0.028240
#
#
# Mechanical properties :
#
#
# Convention : Reuss Voigt Hill
#
# Bulk Modulus (GPa) = 38.88434 57.02298 47.95366
# Shear Modulus (GPa) = 28.87680 36.87370 32.87525
#
# Velocity S-wave (km/s) = 3.33138 3.76451 3.55455
# Velocity P-wave (km/s) = 5.45360 6.38833 5.93938
#
# Compressibility (1/GPa) = 0.02571729
#
# Stress axis : x y z
#
# Youngs Moduli (GPa) = 77.16920 71.84818 62.02375
#
# Poissons Ratio (x) = 0.11899 0.10701
# Poissons Ratio (y) = 0.12781 0.32623
# Poissons Ratio (z) = 0.13314 0.37790
#
# Static dielectric constant tensor:
#      x y z
#    x 2.143820 0.000000 0.071730 
#    y 0.000000 2.251570 0.000000 
#    z 0.071730 0.000000 2.025080 
# 
# From -- ./inp_files/57832.got.cif
#   From: 2010.05.17/outbox.cif.g08.bks.cpg/sg14_29_cif.got.tgz:57832.got - 2010.06.03 17:49:19.
