data_PCOD9240259
_publ_section_title
;
Structure prediction by ZEFSAII (Michael W. Deem and Ramdas Pophale) SiO2 
 PCOD9240259
Probable space group: P 21/C
;
_chemical_formula_sum "Si O2"
_cell_formula_units_Z 26
_cell_length_a 6.464909
_cell_length_b 14.514928
_cell_length_c 12.646461
_cell_angle_alpha 90.000000
_cell_angle_beta 62.581738
_cell_angle_gamma 90.000000
_cell_volume 1053.409420
_symmetry_space_group_name_H-M "P 21/C"
_symmetry_group_IT_number 14
_symmetry_cell_setting 'monoclinic'
loop_
_space_group_symop_operation_xyz
x,y,z
-x,1/2+y,1/2-z
-x,-y,-z
x,1/2-y,1/2+z
loop_
_atom_site_type_symbol
_atom_site_label
_atom_site_fract_x
_atom_site_fract_y
_atom_site_fract_z
Si Si1 0.087777 0.884040 0.091815
Si Si2 0.670834 0.095915 0.260995
Si Si3 0.185761 0.419120 0.537238
Si Si4 0.000000 0.000000 0.500000
Si Si5 0.361943 0.208579 0.168108
Si Si6 0.748029 0.586999 0.850057
Si Si7 0.871473 0.315627 0.908868
O O1 0.188793 0.785765 0.036066
O O2 0.997766 0.894613 0.232224
O O3 0.856304 0.893235 0.073574
O O4 0.243725 0.973230 0.031490
O O5 0.928570 0.086939 0.150622
O O6 0.519494 0.151236 0.212980
O O7 0.688471 0.153609 0.363984
O O8 0.612662 0.992827 0.315318
O O9 0.336418 0.348686 0.566325
O O10 0.172398 0.047106 0.555398
O O11 0.924738 0.103279 0.477391
O O12 0.387714 0.316578 0.132782
O O13 0.111757 0.201483 0.287514
#
# Coordination Sequence:
#
# PCOD9240259 Si02
#       7
#     4   4   4   2   4   4   4
#     4   9  17  34  54  78 107 140 179 221 278 331
#     4   9  19  35  52  80 109 136 183 228 267 327
#     4   9  18  33  55  77 104 139 178 225 271 324
#     4  10  18  36  58  80 108 146 190 230 270 324
#     4  10  19  35  56  80 112 149 181 223 283 333
#     4   9  19  34  56  80 111 148 183 229 280 332
#     4   9  19  34  55  78 110 148 181 226 277 326
#
# _framework density 24.681761999999999
#
# number of rings (size 3 to 8) (size 9 to 14) (size 15 to 20)
#    0.000    2.769    0.000    1.846    0.000    1.231 
#    0.000   19.231    0.000    0.000    0.000    0.000 
#    0.000    0.000    0.000    0.000    0.000    0.000 
#
# Total GULP energy -144775.251367 kJ/mol
# GULP energy per Si atom -5568.278899 kJ/mol
# Density = 2.462559 g / cm^3
# Si number density = 24.681762 Si / 1000 Ang^3
#
#
#
# Elastic Constant Matrix: (Units=GPa)
#
#
# Indices 1 2 3 4 5 6 
#
# 1 78.5094 84.5132 45.5999 0.0000 21.3507 0.0000
# 2 84.5132 293.2370 59.9241 0.0000 43.5026 0.0000
# 3 45.5999 59.9241 86.7126 0.0000 31.8544 0.0000
# 4 0.0000 0.0000 0.0000 35.7699 0.0000 -2.4969
# 5 21.3507 43.5026 31.8544 0.0000 34.6902 0.0000
# 6 0.0000 0.0000 0.0000 -2.4969 0.0000 21.0619
#
#
#
# Elastic Compliance Matrix: (Units=1/GPa)
#
#
# Indices 1 2 3 4 5 6 
#
# 1 0.023055 -0.004845 -0.008745 0.000000 -0.000083 0.000000
# 2 -0.004845 0.005333 0.000338 0.000000 -0.004016 0.000000
# 3 -0.008745 0.000338 0.021241 0.000000 -0.014546 0.000000
# 4 0.000000 0.000000 0.000000 0.028190 0.000000 0.003342
# 5 -0.000083 -0.004016 -0.014546 0.000000 0.047271 0.000000
# 6 0.000000 0.000000 0.000000 0.003342 0.000000 0.047875
#
#
# Mechanical properties :
#
#
# Convention : Reuss Voigt Hill
#
# Bulk Modulus (GPa) = 43.24392 93.17036 68.20714
# Shear Modulus (GPa) = 24.13363 36.19920 30.16642
#
# Velocity S-wave (km/s) = 3.13036 3.83383 3.49981
# Velocity P-wave (km/s) = 5.53391 7.57814 6.63522
#
# Compressibility (1/GPa) = 0.02312464
#
# Stress axis : x y z
#
# Youngs Moduli (GPa) = 43.37451 187.49522 47.07781
#
# Poissons Ratio (x) = 0.90845 0.41170
# Poissons Ratio (y) = 0.21016 -0.01589
# Poissons Ratio (z) = 0.37931 -0.06329
#
# Static dielectric constant tensor:
#      x y z
#    x 1.997680 0.000000 -0.091780 
#    y 0.000000 1.972380 0.000000 
#    z -0.091780 0.000000 2.012420 
# 
# From -- ./inp_files/37350.got.cif
#   From: 2010.05.17/outbox.cif.g08.bks.cpg/sg14_19_cif.got.tgz:37350.got - 2010.06.03 17:49:19.
