data_PCOD9240214
_publ_section_title
;
Structure prediction by ZEFSAII (Michael W. Deem and Ramdas Pophale) SiO2 
 PCOD9240214
Probable space group: P 21/C
;
_chemical_formula_sum "Si O2"
_cell_formula_units_Z 20
_cell_length_a 21.512677
_cell_length_b 7.393090
_cell_length_c 5.465709
_cell_angle_alpha 90.000000
_cell_angle_beta 109.009780
_cell_angle_gamma 90.000000
_cell_volume 821.885821
_symmetry_space_group_name_H-M "P 21/C"
_symmetry_group_IT_number 14
_symmetry_cell_setting 'monoclinic'
loop_
_space_group_symop_operation_xyz
x,y,z
-x,1/2+y,1/2-z
-x,-y,-z
x,1/2-y,1/2+z
loop_
_atom_site_type_symbol
_atom_site_label
_atom_site_fract_x
_atom_site_fract_y
_atom_site_fract_z
Si Si1 0.624982 0.947864 0.585071
Si Si2 0.773405 0.019956 0.885753
Si Si3 0.177586 0.918940 0.551351
Si Si4 0.574651 0.966215 0.020295
Si Si5 0.025887 0.825031 0.400035
O O1 0.617215 0.033339 0.306322
O O2 0.593967 0.746648 0.519975
O O3 0.700940 0.943604 0.756530
O O4 0.588342 0.041357 0.766602
O O5 0.775688 0.240922 0.901329
O O6 0.814784 0.978925 0.694819
O O7 0.803221 0.967290 0.185628
O O8 0.104882 0.839714 0.492006
O O9 0.500000 0.000000 0.000000
O O10 0.004831 0.812231 0.090505
O O11 0.000000 0.000000 0.500000
#
# Coordination Sequence:
#
# PCOD9240214 Si02
#       5
#     4   4   4   4   4
#     4  10  21  37  60  87 114 157 207 253 311 391
#     4  10  18  35  63  85 117 156 217 256 318 382
#     4  10  19  37  61  90 120 170 210 265 326 388
#     4  10  21  40  59  82 123 156 194 257 325 383
#     4  12  23  43  72 102 145 187 242 289 345 421
#
# _framework density 24.33428
#
# number of rings (size 3 to 8) (size 9 to 14) (size 15 to 20)
#    0.000    1.600    4.000    2.400    0.000    0.000 
#    0.000   24.000   26.400    0.000    0.000    0.000 
#    0.000    0.000    0.000    0.000    0.000    0.000 
#
# Total GULP energy -111609.638283 kJ/mol
# GULP energy per Si atom -5580.481914 kJ/mol
# Density = 2.427889 g / cm^3
# Si number density = 24.334280 Si / 1000 Ang^3
#
#
#
# Elastic Constant Matrix: (Units=GPa)
#
#
# Indices 1 2 3 4 5 6 
#
# 1 162.0094 -17.2607 -95.7614 0.0000 89.3411 0.0000
# 2 -17.2607 93.8088 5.2193 0.0000 -26.6706 0.0000
# 3 -95.7614 5.2193 157.7898 0.0000 -115.7977 0.0000
# 4 0.0000 0.0000 0.0000 7.9923 0.0000 17.0572
# 5 89.3411 -26.6706 -115.7977 0.0000 164.2439 0.0000
# 6 0.0000 0.0000 0.0000 17.0572 0.0000 48.8662
#
#
#
# Elastic Compliance Matrix: (Units=1/GPa)
#
#
# Indices 1 2 3 4 5 6 
#
# 1 0.010157 0.001003 0.004550 0.000000 -0.002154 0.000000
# 2 0.001003 0.011586 0.002499 0.000000 0.003097 0.000000
# 3 0.004550 0.002499 0.015536 0.000000 0.008884 0.000000
# 4 0.000000 0.000000 0.000000 0.490608 0.000000 -0.171251
# 5 -0.002154 0.003097 0.008884 0.000000 0.014027 0.000000
# 6 0.000000 0.000000 0.000000 -0.171251 0.000000 0.080241
#
#
# Mechanical properties :
#
#
# Convention : Reuss Voigt Hill
#
# Bulk Modulus (GPa) = 18.73236 22.00028 20.36632
# Shear Modulus (GPa) = 8.01482 78.98120 43.49801
#
# Velocity S-wave (km/s) = 1.81681 5.70326 4.23249
# Velocity P-wave (km/s) = 3.48076 7.24086 5.68092
#
# Compressibility (1/GPa) = 0.05338356
#
# Stress axis : x y z
#
# Youngs Moduli (GPa) = 98.45767 86.30984 64.36534
#
# Poissons Ratio (x) = -0.08660 -0.29288
# Poissons Ratio (y) = -0.09878 -0.16083
# Poissons Ratio (z) = -0.44800 -0.21566
#
# Static dielectric constant tensor:
#      x y z
#    x 1.861640 0.000000 -0.042770 
#    y 0.000000 1.987190 0.000000 
#    z -0.042770 0.000000 2.198400 
# 
# From -- ./inp_files/4039.got.cif
#   From: 2010.05.17/outbox.cif.g08.bks.cpg/sg14_3_cif.got.tgz:4039.got - 2010.06.03 17:49:19.
