data_PCOD9240703
_publ_section_title
;
Structure prediction by ZEFSAII (Michael W. Deem and Ramdas Pophale) SiO2 
 PCOD9240703
Probable space group: P 21/C
;
_chemical_formula_sum "Si O2"
_cell_formula_units_Z 28
_cell_length_a 18.583182
_cell_length_b 10.437605
_cell_length_c 8.228930
_cell_angle_alpha 90.000000
_cell_angle_beta 78.695029
_cell_angle_gamma 90.000000
_cell_volume 1565.147082
_symmetry_space_group_name_H-M "P 21/C"
_symmetry_group_IT_number 14
_symmetry_cell_setting 'monoclinic'
loop_
_space_group_symop_operation_xyz
x,y,z
-x,1/2+y,1/2-z
-x,-y,-z
x,1/2-y,1/2+z
loop_
_atom_site_type_symbol
_atom_site_label
_atom_site_fract_x
_atom_site_fract_y
_atom_site_fract_z
Si Si1 0.503010 0.825762 0.873278
Si Si2 0.137490 0.077274 0.688515
Si Si3 0.563424 0.405299 0.910793
Si Si4 0.941144 0.808609 0.584754
Si Si5 0.689749 0.912871 0.352006
Si Si6 0.023874 0.893498 0.859375
Si Si7 0.613485 0.820758 0.079115
O O1 0.450832 0.901746 0.775434
O O2 0.554495 0.742180 0.728798
O O3 0.453422 0.730579 0.001384
O O4 0.563090 0.890367 0.965335
O O5 0.107676 0.192886 0.817822
O O6 0.105227 0.111517 0.525086
O O7 0.224753 0.075142 0.653819
O O8 0.102653 0.943445 0.765192
O O9 0.641253 0.464324 0.921707
O O10 0.500000 0.500000 0.000000
O O11 0.972535 0.888363 0.722118
O O12 0.008486 0.740922 0.456810
O O13 0.670940 0.891268 0.169727
O O14 0.656319 0.792584 0.466089
O O15 0.000000 0.000000 0.000000
#
# Coordination Sequence:
#
# PCOD9240703 Si02
#       7
#     4   4   4   4   4   4   4
#     4   9  18  33  50  73  93 126 182 216 239 309
#     4  10  19  32  51  81 110 133 171 212 266 307
#     4  11  19  35  53  70 100 134 175 216 255 302
#     4   9  18  34  56  78 106 138 168 221 245 297
#     4  11  20  32  51  77 109 132 162 223 268 294
#     4   9  18  33  56  79 102 136 176 199 251 319
#     4   9  17  31  50  75  96 126 175 213 257 301
#
# _framework density 17.889692
#
# number of rings (size 3 to 8) (size 9 to 14) (size 15 to 20)
#    0.000    2.286    4.286    1.286    0.000    0.571 
#    0.000    1.429    0.000    0.000    0.000    0.000 
#    0.000    0.000    0.000    0.000    0.000    0.000 
#
# Total GULP energy -155932.673475 kJ/mol
# GULP energy per Si atom -5569.024053 kJ/mol
# Density = 1.784897 g / cm^3
# Si number density = 17.889692 Si / 1000 Ang^3
#
#
#
# Elastic Constant Matrix: (Units=GPa)
#
#
# Indices 1 2 3 4 5 6 
#
# 1 128.0610 46.6411 46.8194 0.0000 -6.4580 0.0000
# 2 46.6411 42.6817 30.1652 0.0000 7.0959 0.0000
# 3 46.8194 30.1652 99.8246 0.0000 17.6847 0.0000
# 4 0.0000 0.0000 0.0000 34.9872 0.0000 3.7249
# 5 -6.4580 7.0959 17.6847 0.0000 25.2884 0.0000
# 6 0.0000 0.0000 0.0000 3.7249 0.0000 20.7213
#
#
#
# Elastic Compliance Matrix: (Units=1/GPa)
#
#
# Indices 1 2 3 4 5 6 
#
# 1 0.016029 -0.016141 -0.004758 0.000000 0.011950 0.000000
# 2 -0.016141 0.046168 -0.003830 0.000000 -0.014398 0.000000
# 3 -0.004758 -0.003830 0.015331 0.000000 -0.010861 0.000000
# 4 0.000000 0.000000 0.000000 0.029140 0.000000 -0.005238
# 5 0.011950 -0.014398 -0.010861 0.000000 0.054231 0.000000
# 6 0.000000 0.000000 0.000000 -0.005238 0.000000 0.049201
#
#
# Mechanical properties :
#
#
# Convention : Reuss Voigt Hill
#
# Bulk Modulus (GPa) = 35.62398 57.53543 46.57971
# Shear Modulus (GPa) = 18.59338 25.99547 22.29442
#
# Velocity S-wave (km/s) = 3.22737 3.81609 3.53401
# Velocity P-wave (km/s) = 5.81758 7.18664 6.53804
#
# Compressibility (1/GPa) = 0.02807098
#
# Stress axis : x y z
#
# Youngs Moduli (GPa) = 62.38568 21.66017 65.22930
#
# Poissons Ratio (x) = 0.34961 0.31034
# Poissons Ratio (y) = 1.00694 0.24984
# Poissons Ratio (z) = 0.29681 0.08296
#
# Static dielectric constant tensor:
#      x y z
#    x 1.584510 0.000000 0.014880 
#    y 0.000000 1.653670 0.000000 
#    z 0.014880 0.000000 1.658070 
# 
# From -- ./inp_files/17675.got.cif
#   From: 2010.05.17/outbox.cif.g08.bks.cpg/sg14_9_cif.got.tgz:17675.got - 2010.06.03 17:49:19.
