data_PCOD9240740
_publ_section_title
;
Structure prediction by ZEFSAII (Michael W. Deem and Ramdas Pophale) SiO2 
 PCOD9240740
Probable space group: P 21/C
;
_chemical_formula_sum "Si O2"
_cell_formula_units_Z 32
_cell_length_a 14.458415
_cell_length_b 8.905859
_cell_length_c 18.405958
_cell_angle_alpha 90.000000
_cell_angle_beta 139.594026
_cell_angle_gamma 90.000000
_cell_volume 1536.255623
_symmetry_space_group_name_H-M "P 21/C"
_symmetry_group_IT_number 14
_symmetry_cell_setting 'monoclinic'
loop_
_space_group_symop_operation_xyz
x,y,z
-x,1/2+y,1/2-z
-x,-y,-z
x,1/2-y,1/2+z
loop_
_atom_site_type_symbol
_atom_site_label
_atom_site_fract_x
_atom_site_fract_y
_atom_site_fract_z
Si Si1 0.797446 0.364108 0.621984
Si Si2 0.954252 0.072976 0.680597
Si Si3 0.373064 0.325900 0.722566
Si Si4 0.579280 0.086522 0.640629
Si Si5 0.586129 0.059084 0.877634
Si Si6 0.283898 0.116119 0.396809
Si Si7 0.840018 0.672202 0.804225
Si Si8 0.653736 0.108179 0.184741
O O1 0.893220 0.216451 0.685443
O O2 0.717879 0.366722 0.497816
O O3 0.680271 0.367305 0.615399
O O4 0.904758 0.502720 0.698220
O O5 0.001040 0.135119 0.629104
O O6 0.834666 0.944258 0.618299
O O7 0.441112 0.441612 0.821723
O O8 0.480231 0.184348 0.779628
O O9 0.363035 0.428787 0.645983
O O10 0.221312 0.271106 0.665691
O O11 0.428923 0.154630 0.525038
O O12 0.660173 0.227319 0.724243
O O13 0.667185 0.022693 0.625082
O O14 0.489762 0.976364 0.880274
O O15 0.229196 0.242525 0.307913
O O16 0.775191 0.508299 0.779930
#
# Coordination Sequence:
#
# PCOD9240740 Si02
#       8
#     4   4   4   4   4   4   4   4
#     4  11  23  36  61  92 122 159 205 254 315 372
#     4  11  20  37  55  86 125 160 195 249 308 370
#     4  10  22  41  58  87 124 163 211 252 310 369
#     4  10  20  32  59  88 117 152 194 261 316 364
#     4  11  23  40  60  89 122 165 208 262 313 369
#     4  10  19  32  53  86 121 152 196 249 319 364
#     4   9  21  35  55  84 123 160 205 250 300 372
#     4  10  21  34  60  90 120 149 198 267 321 359
#
# _framework density 20.829867
#
# number of rings (size 3 to 8) (size 9 to 14) (size 15 to 20)
#    0.000    1.750    2.500    1.875    8.750    0.000 
#    0.000    0.625    0.000    1.500    0.000   15.750 
#    0.000    0.000    0.000    0.000    0.000    0.000 
#
# Total GULP energy -178325.169095 kJ/mol
# GULP energy per Si atom -5572.661534 kJ/mol
# Density = 2.078246 g / cm^3
# Si number density = 20.829867 Si / 1000 Ang^3
#
#
#
# Elastic Constant Matrix: (Units=GPa)
#
#
# Indices 1 2 3 4 5 6 
#
# 1 118.6724 31.9424 20.5068 0.0000 15.9105 0.0000
# 2 31.9424 98.8348 3.3240 0.0000 2.0152 0.0000
# 3 20.5068 3.3240 13.9433 0.0000 7.8337 0.0000
# 4 0.0000 0.0000 0.0000 6.3176 0.0000 5.5401
# 5 15.9105 2.0152 7.8337 0.0000 17.9396 0.0000
# 6 0.0000 0.0000 0.0000 5.5401 0.0000 41.5785
#
#
#
# Elastic Compliance Matrix: (Units=1/GPa)
#
#
# Indices 1 2 3 4 5 6 
#
# 1 0.012555 -0.003458 -0.015375 0.000000 -0.004033 0.000000
# 2 -0.003458 0.011152 0.001866 0.000000 0.001000 0.000000
# 3 -0.015375 0.001866 0.114412 0.000000 -0.036534 0.000000
# 4 0.000000 0.000000 0.000000 0.179231 0.000000 -0.023882
# 5 -0.004033 0.001000 -0.036534 0.000000 0.075160 0.000000
# 6 0.000000 0.000000 0.000000 -0.023882 0.000000 0.027233
#
#
# Mechanical properties :
#
#
# Convention : Reuss Voigt Hill
#
# Bulk Modulus (GPa) = 9.59828 38.11076 23.85452
# Shear Modulus (GPa) = 10.23738 24.87895 17.55816
#
# Velocity S-wave (km/s) = 2.21933 3.45974 2.90648
# Velocity P-wave (km/s) = 3.34443 5.85625 4.76869
#
# Compressibility (1/GPa) = 0.10418531
#
# Stress axis : x y z
#
# Youngs Moduli (GPa) = 79.65053 89.66644 8.74034
#
# Poissons Ratio (x) = 0.31009 0.13438
# Poissons Ratio (y) = 0.27546 -0.01631
# Poissons Ratio (z) = 1.22460 -0.16732
#
# Static dielectric constant tensor:
#      x y z
#    x 1.803000 0.000000 0.002210 
#    y 0.000000 1.758040 0.000000 
#    z 0.002210 0.000000 1.729940 
# 
# From -- ./inp_files/68101.got.cif
#   From: 2010.05.17/outbox.cif.g08.bks.cpg/sg14_35_cif.got.tgz:68101.got - 2010.06.03 17:49:19.
