data_PCOD9240829
_publ_section_title
;
Structure prediction by ZEFSAII (Michael W. Deem and Ramdas Pophale) SiO2 
 PCOD9240829
Probable space group: P 21/C
;
_chemical_formula_sum "Si O2"
_cell_formula_units_Z 24
_cell_length_a 15.821048
_cell_length_b 4.965105
_cell_length_c 15.612996
_cell_angle_alpha 90.000000
_cell_angle_beta 77.644642
_cell_angle_gamma 90.000000
_cell_volume 1198.044789
_symmetry_space_group_name_H-M "P 21/C"
_symmetry_group_IT_number 14
_symmetry_cell_setting 'monoclinic'
loop_
_space_group_symop_operation_xyz
x,y,z
-x,1/2+y,1/2-z
-x,-y,-z
x,1/2-y,1/2+z
loop_
_atom_site_type_symbol
_atom_site_label
_atom_site_fract_x
_atom_site_fract_y
_atom_site_fract_z
Si Si1 0.219597 0.116491 0.264560
Si Si2 0.409759 0.763225 0.835400
Si Si3 0.596843 0.760433 0.784136
Si Si4 0.054796 0.752409 0.021376
Si Si5 0.047585 0.547971 0.712682
Si Si6 0.773083 0.120402 0.115305
O O1 0.308919 0.189659 0.196597
O O2 0.211310 0.329013 0.345104
O O3 0.134483 0.097064 0.226144
O O4 0.228588 0.824268 0.304465
O O5 0.506043 0.804005 0.852408
O O6 0.404025 0.462786 0.798017
O O7 0.322999 0.845478 0.904342
O O8 0.406040 0.961933 0.754005
O O9 0.058350 0.791139 0.122236
O O10 0.150511 0.781959 0.962113
O O11 0.000000 0.500000 0.000000
O O12 0.000000 0.000000 0.000000
O O13 0.982120 0.293445 0.718565
#
# Coordination Sequence:
#
# PCOD9240829 Si02
#       6
#     4   4   4   4   4   4
#     4  10  19  33  53  76 103 134 171 213 257 304
#     4   8  14  25  44  71  99 127 162 205 248 294
#     4   8  14  25  44  71  99 127 162 205 248 294
#     4  12  24  38  55  76 104 138 177 218 263 312
#     4  12  24  38  55  76 104 138 177 218 263 312
#     4  10  19  33  53  76 103 134 171 213 257 304
#
# _framework density 20.032637999999999
#
# number of rings (size 3 to 8) (size 9 to 14) (size 15 to 20)
#    0.000    2.000    0.000    6.000    0.000    0.000 
#    0.000    0.000    0.000    1.000    0.000    0.000 
#    0.000   32.000    0.000    0.000    0.000    7.500 
#
# Total GULP energy -133683.016260 kJ/mol
# GULP energy per Si atom -5570.125678 kJ/mol
# Density = 1.998704 g / cm^3
# Si number density = 20.032638 Si / 1000 Ang^3
#
#
#
# Elastic Constant Matrix: (Units=GPa)
#
#
# Indices 1 2 3 4 5 6 
#
# 1 167.6387 26.2441 49.1344 0.0000 -44.5353 0.0000
# 2 26.2441 108.8485 9.8473 0.0000 -5.5996 0.0000
# 3 49.1344 9.8473 47.4695 0.0000 -18.8457 0.0000
# 4 0.0000 0.0000 0.0000 5.7756 0.0000 -4.0145
# 5 -44.5353 -5.5996 -18.8457 0.0000 29.7337 0.0000
# 6 0.0000 0.0000 0.0000 -4.0145 0.0000 29.1002
#
#
#
# Elastic Compliance Matrix: (Units=1/GPa)
#
#
# Indices 1 2 3 4 5 6 
#
# 1 0.011527 -0.001529 -0.006513 0.000000 0.012849 0.000000
# 2 -0.001529 0.009577 -0.000798 0.000000 -0.000992 0.000000
# 3 -0.006513 -0.000798 0.032124 0.000000 0.010455 0.000000
# 4 0.000000 0.000000 0.000000 0.191503 0.000000 0.026418
# 5 0.012849 -0.000992 0.010455 0.000000 0.059318 0.000000
# 6 0.000000 0.000000 0.000000 0.026418 0.000000 0.038008
#
#
# Mechanical properties :
#
#
# Convention : Reuss Voigt Hill
#
# Bulk Modulus (GPa) = 28.13101 54.93425 41.53263
# Shear Modulus (GPa) = 13.45582 28.83731 21.14656
#
# Velocity S-wave (km/s) = 2.59452 3.79821 3.25253
# Velocity P-wave (km/s) = 4.80088 6.83499 5.90616
#
# Compressibility (1/GPa) = 0.03554796
#
# Stress axis : x y z
#
# Youngs Moduli (GPa) = 86.75196 104.41809 31.12955
#
# Poissons Ratio (x) = 0.15966 0.20274
# Poissons Ratio (y) = 0.13265 0.02484
# Poissons Ratio (z) = 0.56501 0.08333
#
# Static dielectric constant tensor:
#      x y z
#    x 1.831270 0.000000 -0.077640 
#    y 0.000000 1.687310 0.000000 
#    z -0.077640 0.000000 1.730150 
# 
# From -- ./inp_files/47802.got.cif
#   From: 2010.05.17/outbox.cif.g08.bks.cpg/sg14_24_cif.got.tgz:47802.got - 2010.06.03 17:49:19.
