data_PCOD9240909
_publ_section_title
;
Structure prediction by ZEFSAII (Michael W. Deem and Ramdas Pophale) SiO2 
 PCOD9240909
Probable space group: P 21/C
;
_chemical_formula_sum "Si O2"
_cell_formula_units_Z 28
_cell_length_a 8.287275
_cell_length_b 27.253688
_cell_length_c 5.451911
_cell_angle_alpha 90.000000
_cell_angle_beta 67.927004
_cell_angle_gamma 90.000000
_cell_volume 1141.110471
_symmetry_space_group_name_H-M "P 21/C"
_symmetry_group_IT_number 14
_symmetry_cell_setting 'monoclinic'
loop_
_space_group_symop_operation_xyz
x,y,z
-x,1/2+y,1/2-z
-x,-y,-z
x,1/2-y,1/2+z
loop_
_atom_site_type_symbol
_atom_site_label
_atom_site_fract_x
_atom_site_fract_y
_atom_site_fract_z
Si Si1 0.968849 0.467609 0.271447
Si Si2 0.606849 0.264814 0.835700
Si Si3 0.835208 0.617836 0.586085
Si Si4 0.464653 0.622460 0.063924
Si Si5 0.799666 0.773001 0.960848
Si Si6 0.636265 0.036153 0.684431
Si Si7 0.657294 0.564043 0.315371
O O1 0.061642 0.415674 0.279293
O O2 0.000000 0.500000 0.500000
O O3 0.768349 0.454628 0.331926
O O4 0.000000 0.500000 0.000000
O O5 0.693930 0.258094 0.523734
O O6 0.599296 0.322578 0.891383
O O7 0.414086 0.237393 0.924941
O O8 0.639215 0.622684 0.801194
O O9 0.871428 0.673990 0.500765
O O10 0.827437 0.587453 0.335381
O O11 0.344480 0.578850 0.025996
O O12 0.536476 0.607099 0.287262
O O13 0.855615 0.762364 0.651091
O O14 0.664475 0.978564 0.604586
O O15 0.442154 0.039176 0.901302
#
# Coordination Sequence:
#
# PCOD9240909 Si02
#       7
#     4   4   4   4   4   4   4
#     4  12  27  45  63  87 130 170 215 255 311 376
#     4  10  19  34  55  90 124 148 195 257 310 362
#     4  11  22  36  64  93 119 169 206 260 315 368
#     4  11  21  34  64  91 123 161 204 260 320 364
#     4  10  19  33  57  90 123 147 203 260 307 357
#     4  10  23  38  57  89 127 164 206 254 304 376
#     4  10  20  37  60  89 125 157 211 252 312 364
#
# _framework density 24.537502
#
# number of rings (size 3 to 8) (size 9 to 14) (size 15 to 20)
#    0.000    1.429    4.286    3.000    4.000    0.000 
#    0.000    0.000    0.000    1.714    0.000    0.000 
#    0.000    0.000    0.000    0.000    0.000    0.000 
#
# Total GULP energy -156073.938301 kJ/mol
# GULP energy per Si atom -5574.069225 kJ/mol
# Density = 2.448165 g / cm^3
# Si number density = 24.537502 Si / 1000 Ang^3
#
#
#
# Elastic Constant Matrix: (Units=GPa)
#
#
# Indices 1 2 3 4 5 6 
#
# 1 51.7227 14.3062 15.0384 0.0000 22.5698 0.0000
# 2 14.3062 109.3734 8.5855 0.0000 8.9009 0.0000
# 3 15.0384 8.5855 109.0863 0.0000 37.2831 0.0000
# 4 0.0000 0.0000 0.0000 38.1191 0.0000 14.1199
# 5 22.5698 8.9009 37.2831 0.0000 23.1000 0.0000
# 6 0.0000 0.0000 0.0000 14.1199 0.0000 18.3584
#
#
#
# Elastic Compliance Matrix: (Units=1/GPa)
#
#
# Indices 1 2 3 4 5 6 
#
# 1 0.049437 -0.001447 0.021447 0.000000 -0.082360 0.000000
# 2 -0.001447 0.009543 0.000495 0.000000 -0.003061 0.000000
# 3 0.021447 0.000495 0.029882 0.000000 -0.069375 0.000000
# 4 0.000000 0.000000 0.000000 0.036685 0.000000 -0.028215
# 5 -0.082360 -0.003061 -0.069375 0.000000 0.236908 0.000000
# 6 0.000000 0.000000 0.000000 -0.028215 0.000000 0.076172
#
#
# Mechanical properties :
#
#
# Convention : Reuss Voigt Hill
#
# Bulk Modulus (GPa) = 7.70113 38.44919 23.07516
# Shear Modulus (GPa) = 11.33989 31.39900 21.36945
#
# Velocity S-wave (km/s) = 2.15209 3.58108 2.95428
# Velocity P-wave (km/s) = 3.05297 5.72734 4.58928
#
# Compressibility (1/GPa) = 0.12985100
#
# Stress axis : x y z
#
# Youngs Moduli (GPa) = 20.22769 104.79309 33.46498
#
# Poissons Ratio (x) = 0.15169 -0.71773
# Poissons Ratio (y) = 0.02928 -0.01656
# Poissons Ratio (z) = -0.43383 -0.05185
#
# Static dielectric constant tensor:
#      x y z
#    x 2.060590 0.000000 -0.090100 
#    y 0.000000 1.994860 0.000000 
#    z -0.090100 0.000000 2.092600 
# 
# From -- ./inp_files/1886.got.cif
#   From: 2010.05.17/outbox.cif.g08.bks.cpg/sg14_1_cif.got.tgz:1886.got - 2010.06.03 17:49:19.
