data_PCOD9240335
_publ_section_title
;
Structure prediction by ZEFSAII (Michael W. Deem and Ramdas Pophale) SiO2 
 PCOD9240335
Probable space group: P 21/C
;
_chemical_formula_sum "Si O2"
_cell_formula_units_Z 22
_cell_length_a 9.271576
_cell_length_b 8.533618
_cell_length_c 19.718531
_cell_angle_alpha 90.000000
_cell_angle_beta 142.560537
_cell_angle_gamma 90.000000
_cell_volume 948.439843
_symmetry_space_group_name_H-M "P 21/C"
_symmetry_group_IT_number 14
_symmetry_cell_setting 'monoclinic'
loop_
_space_group_symop_operation_xyz
x,y,z
-x,1/2+y,1/2-z
-x,-y,-z
x,1/2-y,1/2+z
loop_
_atom_site_type_symbol
_atom_site_label
_atom_site_fract_x
_atom_site_fract_y
_atom_site_fract_z
Si Si1 0.786906 0.555899 0.308603
Si Si2 0.202794 0.676735 0.811007
Si Si3 0.532093 0.645108 0.734985
Si Si4 0.712871 0.792248 0.453299
Si Si5 0.959052 0.023610 0.328726
Si Si6 0.000000 0.000000 0.000000
O O1 0.831209 0.460119 0.258385
O O2 0.726785 0.434799 0.351936
O O3 0.575492 0.681033 0.223370
O O4 0.995820 0.631338 0.429557
O O5 0.483357 0.711806 0.916866
O O6 0.092349 0.613735 0.838699
O O7 0.073510 0.829101 0.733515
O O8 0.609115 0.653175 0.842192
O O9 0.700786 0.532335 0.756080
O O10 0.896689 0.914271 0.553301
O O11 0.837370 0.627978 0.487695
#
# Coordination Sequence:
#
# PCOD9240335 Si02
#       6
#     4   4   4   4   4   2
#     4  10  20  38  60  93 124 160 214 262 317 375
#     4  11  24  41  63  92 129 171 210 255 324 384
#     4  10  21  37  64  93 120 166 212 267 316 370
#     4  10  22  39  66  95 125 161 219 261 317 378
#     4  12  22  42  63  88 132 169 208 265 317 381
#     4  10  18  36  66  92 124 160 210 276 308 368
#
# _framework density 23.195989999999998
#
# number of rings (size 3 to 8) (size 9 to 14) (size 15 to 20)
#    0.000    1.455    1.818    5.455    0.000    0.000 
#    3.273    0.909    0.000    0.000    0.000    0.000 
#    0.000    0.000    0.000    0.000    0.000    0.000 
#
# Total GULP energy -122630.431224 kJ/mol
# GULP energy per Si atom -5574.110510 kJ/mol
# Density = 2.314319 g / cm^3
# Si number density = 23.195990 Si / 1000 Ang^3
#
#
#
# Elastic Constant Matrix: (Units=GPa)
#
#
# Indices 1 2 3 4 5 6 
#
# 1 110.4760 27.1947 29.6865 0.0000 14.5720 0.0000
# 2 27.1947 66.7630 28.6080 0.0000 5.1348 0.0000
# 3 29.6865 28.6080 82.8072 0.0000 25.0156 0.0000
# 4 0.0000 0.0000 0.0000 38.2217 0.0000 3.2784
# 5 14.5720 5.1348 25.0156 0.0000 19.8450 0.0000
# 6 0.0000 0.0000 0.0000 3.2784 0.0000 59.8492
#
#
#
# Elastic Compliance Matrix: (Units=1/GPa)
#
#
# Indices 1 2 3 4 5 6 
#
# 1 0.010974 -0.003641 -0.000851 0.000000 -0.006044 0.000000
# 2 -0.003641 0.019104 -0.007444 0.000000 0.007113 0.000000
# 3 -0.000851 -0.007444 0.022904 0.000000 -0.026322 0.000000
# 4 0.000000 0.000000 0.000000 0.026287 0.000000 -0.001440
# 5 -0.006044 0.007113 -0.026322 0.000000 0.086167 0.000000
# 6 0.000000 0.000000 0.000000 -0.001440 0.000000 0.016788
#
#
# Mechanical properties :
#
#
# Convention : Reuss Voigt Hill
#
# Bulk Modulus (GPa) = 34.34990 47.89163 41.12076
# Shear Modulus (GPa) = 23.16990 35.22031 29.19510
#
# Velocity S-wave (km/s) = 3.16393 3.90087 3.55156
# Velocity P-wave (km/s) = 5.30923 6.40159 5.88083
#
# Compressibility (1/GPa) = 0.02911216
#
# Stress axis : x y z
#
# Youngs Moduli (GPa) = 91.12739 52.34554 43.65978
#
# Poissons Ratio (x) = 0.19057 0.03713
# Poissons Ratio (y) = 0.33176 0.32499
# Poissons Ratio (z) = 0.07751 0.38964
#
# Static dielectric constant tensor:
#      x y z
#    x 1.868130 0.000000 0.032160 
#    y 0.000000 1.963200 0.000000 
#    z 0.032160 0.000000 2.032860 
# 
# From -- ./inp_files/38655.got.cif
#   From: 2010.05.17/outbox.cif.g08.bks.cpg/sg14_20_cif.got.tgz:38655.got - 2010.06.03 17:49:19.
