data_PCOD9240561
_publ_section_title
;
Structure prediction by ZEFSAII (Michael W. Deem and Ramdas Pophale) SiO2 
 PCOD9240561
Probable space group: P 21/C
;
_chemical_formula_sum "Si O2"
_cell_formula_units_Z 30
_cell_length_a 8.938045
_cell_length_b 9.017554
_cell_length_c 20.312919
_cell_angle_alpha 90.000000
_cell_angle_beta 49.712246
_cell_angle_gamma 90.000000
_cell_volume 1248.872321
_symmetry_space_group_name_H-M "P 21/C"
_symmetry_group_IT_number 14
_symmetry_cell_setting 'monoclinic'
loop_
_space_group_symop_operation_xyz
x,y,z
-x,1/2+y,1/2-z
-x,-y,-z
x,1/2-y,1/2+z
loop_
_atom_site_type_symbol
_atom_site_label
_atom_site_fract_x
_atom_site_fract_y
_atom_site_fract_z
Si Si1 0.214790 0.612258 0.328991
Si Si2 0.849151 0.913367 0.851323
Si Si3 0.444051 0.324884 0.258434
Si Si4 0.000000 0.500000 0.500000
Si Si5 0.893893 0.620484 0.185247
Si Si6 0.242168 0.663287 0.544695
Si Si7 0.796897 0.899845 0.426661
Si Si8 0.517506 0.421540 0.087935
O O1 0.335548 0.466158 0.321770
O O2 0.360642 0.745833 0.270901
O O3 0.076504 0.640249 0.430811
O O4 0.077771 0.561330 0.307413
O O5 0.839911 0.882743 0.777054
O O6 0.795492 0.771016 0.909498
O O7 0.711983 0.051013 0.909312
O O8 0.288474 0.190484 0.300704
O O9 0.483889 0.387084 0.173498
O O10 0.139497 0.560466 0.519721
O O11 0.073293 0.730673 0.120975
O O12 0.984217 0.464594 0.137032
O O13 0.402838 0.769272 0.467561
O O14 0.674882 0.967064 0.398784
O O15 0.680468 0.954539 0.524032
#
# Coordination Sequence:
#
# PCOD9240561 Si02
#       8
#     4   4   4   2   4   4   4   4
#     4  11  26  42  69  94 136 169 223 268 331 390
#     4  11  21  40  63  99 127 169 223 264 316 399
#     4  12  23  45  63  97 126 176 215 276 322 391
#     4  10  18  44  64  88 126 180 214 254 318 406
#     4  11  21  40  68  91 130 176 210 270 337 375
#     4  10  21  39  68  91 131 180 211 269 333 386
#     4  10  22  37  63  96 127 164 212 268 327 387
#     4  10  21  42  62  91 132 168 213 269 327 384
#
# _framework density 24.02167
#
# number of rings (size 3 to 8) (size 9 to 14) (size 15 to 20)
#    0.000    1.333    5.333    1.600    1.867    0.533 
#    4.800    0.667    0.000    0.000    0.000    0.000 
#    0.000    0.000    0.000    0.000    0.000    0.000 
#
# Total GULP energy -167147.437184 kJ/mol
# GULP energy per Si atom -5571.581239 kJ/mol
# Density = 2.396700 g / cm^3
# Si number density = 24.021670 Si / 1000 Ang^3
#
#
#
# Elastic Constant Matrix: (Units=GPa)
#
#
# Indices 1 2 3 4 5 6 
#
# 1 35.6680 12.6030 12.0007 0.0000 -14.8556 0.0000
# 2 12.6030 49.5541 -4.4502 0.0000 -27.3299 0.0000
# 3 12.0007 -4.4502 44.6926 0.0000 -3.0615 0.0000
# 4 0.0000 0.0000 0.0000 28.0600 0.0000 -5.4998
# 5 -14.8556 -27.3299 -3.0615 0.0000 27.3698 0.0000
# 6 0.0000 0.0000 0.0000 -5.4998 0.0000 36.5294
#
#
#
# Elastic Compliance Matrix: (Units=1/GPa)
#
#
# Indices 1 2 3 4 5 6 
#
# 1 0.039708 0.000909 -0.009103 0.000000 0.021442 0.000000
# 2 0.000909 0.047655 0.007855 0.000000 0.048958 0.000000
# 3 -0.009103 0.007855 0.026000 0.000000 0.005811 0.000000
# 4 0.000000 0.000000 0.000000 0.036722 0.000000 0.005529
# 5 0.021442 0.048958 0.005811 0.000000 0.097711 0.000000
# 6 0.000000 0.000000 0.000000 0.005529 0.000000 0.028208
#
#
# Mechanical properties :
#
#
# Convention : Reuss Voigt Hill
#
# Bulk Modulus (GPa) = 8.87428 18.91354 13.89391
# Shear Modulus (GPa) = 15.91125 25.70926 20.81025
#
# Velocity S-wave (km/s) = 2.57645 3.27502 2.94651
# Velocity P-wave (km/s) = 3.54303 4.71080 4.16802
#
# Compressibility (1/GPa) = 0.11268515
#
# Stress axis : x y z
#
# Youngs Moduli (GPa) = 25.18357 20.98413 38.46221
#
# Poissons Ratio (x) = -0.01908 0.35012
# Poissons Ratio (y) = -0.02290 -0.30211
# Poissons Ratio (z) = 0.22925 -0.16482
#
# Static dielectric constant tensor:
#      x y z
#    x 1.967040 0.000000 -0.056230 
#    y 0.000000 1.989130 0.000000 
#    z -0.056230 0.000000 2.004590 
# 
# From -- ./inp_files/73096.got.cif
#   From: 2010.05.17/outbox.cif.g08.bks.cpg/sg14_37_cif.got.tgz:73096.got - 2010.06.03 17:49:19.
