data_PCOD9240956
_publ_section_title
;
Structure prediction by ZEFSAII (Michael W. Deem and Ramdas Pophale) SiO2 
 PCOD9240956
Probable space group: P 21/C
;
_chemical_formula_sum "Si O2"
_cell_formula_units_Z 32
_cell_length_a 15.105455
_cell_length_b 14.700075
_cell_length_c 21.994994
_cell_angle_alpha 90.000000
_cell_angle_beta 20.148094
_cell_angle_gamma 90.000000
_cell_volume 1682.289311
_symmetry_space_group_name_H-M "P 21/C"
_symmetry_group_IT_number 14
_symmetry_cell_setting 'monoclinic'
loop_
_space_group_symop_operation_xyz
x,y,z
-x,1/2+y,1/2-z
-x,-y,-z
x,1/2-y,1/2+z
loop_
_atom_site_type_symbol
_atom_site_label
_atom_site_fract_x
_atom_site_fract_y
_atom_site_fract_z
Si Si1 0.729780 0.026145 0.252900
Si Si2 0.724507 0.387836 0.979050
Si Si3 0.767977 0.494089 0.064765
Si Si4 0.241059 0.581935 0.394218
Si Si5 0.007745 0.692002 0.907324
Si Si6 0.491807 0.249361 0.216525
Si Si7 0.995856 0.358702 0.680421
Si Si8 0.570290 0.125158 0.783977
O O1 0.747848 0.099209 0.185553
O O2 0.796628 0.079805 0.270683
O O3 0.469087 0.967670 0.418993
O O4 0.963542 0.955889 0.089853
O O5 0.907112 0.358197 0.806926
O O6 0.862946 0.427989 0.950084
O O7 0.570200 0.301743 0.105477
O O8 0.456994 0.503197 0.258275
O O9 0.764904 0.453051 0.134584
O O10 0.888158 0.591923 0.973452
O O11 0.343978 0.659580 0.372783
O O12 0.997938 0.759910 0.856479
O O13 0.289312 0.677755 0.752436
O O14 0.811884 0.730117 0.084802
O O15 0.543861 0.311840 0.241780
O O16 0.282307 0.400218 0.488907
#
# Coordination Sequence:
#
# PCOD9240956 Si02
#       8
#     4   4   4   4   4   4   4   4
#     4  10  19  33  62  81 110 148 193 229 284 333
#     4  10  22  38  56  83 121 149 187 230 286 349
#     4   9  18  38  57  83 107 146 189 237 280 336
#     4   9  17  32  59  86 103 136 189 242 277 319
#     4  10  21  36  60  83 111 148 194 237 286 333
#     4   9  20  35  55  85 111 139 188 243 279 323
#     4  11  22  39  52  86 119 152 185 235 285 346
#     4  10  19  35  59  78 112 146 190 238 284 331
#
# _framework density 19.021698000000001
#
# number of rings (size 3 to 8) (size 9 to 14) (size 15 to 20)
#    0.000    2.250    1.250    1.500    7.000    1.000 
#    4.500    0.625    0.000    0.000    0.000    0.000 
#    0.000    0.000    0.000    0.000    0.000    0.000 
#
# Total GULP energy -178223.664496 kJ/mol
# GULP energy per Si atom -5569.489516 kJ/mol
# Density = 1.897840 g / cm^3
# Si number density = 19.021698 Si / 1000 Ang^3
#
#
#
# Elastic Constant Matrix: (Units=GPa)
#
#
# Indices 1 2 3 4 5 6 
#
# 1 49.2102 21.7146 41.7733 0.0000 17.1180 0.0000
# 2 21.7146 75.3112 28.6278 0.0000 17.0460 0.0000
# 3 41.7733 28.6278 67.1969 0.0000 22.9244 0.0000
# 4 0.0000 0.0000 0.0000 20.7033 0.0000 -2.7062
# 5 17.1180 17.0460 22.9244 0.0000 40.9155 0.0000
# 6 0.0000 0.0000 0.0000 -2.7062 0.0000 27.7224
#
#
#
# Elastic Compliance Matrix: (Units=1/GPa)
#
#
# Indices 1 2 3 4 5 6 
#
# 1 0.043826 -0.002342 -0.025127 0.000000 -0.003281 0.000000
# 2 -0.002342 0.016382 -0.004363 0.000000 -0.003400 0.000000
# 3 -0.025127 -0.004363 0.034808 0.000000 -0.007172 0.000000
# 4 0.000000 0.000000 0.000000 0.048926 0.000000 0.004776
# 5 -0.003281 -0.003400 -0.007172 0.000000 0.031248 0.000000
# 6 0.000000 0.000000 0.000000 0.004776 0.000000 0.036538
#
#
# Mechanical properties :
#
#
# Convention : Reuss Voigt Hill
#
# Bulk Modulus (GPa) = 31.89761 41.77218 36.83489
# Shear Modulus (GPa) = 17.49216 24.50841 21.00028
#
# Velocity S-wave (km/s) = 3.03576 3.59339 3.32628
# Velocity P-wave (km/s) = 5.39382 6.26295 5.84456
#
# Compressibility (1/GPa) = 0.03135031
#
# Stress axis : x y z
#
# Youngs Moduli (GPa) = 22.81762 61.04373 28.72937
#
# Poissons Ratio (x) = 0.14297 0.72189
# Poissons Ratio (y) = 0.05344 0.12535
# Poissons Ratio (z) = 0.57334 0.26633
#
# Static dielectric constant tensor:
#      x y z
#    x 1.727030 0.000000 -0.012670 
#    y 0.000000 1.737240 0.000000 
#    z -0.012670 0.000000 1.641650 
# 
# From -- ./inp_files/68682.got.cif
#   From: 2010.05.17/outbox.cif.g08.bks.cpg/sg14_35_cif.got.tgz:68682.got - 2010.06.03 17:49:19.
