data_PCOD9240128
_publ_section_title
;
Structure prediction by ZEFSAII (Michael W. Deem and Ramdas Pophale) SiO2 
 PCOD9240128
Probable space group: P 21/C
;
_chemical_formula_sum "Si O2"
_cell_formula_units_Z 30
_cell_length_a 14.301963
_cell_length_b 7.851394
_cell_length_c 13.686757
_cell_angle_alpha 90.000000
_cell_angle_beta 134.680071
_cell_angle_gamma 90.000000
_cell_volume 1092.797040
_symmetry_space_group_name_H-M "P 21/C"
_symmetry_group_IT_number 14
_symmetry_cell_setting 'monoclinic'
loop_
_space_group_symop_operation_xyz
x,y,z
-x,1/2+y,1/2-z
-x,-y,-z
x,1/2-y,1/2+z
loop_
_atom_site_type_symbol
_atom_site_label
_atom_site_fract_x
_atom_site_fract_y
_atom_site_fract_z
Si Si1 0.756469 0.229314 0.486804
Si Si2 0.517192 0.652909 0.156255
Si Si3 0.500000 0.500000 0.500000
Si Si4 0.421059 0.284626 0.014454
Si Si5 0.221982 0.686435 0.272446
Si Si6 0.969617 0.985375 0.619521
Si Si7 0.217123 0.999380 0.135150
Si Si8 0.117948 0.166505 0.243785
O O1 0.598555 0.225241 0.363290
O O2 0.780943 0.232565 0.620785
O O3 0.817190 0.402868 0.488553
O O4 0.825982 0.064269 0.488879
O O5 0.520069 0.759767 0.054554
O O6 0.667195 0.635907 0.299253
O O7 0.474962 0.460626 0.095283
O O8 0.542871 0.598085 0.424243
O O9 0.333468 0.542364 0.354862
O O10 0.270178 0.321267 0.886075
O O11 0.068302 0.641820 0.135934
O O12 0.268089 0.836905 0.235277
O O13 0.059229 0.149678 0.689538
O O14 0.950197 0.916596 0.713742
O O15 0.115765 0.079869 0.136084
#
# Coordination Sequence:
#
# PCOD9240128 Si02
#       8
#     4   4   2   4   4   4   4   4
#     4  12  24  42  69  97 134 178 226 280 334 407
#     4  10  19  40  62  90 126 172 222 268 339 399
#     4  12  20  34  70 102 126 172 224 282 334 402
#     4  10  18  34  68  92 123 172 215 273 340 394
#     4  12  24  43  66  99 131 175 227 277 340 400
#     4  12  23  40  71  96 132 178 226 273 333 408
#     4  11  25  43  67  93 137 178 220 281 338 399
#     4  11  21  40  65  99 130 176 224 273 335 400
#
# _framework density 27.452491999999999
#
# number of rings (size 3 to 8) (size 9 to 14) (size 15 to 20)
#    0.000    0.800    8.000    0.800    0.000    2.133 
#    0.000    0.000    0.000    0.000    0.000    0.000 
#    0.000    0.000    0.000    0.000    0.000    0.000 
#
# Total GULP energy -167468.425769 kJ/mol
# GULP energy per Si atom -5582.280859 kJ/mol
# Density = 2.739001 g / cm^3
# Si number density = 27.452492 Si / 1000 Ang^3
#
#
#
# Elastic Constant Matrix: (Units=GPa)
#
#
# Indices 1 2 3 4 5 6 
#
# 1 183.4750 34.1194 29.9959 0.0000 19.8011 0.0000
# 2 34.1194 97.7354 -0.3747 0.0000 7.7298 0.0000
# 3 29.9959 -0.3747 44.3118 0.0000 7.5737 0.0000
# 4 0.0000 0.0000 0.0000 37.4972 0.0000 16.5110
# 5 19.8011 7.7298 7.5737 0.0000 39.1283 0.0000
# 6 0.0000 0.0000 0.0000 16.5110 0.0000 60.8716
#
#
#
# Elastic Compliance Matrix: (Units=1/GPa)
#
#
# Indices 1 2 3 4 5 6 
#
# 1 0.006791 -0.002215 -0.004244 0.000000 -0.002178 0.000000
# 2 -0.002215 0.011125 0.001838 0.000000 -0.001433 0.000000
# 3 -0.004244 0.001838 0.026011 0.000000 -0.003250 0.000000
# 4 0.000000 0.000000 0.000000 0.030286 0.000000 -0.008215
# 5 -0.002178 -0.001433 -0.003250 0.000000 0.027571 0.000000
# 6 0.000000 0.000000 0.000000 -0.008215 0.000000 0.018656
#
#
# Mechanical properties :
#
#
# Convention : Reuss Voigt Hill
#
# Bulk Modulus (GPa) = 28.82921 50.33373 39.58147
# Shear Modulus (GPa) = 35.39997 44.95153 40.17575
#
# Velocity S-wave (km/s) = 3.59486 4.05091 3.82968
# Velocity P-wave (km/s) = 5.26830 6.34464 5.83135
#
# Compressibility (1/GPa) = 0.03468704
#
# Stress axis : x y z
#
# Youngs Moduli (GPa) = 147.25404 89.88562 38.44529
#
# Poissons Ratio (x) = 0.19908 0.16314
# Poissons Ratio (y) = 0.32613 -0.07067
# Poissons Ratio (z) = 0.62488 -0.16523
#
# Static dielectric constant tensor:
#      x y z
#    x 2.152710 0.000000 0.001400 
#    y 0.000000 2.472870 0.000000 
#    z 0.001400 0.000000 2.240030 
# 
# From -- ./inp_files/43839.got.cif
#   From: 2010.05.17/outbox.cif.g08.bks.cpg/sg14_22_cif.got.tgz:43839.got - 2010.06.03 17:49:19.
