data_PCOD9240640
_publ_section_title
;
Structure prediction by ZEFSAII (Michael W. Deem and Ramdas Pophale) SiO2 
 PCOD9240640
Probable space group: P 21/C
;
_chemical_formula_sum "Si O2"
_cell_formula_units_Z 32
_cell_length_a 19.325258
_cell_length_b 8.002859
_cell_length_c 19.795371
_cell_angle_alpha 90.000000
_cell_angle_beta 159.369175
_cell_angle_gamma 90.000000
_cell_volume 1078.704437
_symmetry_space_group_name_H-M "P 21/C"
_symmetry_group_IT_number 14
_symmetry_cell_setting 'monoclinic'
loop_
_space_group_symop_operation_xyz
x,y,z
-x,1/2+y,1/2-z
-x,-y,-z
x,1/2-y,1/2+z
loop_
_atom_site_type_symbol
_atom_site_label
_atom_site_fract_x
_atom_site_fract_y
_atom_site_fract_z
Si Si1 0.514399 0.766694 0.284930
Si Si2 0.635747 0.562709 0.278435
Si Si3 0.174240 0.792377 0.199480
Si Si4 0.931308 0.520909 0.290791
Si Si5 0.884874 0.541983 0.770320
Si Si6 0.671274 0.407749 0.769839
Si Si7 0.902410 0.300022 0.668917
Si Si8 0.724532 0.757061 0.237771
O O1 0.651393 0.715504 0.347704
O O2 0.484976 0.622659 0.314134
O O3 0.527143 0.939171 0.338706
O O4 0.304753 0.780433 0.056575
O O5 0.847394 0.475452 0.476985
O O6 0.603484 0.626111 0.173186
O O7 0.186753 0.627846 0.257263
O O8 0.321631 0.751172 0.273817
O O9 0.195193 0.964713 0.259657
O O10 0.950229 0.778921 0.967638
O O11 0.932976 0.673268 0.238950
O O12 0.922876 0.354391 0.237400
O O13 0.895454 0.471772 0.704663
O O14 0.754893 0.687050 0.687473
O O15 0.110394 0.575559 0.998853
O O16 0.649817 0.572196 0.705865
#
# Coordination Sequence:
#
# PCOD9240640 Si02
#       8
#     4   4   4   4   4   4   4   4
#     4  11  22  33  49  74 101 131 164 200 243 290
#     4  10  21  35  48  70 100 131 166 201 239 286
#     4   7  13  26  47  73  98 123 158 198 239 283
#     4   9  18  33  51  74 101 127 158 200 243 289
#     4   8  14  27  49  74  98 123 156 198 243 290
#     4   9  15  28  51  74  94 126 164 199 239 285
#     4  10  19  31  49  77 101 125 160 198 245 296
#     4   8  14  29  51  70  92 126 163 200 239 281
#
# _framework density 29.665213999999999
#
# number of rings (size 3 to 8) (size 9 to 14) (size 15 to 20)
#    0.000    3.000    0.000    3.750    0.000    1.000 
#    0.000   11.875    0.000    1.500    0.000   12.250 
#    0.000    0.000    0.000    0.000    0.000    0.000 
#
# Total GULP energy -179223.737564 kJ/mol
# GULP energy per Si atom -5600.741799 kJ/mol
# Density = 2.959769 g / cm^3
# Si number density = 29.665214 Si / 1000 Ang^3
#
#
#
# Elastic Constant Matrix: (Units=GPa)
#
#
# Indices 1 2 3 4 5 6 
#
# 1 204.9326 19.4014 13.0431 0.0000 -20.4290 0.0000
# 2 19.4014 98.7306 -9.8668 0.0000 -7.6829 0.0000
# 3 13.0431 -9.8668 75.2514 0.0000 16.6705 0.0000
# 4 0.0000 0.0000 0.0000 40.4073 0.0000 -35.2378
# 5 -20.4290 -7.6829 16.6705 0.0000 32.0096 0.0000
# 6 0.0000 0.0000 0.0000 -35.2378 0.0000 104.1627
#
#
#
# Elastic Compliance Matrix: (Units=1/GPa)
#
#
# Indices 1 2 3 4 5 6 
#
# 1 0.005537 -0.000953 -0.002054 0.000000 0.004374 0.000000
# 2 -0.000953 0.010541 0.001268 0.000000 0.001262 0.000000
# 3 -0.002054 0.001268 0.015864 0.000000 -0.009268 0.000000
# 4 0.000000 0.000000 0.000000 0.035104 0.000000 0.011876
# 5 0.004374 0.001262 -0.009268 0.000000 0.039162 0.000000
# 6 0.000000 0.000000 0.000000 0.011876 0.000000 0.013618
#
#
# Mechanical properties :
#
#
# Convention : Reuss Voigt Hill
#
# Bulk Modulus (GPa) = 35.13204 47.11889 41.12546
# Shear Modulus (GPa) = 37.65302 59.07170 48.36236
#
# Velocity S-wave (km/s) = 3.56654 4.46722 4.04204
# Velocity P-wave (km/s) = 5.36925 6.52120 5.97306
#
# Compressibility (1/GPa) = 0.02846404
#
# Stress axis : x y z
#
# Youngs Moduli (GPa) = 180.61508 94.87055 63.03495
#
# Poissons Ratio (x) = 0.09040 0.12945
# Poissons Ratio (y) = 0.17210 -0.07991
# Poissons Ratio (z) = 0.37092 -0.12027
#
# Static dielectric constant tensor:
#      x y z
#    x 2.311190 0.000000 -0.041290 
#    y 0.000000 2.366820 0.000000 
#    z -0.041290 0.000000 2.256010 
# 
# From -- ./inp_files/69796.got.cif
#   From: 2010.05.17/outbox.cif.g08.bks.cpg/sg14_35_cif.got.tgz:69796.got - 2010.06.03 17:49:19.
