data_PCOD9240839
_publ_section_title
;
Structure prediction by ZEFSAII (Michael W. Deem and Ramdas Pophale) SiO2 
 PCOD9240839
Probable space group: P 21/C
;
_chemical_formula_sum "Si O2"
_cell_formula_units_Z 28
_cell_length_a 34.351575
_cell_length_b 8.010758
_cell_length_c 5.144305
_cell_angle_alpha 90.000000
_cell_angle_beta 69.903617
_cell_angle_gamma 90.000000
_cell_volume 1329.432189
_symmetry_space_group_name_H-M "P 21/C"
_symmetry_group_IT_number 14
_symmetry_cell_setting 'monoclinic'
loop_
_space_group_symop_operation_xyz
x,y,z
-x,1/2+y,1/2-z
-x,-y,-z
x,1/2-y,1/2+z
loop_
_atom_site_type_symbol
_atom_site_label
_atom_site_fract_x
_atom_site_fract_y
_atom_site_fract_z
Si Si1 0.033514 0.639328 0.487367
Si Si2 0.623191 0.639083 0.262046
Si Si3 0.197386 0.134903 0.650850
Si Si4 0.504172 0.818087 0.113519
Si Si5 0.871923 0.361965 0.796510
Si Si6 0.411630 0.683455 0.448596
Si Si7 0.286641 0.139860 0.339919
O O1 0.028778 0.712282 0.787319
O O2 0.080712 0.575952 0.344158
O O3 0.000000 0.500000 0.500000
O O4 0.619872 0.786361 0.482790
O O5 0.524605 0.801185 0.350201
O O6 0.669049 0.559537 0.200636
O O7 0.194930 0.281229 0.439701
O O8 0.243046 0.053752 0.503551
O O9 0.161123 0.004604 0.684863
O O10 0.458380 0.744923 0.282401
O O11 0.591160 0.004143 0.911829
O O12 0.500000 0.000000 0.000000
O O13 0.866875 0.215771 0.594006
O O14 0.392102 0.807207 0.707611
O O15 0.286496 0.296890 0.543060
#
# Coordination Sequence:
#
# PCOD9240839 Si02
#       7
#     4   4   4   4   4   4   4
#     4  10  21  36  54  75 102 135 173 219 268 319
#     4  10  19  35  58  81 106 142 179 216 262 311
#     4  10  19  33  54  78 102 137 181 217 249 308
#     4  10  21  40  60  81 109 142 176 217 263 309
#     4  10  21  36  51  74 109 139 167 216 275 318
#     4  10  21  38  55  81 113 139 173 219 261 308
#     4   8  16  30  50  76 105 134 172 216 257 301
#
# _framework density 21.061622
#
# number of rings (size 3 to 8) (size 9 to 14) (size 15 to 20)
#    0.000    2.286    0.000    2.571    0.000    1.143 
#    0.000   18.571    0.000    0.000    0.000    0.000 
#    0.000    0.000    0.000    0.000    0.000    0.000 
#
# Total GULP energy -156265.958710 kJ/mol
# GULP energy per Si atom -5580.927097 kJ/mol
# Density = 2.101368 g / cm^3
# Si number density = 21.061622 Si / 1000 Ang^3
#
#
#
# Elastic Constant Matrix: (Units=GPa)
#
#
# Indices 1 2 3 4 5 6 
#
# 1 88.5866 14.9981 9.8521 0.0000 -21.6869 0.0000
# 2 14.9981 45.3575 7.1556 0.0000 -19.2018 0.0000
# 3 9.8521 7.1556 84.0135 0.0000 21.9520 0.0000
# 4 0.0000 0.0000 0.0000 21.6511 0.0000 -1.1319
# 5 -21.6869 -19.2018 21.9520 0.0000 50.1905 0.0000
# 6 0.0000 0.0000 0.0000 -1.1319 0.0000 30.4361
#
#
#
# Elastic Compliance Matrix: (Units=1/GPa)
#
#
# Indices 1 2 3 4 5 6 
#
# 1 0.013516 -0.001034 -0.003296 0.000000 0.006886 0.000000
# 2 -0.001034 0.028848 -0.005761 0.000000 0.013109 0.000000
# 3 -0.003296 -0.005761 0.015499 0.000000 -0.010407 0.000000
# 4 0.000000 0.000000 0.000000 0.046277 0.000000 0.001721
# 5 0.006886 0.013109 -0.010407 0.000000 0.032467 0.000000
# 6 0.000000 0.000000 0.000000 0.001721 0.000000 0.032920
#
#
# Mechanical properties :
#
#
# Convention : Reuss Voigt Hill
#
# Bulk Modulus (GPa) = 26.53911 31.32992 28.93451
# Shear Modulus (GPa) = 24.71953 32.85233 28.78593
#
# Velocity S-wave (km/s) = 3.42961 3.95374 3.70097
# Velocity P-wave (km/s) = 5.32081 5.97916 5.65957
#
# Compressibility (1/GPa) = 0.03768024
#
# Stress axis : x y z
#
# Youngs Moduli (GPa) = 73.98731 34.66488 64.51844
#
# Poissons Ratio (x) = 0.03584 0.21267
# Poissons Ratio (y) = 0.07650 0.37170
# Poissons Ratio (z) = 0.24388 0.19971
#
# Static dielectric constant tensor:
#      x y z
#    x 1.908790 0.000000 0.036170 
#    y 0.000000 1.748040 0.000000 
#    z 0.036170 0.000000 1.797030 
# 
# From -- ./inp_files/4563.got.cif
#   From: 2010.05.17/outbox.cif.g08.bks.cpg/sg14_3_cif.got.tgz:4563.got - 2010.06.03 17:49:19.
