data_PCOD9240584
_publ_section_title
;
Structure prediction by ZEFSAII (Michael W. Deem and Ramdas Pophale) SiO2 
 PCOD9240584
Probable space group: P 21/C
;
_chemical_formula_sum "Si O2"
_cell_formula_units_Z 32
_cell_length_a 20.398409
_cell_length_b 7.005567
_cell_length_c 20.745859
_cell_angle_alpha 90.000000
_cell_angle_beta 150.313849
_cell_angle_gamma 90.000000
_cell_volume 1468.230864
_symmetry_space_group_name_H-M "P 21/C"
_symmetry_group_IT_number 14
_symmetry_cell_setting 'monoclinic'
loop_
_space_group_symop_operation_xyz
x,y,z
-x,1/2+y,1/2-z
-x,-y,-z
x,1/2-y,1/2+z
loop_
_atom_site_type_symbol
_atom_site_label
_atom_site_fract_x
_atom_site_fract_y
_atom_site_fract_z
Si Si1 0.650799 0.762390 0.187935
Si Si2 0.628047 0.313165 0.205698
Si Si3 0.900272 0.175836 0.992839
Si Si4 0.641637 0.288208 0.569846
Si Si5 0.664094 0.660819 0.051721
Si Si6 0.078929 0.847846 0.733031
Si Si7 0.056332 0.405683 0.749217
Si Si8 0.923925 0.775959 0.477151
O O1 0.638783 0.540146 0.198989
O O2 0.676691 0.753807 0.133449
O O3 0.777594 0.843578 0.332759
O O4 0.506175 0.852229 0.074950
O O5 0.746520 0.269281 0.355609
O O6 0.652516 0.215540 0.156846
O O7 0.477041 0.278434 0.097909
O O8 0.967300 0.199682 0.119557
O O9 0.982311 0.273672 0.005275
O O10 0.909578 0.948228 0.984589
O O11 0.767047 0.393649 0.646725
O O12 0.650447 0.066187 0.555627
O O13 0.797177 0.685034 0.124466
O O14 0.075636 0.618968 0.739662
O O15 0.014423 0.923078 0.742969
O O16 0.992274 0.880660 0.595249
#
# Coordination Sequence:
#
# PCOD9240584 Si02
#       8
#     4   4   4   4   4   4   4   4
#     4   8  12  20  38  64  87 104 134 184 226 246
#     4   8  12  20  38  64  87 104 134 184 226 246
#     4   9  14  23  41  65  87 107 141 186 219 243
#     4   8  13  22  38  62  88 109 134 176 223 254
#     4   8  13  22  38  62  88 109 134 176 223 254
#     4  10  19  30  44  64  91 119 143 172 214 261
#     4  10  19  30  44  64  91 119 143 172 214 261
#     4   9  14  23  41  65  87 107 141 186 219 243
#
# _framework density 21.794937999999998
#
# number of rings (size 3 to 8) (size 9 to 14) (size 15 to 20)
#    0.000    3.250    2.500    1.500    0.000    0.000 
#    0.000    1.250    0.000    0.750    0.000    3.500 
#    0.000    0.000    0.000    0.000    0.000    0.000 
#
# Total GULP energy -178778.512788 kJ/mol
# GULP energy per Si atom -5586.828525 kJ/mol
# Density = 2.174533 g / cm^3
# Si number density = 21.794938 Si / 1000 Ang^3
#
#
#
# Elastic Constant Matrix: (Units=GPa)
#
#
# Indices 1 2 3 4 5 6 
#
# 1 121.9847 17.2572 99.3968 0.0000 24.3296 0.0000
# 2 17.2572 78.5482 15.6637 0.0000 1.8405 0.0000
# 3 99.3968 15.6637 199.2045 0.0000 33.5187 0.0000
# 4 0.0000 0.0000 0.0000 -3.8341 0.0000 -5.4033
# 5 24.3296 1.8405 33.5187 0.0000 36.6046 0.0000
# 6 0.0000 0.0000 0.0000 -5.4033 0.0000 19.3245
#
#
#
# Elastic Compliance Matrix: (Units=1/GPa)
#
#
# Indices 1 2 3 4 5 6 
#
# 1 0.014426 -0.001799 -0.006453 0.000000 -0.003589 0.000000
# 2 -0.001799 0.013161 -0.000269 0.000000 0.000780 0.000000
# 3 -0.006453 -0.000269 0.008910 0.000000 -0.003856 0.000000
# 4 0.000000 0.000000 0.000000 -0.187092 0.000000 -0.052313
# 5 -0.003589 0.000780 -0.003856 0.000000 0.033196 0.000000
# 6 0.000000 0.000000 0.000000 -0.052313 0.000000 0.037120
#
#
# Mechanical properties :
#
#
# Convention : Reuss Voigt Hill
#
# Bulk Modulus (GPa) = 51.39502 73.81921 62.60712
# Shear Modulus (GPa) = -88.10209 28.24698 -29.92755
#
# Velocity S-wave (km/s) = -6.36482 3.60395 -3.70961
# Velocity P-wave (km/s) = 5.51201 7.15971 3.23103
#
# Compressibility (1/GPa) = 0.01945714
#
# Stress axis : x y z
#
# Youngs Moduli (GPa) = 69.31969 75.97925 112.23790
#
# Poissons Ratio (x) = 0.13665 0.72424
# Poissons Ratio (y) = 0.12467 0.03016
# Poissons Ratio (z) = 0.44730 0.02041
#
# Static dielectric constant tensor:
#      x y z
#    x 1.741640 0.000000 0.035410 
#    y 0.000000 1.910620 0.000000 
#    z 0.035410 0.000000 1.793500 
# 
# From -- ./inp_files/69223.got.cif
#   From: 2010.05.17/outbox.cif.g08.bks.cpg/sg14_35_cif.got.tgz:69223.got - 2010.06.03 17:49:19.
