data_PCOD9240635
_publ_section_title
;
Structure prediction by ZEFSAII (Michael W. Deem and Ramdas Pophale) SiO2 
 PCOD9240635
Probable space group: P 21/C
;
_chemical_formula_sum "Si O2"
_cell_formula_units_Z 32
_cell_length_a 11.435213
_cell_length_b 5.797829
_cell_length_c 18.522498
_cell_angle_alpha 90.000000
_cell_angle_beta 94.464648
_cell_angle_gamma 90.000000
_cell_volume 1224.304288
_symmetry_space_group_name_H-M "P 21/C"
_symmetry_group_IT_number 14
_symmetry_cell_setting 'monoclinic'
loop_
_space_group_symop_operation_xyz
x,y,z
-x,1/2+y,1/2-z
-x,-y,-z
x,1/2-y,1/2+z
loop_
_atom_site_type_symbol
_atom_site_label
_atom_site_fract_x
_atom_site_fract_y
_atom_site_fract_z
Si Si1 0.837505 0.009510 0.860017
Si Si2 0.327668 0.555697 0.305721
Si Si3 0.144095 0.491662 0.193942
Si Si4 0.072231 0.509390 0.926534
Si Si5 0.917274 0.509922 0.567609
Si Si6 0.486592 0.109520 0.681364
Si Si7 0.644557 0.622179 0.444487
Si Si8 0.456381 0.273740 0.428594
O O1 0.812908 0.772906 0.815365
O O2 0.977274 0.018785 0.868448
O O3 0.776128 0.943403 0.932881
O O4 0.799363 0.271950 0.838631
O O5 0.191894 0.533709 0.277514
O O6 0.379163 0.812659 0.301976
O O7 0.411891 0.437641 0.248798
O O8 0.366697 0.444705 0.382578
O O9 0.018784 0.486880 0.146281
O O10 0.139110 0.754828 0.929384
O O11 0.137975 0.264442 0.927938
O O12 0.000000 0.500000 0.000000
O O13 0.000000 0.500000 0.500000
O O14 0.417679 0.302710 0.632581
O O15 0.497321 0.897225 0.628907
O O16 0.574727 0.394379 0.462902
O O17 0.613337 0.807419 0.503909
#
# Coordination Sequence:
#
# PCOD9240635 Si02
#       8
#     4   4   4   4   4   4   4   4
#     4  10  19  31  49  73  98 132 162 205 254 302
#     4  11  21  30  48  70  95 131 172 214 259 304
#     4  10  20  30  49  74 101 128 165 209 254 303
#     4   8  14  26  42  65  97 127 151 190 249 304
#     4   8  14  25  42  66  97 123 151 191 246 302
#     4  11  20  33  50  66  93 133 175 218 259 309
#     4  10  21  35  50  68  94 133 179 219 257 306
#     4  10  22  36  48  67  95 132 179 217 261 303
#
# _framework density 26.137291999999999
#
# number of rings (size 3 to 8) (size 9 to 14) (size 15 to 20)
#    0.000    2.250    2.500    1.125    3.500    0.000 
#    0.000    0.000    0.000    0.000    0.000    0.000 
#    0.000   32.000    0.000    0.000    0.500    0.000 
#
# Total GULP energy -178154.097785 kJ/mol
# GULP energy per Si atom -5567.315556 kJ/mol
# Density = 2.607780 g / cm^3
# Si number density = 26.137292 Si / 1000 Ang^3
#
#
#
# Elastic Constant Matrix: (Units=GPa)
#
#
# Indices 1 2 3 4 5 6 
#
# 1 86.7994 9.4127 24.8027 0.0000 3.9409 0.0000
# 2 9.4127 182.6233 9.3084 0.0000 -4.9607 0.0000
# 3 24.8027 9.3084 91.2695 0.0000 9.7727 0.0000
# 4 0.0000 0.0000 0.0000 15.5659 0.0000 1.0107
# 5 3.9409 -4.9607 9.7727 0.0000 34.8408 0.0000
# 6 0.0000 0.0000 0.0000 1.0107 0.0000 8.2229
#
#
#
# Elastic Compliance Matrix: (Units=1/GPa)
#
#
# Indices 1 2 3 4 5 6 
#
# 1 0.012542 -0.000494 -0.003298 0.000000 -0.000564 0.000000
# 2 -0.000494 0.005556 -0.000539 0.000000 0.000998 0.000000
# 3 -0.003298 -0.000539 0.012244 0.000000 -0.003138 0.000000
# 4 0.000000 0.000000 0.000000 0.064760 0.000000 -0.007960
# 5 -0.000564 0.000998 -0.003138 0.000000 0.029788 0.000000
# 6 0.000000 0.000000 0.000000 -0.007960 0.000000 0.122590
#
#
# Mechanical properties :
#
#
# Convention : Reuss Voigt Hill
#
# Bulk Modulus (GPa) = 46.12456 49.74887 47.93671
# Shear Modulus (GPa) = 18.98485 32.87048 25.92767
#
# Velocity S-wave (km/s) = 2.69801 3.55012 3.15299
# Velocity P-wave (km/s) = 5.23365 5.98995 5.62452
#
# Compressibility (1/GPa) = 0.02168042
#
# Stress axis : x y z
#
# Youngs Moduli (GPa) = 79.73049 179.99199 81.67444
#
# Poissons Ratio (x) = 0.08886 0.26933
# Poissons Ratio (y) = 0.03936 0.04405
# Poissons Ratio (z) = 0.26292 0.09708
#
# Static dielectric constant tensor:
#      x y z
#    x 0.568620 0.000000 -0.463310 
#    y 0.000000 2.075310 0.000000 
#    z -0.463310 0.000000 1.992950 
# 
# From -- ./inp_files/68887.got.cif
#   From: 2010.05.17/outbox.cif.g08.bks.cpg/sg14_35_cif.got.tgz:68887.got - 2010.06.03 17:49:19.
