data_PCOD9240033
_publ_section_title
;
Structure prediction by ZEFSAII (Michael W. Deem and Ramdas Pophale) SiO2 
 PCOD9240033
Probable space group: P 21/C
;
_chemical_formula_sum "Si O2"
_cell_formula_units_Z 32
_cell_length_a 21.337068
_cell_length_b 12.265570
_cell_length_c 12.360651
_cell_angle_alpha 90.000000
_cell_angle_beta 23.544737
_cell_angle_gamma 90.000000
_cell_volume 1292.238123
_symmetry_space_group_name_H-M "P 21/C"
_symmetry_group_IT_number 14
_symmetry_cell_setting 'monoclinic'
loop_
_space_group_symop_operation_xyz
x,y,z
-x,1/2+y,1/2-z
-x,-y,-z
x,1/2-y,1/2+z
loop_
_atom_site_type_symbol
_atom_site_label
_atom_site_fract_x
_atom_site_fract_y
_atom_site_fract_z
Si Si1 0.122005 0.602929 0.131167
Si Si2 0.787376 0.206431 0.869267
Si Si3 0.802925 0.989954 0.206026
Si Si4 0.726581 0.992125 0.085038
Si Si5 0.366944 0.944200 0.079439
Si Si6 0.939125 0.806325 0.722803
Si Si7 0.490110 0.887256 0.307752
Si Si8 0.656525 0.672285 0.113440
O O1 0.990819 0.528800 0.398912
O O2 0.032455 0.681067 0.186782
O O3 0.227304 0.680028 0.040590
O O4 0.232535 0.532909 0.878043
O O5 0.698394 0.139701 0.911314
O O6 0.954931 0.224943 0.546666
O O7 0.762718 0.116929 0.003104
O O8 0.747285 0.956031 0.174903
O O9 0.698940 0.101642 0.383062
O O10 0.731961 0.911738 0.409347
O O11 0.564243 0.951080 0.292787
O O12 0.863883 0.922725 0.810094
O O13 0.438152 0.047412 0.905994
O O14 0.514485 0.884245 0.900481
O O15 0.794725 0.724507 0.963113
O O16 0.569895 0.770037 0.185954
#
# Coordination Sequence:
#
# PCOD9240033 Si02
#       8
#     4   4   4   4   4   4   4   4
#     4  10  20  35  55  83 114 151 182 233 276 336
#     4  10  18  34  56  82 116 147 187 230 290 325
#     4  10  19  33  53  84 112 140 189 229 277 339
#     4   9  18  30  55  89 108 138 187 248 280 326
#     4   9  21  37  54  85 117 145 190 239 278 339
#     4   9  18  34  55  81 115 146 183 230 292 334
#     4   9  19  35  57  81 113 150 181 240 294 319
#     4  10  19  36  57  81 115 151 181 237 288 332
#
# _framework density 24.763238000000001
#
# number of rings (size 3 to 8) (size 9 to 14) (size 15 to 20)
#    0.000    2.500    1.250    0.750    1.750    3.000 
#    9.000    0.000    0.000    8.250    0.000    0.000 
#    0.000    0.000    0.000    0.000    0.000    0.000 
#
# Total GULP energy -178557.115507 kJ/mol
# GULP energy per Si atom -5579.909860 kJ/mol
# Density = 2.470688 g / cm^3
# Si number density = 24.763238 Si / 1000 Ang^3
#
#
#
# Elastic Constant Matrix: (Units=GPa)
#
#
# Indices 1 2 3 4 5 6 
#
# 1 56.1942 47.6620 11.4906 0.0000 12.7782 0.0000
# 2 47.6620 7.5687 29.6708 0.0000 -36.2090 0.0000
# 3 11.4906 29.6708 122.4512 0.0000 3.5939 0.0000
# 4 0.0000 0.0000 0.0000 31.1911 0.0000 -11.5240
# 5 12.7782 -36.2090 3.5939 0.0000 13.3698 0.0000
# 6 0.0000 0.0000 0.0000 -11.5240 0.0000 33.1798
#
#
#
# Elastic Compliance Matrix: (Units=1/GPa)
#
#
# Indices 1 2 3 4 5 6 
#
# 1 0.009534 0.007354 -0.003017 0.000000 0.011614 0.000000
# 2 0.007354 -0.004011 0.000813 0.000000 -0.018110 0.000000
# 3 -0.003017 0.000813 0.008168 0.000000 0.002891 0.000000
# 4 0.000000 0.000000 0.000000 0.036780 0.000000 0.012774
# 5 0.011614 -0.018110 0.002891 0.000000 0.013872 0.000000
# 6 0.000000 0.000000 0.000000 0.012774 0.000000 0.034576
#
#
# Mechanical properties :
#
#
# Convention : Reuss Voigt Hill
#
# Bulk Modulus (GPa) = 41.68362 40.42898 41.05630
# Shear Modulus (GPa) = 51.75127 22.04087 36.89607
#
# Velocity S-wave (km/s) = 4.57644 2.98663 3.86418
# Velocity P-wave (km/s) = 6.69287 5.31554 6.04357
#
# Compressibility (1/GPa) = 0.02399024
#
# Stress axis : x y z
#
# Youngs Moduli (GPa) = 104.88531 -249.31507 122.43296
#
# Poissons Ratio (x) = 1.83339 0.36943
# Poissons Ratio (y) = -0.77129 -0.09958
# Poissons Ratio (z) = 0.31648 0.20278
#
# Static dielectric constant tensor:
#      x y z
#    x 1.982090 0.000000 -0.057630 
#    y 0.000000 1.985450 0.000000 
#    z -0.057630 0.000000 1.946870 
# 
# From -- ./inp_files/52085.got.cif
#   From: 2010.05.17/outbox.cif.g08.bks.cpg/sg14_27_cif.got.tgz:52085.got - 2010.06.03 17:49:19.
