data_PCOD9240798
_publ_section_title
;
Structure prediction by ZEFSAII (Michael W. Deem and Ramdas Pophale) SiO2 
 PCOD9240798
Probable space group: P 21/C
;
_chemical_formula_sum "Si O2"
_cell_formula_units_Z 32
_cell_length_a 14.432271
_cell_length_b 23.493708
_cell_length_c 5.502228
_cell_angle_alpha 90.000000
_cell_angle_beta 107.640698
_cell_angle_gamma 90.000000
_cell_volume 1777.897127
_symmetry_space_group_name_H-M "P 21/C"
_symmetry_group_IT_number 14
_symmetry_cell_setting 'monoclinic'
loop_
_space_group_symop_operation_xyz
x,y,z
-x,1/2+y,1/2-z
-x,-y,-z
x,1/2-y,1/2+z
loop_
_atom_site_type_symbol
_atom_site_label
_atom_site_fract_x
_atom_site_fract_y
_atom_site_fract_z
Si Si1 0.157951 0.776856 0.602711
Si Si2 0.376672 0.767356 0.194922
Si Si3 0.866711 0.395444 0.093341
Si Si4 0.304766 0.891048 0.203260
Si Si5 0.495347 0.931411 0.532386
Si Si6 0.035830 0.470358 0.280603
Si Si7 0.238770 0.510014 0.295266
Si Si8 0.430832 0.055665 0.908803
O O1 0.119010 0.746969 0.814378
O O2 0.273607 0.765064 0.662175
O O3 0.140741 0.844126 0.601171
O O4 0.426405 0.758889 0.497016
O O5 0.348878 0.833141 0.133703
O O6 0.799927 0.377212 0.265933
O O7 0.977801 0.410914 0.235615
O O8 0.813191 0.452204 0.952702
O O9 0.383793 0.911804 0.464784
O O10 0.289559 0.943336 0.009565
O O11 0.534072 0.910703 0.300935
O O12 0.500000 0.000000 0.500000
O O13 0.555253 0.914748 0.818584
O O14 0.152045 0.476131 0.361087
O O15 0.000000 0.500000 0.500000
O O16 0.000000 0.500000 0.000000
O O17 0.322677 0.467476 0.279721
O O18 0.500000 0.000000 0.000000
#
# Coordination Sequence:
#
# PCOD9240798 Si02
#       8
#     4   4   4   4   4   4   4   4
#     4  10  19  33  47  69  98 126 161 209 239 292
#     4  10  20  32  43  71  98 126 163 199 234 303
#     4  11  21  32  51  71 103 139 168 197 253 299
#     4  12  20  29  56  67 101 144 159 197 262 286
#     4  10  20  32  44  74  94 125 172 203 231 300
#     4  10  22  34  46  72 101 131 175 198 234 306
#     4  11  21  32  51  70 100 144 167 203 246 289
#     4  10  19  33  46  66 101 124 168 207 232 282
#
# _framework density 17.998792999999999
#
# number of rings (size 3 to 8) (size 9 to 14) (size 15 to 20)
#    0.000    1.500    6.250    3.000    0.000    0.000 
#    0.000    0.000    0.000    0.000    0.000    0.000 
#    0.000    6.000    0.000    0.000    0.000    0.000 
#
# Total GULP energy -178275.834337 kJ/mol
# GULP energy per Si atom -5571.119823 kJ/mol
# Density = 1.795783 g / cm^3
# Si number density = 17.998793 Si / 1000 Ang^3
#
#
#
# Elastic Constant Matrix: (Units=GPa)
#
#
# Indices 1 2 3 4 5 6 
#
# 1 83.1088 23.0928 17.7584 0.0000 -4.2289 0.0000
# 2 23.0928 42.7972 11.1655 0.0000 8.8922 0.0000
# 3 17.7584 11.1655 105.8226 0.0000 -23.6864 0.0000
# 4 0.0000 0.0000 0.0000 25.0189 0.0000 1.5006
# 5 -4.2289 8.8922 -23.6864 0.0000 24.5898 0.0000
# 6 0.0000 0.0000 0.0000 1.5006 0.0000 3.4866
#
#
#
# Elastic Compliance Matrix: (Units=1/GPa)
#
#
# Indices 1 2 3 4 5 6 
#
# 1 0.014917 -0.009136 -0.000288 0.000000 0.005592 0.000000
# 2 -0.009136 0.034256 -0.006637 0.000000 -0.020351 0.000000
# 3 -0.000288 -0.006637 0.013672 0.000000 0.015520 0.000000
# 4 0.000000 0.000000 0.000000 0.041029 0.000000 -0.017658
# 5 0.005592 -0.020351 0.015520 0.000000 0.063939 0.000000
# 6 0.000000 0.000000 0.000000 -0.017658 0.000000 0.294415
#
#
# Mechanical properties :
#
#
# Convention : Reuss Voigt Hill
#
# Bulk Modulus (GPa) = 32.54711 37.30688 34.92699
# Shear Modulus (GPa) = 9.90907 22.59985 16.25446
#
# Velocity S-wave (km/s) = 2.34891 3.54733 3.00840
# Velocity P-wave (km/s) = 5.04764 6.12785 5.61379
#
# Compressibility (1/GPa) = 0.03072470
#
# Stress axis : x y z
#
# Youngs Moduli (GPa) = 67.03803 29.19236 73.14089
#
# Poissons Ratio (x) = 0.26669 0.02104
# Poissons Ratio (y) = 0.61244 0.48540
# Poissons Ratio (z) = 0.01928 0.19374
#
# Static dielectric constant tensor:
#      x y z
#    x 1.650420 0.000000 -0.083330 
#    y 0.000000 1.635650 0.000000 
#    z -0.083330 0.000000 1.756840 
# 
# From -- ./inp_files/3965.got.cif
#   From: 2010.05.17/outbox.cif.g08.bks.cpg/sg14_2_cif.got.tgz:3965.got - 2010.06.03 17:49:19.
