data_PCOD9240818
_publ_section_title
;
Structure prediction by ZEFSAII (Michael W. Deem and Ramdas Pophale) SiO2 
 PCOD9240818
Probable space group: P 21/C
;
_chemical_formula_sum "Si O2"
_cell_formula_units_Z 32
_cell_length_a 26.204697
_cell_length_b 8.316698
_cell_length_c 21.880532
_cell_angle_alpha 90.000000
_cell_angle_beta 19.739086
_cell_angle_gamma 90.000000
_cell_volume 1610.523802
_symmetry_space_group_name_H-M "P 21/C"
_symmetry_group_IT_number 14
_symmetry_cell_setting 'monoclinic'
loop_
_space_group_symop_operation_xyz
x,y,z
-x,1/2+y,1/2-z
-x,-y,-z
x,1/2-y,1/2+z
loop_
_atom_site_type_symbol
_atom_site_label
_atom_site_fract_x
_atom_site_fract_y
_atom_site_fract_z
Si Si1 0.574811 0.922696 0.256255
Si Si2 0.128939 0.286931 0.613821
Si Si3 0.192677 0.583626 0.016127
Si Si4 0.846936 0.976052 0.569145
Si Si5 0.585726 0.732958 0.356406
Si Si6 0.371242 0.061350 0.078491
Si Si7 0.190171 0.467249 0.664415
Si Si8 0.412761 0.794360 0.841603
O O1 0.534113 0.878299 0.371823
O O2 0.520141 0.781468 0.271767
O O3 0.520648 0.084206 0.284304
O O4 0.756688 0.910936 0.047829
O O5 0.153065 0.329286 0.657691
O O6 0.955728 0.322703 0.793777
O O7 0.167935 0.103651 0.557238
O O8 0.195182 0.593374 0.939532
O O9 0.336051 0.652999 0.889020
O O10 0.759659 0.016006 0.730104
O O11 0.026867 0.968894 0.370718
O O12 0.764192 0.806279 0.646950
O O13 0.567324 0.711511 0.450353
O O14 0.498904 0.574354 0.429066
O O15 0.293224 0.096800 0.102948
O O16 0.286196 0.603967 0.521224
#
# Coordination Sequence:
#
# PCOD9240818 Si02
#       8
#     4   4   4   4   4   4   4   4
#     4  11  20  36  50  84 107 149 180 232 277 325
#     4  10  20  32  56  76 117 136 184 222 280 334
#     4  11  20  38  52  87 107 148 180 229 284 338
#     4   9  18  30  56  76 112 145 187 229 259 324
#     4   9  18  31  53  76 109 148 188 230 257 320
#     4   9  17  32  53  81 110 152 193 228 258 327
#     4  10  19  33  51  89 106 148 185 231 271 324
#     4  11  24  33  58  78 118 140 185 232 283 340
#
# _framework density 19.869312999999998
#
# number of rings (size 3 to 8) (size 9 to 14) (size 15 to 20)
#    0.750    1.250    2.500    3.375    0.000    0.000 
#    0.000    0.000    0.000    2.250    0.000    9.625 
#    0.000    0.000    0.000    0.000    0.000    0.000 
#
# Total GULP energy -178176.465738 kJ/mol
# GULP energy per Si atom -5568.014554 kJ/mol
# Density = 1.982409 g / cm^3
# Si number density = 19.869313 Si / 1000 Ang^3
#
#
#
# Elastic Constant Matrix: (Units=GPa)
#
#
# Indices 1 2 3 4 5 6 
#
# 1 59.5220 -9.0735 -6.7799 0.0000 -11.9514 0.0000
# 2 -9.0735 39.9169 0.0174 0.0000 4.0103 0.0000
# 3 -6.7799 0.0174 49.2707 0.0000 -5.9036 0.0000
# 4 0.0000 0.0000 0.0000 22.1290 0.0000 -6.5668
# 5 -11.9514 4.0103 -5.9036 0.0000 21.6597 0.0000
# 6 0.0000 0.0000 0.0000 -6.5668 0.0000 19.3516
#
#
#
# Elastic Compliance Matrix: (Units=1/GPa)
#
#
# Indices 1 2 3 4 5 6 
#
# 1 0.020124 0.003406 0.004159 0.000000 0.011607 0.000000
# 2 0.003406 0.026120 0.000109 0.000000 -0.002927 0.000000
# 3 0.004159 0.000109 0.021855 0.000000 0.008231 0.000000
# 4 0.000000 0.000000 0.000000 0.050250 0.000000 0.017052
# 5 0.011607 -0.002927 0.008231 0.000000 0.055359 0.000000
# 6 0.000000 0.000000 0.000000 0.017052 0.000000 0.057462
#
#
# Mechanical properties :
#
#
# Convention : Reuss Voigt Hill
#
# Bulk Modulus (GPa) = 11.98367 13.00418 12.49393
# Shear Modulus (GPa) = 20.52237 23.59776 22.06006
#
# Velocity S-wave (km/s) = 3.21731 3.44997 3.33567
# Velocity P-wave (km/s) = 4.45486 4.73590 4.59753
#
# Compressibility (1/GPa) = 0.08344686
#
# Stress axis : x y z
#
# Youngs Moduli (GPa) = 49.69190 38.28429 45.75714
#
# Poissons Ratio (x) = -0.13042 -0.19029
# Poissons Ratio (y) = -0.16928 -0.00498
# Poissons Ratio (z) = -0.20665 -0.00417
#
# Static dielectric constant tensor:
#      x y z
#    x 1.735450 0.000000 0.028000 
#    y 0.000000 1.692520 0.000000 
#    z 0.028000 0.000000 1.757930 
# 
# From -- ./inp_files/75198.got.cif
#   From: 2010.05.17/outbox.cif.g08.bks.cpg/sg14_38_cif.got.tgz:75198.got - 2010.06.03 17:49:19.
