data_PCOD9240866
_publ_section_title
;
Structure prediction by ZEFSAII (Michael W. Deem and Ramdas Pophale) SiO2 
 PCOD9240866
Probable space group: P 21/C
;
_chemical_formula_sum "Si O2"
_cell_formula_units_Z 30
_cell_length_a 18.592719
_cell_length_b 14.551512
_cell_length_c 5.197890
_cell_angle_alpha 90.000000
_cell_angle_beta 64.341789
_cell_angle_gamma 90.000000
_cell_volume 1267.629474
_symmetry_space_group_name_H-M "P 21/C"
_symmetry_group_IT_number 14
_symmetry_cell_setting 'monoclinic'
loop_
_space_group_symop_operation_xyz
x,y,z
-x,1/2+y,1/2-z
-x,-y,-z
x,1/2-y,1/2+z
loop_
_atom_site_type_symbol
_atom_site_label
_atom_site_fract_x
_atom_site_fract_y
_atom_site_fract_z
Si Si1 0.684058 0.363131 0.554679
Si Si2 0.892454 0.805389 0.100411
Si Si3 0.500000 0.000000 0.000000
Si Si4 0.938477 0.313128 0.542313
Si Si5 0.276546 0.105521 0.519569
Si Si6 0.494120 0.693605 0.248428
Si Si7 0.367842 0.420817 0.378500
Si Si8 0.227765 0.607951 0.081095
O O1 0.602954 0.311024 0.614724
O O2 0.661757 0.472016 0.584891
O O3 0.719418 0.344851 0.779645
O O4 0.750266 0.352816 0.231311
O O5 0.896376 0.719041 0.292807
O O6 0.807963 0.848588 0.297170
O O7 0.974114 0.857464 0.049860
O O8 0.513165 0.912127 0.784644
O O9 0.457617 0.061945 0.835949
O O10 0.933568 0.266348 0.269701
O O11 0.864073 0.379106 0.706113
O O12 0.318766 0.127796 0.185292
O O13 0.256081 0.997167 0.539112
O O14 0.336650 0.121877 0.662420
O O15 0.519716 0.740531 0.942948
#
# Coordination Sequence:
#
# PCOD9240866 Si02
#       8
#     4   4   2   4   4   4   4   4
#     4   9  19  34  53  81 116 146 180 232 285 343
#     4  10  21  38  56  76 110 151 187 234 284 327
#     4  10  24  46  66  88 134 162 188 262 314 346
#     4  10  21  34  50  76 109 146 184 222 281 338
#     4  10  20  37  58  83 107 139 193 230 272 345
#     4  11  24  40  62  91 119 161 208 239 298 377
#     4   9  20  37  61  84 109 149 182 223 295 349
#     4  10  19  33  55  82 111 143 182 235 282 330
#
# _framework density 23.666219999999999
#
# number of rings (size 3 to 8) (size 9 to 14) (size 15 to 20)
#    0.000    2.133    0.000    2.400    0.000    9.067 
#    0.000    4.000    0.000    9.600    0.000    0.000 
#    0.000    0.000    0.000    0.000    0.000    0.000 
#
# Total GULP energy -167137.472411 kJ/mol
# GULP energy per Si atom -5571.249080 kJ/mol
# Density = 2.361235 g / cm^3
# Si number density = 23.666220 Si / 1000 Ang^3
#
#
#
# Elastic Constant Matrix: (Units=GPa)
#
#
# Indices 1 2 3 4 5 6 
#
# 1 95.6509 1.2874 21.2736 0.0000 7.1787 0.0000
# 2 1.2874 42.2386 8.2438 0.0000 8.8716 0.0000
# 3 21.2736 8.2438 116.6841 0.0000 20.1472 0.0000
# 4 0.0000 0.0000 0.0000 -4.4682 0.0000 -2.4215
# 5 7.1787 8.8716 20.1472 0.0000 36.5819 0.0000
# 6 0.0000 0.0000 0.0000 -2.4215 0.0000 29.7529
#
#
#
# Elastic Compliance Matrix: (Units=1/GPa)
#
#
# Indices 1 2 3 4 5 6 
#
# 1 0.010944 0.000275 -0.001804 0.000000 -0.001221 0.000000
# 2 0.000275 0.025019 -0.000841 0.000000 -0.005658 0.000000
# 3 -0.001804 -0.000841 0.009793 0.000000 -0.004836 0.000000
# 4 0.000000 0.000000 0.000000 -0.214347 0.000000 -0.017445
# 5 -0.001221 -0.005658 -0.004836 0.000000 0.031611 0.000000
# 6 0.000000 0.000000 0.000000 -0.017445 0.000000 0.032190
#
#
# Mechanical properties :
#
#
# Convention : Reuss Voigt Hill
#
# Bulk Modulus (GPa) = 24.38017 35.13147 29.75582
# Shear Modulus (GPa) = -57.88513 27.29123 -15.29695
#
# Velocity S-wave (km/s) = -4.95097 3.39952 -2.54512
# Velocity P-wave (km/s) = 4.72850 5.50325 1.99086
#
# Compressibility (1/GPa) = 0.04101694
#
# Stress axis : x y z
#
# Youngs Moduli (GPa) = 91.37589 39.96935 102.10961
#
# Poissons Ratio (x) = -0.01099 0.18419
# Poissons Ratio (y) = -0.02512 0.08585
# Poissons Ratio (z) = 0.16483 0.03360
#
# Static dielectric constant tensor:
#      x y z
#    x 1.573610 0.000000 0.468780 
#    y 0.000000 1.909340 0.000000 
#    z 0.468780 0.000000 1.166350 
# 
# From -- ./inp_files/4186.got.cif
#   From: 2010.05.17/outbox.cif.g08.bks.cpg/sg14_3_cif.got.tgz:4186.got - 2010.06.03 17:49:19.
