data_PCOD9240810
_publ_section_title
;
Structure prediction by ZEFSAII (Michael W. Deem and Ramdas Pophale) SiO2 
 PCOD9240810
Probable space group: P 21/C
;
_chemical_formula_sum "Si O2"
_cell_formula_units_Z 28
_cell_length_a 27.501429
_cell_length_b 8.307126
_cell_length_c 5.241454
_cell_angle_alpha 90.000000
_cell_angle_beta 89.996997
_cell_angle_gamma 90.000000
_cell_volume 1197.451236
_symmetry_space_group_name_H-M "P 21/C"
_symmetry_group_IT_number 14
_symmetry_cell_setting 'monoclinic'
loop_
_space_group_symop_operation_xyz
x,y,z
-x,1/2+y,1/2-z
-x,-y,-z
x,1/2-y,1/2+z
loop_
_atom_site_type_symbol
_atom_site_label
_atom_site_fract_x
_atom_site_fract_y
_atom_site_fract_z
Si Si1 0.870918 0.333842 0.985509
Si Si2 0.998037 0.825258 0.865381
Si Si3 0.644785 0.649788 0.575274
Si Si4 0.763819 0.295727 0.472460
Si Si5 0.115218 0.323564 0.751504
Si Si6 0.755072 0.644396 0.517046
Si Si7 0.539893 0.861977 0.976004
O O1 0.887326 0.200452 0.195662
O O2 0.812243 0.315488 0.971164
O O3 0.882265 0.503321 0.115200
O O4 0.018407 0.799649 0.578096
O O5 0.941400 0.789371 0.808754
O O6 0.000000 0.000000 0.000000
O O7 0.643457 0.799476 0.372575
O O8 0.698479 0.584190 0.520417
O O9 0.594458 0.564040 0.505871
O O10 0.735388 0.254386 0.220687
O O11 0.782054 0.477292 0.479254
O O12 0.136420 0.295434 0.468441
O O13 0.762539 0.762425 0.279924
O O14 0.535736 0.733551 0.208518
O O15 0.500000 0.000000 0.000000
#
# Coordination Sequence:
#
# PCOD9240810 Si02
#       7
#     4   4   4   4   4   4   4
#     4  10  21  38  56  78 108 141 175 216 271 318
#     4  10  21  36  56  84 114 143 180 221 264 310
#     4   8  16  30  50  73  99 133 172 211 256 309
#     4  10  21  38  53  77 111 136 166 218 274 318
#     4  10  21  38  58  81 109 144 185 222 253 310
#     4  10  19  35  58  79  99 135 181 218 257 314
#     4  10  19  33  51  74 105 138 173 214 257 309
#
# _framework density 23.382998000000001
#
# number of rings (size 3 to 8) (size 9 to 14) (size 15 to 20)
#    0.000    2.286    0.000    2.571    0.000    1.143 
#    0.000   18.571    0.000    0.000    0.000    0.000 
#    0.000    0.000    0.000    0.000    0.000    0.000 
#
# Total GULP energy -156329.641525 kJ/mol
# GULP energy per Si atom -5583.201483 kJ/mol
# Density = 2.332978 g / cm^3
# Si number density = 23.382998 Si / 1000 Ang^3
#
#
#
# Elastic Constant Matrix: (Units=GPa)
#
#
# Indices 1 2 3 4 5 6 
#
# 1 66.3113 -8.0125 9.2639 0.0000 2.6425 0.0000
# 2 -8.0125 65.5125 14.6709 0.0000 8.1486 0.0000
# 3 9.2639 14.6709 152.0476 0.0000 -7.1843 0.0000
# 4 0.0000 0.0000 0.0000 38.6680 0.0000 5.2405
# 5 2.6425 8.1486 -7.1843 0.0000 25.3558 0.0000
# 6 0.0000 0.0000 0.0000 5.2405 0.0000 24.8910
#
#
#
# Elastic Compliance Matrix: (Units=1/GPa)
#
#
# Indices 1 2 3 4 5 6 
#
# 1 0.015691 0.002572 -0.001338 0.000000 -0.002841 0.000000
# 2 0.002572 0.016823 -0.002076 0.000000 -0.006263 0.000000
# 3 -0.001338 -0.002076 0.006990 0.000000 0.002787 0.000000
# 4 0.000000 0.000000 0.000000 0.026621 0.000000 -0.005605
# 5 -0.002841 -0.006263 0.002787 0.000000 0.042537 0.000000
# 6 0.000000 0.000000 0.000000 -0.005605 0.000000 0.041355
#
#
# Mechanical properties :
#
#
# Convention : Reuss Voigt Hill
#
# Bulk Modulus (GPa) = 26.44073 35.07955 30.76014
# Shear Modulus (GPa) = 30.43058 35.64625 33.03841
#
# Velocity S-wave (km/s) = 3.61140 3.90866 3.76297
# Velocity P-wave (km/s) = 5.35928 5.95020 5.66245
#
# Compressibility (1/GPa) = 0.03782043
#
# Stress axis : x y z
#
# Youngs Moduli (GPa) = 63.72912 59.44358 143.05271
#
# Poissons Ratio (x) = -0.15290 0.19147
# Poissons Ratio (y) = -0.16393 0.29695
# Poissons Ratio (z) = 0.08530 0.12339
#
# Static dielectric constant tensor:
#      x y z
#    x 1.997220 0.000000 -0.052020 
#    y 0.000000 1.921500 0.000000 
#    z -0.052020 0.000000 1.982100 
# 
# From -- ./inp_files/4549.got.cif
#   From: 2010.05.17/outbox.cif.g08.bks.cpg/sg14_3_cif.got.tgz:4549.got - 2010.06.03 17:49:19.
