data_PCOD9240959
_publ_section_title
;
Structure prediction by ZEFSAII (Michael W. Deem and Ramdas Pophale) SiO2 
 PCOD9240959
Probable space group: P 21/C
;
_chemical_formula_sum "Si O2"
_cell_formula_units_Z 32
_cell_length_a 14.343094
_cell_length_b 11.986139
_cell_length_c 8.743464
_cell_angle_alpha 90.000000
_cell_angle_beta 84.507543
_cell_angle_gamma 90.000000
_cell_volume 1496.260324
_symmetry_space_group_name_H-M "P 21/C"
_symmetry_group_IT_number 14
_symmetry_cell_setting 'monoclinic'
loop_
_space_group_symop_operation_xyz
x,y,z
-x,1/2+y,1/2-z
-x,-y,-z
x,1/2-y,1/2+z
loop_
_atom_site_type_symbol
_atom_site_label
_atom_site_fract_x
_atom_site_fract_y
_atom_site_fract_z
Si Si1 0.229159 0.545124 0.894241
Si Si2 0.112770 0.152326 0.458732
Si Si3 0.627316 0.918321 0.407658
Si Si4 0.457112 0.849192 0.608856
Si Si5 0.342757 0.764177 0.351070
Si Si6 0.809324 0.630612 0.710659
Si Si7 0.904944 0.203679 0.386891
Si Si8 0.835622 0.385349 0.587386
O O1 0.153854 0.453160 0.857262
O O2 0.289131 0.630516 0.781984
O O3 0.173007 0.628673 0.015263
O O4 0.304325 0.472235 0.975959
O O5 0.133890 0.133212 0.635988
O O6 0.164780 0.263156 0.393612
O O7 0.004490 0.169910 0.439064
O O8 0.555495 0.839931 0.508721
O O9 0.699441 0.869785 0.273883
O O10 0.564230 0.020588 0.353582
O O11 0.374277 0.807802 0.510561
O O12 0.438062 0.774492 0.757550
O O13 0.269244 0.663338 0.372104
O O14 0.833591 0.516484 0.617708
O O15 0.879034 0.332049 0.427470
O O16 0.896781 0.172868 0.211550
#
# Coordination Sequence:
#
# PCOD9240959 Si02
#       8
#     4   4   4   4   4   4   4   4
#     4   9  19  36  62  81 123 158 200 241 310 359
#     4  11  23  41  59  88 125 172 207 246 303 375
#     4   9  18  37  59  83 113 167 187 241 314 361
#     4  10  19  33  63  88 117 146 204 246 302 374
#     4  10  19  37  59  97 113 154 199 256 309 355
#     4  11  23  42  59  84 131 165 207 251 312 362
#     4  11  21  39  65  91 119 161 209 261 306 356
#     4  11  21  39  63  89 125 157 201 265 308 363
#
# _framework density 21.386654
#
# number of rings (size 3 to 8) (size 9 to 14) (size 15 to 20)
#    0.000    1.750    3.750    2.625    0.000    2.500 
#    6.750    0.000    0.000    7.500    0.000    0.000 
#    0.000    0.000    0.000    0.000    0.000    0.000 
#
# Total GULP energy -178574.683740 kJ/mol
# GULP energy per Si atom -5580.458867 kJ/mol
# Density = 2.133798 g / cm^3
# Si number density = 21.386654 Si / 1000 Ang^3
#
#
#
# Elastic Constant Matrix: (Units=GPa)
#
#
# Indices 1 2 3 4 5 6 
#
# 1 85.2822 4.7618 -3.7007 0.0000 -9.6965 0.0000
# 2 4.7618 62.2737 15.6334 0.0000 -10.4812 0.0000
# 3 -3.7007 15.6334 10.7677 0.0000 -1.3019 0.0000
# 4 0.0000 0.0000 0.0000 30.5340 0.0000 -10.4449
# 5 -9.6965 -10.4812 -1.3019 0.0000 17.9281 0.0000
# 6 0.0000 0.0000 0.0000 -10.4449 0.0000 34.8952
#
#
#
# Elastic Compliance Matrix: (Units=1/GPa)
#
#
# Indices 1 2 3 4 5 6 
#
# 1 0.012912 -0.001907 0.007986 0.000000 0.006449 0.000000
# 2 -0.001907 0.028512 -0.040516 0.000000 0.012695 0.000000
# 3 0.007986 -0.040516 0.153446 0.000000 -0.008225 0.000000
# 4 0.000000 0.000000 0.000000 0.036486 0.000000 0.010921
# 5 0.006449 0.012695 -0.008225 0.000000 0.066091 0.000000
# 6 0.000000 0.000000 0.000000 0.010921 0.000000 0.031926
#
#
# Mechanical properties :
#
#
# Convention : Reuss Voigt Hill
#
# Bulk Modulus (GPa) = 7.93683 21.30138 14.61910
# Shear Modulus (GPa) = 11.35728 26.11339 18.73533
#
# Velocity S-wave (km/s) = 2.30694 3.49809 2.96299
# Velocity P-wave (km/s) = 3.28864 5.12809 4.30769
#
# Compressibility (1/GPa) = 0.12599496
#
# Stress axis : x y z
#
# Youngs Moduli (GPa) = 77.44749 35.07294 6.51696
#
# Poissons Ratio (x) = 0.06687 -0.05204
# Poissons Ratio (y) = 0.14767 0.26404
# Poissons Ratio (z) = -0.61847 1.42103
#
# Static dielectric constant tensor:
#      x y z
#    x 1.787820 0.000000 0.005310 
#    y 0.000000 1.809940 0.000000 
#    z 0.005310 0.000000 1.807350 
# 
# From -- ./inp_files/15783.got.cif
#   From: 2010.05.17/outbox.cif.g08.bks.cpg/sg14_8_cif.got.tgz:15783.got - 2010.06.03 17:49:19.
