data_PCOD9240887
_publ_section_title
;
Structure prediction by ZEFSAII (Michael W. Deem and Ramdas Pophale) SiO2 
 PCOD9240887
Probable space group: P 21/C
;
_chemical_formula_sum "Si O2"
_cell_formula_units_Z 20
_cell_length_a 9.770642
_cell_length_b 10.332714
_cell_length_c 14.165213
_cell_angle_alpha 90.000000
_cell_angle_beta 141.884206
_cell_angle_gamma 90.000000
_cell_volume 882.721431
_symmetry_space_group_name_H-M "P 21/C"
_symmetry_group_IT_number 14
_symmetry_cell_setting 'monoclinic'
loop_
_space_group_symop_operation_xyz
x,y,z
-x,1/2+y,1/2-z
-x,-y,-z
x,1/2-y,1/2+z
loop_
_atom_site_type_symbol
_atom_site_label
_atom_site_fract_x
_atom_site_fract_y
_atom_site_fract_z
Si Si1 0.775294 0.578950 0.987225
Si Si2 0.595623 0.222336 0.622857
Si Si3 0.986306 0.329334 0.461874
Si Si4 0.539751 0.920716 0.798525
Si Si5 0.231649 0.795016 0.488314
O O1 0.627968 0.637047 0.992272
O O2 0.936998 0.688465 0.037823
O O3 0.604170 0.544303 0.808790
O O4 0.874191 0.440225 0.069903
O O5 0.536255 0.354357 0.645746
O O6 0.696416 0.246051 0.575654
O O7 0.776252 0.143127 0.782149
O O8 0.195984 0.422321 0.563180
O O9 0.917489 0.300760 0.531872
O O10 0.453014 0.821764 0.670342
#
# Coordination Sequence:
#
# PCOD9240887 Si02
#       5
#     4   4   4   4   4
#     4   9  19  37  55  76 110 142 173 210 280 304
#     4  10  19  33  56  81 103 136 186 215 255 315
#     4  10  19  35  57  79 105 139 181 218 256 315
#     4   8  20  34  54  75 110 142 164 226 257 315
#     4   9  19  34  54  79 103 141 173 215 265 314
#
# _framework density 22.657204
#
# number of rings (size 3 to 8) (size 9 to 14) (size 15 to 20)
#    1.200    1.600    0.000    1.200    0.000    4.000 
#    0.000    0.000    0.000   12.000    0.000    0.000 
#    0.000    0.000    0.000    0.000    0.000    0.000 
#
# Total GULP energy -111560.785417 kJ/mol
# GULP energy per Si atom -5578.039271 kJ/mol
# Density = 2.260564 g / cm^3
# Si number density = 22.657204 Si / 1000 Ang^3
#
#
#
# Elastic Constant Matrix: (Units=GPa)
#
#
# Indices 1 2 3 4 5 6 
#
# 1 127.1109 22.9839 30.6853 0.0000 -34.8431 0.0000
# 2 22.9839 54.6078 3.4958 0.0000 -5.6657 0.0000
# 3 30.6853 3.4958 22.0745 0.0000 -10.1852 0.0000
# 4 0.0000 0.0000 0.0000 12.8530 0.0000 10.8106
# 5 -34.8431 -5.6657 -10.1852 0.0000 43.4424 0.0000
# 6 0.0000 0.0000 0.0000 10.8106 0.0000 8.0055
#
#
#
# Elastic Compliance Matrix: (Units=1/GPa)
#
#
# Indices 1 2 3 4 5 6 
#
# 1 0.014564 -0.004334 -0.016180 0.000000 0.007322 0.000000
# 2 -0.004334 0.019936 0.002763 0.000000 -0.000229 0.000000
# 3 -0.016180 0.002763 0.068998 0.000000 0.003560 0.000000
# 4 0.000000 0.000000 0.000000 -0.572879 0.000000 0.773612
# 5 0.007322 -0.000229 0.003560 0.000000 0.029697 0.000000
# 6 0.000000 0.000000 0.000000 0.773612 0.000000 -0.919767
#
#
# Mechanical properties :
#
#
# Convention : Reuss Voigt Hill
#
# Bulk Modulus (GPa) = 14.70719 35.34701 25.02710
# Shear Modulus (GPa) = -3.84236 22.63541 9.39652
#
# Velocity S-wave (km/s) = -1.30367 3.16419 2.03869
# Velocity P-wave (km/s) = 2.05893 5.38369 4.07574
#
# Compressibility (1/GPa) = 0.06799397
#
# Stress axis : x y z
#
# Youngs Moduli (GPa) = 68.66211 50.16020 14.49314
#
# Poissons Ratio (x) = 0.21741 0.23450
# Poissons Ratio (y) = 0.29761 -0.04004
# Poissons Ratio (z) = 1.11098 -0.13857
#
# Static dielectric constant tensor:
#      x y z
#    x 1.813060 0.000000 0.028480 
#    y 0.000000 1.981300 0.000000 
#    z 0.028480 0.000000 1.833720 
# 
# From -- ./inp_files/24332.got.cif
#   From: 2010.05.17/outbox.cif.g08.bks.cpg/sg14_13_cif.got.tgz:24332.got - 2010.06.03 17:49:19.
