data_PCOD9240062
_publ_section_title
;
Structure prediction by ZEFSAII (Michael W. Deem and Ramdas Pophale) SiO2 
 PCOD9240062
Probable space group: P 21/C
;
_chemical_formula_sum "Si O2"
_cell_formula_units_Z 26
_cell_length_a 15.847731
_cell_length_b 7.651619
_cell_length_c 17.410772
_cell_angle_alpha 90.000000
_cell_angle_beta 27.492617
_cell_angle_gamma 90.000000
_cell_volume 974.622732
_symmetry_space_group_name_H-M "P 21/C"
_symmetry_group_IT_number 14
_symmetry_cell_setting 'monoclinic'
loop_
_space_group_symop_operation_xyz
x,y,z
-x,1/2+y,1/2-z
-x,-y,-z
x,1/2-y,1/2+z
loop_
_atom_site_type_symbol
_atom_site_label
_atom_site_fract_x
_atom_site_fract_y
_atom_site_fract_z
Si Si1 0.079539 0.274412 0.674535
Si Si2 0.384797 0.575397 0.693110
Si Si3 0.410408 0.448486 0.944270
Si Si4 0.087987 0.813312 0.537500
Si Si5 0.000000 0.500000 0.500000
Si Si6 0.752631 0.274172 0.823190
Si Si7 0.638182 0.045735 0.111898
O O1 0.208050 0.399115 0.521083
O O2 0.040523 0.359942 0.788543
O O3 0.899556 0.238449 0.771169
O O4 0.202732 0.105938 0.593378
O O5 0.322338 0.596343 0.655800
O O6 0.521588 0.448158 0.628117
O O7 0.485464 0.766755 0.619913
O O8 0.195685 0.556623 0.894704
O O9 0.510288 0.507725 0.786140
O O10 0.399580 0.598416 0.016539
O O11 0.988610 0.667576 0.566883
O O12 0.254354 0.714266 0.447014
O O13 0.139721 0.616134 0.329783
#
# Coordination Sequence:
#
# PCOD9240062 Si02
#       7
#     4   4   4   4   2   4   4
#     4  11  20  35  59  86 110 160 194 232 296 348
#     4   9  21  34  56  86 115 148 192 235 295 337
#     4  10  20  36  58  82 119 152 189 242 296 340
#     4  10  19  35  59  83 117 149 196 240 285 344
#     4  10  18  34  58  88 112 138 192 256 268 320
#     4  11  20  36  58  89 116 147 199 241 281 344
#     4  10  20  38  54  83 119 152 190 242 292 349
#
# _framework density 26.676988000000001
#
# number of rings (size 3 to 8) (size 9 to 14) (size 15 to 20)
#    0.000    1.846    3.077    1.385    0.000    0.000 
#    0.000    1.538    0.000    0.000    0.000    0.000 
#    0.000    0.000    0.000    0.000    0.000    0.000 
#
# Total GULP energy -145040.973863 kJ/mol
# GULP energy per Si atom -5578.498995 kJ/mol
# Density = 2.661627 g / cm^3
# Si number density = 26.676988 Si / 1000 Ang^3
#
#
#
# Elastic Constant Matrix: (Units=GPa)
#
#
# Indices 1 2 3 4 5 6 
#
# 1 93.3268 2.5699 22.9974 0.0000 7.4628 0.0000
# 2 2.5699 60.7134 17.0007 0.0000 3.8267 0.0000
# 3 22.9974 17.0007 99.5209 0.0000 33.7040 0.0000
# 4 0.0000 0.0000 0.0000 28.3535 0.0000 -14.4678
# 5 7.4628 3.8267 33.7040 0.0000 49.7328 0.0000
# 6 0.0000 0.0000 0.0000 -14.4678 0.0000 37.4802
#
#
#
# Elastic Compliance Matrix: (Units=1/GPa)
#
#
# Indices 1 2 3 4 5 6 
#
# 1 0.011367 0.000271 -0.002710 0.000000 0.000110 0.000000
# 2 0.000271 0.017334 -0.003320 0.000000 0.000876 0.000000
# 3 -0.002710 -0.003320 0.014299 0.000000 -0.009028 0.000000
# 4 0.000000 0.000000 0.000000 0.043920 0.000000 0.016954
# 5 0.000110 0.000876 -0.009028 0.000000 0.026142 0.000000
# 6 0.000000 0.000000 0.000000 0.016954 0.000000 0.033225
#
#
# Mechanical properties :
#
#
# Convention : Reuss Voigt Hill
#
# Bulk Modulus (GPa) = 31.76575 37.63302 34.69939
# Shear Modulus (GPa) = 29.70897 37.17949 33.44423
#
# Velocity S-wave (km/s) = 3.34077 3.73727 3.54457
# Velocity P-wave (km/s) = 5.17826 5.72367 5.45778
#
# Compressibility (1/GPa) = 0.03148044
#
# Stress axis : x y z
#
# Youngs Moduli (GPa) = 87.97705 57.69048 69.93406
#
# Poissons Ratio (x) = -0.01562 0.18954
# Poissons Ratio (y) = -0.02383 0.23220
# Poissons Ratio (z) = 0.23844 0.19155
#
# Static dielectric constant tensor:
#      x y z
#    x 2.120940 0.000000 -0.001770 
#    y 0.000000 2.092270 0.000000 
#    z -0.001770 0.000000 2.170850 
# 
# From -- ./inp_files/39617.got.cif
#   From: 2010.05.17/outbox.cif.g08.bks.cpg/sg14_20_cif.got.tgz:39617.got - 2010.06.03 17:49:19.
