data_PCOD9240191
_publ_section_title
;
Structure prediction by ZEFSAII (Michael W. Deem and Ramdas Pophale) SiO2 
 PCOD9240191
Probable space group: P 21/C
;
_chemical_formula_sum "Si O2"
_cell_formula_units_Z 24
_cell_length_a 5.149757
_cell_length_b 17.236084
_cell_length_c 13.009335
_cell_angle_alpha 90.000000
_cell_angle_beta 103.300972
_cell_angle_gamma 90.000000
_cell_volume 1123.754299
_symmetry_space_group_name_H-M "P 21/C"
_symmetry_group_IT_number 14
_symmetry_cell_setting 'monoclinic'
loop_
_space_group_symop_operation_xyz
x,y,z
-x,1/2+y,1/2-z
-x,-y,-z
x,1/2-y,1/2+z
loop_
_atom_site_type_symbol
_atom_site_label
_atom_site_fract_x
_atom_site_fract_y
_atom_site_fract_z
Si Si1 0.708875 0.191317 0.280967
Si Si2 0.296390 0.228793 0.406850
Si Si3 0.073849 0.952182 0.905097
Si Si4 0.304393 0.431034 0.014787
Si Si5 0.839411 0.480490 0.816030
Si Si6 0.593210 0.853692 0.926260
O O1 0.536065 0.234743 0.348934
O O2 0.661087 0.097704 0.291316
O O3 0.586030 0.204594 0.158278
O O4 0.018276 0.209733 0.324764
O O5 0.368389 0.156322 0.488265
O O6 0.278350 0.307250 0.468901
O O7 0.066984 0.993813 0.792509
O O8 0.371820 0.916608 0.941651
O O9 0.839170 0.887959 0.883347
O O10 0.000000 0.000000 0.000000
O O11 0.270715 0.444781 0.133980
O O12 0.500000 0.500000 0.000000
O O13 0.054779 0.450803 0.918472
#
# Coordination Sequence:
#
# PCOD9240191 Si02
#       6
#     4   4   4   4   4   4
#     4  10  20  38  63  88 122 175 206 250 326 393
#     4  11  22  38  63  93 129 160 211 265 322 381
#     4  11  24  44  67  90 125 178 225 261 321 387
#     4  10  18  35  60  93 122 156 208 264 320 370
#     4   9  20  35  62  87 120 163 211 257 312 384
#     4  11  23  43  65  92 129 173 217 266 322 393
#
# _framework density 21.356981999999999
#
# number of rings (size 3 to 8) (size 9 to 14) (size 15 to 20)
#    0.000    1.667    1.667    4.500    2.333    0.000 
#    3.000    1.667    0.000    0.000    0.000    0.000 
#    0.000    0.000    0.000    0.000    0.000    0.000 
#
# Total GULP energy -133755.625089 kJ/mol
# GULP energy per Si atom -5573.151045 kJ/mol
# Density = 2.130837 g / cm^3
# Si number density = 21.356982 Si / 1000 Ang^3
#
#
#
# Elastic Constant Matrix: (Units=GPa)
#
#
# Indices 1 2 3 4 5 6 
#
# 1 67.7361 11.8488 9.0858 0.0000 -6.8250 0.0000
# 2 11.8488 18.8820 26.4886 0.0000 -0.3094 0.0000
# 3 9.0858 26.4886 120.8214 0.0000 -24.7919 0.0000
# 4 0.0000 0.0000 0.0000 31.5213 0.0000 0.5289
# 5 -6.8250 -0.3094 -24.7919 0.0000 40.4166 0.0000
# 6 0.0000 0.0000 0.0000 0.5289 0.0000 19.4275
#
#
#
# Elastic Compliance Matrix: (Units=1/GPa)
#
#
# Indices 1 2 3 4 5 6 
#
# 1 0.017457 -0.014973 0.002919 0.000000 0.004623 0.000000
# 2 -0.014973 0.093939 -0.022697 0.000000 -0.015732 0.000000
# 3 0.002919 -0.022697 0.014985 0.000000 0.009511 0.000000
# 4 0.000000 0.000000 0.000000 0.031739 0.000000 -0.000864
# 5 0.004623 -0.015732 0.009511 0.000000 0.031237 0.000000
# 6 0.000000 0.000000 0.000000 -0.000864 0.000000 0.051497
#
#
# Mechanical properties :
#
#
# Convention : Reuss Voigt Hill
#
# Bulk Modulus (GPa) = 17.58160 33.58732 25.58446
# Shear Modulus (GPa) = 15.18306 28.94085 22.06195
#
# Velocity S-wave (km/s) = 2.66920 3.68516 3.21753
# Velocity P-wave (km/s) = 4.21303 5.81962 5.08024
#
# Compressibility (1/GPa) = 0.05687763
#
# Stress axis : x y z
#
# Youngs Moduli (GPa) = 57.28465 10.64525 66.73432
#
# Poissons Ratio (x) = 0.15939 -0.19477
# Poissons Ratio (y) = 0.85772 1.51467
# Poissons Ratio (z) = -0.16719 0.24161
#
# Static dielectric constant tensor:
#      x y z
#    x 2.227830 0.000000 0.360610 
#    y 0.000000 1.678770 0.000000 
#    z 0.360610 0.000000 2.178290 
# 
# From -- ./inp_files/21435.got.cif
#   From: 2010.05.17/outbox.cif.g08.bks.cpg/sg14_11_cif.got.tgz:21435.got - 2010.06.03 17:49:19.
