data_PCOD9240897
_publ_section_title
;
Structure prediction by ZEFSAII (Michael W. Deem and Ramdas Pophale) SiO2 
 PCOD9240897
Probable space group: P 21/C
;
_chemical_formula_sum "Si O2"
_cell_formula_units_Z 32
_cell_length_a 11.990157
_cell_length_b 12.116961
_cell_length_c 20.931252
_cell_angle_alpha 90.000000
_cell_angle_beta 26.383530
_cell_angle_gamma 90.000000
_cell_volume 1351.344339
_symmetry_space_group_name_H-M "P 21/C"
_symmetry_group_IT_number 14
_symmetry_cell_setting 'monoclinic'
loop_
_space_group_symop_operation_xyz
x,y,z
-x,1/2+y,1/2-z
-x,-y,-z
x,1/2-y,1/2+z
loop_
_atom_site_type_symbol
_atom_site_label
_atom_site_fract_x
_atom_site_fract_y
_atom_site_fract_z
Si Si1 0.211902 0.929116 0.927983
Si Si2 0.699033 0.865293 0.046517
Si Si3 0.275242 0.680506 0.869397
Si Si4 0.726105 0.041176 0.339208
Si Si5 0.537448 0.990782 0.648156
Si Si6 0.462306 0.237501 0.003469
Si Si7 0.931410 0.132435 0.786818
Si Si8 0.980338 0.839206 0.401450
O O1 0.175685 0.798173 0.946436
O O2 0.269082 0.004928 0.959503
O O3 0.449132 0.943538 0.760341
O O4 0.000000 0.000000 0.000000
O O5 0.521115 0.818718 0.195760
O O6 0.610771 0.831792 0.021729
O O7 0.952089 0.792731 0.923014
O O8 0.331630 0.604851 0.901282
O O9 0.086677 0.625187 0.915089
O O10 0.680630 0.995664 0.291466
O O11 0.978600 0.987872 0.236286
O O12 0.500000 0.000000 0.500000
O O13 0.664524 0.169360 0.376885
O O14 0.715984 0.898704 0.527731
O O15 0.654312 0.171748 0.952249
O O16 0.189557 0.291222 0.165596
O O17 0.894790 0.128011 0.728794
#
# Coordination Sequence:
#
# PCOD9240897 Si02
#       8
#     4   4   4   4   4   4   4   4
#     4  11  22  36  56  86 125 161 197 246 311 375
#     4  10  19  33  56  85 116 153 199 245 293 370
#     4  11  21  34  55  86 122 151 196 246 315 360
#     4  10  19  39  63  84 116 161 214 251 304 370
#     4  11  22  36  59  89 119 159 206 251 302 372
#     4  10  19  37  63  89 115 158 205 255 309 367
#     4  10  21  36  66  92 114 159 214 262 304 363
#     4  11  18  35  60  87 115 156 206 249 297 366
#
# _framework density 23.680123999999999
#
# number of rings (size 3 to 8) (size 9 to 14) (size 15 to 20)
#    0.000    1.500    7.500    0.375    0.000    0.000 
#    0.000    4.375    0.000    0.000    0.000    0.000 
#    0.000    0.000    0.000    0.000    0.000    0.000 
#
# Total GULP energy -178267.048394 kJ/mol
# GULP energy per Si atom -5570.845262 kJ/mol
# Density = 2.362623 g / cm^3
# Si number density = 23.680124 Si / 1000 Ang^3
#
#
#
# Elastic Constant Matrix: (Units=GPa)
#
#
# Indices 1 2 3 4 5 6 
#
# 1 68.4843 48.8741 -15.0512 0.0000 -7.7072 0.0000
# 2 48.8741 102.9666 -4.8299 0.0000 -11.1167 0.0000
# 3 -15.0512 -4.8299 52.3209 0.0000 1.6157 0.0000
# 4 0.0000 0.0000 0.0000 27.6211 0.0000 -11.4777
# 5 -7.7072 -11.1167 1.6157 0.0000 28.1706 0.0000
# 6 0.0000 0.0000 0.0000 -11.4777 0.0000 32.8129
#
#
#
# Elastic Compliance Matrix: (Units=1/GPa)
#
#
# Indices 1 2 3 4 5 6 
#
# 1 0.023817 -0.010827 0.005793 0.000000 0.001911 0.000000
# 2 -0.010827 0.015100 -0.001816 0.000000 0.003101 0.000000
# 3 0.005793 -0.001816 0.020621 0.000000 -0.000315 0.000000
# 4 0.000000 0.000000 0.000000 0.042362 0.000000 0.014818
# 5 0.001911 0.003101 -0.000315 0.000000 0.037263 0.000000
# 6 0.000000 0.000000 0.000000 0.014818 0.000000 0.035659
#
#
# Mechanical properties :
#
#
# Convention : Reuss Voigt Hill
#
# Bulk Modulus (GPa) = 21.81591 31.30644 26.56118
# Shear Modulus (GPa) = 24.53369 30.70617 27.61993
#
# Velocity S-wave (km/s) = 3.22226 3.60489 3.41893
# Velocity P-wave (km/s) = 4.80382 5.52958 5.17943
#
# Compressibility (1/GPa) = 0.04583810
#
# Stress axis : x y z
#
# Youngs Moduli (GPa) = 41.98746 66.22298 48.49352
#
# Poissons Ratio (x) = 0.71698 -0.28092
# Poissons Ratio (y) = 0.45459 0.08808
# Poissons Ratio (z) = -0.24323 0.12028
#
# Static dielectric constant tensor:
#      x y z
#    x 1.917370 0.000000 -0.048040 
#    y 0.000000 2.097750 0.000000 
#    z -0.048040 0.000000 2.031670 
# 
# From -- ./inp_files/35265.got.cif
#   From: 2010.05.17/outbox.cif.g08.bks.cpg/sg14_18_cif.got.tgz:35265.got - 2010.06.03 17:49:19.
