data_PCOD9240315
_publ_section_title
;
Structure prediction by ZEFSAII (Michael W. Deem and Ramdas Pophale) SiO2 
 PCOD9240315
Probable space group: P 21/C
;
_chemical_formula_sum "Si O2"
_cell_formula_units_Z 22
_cell_length_a 9.661402
_cell_length_b 11.491169
_cell_length_c 9.389522
_cell_angle_alpha 90.000000
_cell_angle_beta 120.856386
_cell_angle_gamma 90.000000
_cell_volume 894.881790
_symmetry_space_group_name_H-M "P 21/C"
_symmetry_group_IT_number 14
_symmetry_cell_setting 'monoclinic'
loop_
_space_group_symop_operation_xyz
x,y,z
-x,1/2+y,1/2-z
-x,-y,-z
x,1/2-y,1/2+z
loop_
_atom_site_type_symbol
_atom_site_label
_atom_site_fract_x
_atom_site_fract_y
_atom_site_fract_z
Si Si1 0.253693 0.791659 0.015762
Si Si2 0.000000 0.000000 0.500000
Si Si3 0.393541 0.238500 0.863987
Si Si4 0.758481 0.886804 0.485784
Si Si5 0.049828 0.733853 0.656973
Si Si6 0.804763 0.549772 0.599434
O O1 0.095649 0.755219 0.843156
O O2 0.258372 0.931141 0.998031
O O3 0.418687 0.738611 0.047877
O O4 0.212852 0.771469 0.157344
O O5 0.806701 0.017833 0.481482
O O6 0.900544 0.972212 0.295711
O O7 0.341987 0.185962 0.682867
O O8 0.343853 0.134097 0.943415
O O9 0.296639 0.345981 0.886959
O O10 0.947234 0.846398 0.550412
O O11 0.931740 0.625141 0.573538
#
# Coordination Sequence:
#
# PCOD9240315 Si02
#       6
#     4   2   4   4   4   4
#     4  12  22  40  62  91 127 156 204 266 308 369
#     4  10  18  36  64  88 118 158 210 262 292 366
#     4  10  22  38  61  89 126 161 200 253 324 363
#     4  10  20  39  60  89 118 165 206 249 308 370
#     4  11  23  38  65  90 118 165 211 252 306 369
#     4  10  22  38  63  90 120 162 211 249 313 369
#
# _framework density 24.584250999999998
#
# number of rings (size 3 to 8) (size 9 to 14) (size 15 to 20)
#    0.000    1.455    1.818    5.455    0.000    0.000 
#    0.000    0.000    0.000    4.364    0.000    0.000 
#    0.000    0.000    0.000    0.000    0.000    0.000 
#
# Total GULP energy -122501.054653 kJ/mol
# GULP energy per Si atom -5568.229757 kJ/mol
# Density = 2.452830 g / cm^3
# Si number density = 24.584251 Si / 1000 Ang^3
#
#
#
# Elastic Constant Matrix: (Units=GPa)
#
#
# Indices 1 2 3 4 5 6 
#
# 1 149.2201 18.9007 4.1892 0.0000 -10.3537 0.0000
# 2 18.9007 53.4006 -9.5307 0.0000 -9.4282 0.0000
# 3 4.1892 -9.5307 52.5732 0.0000 4.6953 0.0000
# 4 0.0000 0.0000 0.0000 17.1631 0.0000 2.3316
# 5 -10.3537 -9.4282 4.6953 0.0000 28.4352 0.0000
# 6 0.0000 0.0000 0.0000 2.3316 0.0000 28.7723
#
#
#
# Elastic Compliance Matrix: (Units=1/GPa)
#
#
# Indices 1 2 3 4 5 6 
#
# 1 0.007178 -0.002397 -0.001186 0.000000 0.002015 0.000000
# 2 -0.002397 0.021189 0.003535 0.000000 0.005569 0.000000
# 3 -0.001186 0.003535 0.019985 0.000000 -0.002560 0.000000
# 4 0.000000 0.000000 0.000000 0.058913 0.000000 -0.004774
# 5 0.002015 0.005569 -0.002560 0.000000 0.038171 0.000000
# 6 0.000000 0.000000 0.000000 -0.004774 0.000000 0.035143
#
#
# Mechanical properties :
#
#
# Convention : Reuss Voigt Hill
#
# Bulk Modulus (GPa) = 20.72302 31.36803 26.04553
# Shear Modulus (GPa) = 25.41167 30.98312 28.19739
#
# Velocity S-wave (km/s) = 3.21854 3.55390 3.39037
# Velocity P-wave (km/s) = 4.71802 5.44310 5.09348
#
# Compressibility (1/GPa) = 0.04825552
#
# Stress axis : x y z
#
# Youngs Moduli (GPa) = 139.31086 47.19470 50.03738
#
# Poissons Ratio (x) = 0.11311 0.05936
# Poissons Ratio (y) = 0.33388 -0.17687
# Poissons Ratio (z) = 0.16528 -0.16682
#
# Static dielectric constant tensor:
#      x y z
#    x 1.990520 0.000000 -0.062850 
#    y 0.000000 2.628530 0.000000 
#    z -0.062850 0.000000 1.917700 
# 
# From -- ./inp_files/8617.got.cif
#   From: 2010.05.17/outbox.cif.g08.bks.cpg/sg14_5_cif.got.tgz:8617.got - 2010.06.03 17:49:19.
