data_PCOD9240594
_publ_section_title
;
Structure prediction by ZEFSAII (Michael W. Deem and Ramdas Pophale) SiO2 
 PCOD9240594
Probable space group: P 21/C
;
_chemical_formula_sum "Si O2"
_cell_formula_units_Z 32
_cell_length_a 7.623601
_cell_length_b 14.265397
_cell_length_c 13.138352
_cell_angle_alpha 90.000000
_cell_angle_beta 68.209943
_cell_angle_gamma 90.000000
_cell_volume 1326.753768
_symmetry_space_group_name_H-M "P 21/C"
_symmetry_group_IT_number 14
_symmetry_cell_setting 'monoclinic'
loop_
_space_group_symop_operation_xyz
x,y,z
-x,1/2+y,1/2-z
-x,-y,-z
x,1/2-y,1/2+z
loop_
_atom_site_type_symbol
_atom_site_label
_atom_site_fract_x
_atom_site_fract_y
_atom_site_fract_z
Si Si1 0.651425 0.426022 0.832938
Si Si2 0.787077 0.458246 0.371864
Si Si3 0.605366 0.448396 0.608842
Si Si4 0.607269 0.614554 0.939411
Si Si5 0.256542 0.726177 0.739675
Si Si6 0.102107 0.426652 0.827693
Si Si7 0.396936 0.230125 0.201884
Si Si8 0.810500 0.112885 0.564943
O O1 0.634253 0.462625 0.722070
O O2 0.703848 0.516837 0.888908
O O3 0.769696 0.330525 0.796075
O O4 0.454945 0.390893 0.929820
O O5 0.777124 0.467267 0.495500
O O6 0.576908 0.491334 0.382750
O O7 0.796901 0.351338 0.331826
O O8 0.925793 0.526446 0.279049
O O9 0.543461 0.339265 0.612034
O O10 0.698130 0.700963 0.860369
O O11 0.400968 0.619425 0.931001
O O12 0.476149 0.723994 0.734685
O O13 0.146873 0.696549 0.865717
O O14 0.244114 0.341221 0.778786
O O15 0.948129 0.390397 0.940477
O O16 0.179197 0.518299 0.871183
#
# Coordination Sequence:
#
# PCOD9240594 Si02
#       8
#     4   4   4   4   4   4   4   4
#     4  10  19  30  48  70  96 130 167 201 238 288
#     4   9  16  27  47  73  98 122 154 203 250 283
#     4   9  16  27  45  71  97 120 154 203 249 280
#     4  10  19  31  50  72  98 132 167 202 241 289
#     4   9  16  28  48  72  96 123 159 198 242 287
#     4   9  17  30  52  78 101 124 161 206 249 292
#     4   9  16  28  48  73  99 125 160 203 241 288
#     4   9  17  31  52  76  99 127 160 204 252 290
#
# _framework density 24.119018000000001
#
# number of rings (size 3 to 8) (size 9 to 14) (size 15 to 20)
#    0.000    2.750    0.000    4.500    0.000    0.000 
#    0.000    0.000    0.000   30.000    0.000    0.000 
#    0.000    0.000    0.000    0.000    0.000    0.000 
#
# Total GULP energy -178541.606783 kJ/mol
# GULP energy per Si atom -5579.425212 kJ/mol
# Density = 2.406412 g / cm^3
# Si number density = 24.119018 Si / 1000 Ang^3
#
#
#
# Elastic Constant Matrix: (Units=GPa)
#
#
# Indices 1 2 3 4 5 6 
#
# 1 31.3801 10.3602 30.9641 0.0000 -4.2113 0.0000
# 2 10.3602 114.7758 64.7648 0.0000 -9.3225 0.0000
# 3 30.9641 64.7648 222.6892 0.0000 -6.4417 0.0000
# 4 0.0000 0.0000 0.0000 40.2653 0.0000 5.8819
# 5 -4.2113 -9.3225 -6.4417 0.0000 32.7782 0.0000
# 6 0.0000 0.0000 0.0000 5.8819 0.0000 21.3498
#
#
#
# Elastic Compliance Matrix: (Units=1/GPa)
#
#
# Indices 1 2 3 4 5 6 
#
# 1 0.037406 -0.000237 -0.005024 0.000000 0.003751 0.000000
# 2 -0.000237 0.010613 -0.002984 0.000000 0.002402 0.000000
# 3 -0.005024 -0.002984 0.006048 0.000000 -0.000306 0.000000
# 4 0.000000 0.000000 0.000000 0.025877 0.000000 -0.007129
# 5 0.003751 0.002402 -0.000306 0.000000 0.031613 0.000000
# 6 0.000000 0.000000 0.000000 -0.007129 0.000000 0.048803
#
#
# Mechanical properties :
#
#
# Convention : Reuss Voigt Hill
#
# Bulk Modulus (GPa) = 26.61172 64.55814 45.58493
# Shear Modulus (GPa) = 26.40258 36.39573 31.39916
#
# Velocity S-wave (km/s) = 3.31218 3.88881 3.61202
# Velocity P-wave (km/s) = 5.06802 6.85480 6.02799
#
# Compressibility (1/GPa) = 0.03757742
#
# Stress axis : x y z
#
# Youngs Moduli (GPa) = 26.73359 94.22435 165.34021
#
# Poissons Ratio (x) = 0.02233 0.83063
# Poissons Ratio (y) = 0.00634 0.49340
# Poissons Ratio (z) = 0.13430 0.28118
#
# Static dielectric constant tensor:
#      x y z
#    x 2.067310 0.000000 0.021870 
#    y 0.000000 1.948130 0.000000 
#    z 0.021870 0.000000 1.960070 
# 
# From -- ./inp_files/44795.got.cif
#   From: 2010.05.17/outbox.cif.g08.bks.cpg/sg14_23_cif.got.tgz:44795.got - 2010.06.03 17:49:19.
