data_PCOD9240799
_publ_section_title
;
Structure prediction by ZEFSAII (Michael W. Deem and Ramdas Pophale) SiO2 
 PCOD9240799
Probable space group: P 21/C
;
_chemical_formula_sum "Si O2"
_cell_formula_units_Z 24
_cell_length_a 11.164742
_cell_length_b 18.593906
_cell_length_c 5.549008
_cell_angle_alpha 90.000000
_cell_angle_beta 126.783140
_cell_angle_gamma 90.000000
_cell_volume 922.607736
_symmetry_space_group_name_H-M "P 21/C"
_symmetry_group_IT_number 14
_symmetry_cell_setting 'monoclinic'
loop_
_space_group_symop_operation_xyz
x,y,z
-x,1/2+y,1/2-z
-x,-y,-z
x,1/2-y,1/2+z
loop_
_atom_site_type_symbol
_atom_site_label
_atom_site_fract_x
_atom_site_fract_y
_atom_site_fract_z
Si Si1 0.761734 0.766277 0.479641
Si Si2 0.534102 0.384135 0.127107
Si Si3 0.296574 0.991188 0.438263
Si Si4 0.378787 0.851189 0.767034
Si Si5 0.944601 0.905072 0.704048
Si Si6 0.045147 0.657116 0.832101
O O1 0.686940 0.742363 0.145344
O O2 0.809809 0.848036 0.511026
O O3 0.916026 0.718065 0.685816
O O4 0.399894 0.441012 0.994646
O O5 0.552447 0.339210 0.390484
O O6 0.680922 0.436001 0.258149
O O7 0.530982 0.341440 0.871297
O O8 0.137321 0.021241 0.326468
O O9 0.356533 0.939168 0.722212
O O10 0.215226 0.815764 0.553210
O O11 0.023035 0.894924 0.538871
O O12 0.026630 0.878082 0.045697
#
# Coordination Sequence:
#
# PCOD9240799 Si02
#       6
#     4   4   4   4   4   4
#     4   8  16  32  47  68  93 123 165 196 244 291
#     4   9  20  34  49  70 102 136 170 199 239 288
#     4   9  21  32  52  70 107 130 171 202 242 294
#     4  10  19  33  49  72 103 137 162 201 244 293
#     4  10  20  31  51  75  97 134 162 207 252 293
#     4  10  20  32  49  75 102 129 163 204 251 302
#
# _framework density 26.013221000000001
#
# number of rings (size 3 to 8) (size 9 to 14) (size 15 to 20)
#    1.000    1.667    0.000    1.500    2.333    1.333 
#    0.000    0.000    0.000    0.000    0.000   63.000 
#    0.000    0.000    0.000    0.000    0.000    0.000 
#
# Total GULP energy -133974.627619 kJ/mol
# GULP energy per Si atom -5582.276151 kJ/mol
# Density = 2.595401 g / cm^3
# Si number density = 26.013221 Si / 1000 Ang^3
#
#
#
# Elastic Constant Matrix: (Units=GPa)
#
#
# Indices 1 2 3 4 5 6 
#
# 1 132.1573 59.8576 61.8854 0.0000 -37.3284 0.0000
# 2 59.8576 55.4526 10.2198 0.0000 -0.1735 0.0000
# 3 61.8854 10.2198 157.1015 0.0000 -47.9378 0.0000
# 4 0.0000 0.0000 0.0000 29.2749 0.0000 0.4660
# 5 -37.3284 -0.1735 -47.9378 0.0000 48.3938 0.0000
# 6 0.0000 0.0000 0.0000 0.4660 0.0000 47.2833
#
#
#
# Elastic Compliance Matrix: (Units=1/GPa)
#
#
# Indices 1 2 3 4 5 6 
#
# 1 0.026883 -0.028317 -0.003513 0.000000 0.017154 0.000000
# 2 -0.028317 0.048166 0.002020 0.000000 -0.019669 0.000000
# 3 -0.003513 0.002020 0.009736 0.000000 0.006942 0.000000
# 4 0.000000 0.000000 0.000000 0.034164 0.000000 -0.000337
# 5 0.017154 -0.019669 0.006942 0.000000 0.040701 0.000000
# 6 0.000000 0.000000 0.000000 -0.000337 0.000000 0.021152
#
#
# Mechanical properties :
#
#
# Convention : Reuss Voigt Hill
#
# Bulk Modulus (GPa) = 39.73985 67.62634 53.68310
# Shear Modulus (GPa) = 20.09551 39.17367 29.63459
#
# Velocity S-wave (km/s) = 2.78242 3.88482 3.37888
# Velocity P-wave (km/s) = 5.06285 6.79528 5.99201
#
# Compressibility (1/GPa) = 0.02516366
#
# Stress axis : x y z
#
# Youngs Moduli (GPa) = 37.19874 20.76150 102.71178
#
# Poissons Ratio (x) = 0.58790 0.36083
# Poissons Ratio (y) = 1.05336 -0.20743
# Poissons Ratio (z) = 0.13068 -0.04193
#
# Static dielectric constant tensor:
#      x y z
#    x 2.075480 0.000000 0.014190 
#    y 0.000000 2.052920 0.000000 
#    z 0.014190 0.000000 2.010590 
# 
# From -- ./inp_files/3109.got.cif
#   From: 2010.05.17/outbox.cif.g08.bks.cpg/sg14_2_cif.got.tgz:3109.got - 2010.06.03 17:49:19.
