data_PCOD9240708
_publ_section_title
;
Structure prediction by ZEFSAII (Michael W. Deem and Ramdas Pophale) SiO2 
 PCOD9240708
Probable space group: P 21/C
;
_chemical_formula_sum "Si O2"
_cell_formula_units_Z 24
_cell_length_a 12.480068
_cell_length_b 5.503985
_cell_length_c 14.866948
_cell_angle_alpha 90.000000
_cell_angle_beta 51.880554
_cell_angle_gamma 90.000000
_cell_volume 803.413776
_symmetry_space_group_name_H-M "P 21/C"
_symmetry_group_IT_number 14
_symmetry_cell_setting 'monoclinic'
loop_
_space_group_symop_operation_xyz
x,y,z
-x,1/2+y,1/2-z
-x,-y,-z
x,1/2-y,1/2+z
loop_
_atom_site_type_symbol
_atom_site_label
_atom_site_fract_x
_atom_site_fract_y
_atom_site_fract_z
Si Si1 0.579352 0.246358 0.441875
Si Si2 0.224773 0.235982 0.761702
Si Si3 0.550497 0.016670 0.782062
Si Si4 0.286878 0.737197 0.449279
Si Si5 0.930290 0.765571 0.821069
Si Si6 0.910049 0.239021 0.598988
O O1 0.500000 0.500000 0.500000
O O2 0.602465 0.275846 0.323538
O O3 0.704294 0.241745 0.448144
O O4 0.500000 0.000000 0.500000
O O5 0.377398 0.279280 0.714337
O O6 0.146260 0.473676 0.842119
O O7 0.210133 0.253745 0.661182
O O8 0.158798 0.986563 0.828106
O O9 0.624027 0.059571 0.649374
O O10 0.388504 0.987498 0.872632
O O11 0.139284 0.741483 0.479361
O O12 0.946110 0.750074 0.920944
O O13 0.006595 0.523827 0.743847
#
# Coordination Sequence:
#
# PCOD9240708 Si02
#       6
#     4   4   4   4   4   4
#     4  10  22  36  50  71 100 133 164 198 243 292
#     4   9  17  28  46  70  95 126 161 199 241 284
#     4  10  19  32  52  74 101 129 164 202 244 291
#     4  10  19  32  52  74 101 129 164 202 244 291
#     4   8  14  26  42  65  94 121 158 198 234 283
#     4   9  17  28  46  70  95 126 161 199 241 284
#
# _framework density 29.872527000000002
#
# number of rings (size 3 to 8) (size 9 to 14) (size 15 to 20)
#    0.000    2.667    0.000    2.000    0.000    8.000 
#    0.000    0.000    0.000    1.000    0.000    0.000 
#    0.000   62.667    0.000    0.000    0.000    6.833 
#
# Total GULP energy -134110.631498 kJ/mol
# GULP energy per Si atom -5587.942979 kJ/mol
# Density = 2.980454 g / cm^3
# Si number density = 29.872527 Si / 1000 Ang^3
#
#
#
# Elastic Constant Matrix: (Units=GPa)
#
#
# Indices 1 2 3 4 5 6 
#
# 1 120.8719 42.1793 78.9784 0.0000 57.6869 0.0000
# 2 42.1793 242.4416 70.4892 0.0000 -16.4841 0.0000
# 3 78.9784 70.4892 84.3938 0.0000 43.7719 0.0000
# 4 0.0000 0.0000 0.0000 72.0613 0.0000 -21.6457
# 5 57.6869 -16.4841 43.7719 0.0000 67.5235 0.0000
# 6 0.0000 0.0000 0.0000 -21.6457 0.0000 46.3955
#
#
#
# Elastic Compliance Matrix: (Units=1/GPa)
#
#
# Indices 1 2 3 4 5 6 
#
# 1 0.024637 0.000815 -0.019469 0.000000 -0.008229 0.000000
# 2 0.000815 0.008306 -0.012640 0.000000 0.009526 0.000000
# 3 -0.019469 -0.012640 0.050620 0.000000 -0.019267 0.000000
# 4 0.000000 0.000000 0.000000 0.016139 0.000000 0.007530
# 5 -0.008229 0.009526 -0.019267 0.000000 0.036655 0.000000
# 6 0.000000 0.000000 0.000000 0.007530 0.000000 0.025067
#
#
# Mechanical properties :
#
#
# Convention : Reuss Voigt Hill
#
# Bulk Modulus (GPa) = 47.67889 92.33344 70.00616
# Shear Modulus (GPa) = 21.64468 54.26673 37.95571
#
# Velocity S-wave (km/s) = 2.69470 4.26679 3.56840
# Velocity P-wave (km/s) = 5.06728 7.43305 6.36112
#
# Compressibility (1/GPa) = 0.02097364
#
# Stress axis : x y z
#
# Youngs Moduli (GPa) = 40.58922 120.39761 19.75509
#
# Poissons Ratio (x) = -0.09809 0.38461
# Poissons Ratio (y) = -0.03307 0.24971
# Poissons Ratio (z) = 0.79022 1.52188
#
# Static dielectric constant tensor:
#      x y z
#    x 2.285420 0.000000 0.004570 
#    y 0.000000 2.301150 0.000000 
#    z 0.004570 0.000000 2.440570 
# 
# From -- ./inp_files/45716.got.cif
#   From: 2010.05.17/outbox.cif.g08.bks.cpg/sg14_23_cif.got.tgz:45716.got - 2010.06.03 17:49:19.
