data_PCOD9240700
_publ_section_title
;
Structure prediction by ZEFSAII (Michael W. Deem and Ramdas Pophale) SiO2 
 PCOD9240700
Probable space group: P 21/C
;
_chemical_formula_sum "Si O2"
_cell_formula_units_Z 32
_cell_length_a 10.202079
_cell_length_b 7.054487
_cell_length_c 20.738260
_cell_angle_alpha 90.000000
_cell_angle_beta 76.703902
_cell_angle_gamma 90.000000
_cell_volume 1452.533299
_symmetry_space_group_name_H-M "P 21/C"
_symmetry_group_IT_number 14
_symmetry_cell_setting 'monoclinic'
loop_
_space_group_symop_operation_xyz
x,y,z
-x,1/2+y,1/2-z
-x,-y,-z
x,1/2-y,1/2+z
loop_
_atom_site_type_symbol
_atom_site_label
_atom_site_fract_x
_atom_site_fract_y
_atom_site_fract_z
Si Si1 0.599411 0.750418 0.453196
Si Si2 0.835858 0.753520 0.173949
Si Si3 0.110272 0.761018 0.454711
Si Si4 0.784939 0.728785 0.320375
Si Si5 0.324235 0.677445 0.034795
Si Si6 0.911938 0.315826 0.683108
Si Si7 0.180426 0.184877 0.963978
Si Si8 0.142173 0.675082 0.169587
O O1 0.658423 0.678486 0.378922
O O2 0.447533 0.705795 0.490926
O O3 0.704139 0.694709 0.496558
O O4 0.613293 0.979491 0.448306
O O5 0.766200 0.683281 0.247199
O O6 0.778555 0.725608 0.109257
O O7 0.956967 0.718377 0.995408
O O8 0.991164 0.686095 0.159231
O O9 0.216049 0.858087 0.490412
O O10 0.843450 0.518884 0.681850
O O11 0.143462 0.536235 0.457987
O O12 0.927274 0.645849 0.329704
O O13 0.816766 0.954891 0.325017
O O14 0.242883 0.759225 0.105050
O O15 0.881813 0.196742 0.622403
O O16 0.866050 0.237207 0.757708
#
# Coordination Sequence:
#
# PCOD9240700 Si02
#       8
#     4   4   4   4   4   4   4   4
#     4  10  21  35  50  71 101 134 165 198 239 290
#     4   9  17  30  49  73  98 122 157 204 245 283
#     4  10  19  32  51  75 100 126 161 205 246 286
#     4   9  17  30  49  71  96 128 161 196 241 286
#     4  10  21  35  50  71 101 134 165 198 239 290
#     4   9  17  30  49  73  98 122 157 204 245 283
#     4  10  19  32  51  75 100 126 161 205 246 286
#     4   9  17  30  49  71  96 128 161 196 241 286
#
# _framework density 22.030474000000002
#
# number of rings (size 3 to 8) (size 9 to 14) (size 15 to 20)
#    0.000    2.500    2.500    0.000    0.000    2.000 
#    0.000    1.250    0.000    0.000    0.000    0.000 
#    0.000    0.000    0.000    0.000    0.000    0.000 
#
# Total GULP energy -178739.215030 kJ/mol
# GULP energy per Si atom -5585.600470 kJ/mol
# Density = 2.198033 g / cm^3
# Si number density = 22.030474 Si / 1000 Ang^3
#
#
#
# Elastic Constant Matrix: (Units=GPa)
#
#
# Indices 1 2 3 4 5 6 
#
# 1 75.1333 -6.8660 66.9153 0.0000 -22.8914 0.0000
# 2 -6.8660 53.9419 -1.9709 0.0000 -3.0823 0.0000
# 3 66.9153 -1.9709 217.5491 0.0000 -21.7073 0.0000
# 4 0.0000 0.0000 0.0000 9.5997 0.0000 2.8214
# 5 -22.8914 -3.0823 -21.7073 0.0000 23.3621 0.0000
# 6 0.0000 0.0000 0.0000 2.8214 0.0000 21.1744
#
#
#
# Elastic Compliance Matrix: (Units=1/GPa)
#
#
# Indices 1 2 3 4 5 6 
#
# 1 0.024565 0.004032 -0.005582 0.000000 0.019416 0.000000
# 2 0.004032 0.019383 -0.000458 0.000000 0.006083 0.000000
# 3 -0.005582 -0.000458 0.006346 0.000000 0.000367 0.000000
# 4 0.000000 0.000000 0.000000 0.108416 0.000000 -0.014446
# 5 0.019416 0.006083 0.000367 0.000000 0.062972 0.000000
# 6 0.000000 0.000000 0.000000 -0.014446 0.000000 0.049152
#
#
# Mechanical properties :
#
#
# Convention : Reuss Voigt Hill
#
# Bulk Modulus (GPa) = 21.60819 51.42012 36.51415
# Shear Modulus (GPa) = 17.22507 30.06362 23.64434
#
# Velocity S-wave (km/s) = 2.79924 3.69811 3.27961
# Velocity P-wave (km/s) = 4.50303 6.45181 5.56341
#
# Compressibility (1/GPa) = 0.04627875
#
# Stress axis : x y z
#
# Youngs Moduli (GPa) = 40.70808 51.59267 157.57783
#
# Poissons Ratio (x) = -0.20804 0.87961
# Poissons Ratio (y) = -0.16415 0.07212
# Poissons Ratio (z) = 0.22724 0.02361
#
# Static dielectric constant tensor:
#      x y z
#    x 1.730620 0.000000 -0.004800 
#    y 0.000000 1.918270 0.000000 
#    z -0.004800 0.000000 1.849190 
# 
# From -- ./inp_files/67135.got.cif
#   From: 2010.05.17/outbox.cif.g08.bks.cpg/sg14_34_cif.got.tgz:67135.got - 2010.06.03 17:49:19.
