data_PCOD9240363
_publ_section_title
;
Structure prediction by ZEFSAII (Michael W. Deem and Ramdas Pophale) SiO2 
 PCOD9240363
Probable space group: P 21/C
;
_chemical_formula_sum "Si O2"
_cell_formula_units_Z 32
_cell_length_a 10.909684
_cell_length_b 6.995061
_cell_length_c 16.102252
_cell_angle_alpha 90.000000
_cell_angle_beta 111.770943
_cell_angle_gamma 90.000000
_cell_volume 1141.178559
_symmetry_space_group_name_H-M "P 21/C"
_symmetry_group_IT_number 14
_symmetry_cell_setting 'monoclinic'
loop_
_space_group_symop_operation_xyz
x,y,z
-x,1/2+y,1/2-z
-x,-y,-z
x,1/2-y,1/2+z
loop_
_atom_site_type_symbol
_atom_site_label
_atom_site_fract_x
_atom_site_fract_y
_atom_site_fract_z
Si Si1 0.838917 0.494102 0.811402
Si Si2 0.543404 0.017997 0.197175
Si Si3 0.211268 0.950289 0.525246
Si Si4 0.516960 0.594443 0.135836
Si Si5 0.135963 0.047125 0.153491
Si Si6 0.865859 0.940351 0.137927
Si Si7 0.209537 0.003300 0.351762
Si Si8 0.299312 0.389393 0.542885
O O1 0.690057 0.422673 0.756588
O O2 0.871506 0.412077 0.911379
O O3 0.843146 0.724714 0.827003
O O4 0.899267 0.465437 0.735156
O O5 0.475821 0.000766 0.270647
O O6 0.449260 0.132510 0.111073
O O7 0.560032 0.811293 0.161785
O O8 0.158369 0.893350 0.420773
O O9 0.232210 0.181026 0.525092
O O10 0.364424 0.890853 0.572607
O O11 0.630143 0.509367 0.105705
O O12 0.175853 0.945677 0.249825
O O13 0.226160 0.996816 0.097863
O O14 0.984362 0.989626 0.105976
O O15 0.848740 0.716740 0.153697
O O16 0.730966 0.984104 0.053366
#
# Coordination Sequence:
#
# PCOD9240363 Si02
#       8
#     4   4   4   4   4   4   4   4
#     4   9  19  37  56  84 121 155 196 252 305 341
#     4  11  19  36  62  90 128 158 193 254 305 368
#     4   9  20  36  63  88 121 161 189 246 309 367
#     4  11  19  35  60  89 126 160 193 242 310 363
#     4  10  18  37  59  81 118 161 203 247 291 355
#     4  10  20  35  59  83 118 164 205 248 290 358
#     4  10  19  38  59  86 118 161 203 243 306 351
#     4  10  20  36  60  93 121 157 203 246 311 357
#
# _framework density 28.041186
#
# number of rings (size 3 to 8) (size 9 to 14) (size 15 to 20)
#    0.000    2.000    3.750    2.250    0.000    0.500 
#    0.000    8.125    2.750    0.000    0.000    0.000 
#    0.000    0.000    0.000    0.000    0.000    0.000 
#
# Total GULP energy -179017.074353 kJ/mol
# GULP energy per Si atom -5594.283574 kJ/mol
# Density = 2.797736 g / cm^3
# Si number density = 28.041186 Si / 1000 Ang^3
#
#
#
# Elastic Constant Matrix: (Units=GPa)
#
#
# Indices 1 2 3 4 5 6 
#
# 1 108.4290 13.7090 52.2292 0.0000 -15.4916 0.0000
# 2 13.7090 88.8758 15.9688 0.0000 -2.4666 0.0000
# 3 52.2292 15.9688 171.8807 0.0000 -12.8394 0.0000
# 4 0.0000 0.0000 0.0000 -285.1357 0.0000 -53.6738
# 5 -15.4916 -2.4666 -12.8394 0.0000 36.6293 0.0000
# 6 0.0000 0.0000 0.0000 -53.6738 0.0000 21.1191
#
#
#
# Elastic Compliance Matrix: (Units=1/GPa)
#
#
# Indices 1 2 3 4 5 6 
#
# 1 0.011367 -0.001099 -0.003079 0.000000 0.003654 0.000000
# 2 -0.001099 0.011555 -0.000736 0.000000 0.000056 0.000000
# 3 -0.003079 -0.000736 0.006902 0.000000 0.001067 0.000000
# 4 0.000000 0.000000 0.000000 -0.002372 0.000000 -0.006029
# 5 0.003654 0.000056 0.001067 0.000000 0.029224 0.000000
# 6 0.000000 0.000000 0.000000 -0.006029 0.000000 0.032028
#
#
# Mechanical properties :
#
#
# Convention : Reuss Voigt Hill
#
# Bulk Modulus (GPa) = 50.00774 59.22219 54.61496
# Shear Modulus (GPa) = 47.53085 -26.32557 10.60264
#
# Velocity S-wave (km/s) = 4.12155 -3.06734 1.94661
# Velocity P-wave (km/s) = 6.36568 2.93612 4.95695
#
# Compressibility (1/GPa) = 0.01999691
#
# Stress axis : x y z
#
# Youngs Moduli (GPa) = 87.97622 86.54398 144.89263
#
# Poissons Ratio (x) = 0.09508 0.44612
# Poissons Ratio (y) = 0.09666 0.10657
# Poissons Ratio (z) = 0.27087 0.06365
#
# Static dielectric constant tensor:
#      x y z
#    x 2.259150 0.000000 -0.031240 
#    y 0.000000 2.192500 0.000000 
#    z -0.031240 0.000000 2.234420 
# 
# From -- ./inp_files/57105.got.cif
#   From: 2010.05.17/outbox.cif.g08.bks.cpg/sg14_29_cif.got.tgz:57105.got - 2010.06.03 17:49:19.
