data_PCOD9240166
_publ_section_title
;
Structure prediction by ZEFSAII (Michael W. Deem and Ramdas Pophale) SiO2 
 PCOD9240166
Probable space group: P 21/C
;
_chemical_formula_sum "Si O2"
_cell_formula_units_Z 32
_cell_length_a 14.964771
_cell_length_b 14.654034
_cell_length_c 12.430174
_cell_angle_alpha 90.000000
_cell_angle_beta 28.502657
_cell_angle_gamma 90.000000
_cell_volume 1300.781856
_symmetry_space_group_name_H-M "P 21/C"
_symmetry_group_IT_number 14
_symmetry_cell_setting 'monoclinic'
loop_
_space_group_symop_operation_xyz
x,y,z
-x,1/2+y,1/2-z
-x,-y,-z
x,1/2-y,1/2+z
loop_
_atom_site_type_symbol
_atom_site_label
_atom_site_fract_x
_atom_site_fract_y
_atom_site_fract_z
Si Si1 0.979747 0.878505 0.827824
Si Si2 0.547641 0.862674 0.284722
Si Si3 0.943606 0.833292 0.385530
Si Si4 0.271105 0.630205 0.412825
Si Si5 0.237846 0.527595 0.231040
Si Si6 0.692046 0.656879 0.942039
Si Si7 0.709758 0.157136 0.651249
Si Si8 0.400415 0.186736 0.124824
O O1 0.993407 0.772798 0.854311
O O2 0.085817 0.936073 0.806430
O O3 0.098105 0.888751 0.591801
O O4 0.760359 0.892096 0.040987
O O5 0.433480 0.929000 0.483589
O O6 0.430081 0.860521 0.300336
O O7 0.548926 0.762194 0.337629
O O8 0.839349 0.834876 0.380665
O O9 0.784153 0.864781 0.637456
O O10 0.138179 0.883518 0.156034
O O11 0.213276 0.567208 0.375075
O O12 0.247270 0.734305 0.394737
O O13 0.492220 0.623432 0.200036
O O14 0.245368 0.419622 0.208300
O O15 0.663440 0.750453 0.908546
O O16 0.587812 0.136246 0.886321
#
# Coordination Sequence:
#
# PCOD9240166 Si02
#       8
#     4   4   4   4   4   4   4   4
#     4   9  20  36  56  86 118 161 199 238 295 357
#     4  10  19  35  54  82 122 157 194 242 301 349
#     4  10  23  38  55  85 122 160 204 242 288 357
#     4  10  20  35  55  85 124 155 192 234 300 359
#     4  11  22  35  61  91 128 155 186 246 314 360
#     4  11  23  39  59  92 125 157 191 246 307 358
#     4   9  18  35  55  84 114 156 205 242 283 352
#     4  10  18  35  59  80 119 157 196 245 294 342
#
# _framework density 24.60059
#
# number of rings (size 3 to 8) (size 9 to 14) (size 15 to 20)
#    0.000    2.000    2.500    3.375    3.500    1.500 
#    0.000    0.000    0.000    3.000    0.000    7.875 
#    0.000    0.000    0.000    0.000    0.000    0.000 
#
# Total GULP energy -179112.809876 kJ/mol
# GULP energy per Si atom -5597.275309 kJ/mol
# Density = 2.454460 g / cm^3
# Si number density = 24.600590 Si / 1000 Ang^3
#
#
#
# Elastic Constant Matrix: (Units=GPa)
#
#
# Indices 1 2 3 4 5 6 
#
# 1 68.6809 17.0702 25.3653 0.0000 -19.2537 0.0000
# 2 17.0702 43.3883 14.9381 0.0000 4.0711 0.0000
# 3 25.3653 14.9381 254.6005 0.0000 -6.4918 0.0000
# 4 0.0000 0.0000 0.0000 27.6330 0.0000 -2.0242
# 5 -19.2537 4.0711 -6.4918 0.0000 33.7895 0.0000
# 6 0.0000 0.0000 0.0000 -2.0242 0.0000 24.4576
#
#
#
# Elastic Compliance Matrix: (Units=1/GPa)
#
#
# Indices 1 2 3 4 5 6 
#
# 1 0.020795 -0.008951 -0.001223 0.000000 0.012693 0.000000
# 2 -0.008951 0.027707 -0.000954 0.000000 -0.008622 0.000000
# 3 -0.001223 -0.000954 0.004111 0.000000 0.000208 0.000000
# 4 0.000000 0.000000 0.000000 0.036409 0.000000 0.003013
# 5 0.012693 -0.008622 0.000208 0.000000 0.037906 0.000000
# 6 0.000000 0.000000 0.000000 0.003013 0.000000 0.041137
#
#
# Mechanical properties :
#
#
# Convention : Reuss Voigt Hill
#
# Bulk Modulus (GPa) = 32.94163 53.49074 43.21619
# Shear Modulus (GPa) = 24.94531 37.79575 31.37053
#
# Velocity S-wave (km/s) = 3.18781 3.92392 3.57486
# Velocity P-wave (km/s) = 5.19319 6.50541 5.88598
#
# Compressibility (1/GPa) = 0.03035672
#
# Stress axis : x y z
#
# Youngs Moduli (GPa) = 48.08923 36.09243 243.26089
#
# Poissons Ratio (x) = 0.32307 0.29748
# Poissons Ratio (y) = 0.43045 0.23199
# Poissons Ratio (z) = 0.05881 0.03442
#
# Static dielectric constant tensor:
#      x y z
#    x 1.920450 0.000000 0.008380 
#    y 0.000000 1.975150 0.000000 
#    z 0.008380 0.000000 2.069400 
# 
# From -- ./inp_files/33046.got.cif
#   From: 2010.05.17/outbox.cif.g08.bks.cpg/sg14_17_cif.got.tgz:33046.got - 2010.06.03 17:49:19.
