data_PCOD9240135
_publ_section_title
;
Structure prediction by ZEFSAII (Michael W. Deem and Ramdas Pophale) SiO2 
 PCOD9240135
Probable space group: P 21/C
;
_chemical_formula_sum "Si O2"
_cell_formula_units_Z 28
_cell_length_a 11.301836
_cell_length_b 15.319038
_cell_length_c 21.001794
_cell_angle_alpha 90.000000
_cell_angle_beta 21.098079
_cell_angle_gamma 90.000000
_cell_volume 1308.873882
_symmetry_space_group_name_H-M "P 21/C"
_symmetry_group_IT_number 14
_symmetry_cell_setting 'monoclinic'
loop_
_space_group_symop_operation_xyz
x,y,z
-x,1/2+y,1/2-z
-x,-y,-z
x,1/2-y,1/2+z
loop_
_atom_site_type_symbol
_atom_site_label
_atom_site_fract_x
_atom_site_fract_y
_atom_site_fract_z
Si Si1 0.018706 0.981561 0.738507
Si Si2 0.368697 0.383268 0.397398
Si Si3 0.076486 0.288244 0.041289
Si Si4 0.519736 0.421578 0.895636
Si Si5 0.573320 0.061632 0.052377
Si Si6 0.791731 0.876140 0.649156
Si Si7 0.530011 0.465058 0.193005
O O1 0.243992 0.022836 0.571497
O O2 0.713493 0.939220 0.855932
O O3 0.209171 0.911739 0.686112
O O4 0.899788 0.059829 0.845517
O O5 0.093440 0.312486 0.552035
O O6 0.411006 0.466830 0.420852
O O7 0.313597 0.413315 0.352255
O O8 0.720638 0.333190 0.223209
O O9 0.329948 0.341895 0.958149
O O10 0.189154 0.297432 0.910649
O O11 0.643933 0.486531 0.777465
O O12 0.459396 0.127018 0.165631
O O13 0.161231 0.905188 0.484079
O O14 0.678909 0.956485 0.660858
#
# Coordination Sequence:
#
# PCOD9240135 Si02
#       7
#     4   4   4   4   4   4   4
#     4  10  20  30  56  78 102 130 178 218 258 294
#     4  10  20  34  54  77 106 137 168 214 271 316
#     4  10  20  34  54  77 106 137 168 214 271 316
#     4  10  18  35  53  82 101 136 177 223 250 309
#     4  10  18  35  53  82 101 136 177 223 250 309
#     4   8  14  30  53  73  96 128 166 209 255 299
#     4   8  14  30  53  73  96 128 166 209 255 299
#
# _framework density 21.392434999999999
#
# number of rings (size 3 to 8) (size 9 to 14) (size 15 to 20)
#    0.000    2.571    2.857    1.714    2.000    0.000 
#    2.571    2.143    0.000   10.286    0.000    0.000 
#    0.000    0.000    0.000    0.000    0.000    0.000 
#
# Total GULP energy -156115.317713 kJ/mol
# GULP energy per Si atom -5575.547061 kJ/mol
# Density = 2.134374 g / cm^3
# Si number density = 21.392435 Si / 1000 Ang^3
#
#
#
# Elastic Constant Matrix: (Units=GPa)
#
#
# Indices 1 2 3 4 5 6 
#
# 1 98.3765 17.9857 13.4848 0.0000 0.5011 0.0000
# 2 17.9857 51.6940 -6.0397 0.0000 -1.5785 0.0000
# 3 13.4848 -6.0397 40.3104 0.0000 8.3326 0.0000
# 4 0.0000 0.0000 0.0000 20.8180 0.0000 3.9895
# 5 0.5011 -1.5785 8.3326 0.0000 27.6937 0.0000
# 6 0.0000 0.0000 0.0000 3.9895 0.0000 16.4354
#
#
#
# Elastic Compliance Matrix: (Units=1/GPa)
#
#
# Indices 1 2 3 4 5 6 
#
# 1 0.011654 -0.004584 -0.004786 0.000000 0.000968 0.000000
# 2 -0.004584 0.021494 0.004781 0.000000 -0.000130 0.000000
# 3 -0.004786 0.004781 0.028844 0.000000 -0.008320 0.000000
# 4 0.000000 0.000000 0.000000 0.050379 0.000000 -0.012229
# 5 0.000968 -0.000130 -0.008320 0.000000 0.038588 0.000000
# 6 0.000000 0.000000 0.000000 -0.012229 0.000000 0.063813
#
#
# Mechanical properties :
#
#
# Convention : Reuss Voigt Hill
#
# Bulk Modulus (GPa) = 18.93396 26.80472 22.86934
# Shear Modulus (GPa) = 20.69925 23.98611 22.34268
#
# Velocity S-wave (km/s) = 3.11400 3.35213 3.23525
# Velocity P-wave (km/s) = 4.66897 5.24781 4.96683
#
# Compressibility (1/GPa) = 0.05281517
#
# Stress axis : x y z
#
# Youngs Moduli (GPa) = 85.80600 46.52410 34.66871
#
# Poissons Ratio (x) = 0.21328 0.16591
# Poissons Ratio (y) = 0.39337 -0.16575
# Poissons Ratio (z) = 0.41062 -0.22243
#
# Static dielectric constant tensor:
#      x y z
#    x 1.772390 0.000000 0.025920 
#    y 0.000000 1.777090 0.000000 
#    z 0.025920 0.000000 1.879970 
# 
# From -- ./inp_files/73357.got.cif
#   From: 2010.05.17/outbox.cif.g08.bks.cpg/sg14_37_cif.got.tgz:73357.got - 2010.06.03 17:49:19.
