data_PCOD9240044
_publ_section_title
;
Structure prediction by ZEFSAII (Michael W. Deem and Ramdas Pophale) SiO2 
 PCOD9240044
Probable space group: P 21/C
;
_chemical_formula_sum "Si O2"
_cell_formula_units_Z 32
_cell_length_a 7.612295
_cell_length_b 9.081278
_cell_length_c 21.689632
_cell_angle_alpha 90.000000
_cell_angle_beta 104.929591
_cell_angle_gamma 90.000000
_cell_volume 1448.775834
_symmetry_space_group_name_H-M "P 21/C"
_symmetry_group_IT_number 14
_symmetry_cell_setting 'monoclinic'
loop_
_space_group_symop_operation_xyz
x,y,z
-x,1/2+y,1/2-z
-x,-y,-z
x,1/2-y,1/2+z
loop_
_atom_site_type_symbol
_atom_site_label
_atom_site_fract_x
_atom_site_fract_y
_atom_site_fract_z
Si Si1 0.456294 0.303138 0.930273
Si Si2 0.165627 0.089863 0.144148
Si Si3 0.434502 0.827242 0.191749
Si Si4 0.148889 0.167141 0.743293
Si Si5 0.832428 0.636305 0.927012
Si Si6 0.248533 0.945911 0.462138
Si Si7 0.168745 0.592386 0.168582
Si Si8 0.093087 0.331707 0.384319
O O1 0.539571 0.242190 0.874387
O O2 0.610587 0.330323 0.995172
O O3 0.292586 0.189616 0.928889
O O4 0.349017 0.461521 0.917337
O O5 0.105220 0.195694 0.195145
O O6 0.223209 0.199457 0.094749
O O7 0.325505 0.979460 0.178715
O O8 0.003713 0.982923 0.108384
O O9 0.631837 0.845116 0.237866
O O10 0.308305 0.704556 0.212572
O O11 0.100166 0.180195 0.810236
O O12 0.072373 0.014787 0.708645
O O13 0.784074 0.570205 0.988179
O O14 0.742957 0.525098 0.869843
O O15 0.050689 0.623779 0.934327
O O16 0.038260 0.693210 0.114273
#
# Coordination Sequence:
#
# PCOD9240044 Si02
#       8
#     4   4   4   4   4   4   4   4
#     4  10  20  36  59  82 113 144 194 234 289 329
#     4  10  22  37  57  87 119 148 187 237 284 346
#     4  10  20  36  56  83 115 148 183 237 286 337
#     4  10  20  34  57  82 115 150 192 222 282 339
#     4  10  20  37  61  83 110 145 203 231 284 337
#     4  10  20  38  62  86 104 154 200 244 272 348
#     4  10  18  34  57  77 109 152 186 226 276 346
#     4  10  20  36  56  83 115 148 183 237 286 337
#
# _framework density 22.087613000000001
#
# number of rings (size 3 to 8) (size 9 to 14) (size 15 to 20)
#    0.000    2.000    2.500    1.500    0.000    0.000 
#    0.000    8.750    5.500    0.000    0.000    0.000 
#    0.000    0.000    0.000    0.000    0.000    0.000 
#
# Total GULP energy -178556.116123 kJ/mol
# GULP energy per Si atom -5579.878629 kJ/mol
# Density = 2.203734 g / cm^3
# Si number density = 22.087613 Si / 1000 Ang^3
#
#
#
# Elastic Constant Matrix: (Units=GPa)
#
#
# Indices 1 2 3 4 5 6 
#
# 1 61.3185 22.8409 -2.4741 0.0000 14.3750 0.0000
# 2 22.8409 140.1069 26.0111 0.0000 5.2063 0.0000
# 3 -2.4741 26.0111 48.1284 0.0000 -2.8257 0.0000
# 4 0.0000 0.0000 0.0000 28.2743 0.0000 -1.5648
# 5 14.3750 5.2063 -2.8257 0.0000 32.8866 0.0000
# 6 0.0000 0.0000 0.0000 -1.5648 0.0000 24.8349
#
#
#
# Elastic Compliance Matrix: (Units=1/GPa)
#
#
# Indices 1 2 3 4 5 6 
#
# 1 0.019463 -0.003318 0.002337 0.000000 -0.007781 0.000000
# 2 -0.003318 0.008587 -0.004830 0.000000 -0.000324 0.000000
# 3 0.002337 -0.004830 0.023613 0.000000 0.001772 0.000000
# 4 0.000000 0.000000 0.000000 0.035492 0.000000 0.002236
# 5 -0.007781 -0.000324 0.001772 0.000000 0.034012 0.000000
# 6 0.000000 0.000000 0.000000 0.002236 0.000000 0.040407
#
#
# Mechanical properties :
#
#
# Convention : Reuss Voigt Hill
#
# Bulk Modulus (GPa) = 24.97545 38.03441 31.50493
# Shear Modulus (GPa) = 26.80358 30.74422 28.77390
#
# Velocity S-wave (km/s) = 3.48733 3.73489 3.61323
# Velocity P-wave (km/s) = 5.24855 5.98802 5.63044
#
# Compressibility (1/GPa) = 0.04003932
#
# Stress axis : x y z
#
# Youngs Moduli (GPa) = 51.38084 116.45398 42.35035
#
# Poissons Ratio (x) = 0.38634 -0.09896
# Poissons Ratio (y) = 0.17046 0.20457
# Poissons Ratio (z) = -0.12006 0.56253
#
# Static dielectric constant tensor:
#      x y z
#    x 1.867890 0.000000 -0.017830 
#    y 0.000000 1.813600 0.000000 
#    z -0.017830 0.000000 1.819700 
# 
# From -- ./inp_files/26956.got.cif
#   From: 2010.05.17/outbox.cif.g08.bks.cpg/sg14_14_cif.got.tgz:26956.got - 2010.06.03 17:49:19.
