data_PCOD9240504
_publ_section_title
;
Structure prediction by ZEFSAII (Michael W. Deem and Ramdas Pophale) SiO2 
 PCOD9240504
Probable space group: P 21/C
;
_chemical_formula_sum "Si O2"
_cell_formula_units_Z 32
_cell_length_a 8.635498
_cell_length_b 11.969562
_cell_length_c 14.696273
_cell_angle_alpha 90.000000
_cell_angle_beta 95.225940
_cell_angle_gamma 90.000000
_cell_volume 1512.738456
_symmetry_space_group_name_H-M "P 21/C"
_symmetry_group_IT_number 14
_symmetry_cell_setting 'monoclinic'
loop_
_space_group_symop_operation_xyz
x,y,z
-x,1/2+y,1/2-z
-x,-y,-z
x,1/2-y,1/2+z
loop_
_atom_site_type_symbol
_atom_site_label
_atom_site_fract_x
_atom_site_fract_y
_atom_site_fract_z
Si Si1 0.043948 0.456869 0.253975
Si Si2 0.260372 0.692108 0.750023
Si Si3 0.876921 0.244034 0.435421
Si Si4 0.145288 0.366398 0.863577
Si Si5 0.111658 0.638957 0.386608
Si Si6 0.534147 0.623998 0.879000
Si Si7 0.707961 0.043868 0.493480
Si Si8 0.213166 0.257402 0.687218
O O1 0.115742 0.515446 0.346100
O O2 0.152132 0.363989 0.215907
O O3 0.879462 0.396817 0.262615
O O4 0.994760 0.557492 0.184466
O O5 0.249269 0.749553 0.651623
O O6 0.214187 0.780696 0.826435
O O7 0.417674 0.631150 0.787562
O O8 0.850183 0.341205 0.506607
O O9 0.850176 0.126997 0.486037
O O10 0.050648 0.235585 0.404003
O O11 0.244390 0.324589 0.782466
O O12 0.239768 0.441982 0.938642
O O13 0.933648 0.681885 0.365763
O O14 0.637565 0.513284 0.900100
O O15 0.645653 0.730506 0.872163
O O16 0.422623 0.615883 0.961069
#
# Coordination Sequence:
#
# PCOD9240504 Si02
#       8
#     4   4   4   4   4   4   4   4
#     4  10  18  40  61  85 125 158 210 251 309 368
#     4  11  22  41  58  91 128 160 209 254 312 373
#     4  12  21  39  68  95 120 164 210 266 313 365
#     4  11  20  38  67  94 121 160 209 271 310 357
#     4  10  21  39  63  91 120 161 212 261 306 373
#     4  11  23  38  59  91 132 160 198 262 309 379
#     4  11  23  38  64  97 124 165 216 258 316 371
#     4  10  21  39  60  92 128 163 205 261 316 371
#
# _framework density 21.153690999999998
#
# number of rings (size 3 to 8) (size 9 to 14) (size 15 to 20)
#    0.000    1.250    6.250    2.625    0.000    2.500 
#    0.000    0.000    0.000    0.750    0.000    0.000 
#    0.000    0.000    0.000    0.000    0.000    0.000 
#
# Total GULP energy -178603.143523 kJ/mol
# GULP energy per Si atom -5581.348235 kJ/mol
# Density = 2.110554 g / cm^3
# Si number density = 21.153691 Si / 1000 Ang^3
#
#
#
# Elastic Constant Matrix: (Units=GPa)
#
#
# Indices 1 2 3 4 5 6 
#
# 1 48.2617 3.8729 16.7760 0.0000 7.0320 0.0000
# 2 3.8729 45.7400 8.4893 0.0000 3.3107 0.0000
# 3 16.7760 8.4893 69.1844 0.0000 8.9490 0.0000
# 4 0.0000 0.0000 0.0000 36.3725 0.0000 5.1489
# 5 7.0320 3.3107 8.9490 0.0000 24.3285 0.0000
# 6 0.0000 0.0000 0.0000 5.1489 0.0000 21.6484
#
#
#
# Elastic Compliance Matrix: (Units=1/GPa)
#
#
# Indices 1 2 3 4 5 6 
#
# 1 0.023184 -0.000704 -0.004915 0.000000 -0.004798 0.000000
# 2 -0.000704 0.022500 -0.002331 0.000000 -0.002001 0.000000
# 3 -0.004915 -0.002331 0.016492 0.000000 -0.004328 0.000000
# 4 0.000000 0.000000 0.000000 0.028451 0.000000 -0.006767
# 5 -0.004798 -0.002001 -0.004328 0.000000 0.044355 0.000000
# 6 0.000000 0.000000 0.000000 -0.006767 0.000000 0.047802
#
#
# Mechanical properties :
#
#
# Convention : Reuss Voigt Hill
#
# Bulk Modulus (GPa) = 21.60936 24.60691 23.10814
# Shear Modulus (GPa) = 23.35249 25.40640 24.37945
#
# Velocity S-wave (km/s) = 3.32617 3.46936 3.39852
# Velocity P-wave (km/s) = 4.99888 5.26368 5.13299
#
# Compressibility (1/GPa) = 0.04627624
#
# Stress axis : x y z
#
# Youngs Moduli (GPa) = 43.13260 44.44477 60.63600
#
# Poissons Ratio (x) = 0.03127 0.29802
# Poissons Ratio (y) = 0.03035 0.14137
# Poissons Ratio (z) = 0.21199 0.10362
#
# Static dielectric constant tensor:
#      x y z
#    x 1.771800 0.000000 -0.011870 
#    y 0.000000 1.800090 0.000000 
#    z -0.011870 0.000000 1.834620 
# 
# From -- ./inp_files/40339.got.cif
#   From: 2010.05.17/outbox.cif.g08.bks.cpg/sg14_21_cif.got.tgz:40339.got - 2010.06.03 17:49:19.
