data_PCOD9240293
_publ_section_title
;
Structure prediction by ZEFSAII (Michael W. Deem and Ramdas Pophale) SiO2 
 PCOD9240293
Probable space group: P 21/C
;
_chemical_formula_sum "Si O2"
_cell_formula_units_Z 32
_cell_length_a 8.678101
_cell_length_b 11.166927
_cell_length_c 17.693272
_cell_angle_alpha 90.000000
_cell_angle_beta 73.346759
_cell_angle_gamma 90.000000
_cell_volume 1642.698042
_symmetry_space_group_name_H-M "P 21/C"
_symmetry_group_IT_number 14
_symmetry_cell_setting 'monoclinic'
loop_
_space_group_symop_operation_xyz
x,y,z
-x,1/2+y,1/2-z
-x,-y,-z
x,1/2-y,1/2+z
loop_
_atom_site_type_symbol
_atom_site_label
_atom_site_fract_x
_atom_site_fract_y
_atom_site_fract_z
Si Si1 0.349533 0.873718 0.179518
Si Si2 0.387320 0.200457 0.423922
Si Si3 0.811543 0.356104 0.728695
Si Si4 0.508771 0.517401 0.807011
Si Si5 0.547031 0.761873 0.412906
Si Si6 0.835503 0.593846 0.357313
Si Si7 0.107567 0.360774 0.472788
Si Si8 0.231906 0.618128 0.435717
O O1 0.497217 0.810317 0.116274
O O2 0.237183 0.762612 0.219410
O O3 0.421100 0.945496 0.241674
O O4 0.249535 0.967745 0.144768
O O5 0.423807 0.088630 0.365840
O O6 0.417790 0.183795 0.509060
O O7 0.205919 0.244502 0.437943
O O8 0.686331 0.462494 0.765861
O O9 0.785603 0.323815 0.644229
O O10 0.997240 0.393307 0.710514
O O11 0.507689 0.633132 0.860470
O O12 0.703216 0.694440 0.358634
O O13 0.403783 0.663387 0.440261
O O14 0.872269 0.614141 0.440534
O O15 0.194411 0.477555 0.426085
O O16 0.917056 0.347986 0.488775
#
# Coordination Sequence:
#
# PCOD9240293 Si02
#       8
#     4   4   4   4   4   4   4   4
#     4  11  22  39  60  87 118 157 201 245 294 355
#     4  10  22  39  58  86 120 153 200 241 294 361
#     4  10  22  38  56  88 121 152 199 242 298 354
#     4  11  23  38  60  84 122 163 194 244 300 359
#     4  11  21  38  62  85 118 159 198 241 303 351
#     4  10  22  36  60  86 115 154 196 251 294 346
#     4   9  19  36  60  85 115 147 199 250 298 339
#     4  10  18  36  61  87 113 153 195 252 292 350
#
# _framework density 19.480146999999999
#
# number of rings (size 3 to 8) (size 9 to 14) (size 15 to 20)
#    0.000    1.750    1.250    3.375    3.500    2.000 
#    0.000    4.375    0.000    0.000    0.000    0.000 
#    0.000    0.000    0.000    0.000    0.000    0.000 
#
# Total GULP energy -178560.100980 kJ/mol
# GULP energy per Si atom -5580.003156 kJ/mol
# Density = 1.943581 g / cm^3
# Si number density = 19.480147 Si / 1000 Ang^3
#
#
#
# Elastic Constant Matrix: (Units=GPa)
#
#
# Indices 1 2 3 4 5 6 
#
# 1 93.9964 40.6022 20.0043 0.0000 -25.8024 0.0000
# 2 40.6022 70.6207 25.1384 0.0000 -16.2518 0.0000
# 3 20.0043 25.1384 55.9715 0.0000 -13.0862 0.0000
# 4 0.0000 0.0000 0.0000 32.4825 0.0000 1.6942
# 5 -25.8024 -16.2518 -13.0862 0.0000 28.2627 0.0000
# 6 0.0000 0.0000 0.0000 1.6942 0.0000 16.9101
#
#
#
# Elastic Compliance Matrix: (Units=1/GPa)
#
#
# Indices 1 2 3 4 5 6 
#
# 1 0.016779 -0.006985 -0.000244 0.000000 0.011189 0.000000
# 2 -0.006985 0.021070 -0.006308 0.000000 0.002818 0.000000
# 3 -0.000244 -0.006308 0.022300 0.000000 0.006476 0.000000
# 4 0.000000 0.000000 0.000000 0.030947 0.000000 -0.003101
# 5 0.011189 0.002818 0.006476 0.000000 0.050216 0.000000
# 6 0.000000 0.000000 0.000000 -0.003101 0.000000 0.059447
#
#
# Mechanical properties :
#
#
# Convention : Reuss Voigt Hill
#
# Bulk Modulus (GPa) = 30.23308 43.56426 36.89867
# Shear Modulus (GPa) = 20.93280 24.52065 22.72672
#
# Velocity S-wave (km/s) = 3.28162 3.55174 3.41935
# Velocity P-wave (km/s) = 5.46922 6.26352 5.87980
#
# Compressibility (1/GPa) = 0.03307635
#
# Stress axis : x y z
#
# Youngs Moduli (GPa) = 59.59700 47.46065 44.84231
#
# Poissons Ratio (x) = 0.33153 0.01092
# Poissons Ratio (y) = 0.41631 0.28285
# Poissons Ratio (z) = 0.01452 0.29937
#
# Static dielectric constant tensor:
#      x y z
#    x 1.715620 0.000000 -0.009970 
#    y 0.000000 1.678920 0.000000 
#    z -0.009970 0.000000 1.687780 
# 
# From -- ./inp_files/55382.got.cif
#   From: 2010.05.17/outbox.cif.g08.bks.cpg/sg14_28_cif.got.tgz:55382.got - 2010.06.03 17:49:19.
