data_PCOD9240638
_publ_section_title
;
Structure prediction by ZEFSAII (Michael W. Deem and Ramdas Pophale) SiO2 
 PCOD9240638
Probable space group: P 21/C
;
_chemical_formula_sum "Si O2"
_cell_formula_units_Z 32
_cell_length_a 9.023510
_cell_length_b 11.007082
_cell_length_c 21.369475
_cell_angle_alpha 90.000000
_cell_angle_beta 38.504216
_cell_angle_gamma 90.000000
_cell_volume 1321.390857
_symmetry_space_group_name_H-M "P 21/C"
_symmetry_group_IT_number 14
_symmetry_cell_setting 'monoclinic'
loop_
_space_group_symop_operation_xyz
x,y,z
-x,1/2+y,1/2-z
-x,-y,-z
x,1/2-y,1/2+z
loop_
_atom_site_type_symbol
_atom_site_label
_atom_site_fract_x
_atom_site_fract_y
_atom_site_fract_z
Si Si1 0.265210 0.578108 0.398067
Si Si2 0.267436 0.660506 0.869662
Si Si3 0.295500 0.184368 0.871893
Si Si4 0.806029 0.919690 0.663276
Si Si5 0.206514 0.887251 0.630584
Si Si6 0.435404 0.118005 0.605012
Si Si7 0.410953 0.116836 0.096413
Si Si8 0.596813 0.353658 0.395974
O O1 0.153588 0.705083 0.411876
O O2 0.161700 0.446310 0.413015
O O3 0.530775 0.574921 0.277022
O O4 0.344589 0.598112 0.444209
O O5 0.489880 0.676717 0.749040
O O6 0.121364 0.548988 0.889949
O O7 0.384890 0.616666 0.895837
O O8 0.169423 0.308959 0.893697
O O9 0.418320 0.179034 0.898947
O O10 0.971501 0.896598 0.667374
O O11 0.411852 0.882460 0.509187
O O12 0.226651 0.758927 0.658458
O O13 0.268419 0.000657 0.654883
O O14 0.316592 0.251365 0.648081
O O15 0.287883 0.987126 0.149599
O O16 0.458321 0.130961 0.007201
#
# Coordination Sequence:
#
# PCOD9240638 Si02
#       8
#     4   4   4   4   4   4   4   4
#     4   8  16  32  51  71  96 129 162 194 243 293
#     4   9  17  32  52  71  96 130 160 195 244 291
#     4   9  17  31  52  74  95 127 163 197 242 291
#     4  10  19  31  49  75 101 124 161 205 237 282
#     4  10  20  32  49  74 100 128 163 201 238 284
#     4   9  18  34  52  69  97 134 163 193 244 293
#     4   8  15  30  52  70  88 125 167 196 229 288
#     4   9  16  30  53  72  91 125 165 197 237 289
#
# _framework density 24.216908
#
# number of rings (size 3 to 8) (size 9 to 14) (size 15 to 20)
#    0.000    3.000    0.000    0.750    0.000    0.500 
#    0.000   12.500    0.000   25.500    0.000    0.000 
#    0.000    0.000    0.000    0.000    0.000    0.000 
#
# Total GULP energy -178666.983656 kJ/mol
# GULP energy per Si atom -5583.343239 kJ/mol
# Density = 2.416179 g / cm^3
# Si number density = 24.216908 Si / 1000 Ang^3
#
#
#
# Elastic Constant Matrix: (Units=GPa)
#
#
# Indices 1 2 3 4 5 6 
#
# 1 89.6286 88.6892 8.8764 0.0000 11.5119 0.0000
# 2 88.6892 270.4315 11.5796 0.0000 7.2675 0.0000
# 3 8.8764 11.5796 25.0204 0.0000 1.9075 0.0000
# 4 0.0000 0.0000 0.0000 15.9537 0.0000 18.5969
# 5 11.5119 7.2675 1.9075 0.0000 24.3280 0.0000
# 6 0.0000 0.0000 0.0000 18.5969 0.0000 30.0676
#
#
#
# Elastic Compliance Matrix: (Units=1/GPa)
#
#
# Indices 1 2 3 4 5 6 
#
# 1 0.017772 -0.005514 -0.003257 0.000000 -0.006507 0.000000
# 2 -0.005514 0.005508 -0.000670 0.000000 0.001016 0.000000
# 3 -0.003257 -0.000670 0.041549 0.000000 -0.001516 0.000000
# 4 0.000000 0.000000 0.000000 0.224648 0.000000 -0.138946
# 5 -0.006507 0.001016 -0.001516 0.000000 0.043999 0.000000
# 6 0.000000 0.000000 0.000000 -0.138946 0.000000 0.119197
#
#
# Mechanical properties :
#
#
# Convention : Reuss Voigt Hill
#
# Bulk Modulus (GPa) = 21.76480 67.04122 44.40301
# Shear Modulus (GPa) = 10.26970 32.46555 21.36763
#
# Velocity S-wave (km/s) = 2.06153 3.66541 2.97365
# Velocity P-wave (km/s) = 3.83060 6.75703 5.49231
#
# Compressibility (1/GPa) = 0.04594576
#
# Stress axis : x y z
#
# Youngs Moduli (GPa) = 56.26952 181.57047 24.06815
#
# Poissons Ratio (x) = 1.00117 0.07839
# Poissons Ratio (y) = 0.31027 0.01613
# Poissons Ratio (z) = 0.18326 0.12169
#
# Static dielectric constant tensor:
#      x y z
#    x 1.839780 0.000000 -0.015020 
#    y 0.000000 2.014600 0.000000 
#    z -0.015020 0.000000 2.028350 
# 
# From -- ./inp_files/72272.got.cif
#   From: 2010.05.17/outbox.cif.g08.bks.cpg/sg14_37_cif.got.tgz:72272.got - 2010.06.03 17:49:19.
