data_PCOD9240381
_publ_section_title
;
Structure prediction by ZEFSAII (Michael W. Deem and Ramdas Pophale) SiO2 
 PCOD9240381
Probable space group: P 21/C
;
_chemical_formula_sum "Si O2"
_cell_formula_units_Z 32
_cell_length_a 15.829051
_cell_length_b 16.935944
_cell_length_c 11.817256
_cell_angle_alpha 90.000000
_cell_angle_beta 28.854215
_cell_angle_gamma 90.000000
_cell_volume 1528.806891
_symmetry_space_group_name_H-M "P 21/C"
_symmetry_group_IT_number 14
_symmetry_cell_setting 'monoclinic'
loop_
_space_group_symop_operation_xyz
x,y,z
-x,1/2+y,1/2-z
-x,-y,-z
x,1/2-y,1/2+z
loop_
_atom_site_type_symbol
_atom_site_label
_atom_site_fract_x
_atom_site_fract_y
_atom_site_fract_z
Si Si1 0.853675 0.644691 0.858062
Si Si2 0.497966 0.161435 0.332503
Si Si3 0.525486 0.412928 0.022530
Si Si4 0.348866 0.007506 0.919187
Si Si5 0.944581 0.024124 0.316716
Si Si6 0.912461 0.126838 0.132554
Si Si7 0.169075 0.555569 0.818961
Si Si8 0.855434 0.292584 0.317432
O O1 0.842636 0.558637 0.928249
O O2 0.940590 0.627052 0.634868
O O3 0.988190 0.692865 0.777420
O O4 0.667925 0.683710 0.048851
O O5 0.453686 0.151695 0.517782
O O6 0.552608 0.072215 0.232982
O O7 0.671427 0.210543 0.100705
O O8 0.730726 0.397973 0.789090
O O9 0.500000 0.500000 0.000000
O O10 0.442897 0.420224 0.244936
O O11 0.148482 0.007580 0.107779
O O12 0.325233 0.997244 0.081938
O O13 0.946634 0.067925 0.195402
O O14 0.844869 0.072997 0.531698
O O15 0.889828 0.213685 0.208972
O O16 0.155695 0.634046 0.758078
O O17 0.000000 0.500000 0.000000
#
# Coordination Sequence:
#
# PCOD9240381 Si02
#       8
#     4   4   4   4   4   4   4   4
#     4  12  22  44  71  93 129 174 226 276 332 400
#     4  10  20  40  67  91 128 173 212 271 338 390
#     4  10  18  37  62  93 131 162 219 280 322 392
#     4   9  17  35  61  96 128 161 217 276 316 388
#     4  11  20  38  70  99 125 177 232 274 336 397
#     4  12  26  39  68 101 136 177 225 284 349 398
#     4   9  18  38  66  88 130 184 213 273 335 397
#     4  11  24  46  62  95 144 173 214 282 345 399
#
# _framework density 20.931355
#
# number of rings (size 3 to 8) (size 9 to 14) (size 15 to 20)
#    0.000    1.500    5.000    3.375    1.750    0.000 
#    4.500    5.625    0.000    0.000    0.000    0.000 
#    0.000    0.000    0.000    0.000    0.000    0.000 
#
# Total GULP energy -178518.030504 kJ/mol
# GULP energy per Si atom -5578.688453 kJ/mol
# Density = 2.088371 g / cm^3
# Si number density = 20.931355 Si / 1000 Ang^3
#
#
#
# Elastic Constant Matrix: (Units=GPa)
#
#
# Indices 1 2 3 4 5 6 
#
# 1 92.2922 10.6452 31.5210 0.0000 -11.2807 0.0000
# 2 10.6452 37.4177 -3.9049 0.0000 -6.4739 0.0000
# 3 31.5210 -3.9049 72.7294 0.0000 0.2019 0.0000
# 4 0.0000 0.0000 0.0000 -6.0603 0.0000 3.1983
# 5 -11.2807 -6.4739 0.2019 0.0000 39.7026 0.0000
# 6 0.0000 0.0000 0.0000 3.1983 0.0000 24.5249
#
#
#
# Elastic Compliance Matrix: (Units=1/GPa)
#
#
# Indices 1 2 3 4 5 6 
#
# 1 0.013825 -0.004010 -0.006216 0.000000 0.003306 0.000000
# 2 -0.004010 0.028821 0.003275 0.000000 0.003544 0.000000
# 3 -0.006216 0.003275 0.016623 0.000000 -0.001317 0.000000
# 4 0.000000 0.000000 0.000000 -0.154384 0.000000 0.020133
# 5 0.003306 0.003544 -0.001317 0.000000 0.026711 0.000000
# 6 0.000000 0.000000 0.000000 0.020133 0.000000 0.038149
#
#
# Mechanical properties :
#
#
# Convention : Reuss Voigt Hill
#
# Bulk Modulus (GPa) = 22.04200 30.99579 26.51890
# Shear Modulus (GPa) = -4062.57663 22.57862 -2019.99900
#
# Velocity S-wave (km/s) = -44.10350 3.28792 -31.09910
# Velocity P-wave (km/s) = 50.82261 5.40873 35.73292
#
# Compressibility (1/GPa) = 0.04536793
#
# Stress axis : x y z
#
# Youngs Moduli (GPa) = 72.33408 34.69686 60.15687
#
# Poissons Ratio (x) = 0.13913 0.37394
# Poissons Ratio (y) = 0.29005 -0.19704
# Poissons Ratio (z) = 0.44964 -0.11365
#
# Static dielectric constant tensor:
#      x y z
#    x 1.885550 0.000000 0.088340 
#    y 0.000000 1.890060 0.000000 
#    z 0.088340 0.000000 1.866580 
# 
# From -- ./inp_files/33036.got.cif
#   From: 2010.05.17/outbox.cif.g08.bks.cpg/sg14_17_cif.got.tgz:33036.got - 2010.06.03 17:49:19.
