data_PCOD9240211
_publ_section_title
;
Structure prediction by ZEFSAII (Michael W. Deem and Ramdas Pophale) SiO2 
 PCOD9240211
Probable space group: P 21/C
;
_chemical_formula_sum "Si O2"
_cell_formula_units_Z 32
_cell_length_a 18.333530
_cell_length_b 14.872048
_cell_length_c 11.622194
_cell_angle_alpha 90.000000
_cell_angle_beta 29.090460
_cell_angle_gamma 90.000000
_cell_volume 1540.674567
_symmetry_space_group_name_H-M "P 21/C"
_symmetry_group_IT_number 14
_symmetry_cell_setting 'monoclinic'
loop_
_space_group_symop_operation_xyz
x,y,z
-x,1/2+y,1/2-z
-x,-y,-z
x,1/2-y,1/2+z
loop_
_atom_site_type_symbol
_atom_site_label
_atom_site_fract_x
_atom_site_fract_y
_atom_site_fract_z
Si Si1 0.065724 0.630411 0.831402
Si Si2 0.122654 0.720323 0.527976
Si Si3 0.859741 0.716166 0.727175
Si Si4 0.329996 0.125231 0.925874
Si Si5 0.835168 0.559393 0.575535
Si Si6 0.324646 0.612962 0.096593
Si Si7 0.783280 0.997857 0.716877
Si Si8 0.828949 0.084182 0.433850
O O1 0.149698 0.658981 0.601558
O O2 0.177696 0.588884 0.769090
O O3 0.971110 0.715127 0.007008
O O4 0.940611 0.554541 0.982843
O O5 0.248704 0.698650 0.261218
O O6 0.123246 0.822533 0.570244
O O7 0.963071 0.690877 0.693632
O O8 0.819545 0.636924 0.694919
O O9 0.721827 0.775582 0.962948
O O10 0.221085 0.092426 0.972497
O O11 0.497485 0.119613 0.648638
O O12 0.311324 0.062762 0.065009
O O13 0.740109 0.473949 0.747552
O O14 0.013123 0.540043 0.321878
O O15 0.265935 0.605603 0.047575
O O16 0.737126 0.024585 0.652115
#
# Coordination Sequence:
#
# PCOD9240211 Si02
#       8
#     4   4   4   4   4   4   4   4
#     4  10  18  35  62  96 118 161 218 271 316 376
#     4  12  21  40  67  95 133 165 216 284 326 388
#     4  11  21  40  69  98 129 171 226 273 325 396
#     4  11  25  47  63  98 138 180 222 263 346 411
#     4  12  23  45  70 100 133 176 228 277 331 399
#     4  12  28  42  65 104 139 174 219 283 340 392
#     4  10  21  37  64  88 126 172 214 262 323 395
#     4  12  23  41  67 100 128 166 232 274 323 397
#
# _framework density 20.770123000000002
#
# number of rings (size 3 to 8) (size 9 to 14) (size 15 to 20)
#    0.000    0.750    5.000    3.750    1.750    1.500 
#    2.250    0.000    0.000    0.000    0.000    0.000 
#    0.000    0.000    0.000    0.000    0.000    0.000 
#
# Total GULP energy -178888.889462 kJ/mol
# GULP energy per Si atom -5590.277796 kJ/mol
# Density = 2.072285 g / cm^3
# Si number density = 20.770123 Si / 1000 Ang^3
#
#
#
# Elastic Constant Matrix: (Units=GPa)
#
#
# Indices 1 2 3 4 5 6 
#
# 1 66.6009 2.6571 2.9513 0.0000 16.2623 0.0000
# 2 2.6571 70.9686 19.7592 0.0000 10.3835 0.0000
# 3 2.9513 19.7592 35.8287 0.0000 -6.6251 0.0000
# 4 0.0000 0.0000 0.0000 32.9230 0.0000 17.2237
# 5 16.2623 10.3835 -6.6251 0.0000 31.0327 0.0000
# 6 0.0000 0.0000 0.0000 17.2237 0.0000 29.3929
#
#
#
# Elastic Compliance Matrix: (Units=1/GPa)
#
#
# Indices 1 2 3 4 5 6 
#
# 1 0.017859 0.002300 -0.004802 0.000000 -0.011154 0.000000
# 2 0.002300 0.019001 -0.012563 0.000000 -0.010245 0.000000
# 3 -0.004802 -0.012563 0.037976 0.000000 0.014828 0.000000
# 4 0.000000 0.000000 0.000000 0.043801 0.000000 -0.025667
# 5 -0.011154 -0.010245 0.014828 0.000000 0.044663 0.000000
# 6 0.000000 0.000000 0.000000 -0.025667 0.000000 0.049062
#
#
# Mechanical properties :
#
#
# Convention : Reuss Voigt Hill
#
# Bulk Modulus (GPa) = 22.36773 24.90370 23.63571
# Shear Modulus (GPa) = 19.42535 28.53843 23.98189
#
# Velocity S-wave (km/s) = 3.06151 3.71079 3.40168
# Velocity P-wave (km/s) = 4.82594 5.51146 5.18005
#
# Compressibility (1/GPa) = 0.04470727
#
# Stress axis : x y z
#
# Youngs Moduli (GPa) = 55.99305 52.62750 26.33218
#
# Poissons Ratio (x) = -0.12106 0.12645
# Poissons Ratio (y) = -0.12880 0.33081
# Poissons Ratio (z) = 0.26889 0.66116
#
# Static dielectric constant tensor:
#      x y z
#    x 1.755040 0.000000 0.034200 
#    y 0.000000 1.771520 0.000000 
#    z 0.034200 0.000000 1.704150 
# 
# From -- ./inp_files/34216.got.cif
#   From: 2010.05.17/outbox.cif.g08.bks.cpg/sg14_18_cif.got.tgz:34216.got - 2010.06.03 17:49:19.
