data_PCOD9240439
_publ_section_title
;
Structure prediction by ZEFSAII (Michael W. Deem and Ramdas Pophale) SiO2 
 PCOD9240439
Probable space group: P 21/C
;
_chemical_formula_sum "Si O2"
_cell_formula_units_Z 32
_cell_length_a 11.924999
_cell_length_b 18.291391
_cell_length_c 8.052371
_cell_angle_alpha 90.000000
_cell_angle_beta 42.573875
_cell_angle_gamma 90.000000
_cell_volume 1188.290182
_symmetry_space_group_name_H-M "P 21/C"
_symmetry_group_IT_number 14
_symmetry_cell_setting 'monoclinic'
loop_
_space_group_symop_operation_xyz
x,y,z
-x,1/2+y,1/2-z
-x,-y,-z
x,1/2-y,1/2+z
loop_
_atom_site_type_symbol
_atom_site_label
_atom_site_fract_x
_atom_site_fract_y
_atom_site_fract_z
Si Si1 0.704447 0.512408 0.980839
Si Si2 0.061421 0.516036 0.708425
Si Si3 0.117012 0.702363 0.173810
Si Si4 0.218699 0.384786 0.413101
Si Si5 0.295318 0.612581 0.234893
Si Si6 0.334229 0.248972 0.144446
Si Si7 0.463268 0.147105 0.230332
Si Si8 0.013858 0.661630 0.943079
O O1 0.749234 0.568877 0.786162
O O2 0.613262 0.445823 0.988304
O O3 0.608849 0.565250 0.211897
O O4 0.879528 0.486127 0.861827
O O5 0.186632 0.447265 0.586332
O O6 0.139607 0.565079 0.473777
O O7 0.028390 0.576890 0.883440
O O8 0.250717 0.678182 0.161631
O O9 0.078466 0.787987 0.222777
O O10 0.952339 0.659782 0.413265
O O11 0.131608 0.677850 0.969841
O O12 0.343514 0.317217 0.266724
O O13 0.390413 0.635171 0.297480
O O14 0.474342 0.190621 0.045643
O O15 0.345682 0.296972 0.964154
O O16 0.167615 0.197790 0.321998
#
# Coordination Sequence:
#
# PCOD9240439 Si02
#       8
#     4   4   4   4   4   4   4   4
#     4  10  18  38  62  91 119 160 204 242 303 370
#     4  11  19  38  63  94 119 156 202 259 307 356
#     4  11  21  36  54  90 120 155 195 258 301 344
#     4   9  18  33  61  85 123 150 197 252 300 351
#     4  11  22  38  61  91 124 155 202 252 304 362
#     4  10  21  39  57  88 118 164 203 242 304 367
#     4  11  23  38  62  84 123 164 203 245 298 372
#     4  11  23  35  62  87 122 154 205 256 303 357
#
# _framework density 26.929452000000001
#
# number of rings (size 3 to 8) (size 9 to 14) (size 15 to 20)
#    0.000    1.500    3.750    3.375    1.750    2.500 
#    0.000    0.000    0.000    0.000    0.000    9.625 
#    0.000    0.000    0.000    0.000    0.000    0.000 
#
# Total GULP energy -178708.668538 kJ/mol
# GULP energy per Si atom -5584.645892 kJ/mol
# Density = 2.686816 g / cm^3
# Si number density = 26.929452 Si / 1000 Ang^3
#
#
#
# Elastic Constant Matrix: (Units=GPa)
#
#
# Indices 1 2 3 4 5 6 
#
# 1 95.7038 18.8047 2.5625 0.0000 -2.3158 0.0000
# 2 18.8047 138.4728 2.9988 0.0000 -1.4390 0.0000
# 3 2.5625 2.9988 21.3838 0.0000 1.3872 0.0000
# 4 0.0000 0.0000 0.0000 37.5098 0.0000 10.4221
# 5 -2.3158 -1.4390 1.3872 0.0000 30.2370 0.0000
# 6 0.0000 0.0000 0.0000 10.4221 0.0000 47.1416
#
#
#
# Elastic Compliance Matrix: (Units=1/GPa)
#
#
# Indices 1 2 3 4 5 6 
#
# 1 0.010780 -0.001431 -0.001144 0.000000 0.000810 0.000000
# 2 -0.001431 0.007438 -0.000890 0.000000 0.000285 0.000000
# 3 -0.001144 -0.000890 0.047175 0.000000 -0.002294 0.000000
# 4 0.000000 0.000000 0.000000 0.028404 0.000000 -0.006280
# 5 0.000810 0.000285 -0.002294 0.000000 0.033253 0.000000
# 6 0.000000 0.000000 0.000000 -0.006280 0.000000 0.022601
#
#
# Mechanical properties :
#
#
# Convention : Reuss Voigt Hill
#
# Bulk Modulus (GPa) = 17.10449 33.81028 25.45738
# Shear Modulus (GPa) = 28.39789 38.39066 33.39427
#
# Velocity S-wave (km/s) = 3.25087 3.77981 3.52528
# Velocity P-wave (km/s) = 4.52286 5.62420 5.10333
#
# Compressibility (1/GPa) = 0.05846419
#
# Stress axis : x y z
#
# Youngs Moduli (GPa) = 92.76213 134.44152 21.19760
#
# Poissons Ratio (x) = 0.19236 0.02424
# Poissons Ratio (y) = 0.13272 0.01887
# Poissons Ratio (z) = 0.10610 0.11967
#
# Static dielectric constant tensor:
#      x y z
#    x 2.097490 0.000000 -0.021010 
#    y 0.000000 2.089860 0.000000 
#    z -0.021010 0.000000 2.279790 
# 
# From -- ./inp_files/13886.got.cif
#   From: 2010.05.17/outbox.cif.g08.bks.cpg/sg14_7_cif.got.tgz:13886.got - 2010.06.03 17:49:19.
