data_PCOD9240508
_publ_section_title
;
Structure prediction by ZEFSAII (Michael W. Deem and Ramdas Pophale) SiO2 
 PCOD9240508
Probable space group: P 21/C
;
_chemical_formula_sum "Si O2"
_cell_formula_units_Z 24
_cell_length_a 10.248617
_cell_length_b 11.554175
_cell_length_c 8.475867
_cell_angle_alpha 90.000000
_cell_angle_beta 97.207321
_cell_angle_gamma 90.000000
_cell_volume 995.733708
_symmetry_space_group_name_H-M "P 21/C"
_symmetry_group_IT_number 14
_symmetry_cell_setting 'monoclinic'
loop_
_space_group_symop_operation_xyz
x,y,z
-x,1/2+y,1/2-z
-x,-y,-z
x,1/2-y,1/2+z
loop_
_atom_site_type_symbol
_atom_site_label
_atom_site_fract_x
_atom_site_fract_y
_atom_site_fract_z
Si Si1 0.276056 0.188372 0.865728
Si Si2 0.201071 0.439978 0.905261
Si Si3 0.148654 0.801411 0.966729
Si Si4 0.595084 0.622409 0.308000
Si Si5 0.003337 0.603563 0.742662
Si Si6 0.707548 0.114690 0.314862
O O1 0.207760 0.303090 0.933556
O O2 0.368420 0.247858 0.749402
O O3 0.151523 0.117533 0.790159
O O4 0.363196 0.121025 0.004794
O O5 0.306936 0.457353 0.779762
O O6 0.061098 0.484892 0.822249
O O7 0.247426 0.515652 0.057946
O O8 0.059559 0.704159 0.866376
O O9 0.215503 0.872559 0.837404
O O10 0.064209 0.874088 0.078784
O O11 0.259025 0.732646 0.083953
O O12 0.445265 0.599509 0.246763
#
# Coordination Sequence:
#
# PCOD9240508 Si02
#       6
#     4   4   4   4   4   4
#     4  10  22  39  62  89 123 164 200 255 310 352
#     4   9  23  39  64  92 119 170 198 258 308 359
#     4   9  20  34  65  88 120 172 193 257 301 355
#     4  10  21  39  61  92 123 164 194 260 305 360
#     4  10  19  42  59  89 127 156 216 246 304 368
#     4  10  18  40  62  93 125 158 212 240 309 371
#
# _framework density 24.102830000000001
#
# number of rings (size 3 to 8) (size 9 to 14) (size 15 to 20)
#    1.000    1.333    0.000    2.500    0.000    0.667 
#    3.000   12.500    0.000    0.000    0.000    0.000 
#    0.000    0.000    0.000    0.000    0.000    0.000 
#
# Total GULP energy -134378.502321 kJ/mol
# GULP energy per Si atom -5599.104263 kJ/mol
# Density = 2.404797 g / cm^3
# Si number density = 24.102830 Si / 1000 Ang^3
#
#
#
# Elastic Constant Matrix: (Units=GPa)
#
#
# Indices 1 2 3 4 5 6 
#
# 1 60.8975 7.2194 47.1355 0.0000 24.7484 0.0000
# 2 7.2194 84.3070 22.1424 0.0000 11.3211 0.0000
# 3 47.1355 22.1424 115.0859 0.0000 24.9332 0.0000
# 4 0.0000 0.0000 0.0000 -0.1509 0.0000 -3.6966
# 5 24.7484 11.3211 24.9332 0.0000 45.3951 0.0000
# 6 0.0000 0.0000 0.0000 -3.6966 0.0000 22.7688
#
#
#
# Elastic Compliance Matrix: (Units=1/GPa)
#
#
# Indices 1 2 3 4 5 6 
#
# 1 0.027714 0.001481 -0.009401 0.000000 -0.010315 0.000000
# 2 0.001481 0.012740 -0.002491 0.000000 -0.002617 0.000000
# 3 -0.009401 -0.002491 0.013364 0.000000 -0.001594 0.000000
# 4 0.000000 0.000000 0.000000 -1.331515 0.000000 -0.216175
# 5 -0.010315 -0.002617 -0.001594 0.000000 0.029180 0.000000
# 6 0.000000 0.000000 0.000000 -0.216175 0.000000 0.008823
#
#
# Mechanical properties :
#
#
# Convention : Reuss Voigt Hill
#
# Bulk Modulus (GPa) = 30.30636 45.92056 38.11346
# Shear Modulus (GPa) = -4.13951 25.85550 10.85800
#
# Velocity S-wave (km/s) = -1.31193 3.27879 2.12477
# Velocity P-wave (km/s) = 3.21033 5.78163 4.67619
#
# Compressibility (1/GPa) = 0.03299638
#
# Stress axis : x y z
#
# Youngs Moduli (GPa) = 36.08308 78.49192 74.82787
#
# Poissons Ratio (x) = -0.11625 0.70345
# Poissons Ratio (y) = -0.05344 0.18639
# Poissons Ratio (z) = 0.33921 0.19552
#
# Static dielectric constant tensor:
#      x y z
#    x 1.852700 0.000000 -0.035670 
#    y 0.000000 1.941140 0.000000 
#    z -0.035670 0.000000 1.900200 
# 
# From -- ./inp_files/12667.got.cif
#   From: 2010.05.17/outbox.cif.g08.bks.cpg/sg14_7_cif.got.tgz:12667.got - 2010.06.03 17:49:19.
