data_PCOD9240037
_publ_section_title
;
Structure prediction by ZEFSAII (Michael W. Deem and Ramdas Pophale) SiO2 
 PCOD9240037
Probable space group: P 21/C
;
_chemical_formula_sum "Si O2"
_cell_formula_units_Z 26
_cell_length_a 7.118036
_cell_length_b 8.134349
_cell_length_c 16.457213
_cell_angle_alpha 90.000000
_cell_angle_beta 103.816580
_cell_angle_gamma 90.000000
_cell_volume 925.310880
_symmetry_space_group_name_H-M "P 21/C"
_symmetry_group_IT_number 14
_symmetry_cell_setting 'monoclinic'
loop_
_space_group_symop_operation_xyz
x,y,z
-x,1/2+y,1/2-z
-x,-y,-z
x,1/2-y,1/2+z
loop_
_atom_site_type_symbol
_atom_site_label
_atom_site_fract_x
_atom_site_fract_y
_atom_site_fract_z
Si Si1 0.418414 0.713516 0.019223
Si Si2 0.297089 0.546286 0.630396
Si Si3 0.035142 0.014214 0.802452
Si Si4 0.821035 0.863191 0.645276
Si Si5 0.000000 0.000000 0.500000
Si Si6 0.326993 0.401922 0.094721
Si Si7 0.621326 0.367151 0.750017
O O1 0.351411 0.888522 0.045912
O O2 0.604092 0.655513 0.091054
O O3 0.264786 0.569135 0.027755
O O4 0.502297 0.684008 0.938236
O O5 0.074708 0.508431 0.623803
O O6 0.425208 0.396020 0.678705
O O7 0.351941 0.706712 0.691689
O O8 0.134282 0.189766 0.809478
O O9 0.201076 0.888285 0.793718
O O10 0.864963 0.994589 0.718838
O O11 0.961402 0.903261 0.586341
O O12 0.113176 0.162583 0.562204
O O13 0.370083 0.480627 0.185005
#
# Coordination Sequence:
#
# PCOD9240037 Si02
#       7
#     4   4   4   4   2   4   4
#     4   9  18  33  54  84 109 153 190 244 292 345
#     4  11  22  36  59  84 122 151 197 245 298 356
#     4  12  21  37  56  92 121 157 195 252 299 360
#     4  11  21  36  61  87 122 153 202 247 305 348
#     4  10  18  34  56  86 112 158 198 258 280 356
#     4   9  17  32  53  80 115 141 198 243 293 338
#     4  11  22  38  57  91 117 154 196 248 301 356
#
# _framework density 28.098665
#
# number of rings (size 3 to 8) (size 9 to 14) (size 15 to 20)
#    0.000    1.538    4.615    2.769    0.000    0.000 
#    0.000    0.000    0.000    1.846    8.000    0.000 
#    0.000    0.000    0.000    0.000    0.000    0.000 
#
# Total GULP energy -145230.640821 kJ/mol
# GULP energy per Si atom -5585.793878 kJ/mol
# Density = 2.803471 g / cm^3
# Si number density = 28.098665 Si / 1000 Ang^3
#
#
#
# Elastic Constant Matrix: (Units=GPa)
#
#
# Indices 1 2 3 4 5 6 
#
# 1 150.1650 8.6591 48.7493 0.0000 -34.1550 0.0000
# 2 8.6591 97.2270 37.9995 0.0000 -14.0262 0.0000
# 3 48.7493 37.9995 63.0905 0.0000 -8.3757 0.0000
# 4 0.0000 0.0000 0.0000 54.9929 0.0000 -5.0652
# 5 -34.1550 -14.0262 -8.3757 0.0000 57.6465 0.0000
# 6 0.0000 0.0000 0.0000 -5.0652 0.0000 32.5416
#
#
#
# Elastic Compliance Matrix: (Units=1/GPa)
#
#
# Indices 1 2 3 4 5 6 
#
# 1 0.011074 0.003812 -0.010053 0.000000 0.006028 0.000000
# 2 0.003812 0.015027 -0.011432 0.000000 0.004254 0.000000
# 3 -0.010053 -0.011432 0.029920 0.000000 -0.004390 0.000000
# 4 0.000000 0.000000 0.000000 0.018449 0.000000 0.002872
# 5 0.006028 0.004254 -0.004390 0.000000 0.021316 0.000000
# 6 0.000000 0.000000 0.000000 0.002872 0.000000 0.031177
#
#
# Mechanical properties :
#
#
# Convention : Reuss Voigt Hill
#
# Bulk Modulus (GPa) = 48.36231 55.69981 52.03106
# Shear Modulus (GPa) = 29.55071 43.37452 36.46262
#
# Velocity S-wave (km/s) = 3.24647 3.93319 3.60622
# Velocity P-wave (km/s) = 5.59480 6.36338 5.99143
#
# Compressibility (1/GPa) = 0.02067726
#
# Stress axis : x y z
#
# Youngs Moduli (GPa) = 90.30051 66.54521 33.42193
#
# Poissons Ratio (x) = -0.25369 0.33598
# Poissons Ratio (y) = -0.34425 0.38208
# Poissons Ratio (z) = 0.90777 0.76074
#
# Static dielectric constant tensor:
#      x y z
#    x 2.424330 0.000000 0.055800 
#    y 0.000000 2.331440 0.000000 
#    z 0.055800 0.000000 2.237780 
# 
# From -- ./inp_files/54583.got.cif
#   From: 2010.05.17/outbox.cif.g08.bks.cpg/sg14_28_cif.got.tgz:54583.got - 2010.06.03 17:49:19.
