data_PCOD9240179
_publ_section_title
;
Structure prediction by ZEFSAII (Michael W. Deem and Ramdas Pophale) SiO2 
 PCOD9240179
Probable space group: P 21/C
;
_chemical_formula_sum "Si O2"
_cell_formula_units_Z 20
_cell_length_a 12.963602
_cell_length_b 17.255343
_cell_length_c 7.452068
_cell_angle_alpha 90.000000
_cell_angle_beta 148.713583
_cell_angle_gamma 90.000000
_cell_volume 865.681713
_symmetry_space_group_name_H-M "P 21/C"
_symmetry_group_IT_number 14
_symmetry_cell_setting 'monoclinic'
loop_
_space_group_symop_operation_xyz
x,y,z
-x,1/2+y,1/2-z
-x,-y,-z
x,1/2-y,1/2+z
loop_
_atom_site_type_symbol
_atom_site_label
_atom_site_fract_x
_atom_site_fract_y
_atom_site_fract_z
Si Si1 0.431651 0.031591 0.190351
Si Si2 0.059416 0.173431 0.109018
Si Si3 0.157294 0.917744 0.945500
Si Si4 0.221289 0.477879 0.993583
Si Si5 0.100423 0.151221 0.762328
O O1 0.325032 0.016886 0.838905
O O2 0.310771 0.106247 0.077338
O O3 0.366449 0.956131 0.209446
O O4 0.660269 0.031281 0.468391
O O5 0.222002 0.110657 0.420181
O O6 0.127406 0.261017 0.234137
O O7 0.874408 0.153763 0.966056
O O8 0.015831 0.157227 0.837177
O O9 0.012748 0.985237 0.812462
O O10 0.047873 0.890302 0.599043
#
# Coordination Sequence:
#
# PCOD9240179 Si02
#       5
#     4   4   4   4   4
#     4  10  18  35  60  80 111 140 177 229 263 315
#     4  10  20  34  58  77 109 147 181 214 276 324
#     4   9  20  36  58  77 112 140 179 222 269 318
#     4   8  18  34  56  80 108 140 176 219 270 316
#     4  11  18  34  60  77 106 151 176 221 274 314
#
# _framework density 23.103179999999998
#
# number of rings (size 3 to 8) (size 9 to 14) (size 15 to 20)
#    1.200    1.200    2.000    2.400    0.000    1.600 
#    0.000    0.000   22.000    0.000    0.000    0.000 
#    0.000    0.000    0.000    0.000    0.000    0.000 
#
# Total GULP energy -111583.374869 kJ/mol
# GULP energy per Si atom -5579.168743 kJ/mol
# Density = 2.305060 g / cm^3
# Si number density = 23.103180 Si / 1000 Ang^3
#
#
#
# Elastic Constant Matrix: (Units=GPa)
#
#
# Indices 1 2 3 4 5 6 
#
# 1 152.7550 34.2062 22.5732 0.0000 -17.6846 0.0000
# 2 34.2062 137.7302 8.6057 0.0000 9.1908 0.0000
# 3 22.5732 8.6057 43.0623 0.0000 16.7812 0.0000
# 4 0.0000 0.0000 0.0000 26.9392 0.0000 -1.9106
# 5 -17.6846 9.1908 16.7812 0.0000 35.5261 0.0000
# 6 0.0000 0.0000 0.0000 -1.9106 0.0000 34.0815
#
#
#
# Elastic Compliance Matrix: (Units=1/GPa)
#
#
# Indices 1 2 3 4 5 6 
#
# 1 0.009291 -0.002414 -0.007885 0.000000 0.008974 0.000000
# 2 -0.002414 0.008044 0.001148 0.000000 -0.003825 0.000000
# 3 -0.007885 0.001148 0.035263 0.000000 -0.020879 0.000000
# 4 0.000000 0.000000 0.000000 0.037269 0.000000 0.002089
# 5 0.008974 -0.003825 -0.020879 0.000000 0.043467 0.000000
# 6 0.000000 0.000000 0.000000 0.002089 0.000000 0.029459
#
#
# Mechanical properties :
#
#
# Convention : Reuss Voigt Hill
#
# Bulk Modulus (GPa) = 29.15787 51.59088 40.37437
# Shear Modulus (GPa) = 25.97062 37.18684 31.57873
#
# Velocity S-wave (km/s) = 3.35642 4.01633 3.70111
# Velocity P-wave (km/s) = 5.26012 6.62473 5.98147
#
# Compressibility (1/GPa) = 0.03429606
#
# Stress axis : x y z
#
# Youngs Moduli (GPa) = 107.63000 124.32397 28.35867
#
# Poissons Ratio (x) = 0.30008 0.22361
# Poissons Ratio (y) = 0.25978 -0.03256
# Poissons Ratio (z) = 0.84869 -0.14276
#
# Static dielectric constant tensor:
#      x y z
#    x 1.943640 0.000000 -0.074300 
#    y 0.000000 1.836130 0.000000 
#    z -0.074300 0.000000 1.954870 
# 
# From -- ./inp_files/5872.got.cif
#   From: 2010.05.17/outbox.cif.g08.bks.cpg/sg14_3_cif.got.tgz:5872.got - 2010.06.03 17:49:19.
