data_PCOD9240993
_publ_section_title
;
Structure prediction by ZEFSAII (Michael W. Deem and Ramdas Pophale) SiO2 
 PCOD9240993
Probable space group: P 21/C
;
_chemical_formula_sum "Si O2"
_cell_formula_units_Z 28
_cell_length_a 20.773596
_cell_length_b 10.528145
_cell_length_c 13.553752
_cell_angle_alpha 90.000000
_cell_angle_beta 156.344553
_cell_angle_gamma 90.000000
_cell_volume 1189.385324
_symmetry_space_group_name_H-M "P 21/C"
_symmetry_group_IT_number 14
_symmetry_cell_setting 'monoclinic'
loop_
_space_group_symop_operation_xyz
x,y,z
-x,1/2+y,1/2-z
-x,-y,-z
x,1/2-y,1/2+z
loop_
_atom_site_type_symbol
_atom_site_label
_atom_site_fract_x
_atom_site_fract_y
_atom_site_fract_z
Si Si1 0.441352 0.536296 0.085773
Si Si2 0.266674 0.955190 0.912781
Si Si3 0.874889 0.082282 0.924987
Si Si4 0.269279 0.725196 0.600791
Si Si5 0.011461 0.334957 0.065925
Si Si6 0.053956 0.300874 0.424333
Si Si7 0.590218 0.808763 0.619394
O O1 0.552873 0.509155 0.336475
O O2 0.539607 0.630320 0.152289
O O3 0.263348 0.589913 0.852964
O O4 0.414344 0.412328 0.977434
O O5 0.286224 0.842658 0.019373
O O6 0.166068 0.898475 0.680222
O O7 0.147990 0.066123 0.786948
O O8 0.775441 0.112362 0.885198
O O9 0.002628 0.194599 0.097617
O O10 0.938897 0.941202 0.019154
O O11 0.105600 0.803855 0.365515
O O12 0.439200 0.779673 0.876203
O O13 0.039067 0.304004 0.988884
O O14 0.224940 0.269990 0.614959
#
# Coordination Sequence:
#
# PCOD9240993 Si02
#       7
#     4   4   4   4   4   4   4
#     4   8  15  31  52  75  96 135 176 218 252 294
#     4   9  18  36  52  74 103 143 180 208 253 326
#     4  10  20  33  54  82 109 131 179 226 256 320
#     4   9  19  33  58  80  97 142 182 218 259 308
#     4  10  21  33  52  78 111 134 173 216 269 322
#     4  10  19  34  54  77 106 145 165 219 280 306
#     4   8  15  30  54  77 100 128 184 217 241 317
#
# _framework density 23.541571000000001
#
# number of rings (size 3 to 8) (size 9 to 14) (size 15 to 20)
#    0.000    2.857    0.000    3.000    4.000    0.000 
#   10.286    0.000    0.000    0.857    0.000    0.000 
#    0.000    0.000    0.000    0.000    0.000    0.000 
#
# Total GULP energy -155991.511784 kJ/mol
# GULP energy per Si atom -5571.125421 kJ/mol
# Density = 2.348799 g / cm^3
# Si number density = 23.541571 Si / 1000 Ang^3
#
#
#
# Elastic Constant Matrix: (Units=GPa)
#
#
# Indices 1 2 3 4 5 6 
#
# 1 25.9962 -4.1478 7.6830 0.0000 6.0605 0.0000
# 2 -4.1478 65.9549 47.2779 0.0000 0.2337 0.0000
# 3 7.6830 47.2779 176.4893 0.0000 3.5267 0.0000
# 4 0.0000 0.0000 0.0000 31.2301 0.0000 5.6906
# 5 6.0605 0.2337 3.5267 0.0000 26.7774 0.0000
# 6 0.0000 0.0000 0.0000 5.6906 0.0000 15.7620
#
#
#
# Elastic Compliance Matrix: (Units=1/GPa)
#
#
# Indices 1 2 3 4 5 6 
#
# 1 0.042250 0.004797 -0.002940 0.000000 -0.009217 0.000000
# 2 0.004797 0.019317 -0.005372 0.000000 -0.000547 0.000000
# 3 -0.002940 -0.005372 0.007238 0.000000 -0.000241 0.000000
# 4 0.000000 0.000000 0.000000 0.034275 0.000000 -0.012375
# 5 -0.009217 -0.000547 -0.000241 0.000000 0.039467 0.000000
# 6 0.000000 0.000000 0.000000 -0.012375 0.000000 0.067911
#
#
# Mechanical properties :
#
#
# Convention : Reuss Voigt Hill
#
# Bulk Modulus (GPa) = 16.18795 41.11850 28.65322
# Shear Modulus (GPa) = 21.00123 29.26239 25.13181
#
# Velocity S-wave (km/s) = 2.99003 3.52946 3.27088
# Velocity P-wave (km/s) = 4.33724 5.84069 5.14419
#
# Compressibility (1/GPa) = 0.06177435
#
# Stress axis : x y z
#
# Youngs Moduli (GPa) = 23.66845 51.76902 138.15905
#
# Poissons Ratio (x) = -0.24835 0.40621
# Poissons Ratio (y) = -0.11354 0.74225
# Poissons Ratio (z) = 0.06959 0.27813
#
# Static dielectric constant tensor:
#      x y z
#    x 1.971560 0.000000 0.007650 
#    y 0.000000 1.909640 0.000000 
#    z 0.007650 0.000000 1.998160 
# 
# From -- ./inp_files/62322.got.cif
#   From: 2010.05.17/outbox.cif.g08.bks.cpg/sg14_32_cif.got.tgz:62322.got - 2010.06.03 17:49:19.
