data_PCOD9240455
_publ_section_title
;
Structure prediction by ZEFSAII (Michael W. Deem and Ramdas Pophale) SiO2 
 PCOD9240455
Probable space group: P 21/C
;
_chemical_formula_sum "Si O2"
_cell_formula_units_Z 32
_cell_length_a 6.945381
_cell_length_b 15.854427
_cell_length_c 11.085552
_cell_angle_alpha 90.000000
_cell_angle_beta 96.381274
_cell_angle_gamma 90.000000
_cell_volume 1213.122951
_symmetry_space_group_name_H-M "P 21/C"
_symmetry_group_IT_number 14
_symmetry_cell_setting 'monoclinic'
loop_
_space_group_symop_operation_xyz
x,y,z
-x,1/2+y,1/2-z
-x,-y,-z
x,1/2-y,1/2+z
loop_
_atom_site_type_symbol
_atom_site_label
_atom_site_fract_x
_atom_site_fract_y
_atom_site_fract_z
Si Si1 0.126411 0.754500 0.058377
Si Si2 0.122461 0.811981 0.311501
Si Si3 0.566189 0.511455 0.697337
Si Si4 0.688790 0.954961 0.457377
Si Si5 0.845473 0.512292 0.215193
Si Si6 0.885029 0.067291 0.071863
Si Si7 0.423502 0.267639 0.119777
Si Si8 0.440696 0.207427 0.875628
O O1 0.045277 0.698049 0.943196
O O2 0.119729 0.847128 0.999937
O O3 0.044530 0.762879 0.187902
O O4 0.357490 0.741453 0.093688
O O5 0.115955 0.911022 0.277747
O O6 0.343728 0.777381 0.342474
O O7 0.708770 0.509032 0.824206
O O8 0.362516 0.477351 0.731946
O O9 0.327876 0.536951 0.402805
O O10 0.536694 0.609534 0.660128
O O11 0.637489 0.858672 0.431820
O O12 0.500000 0.000000 0.500000
O O13 0.839834 0.965017 0.574442
O O14 0.991906 0.569909 0.298091
O O15 0.000000 0.000000 0.000000
O O16 0.346003 0.252134 0.249245
O O17 0.359740 0.207664 0.006033
#
# Coordination Sequence:
#
# PCOD9240455 Si02
#       8
#     4   4   4   4   4   4   4   4
#     4  10  21  38  63  96 124 173 217 266 326 393
#     4  10  18  38  64  91 128 167 216 261 330 393
#     4  10  21  41  64  94 129 169 216 266 325 391
#     4   9  17  36  62  92 126 162 213 261 325 387
#     4  11  21  42  66  95 130 171 211 277 327 387
#     4  12  25  42  66  94 133 171 225 269 327 380
#     4   9  16  32  58  92 124 161 214 259 317 391
#     4   9  17  35  57  90 126 162 211 263 321 381
#
# _framework density 26.378202000000002
#
# number of rings (size 3 to 8) (size 9 to 14) (size 15 to 20)
#    0.000    2.000    6.250    0.000    0.000    3.500 
#   13.500    1.250    2.750    0.000    0.000    0.000 
#    0.000    0.000    0.000    0.000    0.000    0.000 
#
# Total GULP energy -179006.969661 kJ/mol
# GULP energy per Si atom -5593.967802 kJ/mol
# Density = 2.631816 g / cm^3
# Si number density = 26.378202 Si / 1000 Ang^3
#
#
#
# Elastic Constant Matrix: (Units=GPa)
#
#
# Indices 1 2 3 4 5 6 
#
# 1 107.3635 18.6000 47.0033 0.0000 -25.8848 0.0000
# 2 18.6000 51.1256 45.9507 0.0000 -10.3744 0.0000
# 3 47.0033 45.9507 246.3754 0.0000 -9.0693 0.0000
# 4 0.0000 0.0000 0.0000 48.8325 0.0000 -4.4621
# 5 -25.8848 -10.3744 -9.0693 0.0000 25.2365 0.0000
# 6 0.0000 0.0000 0.0000 -4.4621 0.0000 7.8957
#
#
#
# Elastic Compliance Matrix: (Units=1/GPa)
#
#
# Indices 1 2 3 4 5 6 
#
# 1 0.013348 -0.000477 -0.001987 0.000000 0.012781 0.000000
# 2 -0.000477 0.025316 -0.004323 0.000000 0.008365 0.000000
# 3 -0.001987 -0.004323 0.005172 0.000000 -0.001956 0.000000
# 4 0.000000 0.000000 0.000000 0.021593 0.000000 0.012203
# 5 0.012781 0.008365 -0.001956 0.000000 0.055470 0.000000
# 6 0.000000 0.000000 0.000000 0.012203 0.000000 0.133547
#
#
# Mechanical properties :
#
#
# Convention : Reuss Voigt Hill
#
# Bulk Modulus (GPa) = 33.04379 69.77471 51.40925
# Shear Modulus (GPa) = 17.97874 35.94699 26.96287
#
# Velocity S-wave (km/s) = 2.61353 3.69555 3.20060
# Velocity P-wave (km/s) = 4.65419 6.68719 5.76108
#
# Compressibility (1/GPa) = 0.03026288
#
# Stress axis : x y z
#
# Youngs Moduli (GPa) = 74.91691 39.50132 193.34322
#
# Poissons Ratio (x) = 0.01883 0.38421
# Poissons Ratio (y) = 0.03571 0.83576
# Poissons Ratio (z) = 0.14887 0.17075
#
# Static dielectric constant tensor:
#      x y z
#    x 2.178690 0.000000 -0.010000 
#    y 0.000000 1.990670 0.000000 
#    z -0.010000 0.000000 2.264460 
# 
# From -- ./inp_files/30199.got.cif
#   From: 2010.05.17/outbox.cif.g08.bks.cpg/sg14_16_cif.got.tgz:30199.got - 2010.06.03 17:49:19.
