data_PCOD9240305
_publ_section_title
;
Structure prediction by ZEFSAII (Michael W. Deem and Ramdas Pophale) SiO2 
 PCOD9240305
Probable space group: P 21/C
;
_chemical_formula_sum "Si O2"
_cell_formula_units_Z 28
_cell_length_a 18.742175
_cell_length_b 16.511795
_cell_length_c 9.385323
_cell_angle_alpha 90.000000
_cell_angle_beta 31.542389
_cell_angle_gamma 90.000000
_cell_volume 1519.401274
_symmetry_space_group_name_H-M "P 21/C"
_symmetry_group_IT_number 14
_symmetry_cell_setting 'monoclinic'
loop_
_space_group_symop_operation_xyz
x,y,z
-x,1/2+y,1/2-z
-x,-y,-z
x,1/2-y,1/2+z
loop_
_atom_site_type_symbol
_atom_site_label
_atom_site_fract_x
_atom_site_fract_y
_atom_site_fract_z
Si Si1 0.947115 0.612185 0.337440
Si Si2 0.541081 0.689399 0.920640
Si Si3 0.476839 0.834604 0.835590
Si Si4 0.188189 0.218046 0.432537
Si Si5 0.749968 0.045919 0.674860
Si Si6 0.230608 0.087038 0.591342
Si Si7 0.755152 0.908728 0.905008
O O1 0.918394 0.708836 0.391654
O O2 0.868856 0.575525 0.606778
O O3 0.870765 0.579876 0.326633
O O4 0.104098 0.589342 0.070892
O O5 0.477056 0.746679 0.909517
O O6 0.667463 0.740687 0.772850
O O7 0.613508 0.612461 0.725063
O O8 0.448992 0.669659 0.213797
O O9 0.627601 0.873401 0.597640
O O10 0.370408 0.890678 0.098511
O O11 0.162667 0.151206 0.597261
O O12 0.205613 0.170849 0.254697
O O13 0.738827 0.993494 0.549813
O O14 0.743052 0.982036 0.816665
#
# Coordination Sequence:
#
# PCOD9240305 Si02
#       7
#     4   4   4   4   4   4   4
#     4  11  19  37  58  85 113 152 195 236 276 338
#     4  10  18  36  63  82 109 148 199 229 272 340
#     4  11  21  40  59  87 113 150 190 242 279 339
#     4   9  17  34  63  83 101 150 208 231 258 338
#     4  11  25  36  54  90 127 141 179 247 302 322
#     4  10  20  38  62  80 112 156 198 225 279 349
#     4  10  19  37  61  83 108 158 199 228 269 352
#
# _framework density 18.428311999999998
#
# number of rings (size 3 to 8) (size 9 to 14) (size 15 to 20)
#    0.000    1.714    4.286    3.000    0.000    0.571 
#    5.143    0.000    0.000    0.000    0.000    0.000 
#    0.000    0.000    0.000    0.000    0.000    0.000 
#
# Total GULP energy -156335.963285 kJ/mol
# GULP energy per Si atom -5583.427260 kJ/mol
# Density = 1.838637 g / cm^3
# Si number density = 18.428312 Si / 1000 Ang^3
#
#
#
# Elastic Constant Matrix: (Units=GPa)
#
#
# Indices 1 2 3 4 5 6 
#
# 1 37.0098 -4.0154 31.6368 0.0000 17.6774 0.0000
# 2 -4.0154 32.7541 27.2769 0.0000 -5.8291 0.0000
# 3 31.6368 27.2769 89.3094 0.0000 13.2362 0.0000
# 4 0.0000 0.0000 0.0000 46.4733 0.0000 -18.3833
# 5 17.6774 -5.8291 13.2362 0.0000 23.9760 0.0000
# 6 0.0000 0.0000 0.0000 -18.3833 0.0000 20.4475
#
#
#
# Elastic Compliance Matrix: (Units=1/GPa)
#
#
# Indices 1 2 3 4 5 6 
#
# 1 0.066423 0.026087 -0.027423 0.000000 -0.027492 0.000000
# 2 0.026087 0.060254 -0.029367 0.000000 0.011627 0.000000
# 3 -0.027423 -0.029367 0.030432 0.000000 -0.003721 0.000000
# 4 0.000000 0.000000 0.000000 0.033394 0.000000 0.030023
# 5 -0.027492 0.011627 -0.003721 0.000000 0.066860 0.000000
# 6 0.000000 0.000000 0.000000 0.030023 0.000000 0.075897
#
#
# Mechanical properties :
#
#
# Convention : Reuss Voigt Hill
#
# Bulk Modulus (GPa) = 10.44884 29.87445 20.16164
# Shear Modulus (GPa) = 11.72147 25.12436 18.42292
#
# Velocity S-wave (km/s) = 2.52475 3.69637 3.16524
# Velocity P-wave (km/s) = 3.76583 5.87060 4.93180
#
# Compressibility (1/GPa) = 0.09570442
#
# Stress axis : x y z
#
# Youngs Moduli (GPa) = 15.05494 16.59631 32.86001
#
# Poissons Ratio (x) = -0.43295 0.90111
# Poissons Ratio (y) = -0.39274 0.96501
# Poissons Ratio (z) = 0.41285 0.48739
#
# Static dielectric constant tensor:
#      x y z
#    x 1.628920 0.000000 0.033860 
#    y 0.000000 1.638100 0.000000 
#    z 0.033860 0.000000 1.624220 
# 
# From -- ./inp_files/9466.got.cif
#   From: 2010.05.17/outbox.cif.g08.bks.cpg/sg14_5_cif.got.tgz:9466.got - 2010.06.03 17:49:19.
