data_PCOD9240167
_publ_section_title
;
Structure prediction by ZEFSAII (Michael W. Deem and Ramdas Pophale) SiO2 
 PCOD9240167
Probable space group: P 21/C
;
_chemical_formula_sum "Si O2"
_cell_formula_units_Z 32
_cell_length_a 11.586292
_cell_length_b 13.573176
_cell_length_c 17.333445
_cell_angle_alpha 90.000000
_cell_angle_beta 30.133674
_cell_angle_gamma 90.000000
_cell_volume 1368.456807
_symmetry_space_group_name_H-M "P 21/C"
_symmetry_group_IT_number 14
_symmetry_cell_setting 'monoclinic'
loop_
_space_group_symop_operation_xyz
x,y,z
-x,1/2+y,1/2-z
-x,-y,-z
x,1/2-y,1/2+z
loop_
_atom_site_type_symbol
_atom_site_label
_atom_site_fract_x
_atom_site_fract_y
_atom_site_fract_z
Si Si1 0.563544 0.352010 0.293030
Si Si2 0.174911 0.494869 0.524879
Si Si3 0.465359 0.865112 0.361048
Si Si4 0.243166 0.558661 0.330915
Si Si5 0.352940 0.322844 0.981811
Si Si6 0.969487 0.392797 0.784193
Si Si7 0.407253 0.198809 0.104391
Si Si8 0.139968 0.680814 0.730681
O O1 0.430609 0.452608 0.388450
O O2 0.645570 0.350418 0.158711
O O3 0.359947 0.272973 0.423033
O O4 0.752497 0.326280 0.246763
O O5 0.217486 0.582450 0.437358
O O6 0.999099 0.432921 0.571440
O O7 0.043836 0.477949 0.681352
O O8 0.267651 0.903870 0.532722
O O9 0.572309 0.763404 0.330883
O O10 0.660278 0.947351 0.237122
O O11 0.435943 0.617654 0.173843
O O12 0.395738 0.282084 0.042973
O O13 0.105146 0.372121 0.123872
O O14 0.925335 0.290279 0.762162
O O15 0.186336 0.368678 0.715368
O O16 0.652725 0.146636 0.945686
#
# Coordination Sequence:
#
# PCOD9240167 Si02
#       8
#     4   4   4   4   4   4   4   4
#     4  10  19  34  57  84 110 149 192 243 274 324
#     4  10  18  36  56  77 115 153 182 226 283 341
#     4  10  22  35  54  90 120 137 189 250 286 319
#     4  10  22  35  55  91 117 144 192 236 290 333
#     4  10  19  33  59  84 110 151 197 227 280 347
#     4  10  18  35  59  83 111 152 188 226 286 341
#     4   9  18  34  58  85 111 150 189 233 285 339
#     4   9  16  32  58  83 101 146 196 229 263 344
#
# _framework density 23.384001999999999
#
# number of rings (size 3 to 8) (size 9 to 14) (size 15 to 20)
#    0.000    2.250    3.750    2.250    0.000    3.000 
#    4.500    2.500    2.750    0.750    0.000    0.000 
#    0.000    0.000    0.000    0.000    0.000    0.000 
#
# Total GULP energy -178355.068987 kJ/mol
# GULP energy per Si atom -5573.595906 kJ/mol
# Density = 2.333078 g / cm^3
# Si number density = 23.384002 Si / 1000 Ang^3
#
#
#
# Elastic Constant Matrix: (Units=GPa)
#
#
# Indices 1 2 3 4 5 6 
#
# 1 24.1583 12.7991 21.2853 0.0000 4.9266 0.0000
# 2 12.7991 25.4982 6.4609 0.0000 -0.5642 0.0000
# 3 21.2853 6.4609 134.0360 0.0000 -3.8177 0.0000
# 4 0.0000 0.0000 0.0000 20.9445 0.0000 4.7634
# 5 4.9266 -0.5642 -3.8177 0.0000 50.3346 0.0000
# 6 0.0000 0.0000 0.0000 4.7634 0.0000 18.9600
#
#
#
# Elastic Compliance Matrix: (Units=1/GPa)
#
#
# Indices 1 2 3 4 5 6 
#
# 1 0.068373 -0.032077 -0.009533 0.000000 -0.007775 0.000000
# 2 -0.032077 0.054757 0.002567 0.000000 0.003948 0.000000
# 3 -0.009533 0.002567 0.008897 0.000000 0.001637 0.000000
# 4 0.000000 0.000000 0.000000 0.050639 0.000000 -0.012722
# 5 -0.007775 0.003948 0.001637 0.000000 0.020796 0.000000
# 6 0.000000 0.000000 0.000000 -0.012722 0.000000 0.055939
#
#
# Mechanical properties :
#
#
# Convention : Reuss Voigt Hill
#
# Bulk Modulus (GPa) = 18.53878 29.42034 23.97956
# Shear Modulus (GPa) = 14.06596 27.59097 20.82847
#
# Velocity S-wave (km/s) = 2.45525 3.43871 2.98772
# Velocity P-wave (km/s) = 3.99786 5.32682 4.70945
#
# Compressibility (1/GPa) = 0.05394097
#
# Stress axis : x y z
#
# Youngs Moduli (GPa) = 14.62562 18.26254 112.39165
#
# Poissons Ratio (x) = 0.58581 1.07144
# Poissons Ratio (y) = 0.46915 -0.28851
# Poissons Ratio (z) = 0.13943 -0.04688
#
# Static dielectric constant tensor:
#      x y z
#    x 1.898590 0.000000 0.030330 
#    y 0.000000 2.022360 0.000000 
#    z 0.030330 0.000000 1.904920 
# 
# From -- ./inp_files/57928.got.cif
#   From: 2010.05.17/outbox.cif.g08.bks.cpg/sg14_29_cif.got.tgz:57928.got - 2010.06.03 17:49:19.
