data_PCOD9240814
_publ_section_title
;
Structure prediction by ZEFSAII (Michael W. Deem and Ramdas Pophale) SiO2 
 PCOD9240814
Probable space group: P 21/C
;
_chemical_formula_sum "Si O2"
_cell_formula_units_Z 28
_cell_length_a 13.494700
_cell_length_b 20.762327
_cell_length_c 4.981919
_cell_angle_alpha 90.000000
_cell_angle_beta 61.445737
_cell_angle_gamma 90.000000
_cell_volume 1226.057546
_symmetry_space_group_name_H-M "P 21/C"
_symmetry_group_IT_number 14
_symmetry_cell_setting 'monoclinic'
loop_
_space_group_symop_operation_xyz
x,y,z
-x,1/2+y,1/2-z
-x,-y,-z
x,1/2-y,1/2+z
loop_
_atom_site_type_symbol
_atom_site_label
_atom_site_fract_x
_atom_site_fract_y
_atom_site_fract_z
Si Si1 0.855507 0.506827 0.446783
Si Si2 0.772592 0.709400 0.616554
Si Si3 0.372775 0.046398 0.893254
Si Si4 0.516929 0.793459 0.520241
Si Si5 0.102320 0.569525 0.116900
Si Si6 0.024789 0.795574 0.886738
Si Si7 0.509538 0.080977 0.199808
O O1 0.759971 0.554544 0.460919
O O2 0.827892 0.475808 0.769950
O O3 0.974111 0.542974 0.306794
O O4 0.865738 0.447187 0.227473
O O5 0.773643 0.725413 0.299562
O O6 0.649252 0.683404 0.854758
O O7 0.893628 0.680643 0.535461
O O8 0.397205 0.973620 0.964079
O O9 0.425296 0.051663 0.530810
O O10 0.440305 0.090626 0.014810
O O11 0.499142 0.735250 0.751008
O O12 0.447600 0.853628 0.721196
O O13 0.100925 0.643511 0.209523
O O14 0.039938 0.737157 0.655681
#
# Coordination Sequence:
#
# PCOD9240814 Si02
#       7
#     4   4   4   4   4   4   4
#     4  10  21  38  56  81 109 144 186 233 273 314
#     4   8  16  28  42  68 101 134 169 198 253 320
#     4  10  21  38  58  83 110 143 187 234 274 318
#     4  10  19  33  51  78 112 144 174 218 272 332
#     4  10  21  36  56  81 108 145 187 222 277 331
#     4  10  19  33  51  76 108 143 176 223 273 326
#     4  10  21  36  58  85 109 145 186 222 280 334
#
# _framework density 22.837427999999999
#
# number of rings (size 3 to 8) (size 9 to 14) (size 15 to 20)
#    0.000    2.286    0.000    2.571    2.000    0.000 
#    7.714    0.000    0.000    5.143    0.000    0.000 
#    0.000    0.000    0.000    0.000    0.000    0.000 
#
# Total GULP energy -156267.805923 kJ/mol
# GULP energy per Si atom -5580.993069 kJ/mol
# Density = 2.278545 g / cm^3
# Si number density = 22.837428 Si / 1000 Ang^3
#
#
#
# Elastic Constant Matrix: (Units=GPa)
#
#
# Indices 1 2 3 4 5 6 
#
# 1 38.3976 -3.2135 9.3324 0.0000 12.1928 0.0000
# 2 -3.2135 71.0036 4.9954 0.0000 -2.6747 0.0000
# 3 9.3324 4.9954 66.7566 0.0000 23.5111 0.0000
# 4 0.0000 0.0000 0.0000 29.1020 0.0000 0.0681
# 5 12.1928 -2.6747 23.5111 0.0000 19.4295 0.0000
# 6 0.0000 0.0000 0.0000 0.0681 0.0000 16.8659
#
#
#
# Elastic Compliance Matrix: (Units=1/GPa)
#
#
# Indices 1 2 3 4 5 6 
#
# 1 0.033359 0.000179 0.004683 0.000000 -0.026576 0.000000
# 2 0.000179 0.014522 -0.003095 0.000000 0.005632 0.000000
# 3 0.004683 -0.003095 0.027433 0.000000 -0.036561 0.000000
# 4 0.000000 0.000000 0.000000 0.034362 0.000000 -0.000139
# 5 -0.026576 0.005632 -0.036561 0.000000 0.113162 0.000000
# 6 0.000000 0.000000 0.000000 -0.000139 0.000000 0.059292
#
#
# Mechanical properties :
#
#
# Convention : Reuss Voigt Hill
#
# Bulk Modulus (GPa) = 12.68270 22.04294 17.36282
# Shear Modulus (GPa) = 16.39994 24.08239 20.24117
#
# Velocity S-wave (km/s) = 2.68268 3.25085 2.98034
# Velocity P-wave (km/s) = 3.89374 4.87481 4.41163
#
# Compressibility (1/GPa) = 0.07884757
#
# Stress axis : x y z
#
# Youngs Moduli (GPa) = 29.97688 68.86176 36.45223
#
# Poissons Ratio (x) = -0.01234 -0.17070
# Poissons Ratio (y) = -0.00537 0.11283
# Poissons Ratio (z) = -0.14038 0.21315
#
# Static dielectric constant tensor:
#      x y z
#    x 1.878320 0.000000 -0.014240 
#    y 0.000000 1.902890 0.000000 
#    z -0.014240 0.000000 1.805170 
# 
# From -- ./inp_files/3768.got.cif
#   From: 2010.05.17/outbox.cif.g08.bks.cpg/sg14_2_cif.got.tgz:3768.got - 2010.06.03 17:49:19.
