data_PCOD9240285
_publ_section_title
;
Structure prediction by ZEFSAII (Michael W. Deem and Ramdas Pophale) SiO2 
 PCOD9240285
Probable space group: P 21/C
;
_chemical_formula_sum "Si O2"
_cell_formula_units_Z 28
_cell_length_a 22.026177
_cell_length_b 11.620456
_cell_length_c 14.980733
_cell_angle_alpha 90.000000
_cell_angle_beta 160.211630
_cell_angle_gamma 90.000000
_cell_volume 1298.118207
_symmetry_space_group_name_H-M "P 21/C"
_symmetry_group_IT_number 14
_symmetry_cell_setting 'monoclinic'
loop_
_space_group_symop_operation_xyz
x,y,z
-x,1/2+y,1/2-z
-x,-y,-z
x,1/2-y,1/2+z
loop_
_atom_site_type_symbol
_atom_site_label
_atom_site_fract_x
_atom_site_fract_y
_atom_site_fract_z
Si Si1 0.834332 0.194777 0.654001
Si Si2 0.833122 0.078344 0.241950
Si Si3 0.474669 0.728181 0.898188
Si Si4 0.094606 0.028809 0.326907
Si Si5 0.719522 0.493680 0.386735
Si Si6 0.193376 0.255460 0.542625
Si Si7 0.663506 0.425374 0.688584
O O1 0.866396 0.283628 0.778884
O O2 0.638069 0.223318 0.341678
O O3 0.853685 0.056363 0.682313
O O4 0.993074 0.227327 0.803061
O O5 0.689778 0.058401 0.121014
O O6 0.774839 0.038739 0.063664
O O7 0.000000 0.000000 0.500000
O O8 0.446264 0.591348 0.860632
O O9 0.376720 0.793027 0.844431
O O10 0.679725 0.765646 0.195430
O O11 0.186739 0.152494 0.462699
O O12 0.166661 0.966055 0.517595
O O13 0.882014 0.041003 0.044748
O O14 0.719626 0.630727 0.378950
O O15 0.500000 0.500000 0.500000
#
# Coordination Sequence:
#
# PCOD9240285 Si02
#       7
#     4   4   4   4   4   4   4
#     4   9  21  35  58  95 121 158 215 273 304 378
#     4  11  20  37  62  89 121 161 217 257 317 374
#     4  10  20  35  59  86 122 160 210 261 318 381
#     4  10  18  36  60  88 119 165 212 253 315 382
#     4  10  21  36  58  94 121 162 212 267 314 386
#     4  11  18  35  64  86 123 169 211 254 333 390
#     4  11  21  35  62  88 115 166 211 259 307 382
#
# _framework density 21.569683999999999
#
# number of rings (size 3 to 8) (size 9 to 14) (size 15 to 20)
#    0.000    1.714    5.714    0.429    0.000    0.000 
#    0.000    4.286    0.000    9.429    0.000    0.000 
#    0.000    0.000    0.000    0.000    0.000    0.000 
#
# Total GULP energy -156037.314697 kJ/mol
# GULP energy per Si atom -5572.761239 kJ/mol
# Density = 2.152059 g / cm^3
# Si number density = 21.569684 Si / 1000 Ang^3
#
#
#
# Elastic Constant Matrix: (Units=GPa)
#
#
# Indices 1 2 3 4 5 6 
#
# 1 58.4827 25.3363 -7.0450 0.0000 5.7239 0.0000
# 2 25.3363 152.2490 18.5868 0.0000 -0.6544 0.0000
# 3 -7.0450 18.5868 65.8113 0.0000 1.1199 0.0000
# 4 0.0000 0.0000 0.0000 36.9625 0.0000 -8.4883
# 5 5.7239 -0.6544 1.1199 0.0000 12.8652 0.0000
# 6 0.0000 0.0000 0.0000 -8.4883 0.0000 30.6333
#
#
#
# Elastic Compliance Matrix: (Units=1/GPa)
#
#
# Indices 1 2 3 4 5 6 
#
# 1 0.020071 -0.003793 0.003380 0.000000 -0.009417 0.000000
# 2 -0.003793 0.007523 -0.002570 0.000000 0.002294 0.000000
# 3 0.003380 -0.002570 0.016335 0.000000 -0.003056 0.000000
# 4 0.000000 0.000000 0.000000 0.028893 0.000000 0.008006
# 5 -0.009417 0.002294 -0.003056 0.000000 0.082302 0.000000
# 6 0.000000 0.000000 0.000000 0.008006 0.000000 0.034863
#
#
# Mechanical properties :
#
#
# Convention : Reuss Voigt Hill
#
# Bulk Modulus (GPa) = 26.34134 38.92213 32.63173
# Shear Modulus (GPa) = 23.96856 32.06985 28.01921
#
# Velocity S-wave (km/s) = 3.33711 3.86009 3.60809
# Velocity P-wave (km/s) = 5.20453 6.16044 5.70255
#
# Compressibility (1/GPa) = 0.03796314
#
# Stress axis : x y z
#
# Youngs Moduli (GPa) = 49.82235 132.92519 61.21977
#
# Poissons Ratio (x) = 0.50422 -0.20693
# Poissons Ratio (y) = 0.18899 0.15732
# Poissons Ratio (z) = -0.16841 0.34159
#
# Static dielectric constant tensor:
#      x y z
#    x 1.736500 0.000000 -0.014300 
#    y 0.000000 1.907290 0.000000 
#    z -0.014300 0.000000 1.864050 
# 
# From -- ./inp_files/62317.got.cif
#   From: 2010.05.17/outbox.cif.g08.bks.cpg/sg14_32_cif.got.tgz:62317.got - 2010.06.03 17:49:19.
