data_PCOD9240876
_publ_section_title
;
Structure prediction by ZEFSAII (Michael W. Deem and Ramdas Pophale) SiO2 
 PCOD9240876
Probable space group: P 21/C
;
_chemical_formula_sum "Si O2"
_cell_formula_units_Z 20
_cell_length_a 21.378227
_cell_length_b 6.945418
_cell_length_c 5.423827
_cell_angle_alpha 90.000000
_cell_angle_beta 77.449663
_cell_angle_gamma 90.000000
_cell_volume 786.090687
_symmetry_space_group_name_H-M "P 21/C"
_symmetry_group_IT_number 14
_symmetry_cell_setting 'monoclinic'
loop_
_space_group_symop_operation_xyz
x,y,z
-x,1/2+y,1/2-z
-x,-y,-z
x,1/2-y,1/2+z
loop_
_atom_site_type_symbol
_atom_site_label
_atom_site_fract_x
_atom_site_fract_y
_atom_site_fract_z
Si Si1 0.752836 0.122168 0.321143
Si Si2 0.023312 0.217864 0.473206
Si Si3 0.621044 0.962037 0.303061
Si Si4 0.881043 0.351137 0.566252
Si Si5 0.571868 0.975441 0.844532
O O1 0.749027 0.223291 0.594426
O O2 0.822309 0.021027 0.214126
O O3 0.693527 0.979840 0.334161
O O4 0.060492 0.246434 0.190377
O O5 0.958638 0.350967 0.524612
O O6 0.000000 0.000000 0.500000
O O7 0.579481 0.053890 0.560596
O O8 0.594052 0.746507 0.293995
O O9 0.615336 0.049645 0.034002
O O10 0.870613 0.316409 0.285050
O O11 0.500000 0.000000 0.000000
#
# Coordination Sequence:
#
# PCOD9240876 Si02
#       5
#     4   4   4   4   4
#     4  10  19  35  55  87 107 143 191 235 274 344
#     4  10  19  33  55  91 122 163 206 249 301 358
#     4  10  21  38  57  81 104 141 185 224 287 339
#     4   8  16  30  52  80 108 149 188 238 274 337
#     4  10  21  40  57  76 110 141 176 229 290 347
#
# _framework density 25.442357000000001
#
# number of rings (size 3 to 8) (size 9 to 14) (size 15 to 20)
#    0.000    2.400    0.000    2.400    0.000    0.000 
#   21.600    0.000    0.000    0.000  280.800    0.000 
#    0.000    0.000    0.000    0.000    0.000    0.000 
#
# Total GULP energy -111367.474498 kJ/mol
# GULP energy per Si atom -5568.373725 kJ/mol
# Density = 2.538445 g / cm^3
# Si number density = 25.442357 Si / 1000 Ang^3
#
#
#
# Elastic Constant Matrix: (Units=GPa)
#
#
# Indices 1 2 3 4 5 6 
#
# 1 115.7460 15.5710 6.1705 0.0000 -11.5263 0.0000
# 2 15.5710 80.4879 2.2959 0.0000 -1.7891 0.0000
# 3 6.1705 2.2959 194.9192 0.0000 39.8216 0.0000
# 4 0.0000 0.0000 0.0000 12.3529 0.0000 4.3235
# 5 -11.5263 -1.7891 39.8216 0.0000 60.1692 0.0000
# 6 0.0000 0.0000 0.0000 4.3235 0.0000 49.0157
#
#
#
# Elastic Compliance Matrix: (Units=1/GPa)
#
#
# Indices 1 2 3 4 5 6 
#
# 1 0.009122 -0.001696 -0.000712 0.000000 0.002168 0.000000
# 2 -0.001696 0.012759 -0.000125 0.000000 0.000137 0.000000
# 3 -0.000712 -0.000125 0.005993 0.000000 -0.004107 0.000000
# 4 0.000000 0.000000 0.000000 0.083532 0.000000 -0.007368
# 5 0.002168 0.000137 -0.004107 0.000000 0.019757 0.000000
# 6 0.000000 0.000000 0.000000 -0.007368 0.000000 0.021052
#
#
# Mechanical properties :
#
#
# Convention : Reuss Voigt Hill
#
# Bulk Modulus (GPa) = 43.84224 48.80311 46.32267
# Shear Modulus (GPa) = 30.32476 48.78193 39.55334
#
# Velocity S-wave (km/s) = 3.45614 4.38351 3.94715
# Velocity P-wave (km/s) = 5.76159 6.69654 6.24658
#
# Compressibility (1/GPa) = 0.02280905
#
# Stress axis : x y z
#
# Youngs Moduli (GPa) = 109.62968 78.37625 166.85319
#
# Poissons Ratio (x) = 0.13294 0.11875
# Poissons Ratio (y) = 0.18595 0.02078
# Poissons Ratio (z) = 0.07802 0.00976
#
# Static dielectric constant tensor:
#      x y z
#    x 2.100220 0.000000 0.024920 
#    y 0.000000 0.465050 0.000000 
#    z 0.024920 0.000000 2.083410 
# 
# From -- ./inp_files/4035.got.cif
#   From: 2010.05.17/outbox.cif.g08.bks.cpg/sg14_3_cif.got.tgz:4035.got - 2010.06.03 17:49:19.
