data_PCOD9240372
_publ_section_title
;
Structure prediction by ZEFSAII (Michael W. Deem and Ramdas Pophale) SiO2 
 PCOD9240372
Probable space group: P 21/C
;
_chemical_formula_sum "Si O2"
_cell_formula_units_Z 32
_cell_length_a 15.567122
_cell_length_b 7.663028
_cell_length_c 19.149842
_cell_angle_alpha 90.000000
_cell_angle_beta 134.855420
_cell_angle_gamma 90.000000
_cell_volume 1619.392320
_symmetry_space_group_name_H-M "P 21/C"
_symmetry_group_IT_number 14
_symmetry_cell_setting 'monoclinic'
loop_
_space_group_symop_operation_xyz
x,y,z
-x,1/2+y,1/2-z
-x,-y,-z
x,1/2-y,1/2+z
loop_
_atom_site_type_symbol
_atom_site_label
_atom_site_fract_x
_atom_site_fract_y
_atom_site_fract_z
Si Si1 0.725316 0.263814 0.109488
Si Si2 0.361736 0.026809 0.099285
Si Si3 0.337654 0.279797 0.313175
Si Si4 0.473639 0.212895 0.033494
Si Si5 0.866147 0.966307 0.125754
Si Si6 0.410091 0.368997 0.214873
Si Si7 0.569723 0.434655 0.912968
Si Si8 0.129550 0.120122 0.278777
O O1 0.615169 0.239339 0.100053
O O2 0.800921 0.440099 0.163365
O O3 0.807144 0.093051 0.150667
O O4 0.657407 0.291463 0.996463
O O5 0.437825 0.083926 0.074294
O O6 0.371262 0.186831 0.158890
O O7 0.446298 0.879495 0.183352
O O8 0.224664 0.020892 0.992323
O O9 0.404323 0.339922 0.422827
O O10 0.337410 0.402041 0.244951
O O11 0.431597 0.129905 0.340907
O O12 0.208037 0.207793 0.261964
O O13 0.423140 0.399433 0.030573
O O14 0.873888 0.769629 0.162084
O O15 0.995054 0.054482 0.183880
O O16 0.393346 0.503013 0.142006
#
# Coordination Sequence:
#
# PCOD9240372 Si02
#       8
#     4   4   4   4   4   4   4   4
#     4  11  21  39  69  96 134 169 216 283 344 386
#     4  11  23  41  61 104 132 174 218 267 349 408
#     4  11  19  37  62  92 130 167 219 270 332 391
#     4  10  19  34  67  98 130 162 216 289 343 390
#     4  12  26  41  66  97 135 177 231 272 326 399
#     4  11  23  37  63  94 140 171 206 267 343 409
#     4  10  18  37  60  96 129 174 202 272 349 398
#     4  12  23  43  64 100 132 177 226 276 327 394
#
# _framework density 19.760498999999999
#
# number of rings (size 3 to 8) (size 9 to 14) (size 15 to 20)
#    0.000    1.000    6.250    3.000    1.750    1.000 
#    0.000    0.625    0.000    0.750    0.000    0.000 
#    0.000    0.000    0.000    0.000    0.000    0.000 
#
# Total GULP energy -178564.655665 kJ/mol
# GULP energy per Si atom -5580.145490 kJ/mol
# Density = 1.971552 g / cm^3
# Si number density = 19.760499 Si / 1000 Ang^3
#
#
#
# Elastic Constant Matrix: (Units=GPa)
#
#
# Indices 1 2 3 4 5 6 
#
# 1 100.5869 20.9891 59.3512 0.0000 12.9654 0.0000
# 2 20.9891 90.2400 30.6110 0.0000 13.6981 0.0000
# 3 59.3512 30.6110 109.9962 0.0000 13.2265 0.0000
# 4 0.0000 0.0000 0.0000 30.5137 0.0000 -0.0085
# 5 12.9654 13.6981 13.2265 0.0000 47.9138 0.0000
# 6 0.0000 0.0000 0.0000 -0.0085 0.0000 35.3071
#
#
#
# Elastic Compliance Matrix: (Units=1/GPa)
#
#
# Indices 1 2 3 4 5 6 
#
# 1 0.014771 -0.000596 -0.007596 0.000000 -0.001730 0.000000
# 2 -0.000596 0.012594 -0.002865 0.000000 -0.002648 0.000000
# 3 -0.007596 -0.002865 0.014110 0.000000 -0.001021 0.000000
# 4 0.000000 0.000000 0.000000 0.032772 0.000000 0.000008
# 5 -0.001730 -0.002648 -0.001021 0.000000 0.022378 0.000000
# 6 0.000000 0.000000 0.000000 0.000008 0.000000 0.028323
#
#
# Mechanical properties :
#
#
# Convention : Reuss Voigt Hill
#
# Bulk Modulus (GPa) = 51.65088 58.08065 54.86576
# Shear Modulus (GPa) = 32.56996 35.40503 33.98750
#
# Velocity S-wave (km/s) = 4.06425 4.23745 4.15175
# Velocity P-wave (km/s) = 6.94402 7.30735 7.12800
#
# Compressibility (1/GPa) = 0.01936075
#
# Stress axis : x y z
#
# Youngs Moduli (GPa) = 67.69941 79.40293 70.87246
#
# Poissons Ratio (x) = 0.04735 0.53836
# Poissons Ratio (y) = 0.04037 0.20302
# Poissons Ratio (z) = 0.51426 0.22746
#
# Static dielectric constant tensor:
#      x y z
#    x 1.701170 0.000000 -0.018720 
#    y 0.000000 1.816070 0.000000 
#    z -0.018720 0.000000 1.736820 
# 
# From -- ./inp_files/58903.got.cif
#   From: 2010.05.17/outbox.cif.g08.bks.cpg/sg14_30_cif.got.tgz:58903.got - 2010.06.03 17:49:19.
