data_PCOD9240685
_publ_section_title
;
Structure prediction by ZEFSAII (Michael W. Deem and Ramdas Pophale) SiO2 
 PCOD9240685
Probable space group: P 21/C
;
_chemical_formula_sum "Si O2"
_cell_formula_units_Z 32
_cell_length_a 14.435463
_cell_length_b 23.712259
_cell_length_c 18.536316
_cell_angle_alpha 90.000000
_cell_angle_beta 19.337952
_cell_angle_gamma 90.000000
_cell_volume 2101.057981
_symmetry_space_group_name_H-M "P 21/C"
_symmetry_group_IT_number 14
_symmetry_cell_setting 'monoclinic'
loop_
_space_group_symop_operation_xyz
x,y,z
-x,1/2+y,1/2-z
-x,-y,-z
x,1/2-y,1/2+z
loop_
_atom_site_type_symbol
_atom_site_label
_atom_site_fract_x
_atom_site_fract_y
_atom_site_fract_z
Si Si1 0.282060 0.223376 0.289277
Si Si2 0.768787 0.653784 0.422828
Si Si3 0.336649 0.232348 0.590365
Si Si4 0.136385 0.439269 0.758608
Si Si5 0.135835 0.617769 0.906590
Si Si6 0.891770 0.324220 0.321094
Si Si7 0.969951 0.274129 0.647132
Si Si8 0.197851 0.567870 0.704362
O O1 0.287999 0.258584 0.210923
O O2 0.051624 0.174051 0.452520
O O3 0.195989 0.262256 0.419393
O O4 0.585720 0.194449 0.074063
O O5 0.721370 0.707222 0.404719
O O6 0.909939 0.604300 0.272667
O O7 0.461757 0.633552 0.672235
O O8 0.942188 0.676423 0.363189
O O9 0.661852 0.217244 0.340804
O O10 0.125887 0.188811 0.708287
O O11 0.099001 0.504194 0.764467
O O12 0.463510 0.432097 0.540139
O O13 0.956456 0.421995 0.960102
O O14 0.096212 0.588747 0.857725
O O15 0.950009 0.282501 0.210592
O O16 0.888022 0.387066 0.292723
#
# Coordination Sequence:
#
# PCOD9240685 Si02
#       8
#     4   4   4   4   4   4   4   4
#     4  11  18  30  49  72 102 127 154 197 241 290
#     4  10  20  31  49  72  97 132 163 196 240 294
#     4  10  20  32  48  71  99 129 163 197 242 289
#     4  10  19  32  50  70 104 129 158 202 240 289
#     4  11  17  30  48  74 101 126 156 193 243 291
#     4  10  20  32  49  73  99 130 162 197 241 294
#     4  10  20  33  48  70 101 130 163 199 241 290
#     4  10  19  32  48  75  99 131 162 194 244 293
#
# _framework density 15.230422000000001
#
# number of rings (size 3 to 8) (size 9 to 14) (size 15 to 20)
#    0.000    1.750    5.000    1.875    1.750    1.000 
#    0.000    0.000    0.000    0.750    0.000    1.750 
#    0.000    0.000    0.000    0.000    0.000    0.000 
#
# Total GULP energy -178505.154568 kJ/mol
# GULP energy per Si atom -5578.286080 kJ/mol
# Density = 1.519576 g / cm^3
# Si number density = 15.230422 Si / 1000 Ang^3
#
#
#
# Elastic Constant Matrix: (Units=GPa)
#
#
# Indices 1 2 3 4 5 6 
#
# 1 73.8488 50.4092 36.4837 0.0000 -0.5832 0.0000
# 2 50.4092 104.6851 31.1510 0.0000 2.8309 0.0000
# 3 36.4837 31.1510 73.4332 0.0000 20.2834 0.0000
# 4 0.0000 0.0000 0.0000 11.9221 0.0000 -2.7566
# 5 -0.5832 2.8309 20.2834 0.0000 19.6508 0.0000
# 6 0.0000 0.0000 0.0000 -2.7566 0.0000 23.0242
#
#
#
# Elastic Compliance Matrix: (Units=1/GPa)
#
#
# Indices 1 2 3 4 5 6 
#
# 1 0.026913 -0.009228 -0.014050 0.000000 0.016630 0.000000
# 2 -0.009228 0.014388 -0.001218 0.000000 -0.001090 0.000000
# 3 -0.014050 -0.001218 0.029629 0.000000 -0.030824 0.000000
# 4 0.000000 0.000000 0.000000 0.086266 0.000000 0.010328
# 5 0.016630 -0.001090 -0.030824 0.000000 0.083356 0.000000
# 6 0.000000 0.000000 0.000000 0.010328 0.000000 0.044669
#
#
# Mechanical properties :
#
#
# Convention : Reuss Voigt Hill
#
# Bulk Modulus (GPa) = 45.58278 54.22833 49.90555
# Shear Modulus (GPa) = 14.64021 19.84762 17.24392
#
# Velocity S-wave (km/s) = 3.10376 3.61384 3.36847
# Velocity P-wave (km/s) = 6.54509 7.28668 6.92582
#
# Compressibility (1/GPa) = 0.02193811
#
# Stress axis : x y z
#
# Youngs Moduli (GPa) = 37.15696 69.50255 33.75083
#
# Poissons Ratio (x) = 0.64139 0.47420
# Poissons Ratio (y) = 0.34290 0.04109
# Poissons Ratio (z) = 0.52205 0.08463
#
# Static dielectric constant tensor:
#      x y z
#    x 1.493260 0.000000 0.007750 
#    y 0.000000 1.498110 0.000000 
#    z 0.007750 0.000000 1.511500 
# 
# From -- ./inp_files/22091.got.cif
#   From: 2010.05.17/outbox.cif.g08.bks.cpg/sg14_12_cif.got.tgz:22091.got - 2010.06.03 17:49:19.
