data_PCOD9240992
_publ_section_title
;
Structure prediction by ZEFSAII (Michael W. Deem and Ramdas Pophale) SiO2 
 PCOD9240992
Probable space group: P 21/C
;
_chemical_formula_sum "Si O2"
_cell_formula_units_Z 28
_cell_length_a 29.340411
_cell_length_b 7.262102
_cell_length_c 30.216139
_cell_angle_alpha 90.000000
_cell_angle_beta 170.411452
_cell_angle_gamma 90.000000
_cell_volume 1072.429224
_symmetry_space_group_name_H-M "P 21/C"
_symmetry_group_IT_number 14
_symmetry_cell_setting 'monoclinic'
loop_
_space_group_symop_operation_xyz
x,y,z
-x,1/2+y,1/2-z
-x,-y,-z
x,1/2-y,1/2+z
loop_
_atom_site_type_symbol
_atom_site_label
_atom_site_fract_x
_atom_site_fract_y
_atom_site_fract_z
Si Si1 0.248473 0.590537 0.710458
Si Si2 0.436469 0.227718 0.852449
Si Si3 0.135437 0.160980 0.813109
Si Si4 0.838954 0.120167 0.308259
Si Si5 0.589343 0.845980 0.768437
Si Si6 0.284677 0.756678 0.154335
Si Si7 0.980741 0.438566 0.255307
O O1 0.459984 0.436678 0.895554
O O2 0.345507 0.743884 0.837593
O O3 0.150372 0.697875 0.572706
O O4 0.000000 0.500000 0.500000
O O5 0.493142 0.234989 0.854500
O O6 0.110307 0.196932 0.543817
O O7 0.623837 0.094458 0.061840
O O8 0.072177 0.365172 0.772490
O O9 0.895948 0.126571 0.549204
O O10 0.140638 0.043602 0.862528
O O11 0.416230 0.173279 0.055703
O O12 0.000000 0.000000 0.500000
O O13 0.323021 0.863548 0.543890
O O14 0.666859 0.046505 0.822524
O O15 0.846903 0.808794 0.046410
#
# Coordination Sequence:
#
# PCOD9240992 Si02
#       7
#     4   4   4   4   4   4   4
#     4   9  20  37  61  84 107 147 198 236 277 343
#     4  10  20  37  58  80 105 143 191 230 268 328
#     4  10  20  35  54  78 109 141 176 223 275 327
#     4  11  22  36  54  81 117 146 174 226 292 341
#     4   9  18  33  56  78 100 134 182 227 258 308
#     4   9  19  34  54  80 108 138 180 233 274 314
#     4  10  19  34  54  77 104 137 173 215 270 323
#
# _framework density 26.10895
#
# number of rings (size 3 to 8) (size 9 to 14) (size 15 to 20)
#    0.000    2.286    0.000    2.571    0.000    9.143 
#    0.000    4.286    0.000    0.000    0.000    0.000 
#    0.000    0.000    0.000    0.000    0.000    0.000 
#
# Total GULP energy -156356.563279 kJ/mol
# GULP energy per Si atom -5584.162974 kJ/mol
# Density = 2.604953 g / cm^3
# Si number density = 26.108950 Si / 1000 Ang^3
#
#
#
# Elastic Constant Matrix: (Units=GPa)
#
#
# Indices 1 2 3 4 5 6 
#
# 1 125.8694 19.4405 41.0850 0.0000 -6.5229 0.0000
# 2 19.4405 67.3447 13.1884 0.0000 -17.7920 0.0000
# 3 41.0850 13.1884 125.5931 0.0000 -19.4538 0.0000
# 4 0.0000 0.0000 0.0000 8.8316 0.0000 -5.6170
# 5 -6.5229 -17.7920 -19.4538 0.0000 43.8611 0.0000
# 6 0.0000 0.0000 0.0000 -5.6170 0.0000 35.0730
#
#
#
# Elastic Compliance Matrix: (Units=1/GPa)
#
#
# Indices 1 2 3 4 5 6 
#
# 1 0.009205 -0.002315 -0.002901 0.000000 -0.000857 0.000000
# 2 -0.002315 0.017280 -0.000027 0.000000 0.006654 0.000000
# 3 -0.002901 -0.000027 0.009498 0.000000 0.003770 0.000000
# 4 0.000000 0.000000 0.000000 0.126071 0.000000 0.020191
# 5 -0.000857 0.006654 0.003770 0.000000 0.027043 0.000000
# 6 0.000000 0.000000 0.000000 0.020191 0.000000 0.031746
#
#
# Mechanical properties :
#
#
# Convention : Reuss Voigt Hill
#
# Bulk Modulus (GPa) = 39.21928 51.80389 45.51158
# Shear Modulus (GPa) = 20.84834 33.89270 27.37052
#
# Velocity S-wave (km/s) = 2.82886 3.60686 3.24129
# Velocity P-wave (km/s) = 5.07188 6.10167 5.61045
#
# Compressibility (1/GPa) = 0.02549767
#
# Stress axis : x y z
#
# Youngs Moduli (GPa) = 108.63906 57.86894 105.28587
#
# Poissons Ratio (x) = 0.13400 0.30541
# Poissons Ratio (y) = 0.25155 0.00279
# Poissons Ratio (z) = 0.31513 0.00154
#
# Static dielectric constant tensor:
#      x y z
#    x 2.061210 0.000000 -0.007180 
#    y 0.000000 2.242540 0.000000 
#    z -0.007180 0.000000 1.954280 
# 
# From -- ./inp_files/80945.got.cif
#   From: 2010.05.17/outbox.cif.g08.bks.cpg/sg14_41_cif.got.tgz:80945.got - 2010.06.03 17:49:19.
