data_PCOD9240492
_publ_section_title
;
Structure prediction by ZEFSAII (Michael W. Deem and Ramdas Pophale) SiO2 
 PCOD9240492
Probable space group: P 21/C
;
_chemical_formula_sum "Si O2"
_cell_formula_units_Z 32
_cell_length_a 13.195365
_cell_length_b 8.629099
_cell_length_c 13.905247
_cell_angle_alpha 90.000000
_cell_angle_beta 115.486328
_cell_angle_gamma 90.000000
_cell_volume 1429.233642
_symmetry_space_group_name_H-M "P 21/C"
_symmetry_group_IT_number 14
_symmetry_cell_setting 'monoclinic'
loop_
_space_group_symop_operation_xyz
x,y,z
-x,1/2+y,1/2-z
-x,-y,-z
x,1/2-y,1/2+z
loop_
_atom_site_type_symbol
_atom_site_label
_atom_site_fract_x
_atom_site_fract_y
_atom_site_fract_z
Si Si1 0.167442 0.248824 0.113754
Si Si2 0.359648 0.021630 0.119306
Si Si3 0.973144 0.276713 0.166858
Si Si4 0.765963 0.079378 0.311222
Si Si5 0.985321 0.636616 0.116659
Si Si6 0.510508 0.285991 0.215420
Si Si7 0.713904 0.305129 0.581318
Si Si8 0.413939 0.905234 0.596488
O O1 0.259938 0.128698 0.117819
O O2 0.222010 0.393443 0.192934
O O3 0.061602 0.190966 0.133117
O O4 0.110698 0.322757 0.996531
O O5 0.471740 0.125925 0.149648
O O6 0.385026 0.895485 0.212478
O O7 0.327540 0.938371 0.007524
O O8 0.975850 0.458321 0.144390
O O9 0.844669 0.223473 0.109623
O O10 0.016116 0.245380 0.291668
O O11 0.714219 0.149243 0.192998
O O12 0.688907 0.110826 0.370384
O O13 0.890099 0.147899 0.377409
O O14 0.494199 0.214182 0.319732
O O15 0.444944 0.415931 0.125633
O O16 0.634869 0.157394 0.523487
#
# Coordination Sequence:
#
# PCOD9240492 Si02
#       8
#     4   4   4   4   4   4   4   4
#     4  11  21  36  65  89 119 169 200 242 307 365
#     4  10  21  38  65  89 116 160 203 255 308 364
#     4  10  22  39  56  92 128 161 199 250 287 371
#     4  10  20  38  62  88 121 165 202 234 303 380
#     4  10  22  38  60  88 129 166 202 241 297 361
#     4   9  20  38  62  85 116 156 200 260 316 345
#     4  10  22  38  62  92 123 158 205 243 305 364
#     4  10  18  39  63  85 118 161 199 257 306 359
#
# _framework density 22.389621000000002
#
# number of rings (size 3 to 8) (size 9 to 14) (size 15 to 20)
#    0.000    2.000    1.250    3.000    5.250    0.500 
#    9.000    6.250    0.000    0.000    0.000    0.000 
#    0.000    0.000    0.000    0.000    0.000    0.000 
#
# Total GULP energy -178341.365648 kJ/mol
# GULP energy per Si atom -5573.167677 kJ/mol
# Density = 2.233866 g / cm^3
# Si number density = 22.389621 Si / 1000 Ang^3
#
#
#
# Elastic Constant Matrix: (Units=GPa)
#
#
# Indices 1 2 3 4 5 6 
#
# 1 74.2343 22.5074 13.2385 0.0000 5.4661 0.0000
# 2 22.5074 45.5130 30.6557 0.0000 0.1963 0.0000
# 3 13.2385 30.6557 116.0346 0.0000 7.6570 0.0000
# 4 0.0000 0.0000 0.0000 43.4055 0.0000 7.5663
# 5 5.4661 0.1963 7.6570 0.0000 18.5872 0.0000
# 6 0.0000 0.0000 0.0000 7.5663 0.0000 32.1019
#
#
#
# Elastic Compliance Matrix: (Units=1/GPa)
#
#
# Indices 1 2 3 4 5 6 
#
# 1 0.016294 -0.008523 0.000723 0.000000 -0.005000 0.000000
# 2 -0.008523 0.031319 -0.007653 0.000000 0.005329 0.000000
# 3 0.000723 -0.007653 0.010862 0.000000 -0.004606 0.000000
# 4 0.000000 0.000000 0.000000 0.024026 0.000000 -0.005663
# 5 -0.005000 0.005329 -0.004606 0.000000 0.057112 0.000000
# 6 0.000000 0.000000 0.000000 -0.005663 0.000000 0.032486
#
#
# Mechanical properties :
#
#
# Convention : Reuss Voigt Hill
#
# Bulk Modulus (GPa) = 36.27559 40.95390 38.61475
# Shear Modulus (GPa) = 23.56328 30.11095 26.83711
#
# Velocity S-wave (km/s) = 3.24762 3.67121 3.46590
# Velocity P-wave (km/s) = 5.50453 6.02508 5.77068
#
# Compressibility (1/GPa) = 0.02756675
#
# Stress axis : x y z
#
# Youngs Moduli (GPa) = 61.37121 31.92979 92.06730
#
# Poissons Ratio (x) = 0.27214 -0.06653
# Poissons Ratio (y) = 0.52308 0.70463
# Poissons Ratio (z) = -0.04435 0.24437
#
# Static dielectric constant tensor:
#      x y z
#    x 1.946420 0.000000 0.029110 
#    y 0.000000 1.866080 0.000000 
#    z 0.029110 0.000000 1.828130 
# 
# From -- ./inp_files/46522.got.cif
#   From: 2010.05.17/outbox.cif.g08.bks.cpg/sg14_24_cif.got.tgz:46522.got - 2010.06.03 17:49:19.
