data_PCOD9240320
_publ_section_title
;
Structure prediction by ZEFSAII (Michael W. Deem and Ramdas Pophale) SiO2 
 PCOD9240320
Probable space group: P 21/C
;
_chemical_formula_sum "Si O2"
_cell_formula_units_Z 28
_cell_length_a 19.604255
_cell_length_b 11.978166
_cell_length_c 14.519493
_cell_angle_alpha 90.000000
_cell_angle_beta 161.433772
_cell_angle_gamma 90.000000
_cell_volume 1085.590442
_symmetry_space_group_name_H-M "P 21/C"
_symmetry_group_IT_number 14
_symmetry_cell_setting 'monoclinic'
loop_
_space_group_symop_operation_xyz
x,y,z
-x,1/2+y,1/2-z
-x,-y,-z
x,1/2-y,1/2+z
loop_
_atom_site_type_symbol
_atom_site_label
_atom_site_fract_x
_atom_site_fract_y
_atom_site_fract_z
Si Si1 0.004831 0.271566 0.613736
Si Si2 0.329125 0.783223 0.464327
Si Si3 0.645319 0.524824 0.298599
Si Si4 0.536527 0.081082 0.131449
Si Si5 0.602222 0.681524 0.980845
Si Si6 0.025312 0.826311 0.239215
Si Si7 0.181564 0.470250 0.303243
O O1 0.997288 0.275133 0.715195
O O2 0.162973 0.352604 0.758786
O O3 0.132683 0.156894 0.764075
O O4 0.778360 0.253093 0.271951
O O5 0.121213 0.797343 0.263312
O O6 0.472596 0.890498 0.622569
O O7 0.475542 0.710647 0.722147
O O8 0.491478 0.584188 0.899907
O O9 0.804559 0.474346 0.580855
O O10 0.810267 0.601545 0.453646
O O11 0.423690 0.204214 0.991471
O O12 0.410998 0.017377 0.051029
O O13 0.783502 0.101398 0.469405
O O14 0.500000 0.000000 0.000000
O O15 0.000000 0.500000 0.000000
#
# Coordination Sequence:
#
# PCOD9240320 Si02
#       7
#     4   4   4   4   4   4   4
#     4  10  21  41  67  94 137 184 233 292 356 425
#     4  11  22  45  67  98 141 184 235 296 359 432
#     4  11  21  42  65  93 146 178 227 301 357 418
#     4  10  19  36  63  97 135 168 234 286 338 418
#     4  10  22  42  64 101 141 177 235 295 351 433
#     4  10  21  44  67 102 135 182 246 290 355 421
#     4  10  18  36  64  96 129 174 224 297 350 400
#
# _framework density 25.792415999999999
#
# number of rings (size 3 to 8) (size 9 to 14) (size 15 to 20)
#    0.000    1.714    5.714    2.571    0.000    1.714 
#   12.857    3.571    0.000    0.000    0.000    0.000 
#    0.000    0.000    0.000    0.000    0.000    0.000 
#
# Total GULP energy -156111.042958 kJ/mol
# GULP energy per Si atom -5575.394391 kJ/mol
# Density = 2.573371 g / cm^3
# Si number density = 25.792416 Si / 1000 Ang^3
#
#
#
# Elastic Constant Matrix: (Units=GPa)
#
#
# Indices 1 2 3 4 5 6 
#
# 1 105.9670 18.3724 35.4032 0.0000 22.0932 0.0000
# 2 18.3724 67.8555 8.8899 0.0000 1.2223 0.0000
# 3 35.4032 8.8899 126.6564 0.0000 -9.5283 0.0000
# 4 0.0000 0.0000 0.0000 38.5378 0.0000 4.0760
# 5 22.0932 1.2223 -9.5283 0.0000 41.7462 0.0000
# 6 0.0000 0.0000 0.0000 4.0760 0.0000 27.4823
#
#
#
# Elastic Compliance Matrix: (Units=1/GPa)
#
#
# Indices 1 2 3 4 5 6 
#
# 1 0.012838 -0.002819 -0.003964 0.000000 -0.007616 0.000000
# 2 -0.002819 0.015512 -0.000227 0.000000 0.000986 0.000000
# 3 -0.003964 -0.000227 0.009338 0.000000 0.004236 0.000000
# 4 0.000000 0.000000 0.000000 0.026362 0.000000 -0.003910
# 5 -0.007616 0.000986 0.004236 0.000000 0.028923 0.000000
# 6 0.000000 0.000000 0.000000 -0.003910 0.000000 0.036967
#
#
# Mechanical properties :
#
#
# Convention : Reuss Voigt Hill
#
# Bulk Modulus (GPa) = 42.24912 47.31220 44.78066
# Shear Modulus (GPa) = 32.92749 37.40749 35.16749
#
# Velocity S-wave (km/s) = 3.57688 3.81245 3.69654
# Velocity P-wave (km/s) = 5.78574 6.14516 5.96815
#
# Compressibility (1/GPa) = 0.02366913
#
# Stress axis : x y z
#
# Youngs Moduli (GPa) = 77.89464 64.46415 107.09153
#
# Poissons Ratio (x) = 0.18176 0.42446
# Poissons Ratio (y) = 0.21962 0.02426
# Poissons Ratio (z) = 0.30874 0.01460
#
# Static dielectric constant tensor:
#      x y z
#    x 2.184770 0.000000 -0.055530 
#    y 0.000000 2.095350 0.000000 
#    z -0.055530 0.000000 2.109070 
# 
# From -- ./inp_files/45494.got.cif
#   From: 2010.05.17/outbox.cif.g08.bks.cpg/sg14_23_cif.got.tgz:45494.got - 2010.06.03 17:49:19.
