data_PCOD9240973
_publ_section_title
;
Structure prediction by ZEFSAII (Michael W. Deem and Ramdas Pophale) SiO2 
 PCOD9240973
Probable space group: P 21/C
;
_chemical_formula_sum "Si O2"
_cell_formula_units_Z 20
_cell_length_a 9.749637
_cell_length_b 5.566102
_cell_length_c 25.763281
_cell_angle_alpha 90.000000
_cell_angle_beta 38.104281
_cell_angle_gamma 90.000000
_cell_volume 862.765109
_symmetry_space_group_name_H-M "P 21/C"
_symmetry_group_IT_number 14
_symmetry_cell_setting 'monoclinic'
loop_
_space_group_symop_operation_xyz
x,y,z
-x,1/2+y,1/2-z
-x,-y,-z
x,1/2-y,1/2+z
loop_
_atom_site_type_symbol
_atom_site_label
_atom_site_fract_x
_atom_site_fract_y
_atom_site_fract_z
Si Si1 0.865159 0.296281 0.280266
Si Si2 0.155849 0.310410 0.923872
Si Si3 0.099415 0.945822 0.342321
Si Si4 0.669690 0.219765 0.442302
Si Si5 0.790297 0.563567 0.492688
O O1 0.674512 0.277597 0.380037
O O2 0.002127 0.540178 0.255784
O O3 0.796470 0.336645 0.240653
O O4 0.247824 0.446760 0.845140
O O5 0.983872 0.115002 0.954067
O O6 0.000000 0.500000 0.000000
O O7 0.294281 0.184660 0.928448
O O8 0.925086 0.758514 0.419035
O O9 0.928614 0.147899 0.373308
O O10 0.640721 0.412443 0.496938
O O11 0.500000 0.000000 0.500000
#
# Coordination Sequence:
#
# PCOD9240973 Si02
#       5
#     4   4   4   4   4
#     4  10  19  34  51  74 112 154 189 235 284 354
#     4   8  15  26  48  74 102 126 180 243 280 319
#     4   9  17  30  49  73 109 140 189 237 283 342
#     4  10  20  31  47  76 118 153 188 233 297 359
#     4   9  15  29  46  72 109 134 181 234 282 332
#
# _framework density 23.181280999999998
#
# number of rings (size 3 to 8) (size 9 to 14) (size 15 to 20)
#    0.000    2.800    2.000    0.000    0.000    0.800 
#    0.000    0.000    0.000    0.000    0.000    0.000 
#  186.000    0.000    0.000    0.000    0.000    0.600 
#
# Total GULP energy -111336.429346 kJ/mol
# GULP energy per Si atom -5566.821467 kJ/mol
# Density = 2.312852 g / cm^3
# Si number density = 23.181281 Si / 1000 Ang^3
#
#
#
# Elastic Constant Matrix: (Units=GPa)
#
#
# Indices 1 2 3 4 5 6 
#
# 1 165.0700 49.2869 54.6746 0.0000 57.2234 0.0000
# 2 49.2869 94.2782 35.9009 0.0000 25.7483 0.0000
# 3 54.6746 35.9009 123.3478 0.0000 52.9563 0.0000
# 4 0.0000 0.0000 0.0000 35.8094 0.0000 12.2881
# 5 57.2234 25.7483 52.9563 0.0000 52.3928 0.0000
# 6 0.0000 0.0000 0.0000 12.2881 0.0000 53.9644
#
#
#
# Elastic Compliance Matrix: (Units=1/GPa)
#
#
# Indices 1 2 3 4 5 6 
#
# 1 0.010351 -0.002789 0.000864 0.000000 -0.010808 0.000000
# 2 -0.002789 0.013216 -0.001996 0.000000 -0.001432 0.000000
# 3 0.000864 -0.001996 0.014644 0.000000 -0.014763 0.000000
# 4 0.000000 0.000000 0.000000 0.030293 0.000000 -0.006898
# 5 -0.010808 -0.001432 -0.014763 0.000000 0.046517 0.000000
# 6 0.000000 0.000000 0.000000 -0.006898 0.000000 0.020101
#
#
# Mechanical properties :
#
#
# Convention : Reuss Voigt Hill
#
# Bulk Modulus (GPa) = 32.92783 73.60232 53.26508
# Shear Modulus (GPa) = 32.66128 44.62223 38.64175
#
# Velocity S-wave (km/s) = 3.75767 4.39216 4.08724
# Velocity P-wave (km/s) = 5.74997 7.58558 6.73065
#
# Compressibility (1/GPa) = 0.03036944
#
# Stress axis : x y z
#
# Youngs Moduli (GPa) = 96.60518 75.66720 68.28958
#
# Poissons Ratio (x) = 0.21100 -0.05897
# Poissons Ratio (y) = 0.26939 0.13628
# Poissons Ratio (z) = -0.08342 0.15100
#
# Static dielectric constant tensor:
#      x y z
#    x 1.956240 0.000000 0.002060 
#    y 0.000000 1.928440 0.000000 
#    z 0.002060 0.000000 1.863490 
# 
# From -- ./inp_files/56358.got.cif
#   From: 2010.05.17/outbox.cif.g08.bks.cpg/sg14_29_cif.got.tgz:56358.got - 2010.06.03 17:49:19.
