data_PCOD9240679
_publ_section_title
;
Structure prediction by ZEFSAII (Michael W. Deem and Ramdas Pophale) SiO2 
 PCOD9240679
Probable space group: P 21/C
;
_chemical_formula_sum "Si O2"
_cell_formula_units_Z 32
_cell_length_a 5.521936
_cell_length_b 20.778963
_cell_length_c 14.104012
_cell_angle_alpha 90.000000
_cell_angle_beta 85.071077
_cell_angle_gamma 90.000000
_cell_volume 1612.311425
_symmetry_space_group_name_H-M "P 21/C"
_symmetry_group_IT_number 14
_symmetry_cell_setting 'monoclinic'
loop_
_space_group_symop_operation_xyz
x,y,z
-x,1/2+y,1/2-z
-x,-y,-z
x,1/2-y,1/2+z
loop_
_atom_site_type_symbol
_atom_site_label
_atom_site_fract_x
_atom_site_fract_y
_atom_site_fract_z
Si Si1 0.866484 0.809715 0.242093
Si Si2 0.647383 0.656786 0.425834
Si Si3 0.415215 0.765673 0.539095
Si Si4 0.908676 0.688709 0.094810
Si Si5 0.273829 0.548851 0.419018
Si Si6 0.893240 0.910006 0.084380
Si Si7 0.644634 0.265581 0.242220
Si Si8 0.938611 0.359697 0.725016
O O1 0.886866 0.751267 0.164603
O O2 0.901122 0.876616 0.185427
O O3 0.596127 0.798624 0.290878
O O4 0.106549 0.799959 0.296574
O O5 0.459849 0.712620 0.457390
O O6 0.519839 0.589174 0.407739
O O7 0.793577 0.644513 0.517386
O O8 0.840609 0.673186 0.339506
O O9 0.656817 0.809618 0.545702
O O10 0.384876 0.728444 0.641566
O O11 0.160813 0.801423 0.531112
O O12 0.965826 0.633284 0.170871
O O13 0.278884 0.472565 0.409893
O O14 0.122131 0.578047 0.335435
O O15 0.138215 0.566519 0.522679
O O16 0.706012 0.188859 0.231429
#
# Coordination Sequence:
#
# PCOD9240679 Si02
#       8
#     4   4   4   4   4   4   4   4
#     4   9  16  29  50  62  81 118 170 197 226 272
#     4  11  19  29  46  67  93 133 166 199 225 286
#     4   9  17  28  48  63  84 115 167 188 232 276
#     4   9  17  31  46  65  82 121 157 201 240 281
#     4  10  21  30  44  64 105 133 165 200 235 274
#     4  10  19  32  42  68  93 137 177 194 222 277
#     4   9  17  30  48  64  83 118 161 203 247 278
#     4   9  21  29  44  66  92 124 161 200 255 276
#
# _framework density 19.847283999999998
#
# number of rings (size 3 to 8) (size 9 to 14) (size 15 to 20)
#    0.000    2.750    2.500    1.875    8.750    0.000 
#    0.000    0.000    0.000    0.000    0.000    0.000 
#    0.000    0.000    0.000   37.125    1.000    1.875 
#
# Total GULP energy -178258.820045 kJ/mol
# GULP energy per Si atom -5570.588126 kJ/mol
# Density = 1.980211 g / cm^3
# Si number density = 19.847284 Si / 1000 Ang^3
#
#
#
# Elastic Constant Matrix: (Units=GPa)
#
#
# Indices 1 2 3 4 5 6 
#
# 1 131.9475 9.0315 9.9471 0.0000 -10.5400 0.0000
# 2 9.0315 48.9477 23.2213 0.0000 -5.3573 0.0000
# 3 9.9471 23.2213 32.4477 0.0000 -1.5639 0.0000
# 4 0.0000 0.0000 0.0000 24.9740 0.0000 1.0196
# 5 -10.5400 -5.3573 -1.5639 0.0000 22.5377 0.0000
# 6 0.0000 0.0000 0.0000 1.0196 0.0000 19.2864
#
#
#
# Elastic Compliance Matrix: (Units=1/GPa)
#
#
# Indices 1 2 3 4 5 6 
#
# 1 0.008039 -0.000004 -0.002288 0.000000 0.003600 0.000000
# 2 -0.000004 0.031716 -0.022408 0.000000 0.005983 0.000000
# 3 -0.002288 -0.022408 0.047407 0.000000 -0.003107 0.000000
# 4 0.000000 0.000000 0.000000 0.040128 0.000000 -0.002121
# 5 0.003600 0.005983 -0.003107 0.000000 0.047260 0.000000
# 6 0.000000 0.000000 0.000000 -0.002121 0.000000 0.051962
#
#
# Mechanical properties :
#
#
# Convention : Reuss Voigt Hill
#
# Bulk Modulus (GPa) = 26.48177 33.08250 29.78213
# Shear Modulus (GPa) = 17.33096 24.76914 21.05005
#
# Velocity S-wave (km/s) = 2.95823 3.53652 3.26022
# Velocity P-wave (km/s) = 5.00399 5.77760 5.40465
#
# Compressibility (1/GPa) = 0.03776183
#
# Stress axis : x y z
#
# Youngs Moduli (GPa) = 124.39209 31.52964 21.09386
#
# Poissons Ratio (x) = 0.00012 0.04827
# Poissons Ratio (y) = 0.00046 0.47268
# Poissons Ratio (z) = 0.28464 0.70653
#
# Static dielectric constant tensor:
#      x y z
#    x 1.839990 0.000000 0.037730 
#    y 0.000000 1.690170 0.000000 
#    z 0.037730 0.000000 1.746790 
# 
# From -- ./inp_files/38004.got.cif
#   From: 2010.05.17/outbox.cif.g08.bks.cpg/sg14_20_cif.got.tgz:38004.got - 2010.06.03 17:49:19.
