data_PCOD9240585
_publ_section_title
;
Structure prediction by ZEFSAII (Michael W. Deem and Ramdas Pophale) SiO2 
 PCOD9240585
Probable space group: P 21/C
;
_chemical_formula_sum "Si O2"
_cell_formula_units_Z 32
_cell_length_a 12.866348
_cell_length_b 20.343890
_cell_length_c 7.309032
_cell_angle_alpha 90.000000
_cell_angle_beta 55.384129
_cell_angle_gamma 90.000000
_cell_volume 1574.482842
_symmetry_space_group_name_H-M "P 21/C"
_symmetry_group_IT_number 14
_symmetry_cell_setting 'monoclinic'
loop_
_space_group_symop_operation_xyz
x,y,z
-x,1/2+y,1/2-z
-x,-y,-z
x,1/2-y,1/2+z
loop_
_atom_site_type_symbol
_atom_site_label
_atom_site_fract_x
_atom_site_fract_y
_atom_site_fract_z
Si Si1 0.047620 0.927426 0.729146
Si Si2 0.600648 0.591561 0.121790
Si Si3 0.600647 0.591563 0.676921
Si Si4 0.671134 0.057553 0.106602
Si Si5 0.328865 0.557554 0.948874
Si Si6 0.952379 0.427427 0.324383
Si Si7 0.164992 0.326792 0.117008
Si Si8 0.164992 0.173209 0.052998
O O1 0.192205 0.918064 0.524635
O O2 0.949779 0.872061 0.764129
O O3 0.048117 0.926749 0.951884
O O4 1.000000 0.999999 0.723664
O O5 0.455063 0.595446 0.327780
O O6 0.651929 0.519057 0.120543
O O7 0.597808 0.593124 0.902195
O O8 0.700635 0.645463 0.085610
O O9 0.651928 0.519059 0.575601
O O10 0.455062 0.595448 0.762101
O O11 0.700634 0.645465 0.513129
O O12 0.671813 0.059009 0.328185
O O13 0.807794 0.081934 0.909041
O O14 0.050220 0.372063 0.163682
O O15 0.148006 0.250001 0.101988
O O16 0.167119 0.336507 0.332876
#
# Coordination Sequence:
#
# PCOD9240585 Si02
#       8
#     4   4   4   4   4   4   4   4
#     4   9  14  23  41  65  88 110 142 186 225 252
#     4   8  13  22  38  62  87 107 134 178 223 254
#     4   8  13  22  38  62  87 107 134 178 223 254
#     4   8  12  20  38  64  87 103 133 185 227 246
#     4   8  12  20  38  64  87 103 133 185 227 246
#     4   9  14  23  41  65  88 110 142 186 225 252
#     4  10  19  30  44  64  91 120 146 175 218 268
#     4  10  19  30  44  64  91 120 146 175 218 268
#
# _framework density 20.324134000000001
#
# number of rings (size 3 to 8) (size 9 to 14) (size 15 to 20)
#    0.000    3.250    2.500    1.500    0.000    0.000 
#    0.000    1.250    0.000    0.750    0.000    3.500 
#    0.000    0.000    0.000    0.000    0.000    0.000 
#
# Total GULP energy -178488.295791 kJ/mol
# GULP energy per Si atom -5577.759243 kJ/mol
# Density = 2.027788 g / cm^3
# Si number density = 20.324134 Si / 1000 Ang^3
#
#
#
# Elastic Constant Matrix: (Units=GPa)
#
#
# Indices 1 2 3 4 5 6 
#
# 1 70.9143 61.7247 105.2262 0.0000 -45.7520 0.0000
# 2 61.7247 137.5786 56.4720 0.0000 -59.3648 0.0000
# 3 105.2262 56.4720 63.5760 0.0000 -37.1869 0.0000
# 4 0.0000 0.0000 0.0000 15.2453 0.0000 -15.0492
# 5 -45.7520 -59.3648 -37.1869 0.0000 77.5880 0.0000
# 6 0.0000 0.0000 0.0000 -15.0492 0.0000 16.5774
#
#
#
# Elastic Compliance Matrix: (Units=1/GPa)
#
#
# Indices 1 2 3 4 5 6 
#
# 1 -0.008652 -0.002802 0.017467 0.000000 0.001126 0.000000
# 2 -0.002802 0.012426 -0.002508 0.000000 0.006653 0.000000
# 3 0.017467 -0.002508 -0.008409 0.000000 0.004351 0.000000
# 4 0.000000 0.000000 0.000000 0.631515 0.000000 0.573298
# 5 0.001126 0.006653 0.004351 0.000000 0.020729 0.000000
# 6 0.000000 0.000000 0.000000 0.573298 0.000000 0.580770
#
#
# Mechanical properties :
#
#
# Convention : Reuss Voigt Hill
#
# Bulk Modulus (GPa) = 50.81264 79.87942 65.34603
# Shear Modulus (GPa) = 4.13010 25.12522 14.62766
#
# Velocity S-wave (km/s) = 1.42707 3.51981 2.68567
# Velocity P-wave (km/s) = 5.26980 7.47709 6.46829
#
# Compressibility (1/GPa) = 0.01968014
#
# Stress axis : x y z
#
# Youngs Moduli (GPa) = -115.58627 80.47666 -118.92394
#
# Poissons Ratio (x) = 0.22553 2.07728
# Poissons Ratio (y) = -0.32392 -0.29821
# Poissons Ratio (z) = 2.01898 0.20180
#
# Static dielectric constant tensor:
#      x y z
#    x 1.772990 0.000000 0.032560 
#    y 0.000000 1.664580 0.000000 
#    z 0.032560 0.000000 1.775880 
# 
# From -- ./inp_files/16842.got.cif
#   From: 2010.05.17/outbox.cif.g08.bks.cpg/sg14_9_cif.got.tgz:16842.got - 2010.06.03 17:49:19.
