data_PCOD9240437
_publ_section_title
;
Structure prediction by ZEFSAII (Michael W. Deem and Ramdas Pophale) SiO2 
 PCOD9240437
Probable space group: P 21/C
;
_chemical_formula_sum "Si O2"
_cell_formula_units_Z 20
_cell_length_a 11.734014
_cell_length_b 9.117632
_cell_length_c 7.551771
_cell_angle_alpha 90.000000
_cell_angle_beta 96.501314
_cell_angle_gamma 90.000000
_cell_volume 802.741322
_symmetry_space_group_name_H-M "P 21/C"
_symmetry_group_IT_number 14
_symmetry_cell_setting 'monoclinic'
loop_
_space_group_symop_operation_xyz
x,y,z
-x,1/2+y,1/2-z
-x,-y,-z
x,1/2-y,1/2+z
loop_
_atom_site_type_symbol
_atom_site_label
_atom_site_fract_x
_atom_site_fract_y
_atom_site_fract_z
Si Si1 0.854671 0.528189 0.162989
Si Si2 0.615088 0.089303 0.978790
Si Si3 0.148355 0.473751 0.429005
Si Si4 0.622386 0.068167 0.564518
Si Si5 0.995593 0.256238 0.716402
O O1 0.845264 0.589088 0.366871
O O2 0.736866 0.523440 0.033213
O O3 0.960214 0.630538 0.116640
O O4 0.891304 0.360567 0.196030
O O5 0.636314 0.067774 0.776669
O O6 0.724024 0.022627 0.098265
O O7 0.614889 0.263265 0.006024
O O8 0.500000 0.000000 0.000000
O O9 0.097803 0.360903 0.278911
O O10 0.066400 0.617306 0.415664
O O11 0.500000 0.000000 0.500000
#
# Coordination Sequence:
#
# PCOD9240437 Si02
#       5
#     4   4   4   4   4
#     4  10  22  40  61  90 128 162 208 262 313 377
#     4  11  24  45  67  95 128 169 216 267 321 378
#     4  10  22  40  61  90 128 162 208 262 313 377
#     4  11  24  45  67  95 128 169 216 267 321 378
#     4  10  18  38  62  88 124 164 210 244 324 364
#
# _framework density 24.914622999999999
#
# number of rings (size 3 to 8) (size 9 to 14) (size 15 to 20)
#    0.000    1.600    2.000    3.600    2.800    0.000 
#    0.000   22.000    0.000    0.000    0.000    0.000 
#    0.000    0.000    0.000    0.000    0.000    0.000 
#
# Total GULP energy -111348.704582 kJ/mol
# GULP energy per Si atom -5567.435229 kJ/mol
# Density = 2.485792 g / cm^3
# Si number density = 24.914623 Si / 1000 Ang^3
#
#
#
# Elastic Constant Matrix: (Units=GPa)
#
#
# Indices 1 2 3 4 5 6 
#
# 1 175.5233 52.2665 23.3172 0.0000 60.6128 0.0000
# 2 52.2665 132.9671 9.2804 0.0000 25.9762 0.0000
# 3 23.3172 9.2804 74.5553 0.0000 23.6909 0.0000
# 4 0.0000 0.0000 0.0000 34.5147 0.0000 8.5494
# 5 60.6128 25.9762 23.6909 0.0000 49.3844 0.0000
# 6 0.0000 0.0000 0.0000 8.5494 0.0000 36.5290
#
#
#
# Elastic Compliance Matrix: (Units=1/GPa)
#
#
# Indices 1 2 3 4 5 6 
#
# 1 0.010286 -0.001735 0.000850 0.000000 -0.012121 0.000000
# 2 -0.001735 0.008686 0.000279 0.000000 -0.002573 0.000000
# 3 0.000850 0.000279 0.015917 0.000000 -0.008826 0.000000
# 4 0.000000 0.000000 0.000000 0.030756 0.000000 -0.007198
# 5 -0.012121 -0.002573 -0.008826 0.000000 0.040714 0.000000
# 6 0.000000 0.000000 0.000000 -0.007198 0.000000 0.029060
#
#
# Mechanical properties :
#
#
# Convention : Reuss Voigt Hill
#
# Bulk Modulus (GPa) = 29.69273 61.41933 45.55603
# Shear Modulus (GPa) = 33.81666 43.96439 38.89052
#
# Velocity S-wave (km/s) = 3.68815 4.20527 3.95517
# Velocity P-wave (km/s) = 5.48455 6.94871 6.25959
#
# Compressibility (1/GPa) = 0.03367827
#
# Stress axis : x y z
#
# Youngs Moduli (GPa) = 97.21488 115.12993 62.82673
#
# Poissons Ratio (x) = 0.19974 -0.05342
# Poissons Ratio (y) = 0.16866 -0.01753
# Poissons Ratio (z) = -0.08267 -0.03213
#
# Static dielectric constant tensor:
#      x y z
#    x 2.795660 0.000000 -0.320630 
#    y 0.000000 2.100630 0.000000 
#    z -0.320630 0.000000 2.203810 
# 
# From -- ./inp_files/11780.got.cif
#   From: 2010.05.17/outbox.cif.g08.bks.cpg/sg14_6_cif.got.tgz:11780.got - 2010.06.03 17:49:19.
