data_PCOD9240449
_publ_section_title
;
Structure prediction by ZEFSAII (Michael W. Deem and Ramdas Pophale) SiO2 
 PCOD9240449
Probable space group: P 21/C
;
_chemical_formula_sum "Si O2"
_cell_formula_units_Z 32
_cell_length_a 21.893155
_cell_length_b 12.722575
_cell_length_c 7.957507
_cell_angle_alpha 90.000000
_cell_angle_beta 146.320069
_cell_angle_gamma 90.000000
_cell_volume 1229.145932
_symmetry_space_group_name_H-M "P 21/C"
_symmetry_group_IT_number 14
_symmetry_cell_setting 'monoclinic'
loop_
_space_group_symop_operation_xyz
x,y,z
-x,1/2+y,1/2-z
-x,-y,-z
x,1/2-y,1/2+z
loop_
_atom_site_type_symbol
_atom_site_label
_atom_site_fract_x
_atom_site_fract_y
_atom_site_fract_z
Si Si1 0.623089 0.601431 0.778779
Si Si2 0.314554 0.604796 0.277564
Si Si3 0.157478 0.308576 0.826411
Si Si4 0.076684 0.908509 0.839024
Si Si5 0.834204 0.586943 0.788030
Si Si6 0.688173 0.477480 0.231016
Si Si7 0.402731 0.790435 0.658966
Si Si8 0.081302 0.675299 0.728726
O O1 0.640682 0.505938 0.686530
O O2 0.522197 0.673933 0.495111
O O3 0.736411 0.662630 0.035664
O O4 0.614356 0.551764 0.943904
O O5 0.388818 0.670876 0.574710
O O6 0.320040 0.673329 0.116469
O O7 0.187352 0.615621 0.045118
O O8 0.158016 0.183172 0.826322
O O9 0.041364 0.346411 0.482794
O O10 0.170204 0.360436 0.038318
O O11 0.091893 0.801507 0.764100
O O12 0.956378 0.962604 0.549705
O O13 0.188572 0.971885 0.067650
O O14 0.075893 0.863459 0.025929
O O15 0.723372 0.522648 0.491557
O O16 0.632418 0.364439 0.079106
#
# Coordination Sequence:
#
# PCOD9240449 Si02
#       8
#     4   4   4   4   4   4   4   4
#     4  11  25  43  63  94 125 170 213 256 317 373
#     4  11  21  43  66  91 126 160 213 260 318 370
#     4  10  23  40  61  92 130 164 212 255 316 374
#     4  10  19  36  60  96 126 163 206 253 317 375
#     4  10  22  38  61  91 128 168 203 258 312 376
#     4  11  20  40  62  89 128 164 210 254 315 375
#     4  11  25  42  67  92 123 169 212 265 311 371
#     4  10  18  38  63  91 126 165 204 257 316 368
#
# _framework density 26.034338000000002
#
# number of rings (size 3 to 8) (size 9 to 14) (size 15 to 20)
#    0.000    1.500    3.750    2.625    0.000    5.500 
#    2.250    1.250    0.000    0.000    0.000    0.000 
#    0.000    0.000    0.000    0.000    0.000    0.000 
#
# Total GULP energy -179084.292468 kJ/mol
# GULP energy per Si atom -5596.384140 kJ/mol
# Density = 2.597508 g / cm^3
# Si number density = 26.034338 Si / 1000 Ang^3
#
#
#
# Elastic Constant Matrix: (Units=GPa)
#
#
# Indices 1 2 3 4 5 6 
#
# 1 32.1734 4.0291 25.3712 0.0000 6.1633 0.0000
# 2 4.0291 70.7205 61.9520 0.0000 0.2385 0.0000
# 3 25.3712 61.9520 172.7703 0.0000 21.9082 0.0000
# 4 0.0000 0.0000 0.0000 38.1692 0.0000 -0.5361
# 5 6.1633 0.2385 21.9082 0.0000 38.9721 0.0000
# 6 0.0000 0.0000 0.0000 -0.5361 0.0000 40.8319
#
#
#
# Elastic Compliance Matrix: (Units=1/GPa)
#
#
# Indices 1 2 3 4 5 6 
#
# 1 0.035989 0.003413 -0.006229 0.000000 -0.002211 0.000000
# 2 0.003413 0.021645 -0.008805 0.000000 0.004277 0.000000
# 3 -0.006229 -0.008805 0.010475 0.000000 -0.004850 0.000000
# 4 0.000000 0.000000 0.000000 0.026204 0.000000 0.000344
# 5 -0.002211 0.004277 -0.004850 0.000000 0.028709 0.000000
# 6 0.000000 0.000000 0.000000 0.000344 0.000000 0.024495
#
#
# Mechanical properties :
#
#
# Convention : Reuss Voigt Hill
#
# Bulk Modulus (GPa) = 22.28734 50.92986 36.60860
# Shear Modulus (GPa) = 26.92318 35.88210 31.40264
#
# Velocity S-wave (km/s) = 3.21930 3.71652 3.47681
# Velocity P-wave (km/s) = 4.73263 6.16618 5.49634
#
# Compressibility (1/GPa) = 0.04486851
#
# Stress axis : x y z
#
# Youngs Moduli (GPa) = 27.78595 46.20105 95.46599
#
# Poissons Ratio (x) = -0.15770 0.59462
# Poissons Ratio (y) = -0.09484 0.84057
# Poissons Ratio (z) = 0.17307 0.40680
#
# Static dielectric constant tensor:
#      x y z
#    x 2.081830 0.000000 -0.033390 
#    y 0.000000 2.118360 0.000000 
#    z -0.033390 0.000000 2.043660 
# 
# From -- ./inp_files/19556.got.cif
#   From: 2010.05.17/outbox.cif.g08.bks.cpg/sg14_10_cif.got.tgz:19556.got - 2010.06.03 17:49:19.
