data_PCOD9240365
_publ_section_title
;
Structure prediction by ZEFSAII (Michael W. Deem and Ramdas Pophale) SiO2 
 PCOD9240365
Probable space group: P 21/C
;
_chemical_formula_sum "Si O2"
_cell_formula_units_Z 24
_cell_length_a 18.853024
_cell_length_b 5.205747
_cell_length_c 24.763334
_cell_angle_alpha 90.000000
_cell_angle_beta 23.864480
_cell_angle_gamma 90.000000
_cell_volume 983.268081
_symmetry_space_group_name_H-M "P 21/C"
_symmetry_group_IT_number 14
_symmetry_cell_setting 'monoclinic'
loop_
_space_group_symop_operation_xyz
x,y,z
-x,1/2+y,1/2-z
-x,-y,-z
x,1/2-y,1/2+z
loop_
_atom_site_type_symbol
_atom_site_label
_atom_site_fract_x
_atom_site_fract_y
_atom_site_fract_z
Si Si1 0.691935 0.862691 0.733454
Si Si2 0.352319 0.914726 0.462016
Si Si3 0.621391 0.983443 0.667716
Si Si4 0.513358 0.759748 0.044222
Si Si5 0.779166 0.842428 0.278876
Si Si6 0.951553 0.433908 0.317272
O O1 0.560186 0.629105 0.811964
O O2 0.733347 0.964633 0.644938
O O3 0.822523 0.763197 0.688820
O O4 0.570621 0.057836 0.852209
O O5 0.250335 0.646938 0.536044
O O6 0.280757 0.047032 0.457689
O O7 0.351464 0.070184 0.517759
O O8 0.473342 0.760653 0.768797
O O9 0.350992 0.586227 0.136632
O O10 0.646940 0.851869 0.903779
O O11 0.948297 0.903453 0.195974
O O12 0.984577 0.706857 0.267490
#
# Coordination Sequence:
#
# PCOD9240365 Si02
#       6
#     4   4   4   4   4   4
#     4  10  20  35  61  87 120 156 203 253 299 346
#     4  10  21  37  60  90 120 158 206 248 297 359
#     4  10  20  36  61  90 118 155 205 254 292 345
#     4  10  18  37  59  87 116 155 202 249 299 350
#     4  10  22  34  58  88 120 160 195 250 300 362
#     4  12  26  41  60  88 127 162 198 245 311 364
#
# _framework density 24.4084
#
# number of rings (size 3 to 8) (size 9 to 14) (size 15 to 20)
#    0.000    1.667    3.333    1.500    2.333    0.000 
#    0.000    0.833    0.000    1.000    0.000    0.000 
#    0.000    0.000    0.000    0.000    0.000    0.000 
#
# Total GULP energy -133878.461531 kJ/mol
# GULP energy per Si atom -5578.269230 kJ/mol
# Density = 2.435285 g / cm^3
# Si number density = 24.408400 Si / 1000 Ang^3
#
#
#
# Elastic Constant Matrix: (Units=GPa)
#
#
# Indices 1 2 3 4 5 6 
#
# 1 204.5630 18.5764 31.0238 0.0000 10.3239 0.0000
# 2 18.5764 41.0686 5.6304 0.0000 0.4381 0.0000
# 3 31.0238 5.6304 14.0421 0.0000 -1.9696 0.0000
# 4 0.0000 0.0000 0.0000 24.7348 0.0000 4.6623
# 5 10.3239 0.4381 -1.9696 0.0000 46.4737 0.0000
# 6 0.0000 0.0000 0.0000 4.6623 0.0000 28.9324
#
#
#
# Elastic Compliance Matrix: (Units=1/GPa)
#
#
# Indices 1 2 3 4 5 6 
#
# 1 0.007662 -0.001136 -0.016811 0.000000 -0.002404 0.000000
# 2 -0.001136 0.025956 -0.007945 0.000000 -0.000329 0.000000
# 3 -0.016811 -0.007945 0.112745 0.000000 0.008588 0.000000
# 4 0.000000 0.000000 0.000000 0.041695 0.000000 -0.006719
# 5 -0.002404 -0.000329 0.008588 0.000000 0.022419 0.000000
# 6 0.000000 0.000000 0.000000 -0.006719 0.000000 0.035646
#
#
# Mechanical properties :
#
#
# Convention : Reuss Voigt Hill
#
# Bulk Modulus (GPa) = 10.57289 41.12610 25.84950
# Shear Modulus (GPa) = 15.17759 33.65771 24.41765
#
# Velocity S-wave (km/s) = 2.49633 3.71744 3.16631
# Velocity P-wave (km/s) = 3.55668 5.94235 4.89701
#
# Compressibility (1/GPa) = 0.09458153
#
# Stress axis : x y z
#
# Youngs Moduli (GPa) = 130.50709 38.52698 8.86954
#
# Poissons Ratio (x) = 0.04375 0.14910
# Poissons Ratio (y) = 0.14820 0.07047
# Poissons Ratio (z) = 2.19393 0.30609
#
# Static dielectric constant tensor:
#      x y z
#    x 2.051120 0.000000 0.083960 
#    y 0.000000 2.068590 0.000000 
#    z 0.083960 0.000000 2.014300 
# 
# From -- ./inp_files/56549.got.cif
#   From: 2010.05.17/outbox.cif.g08.bks.cpg/sg14_29_cif.got.tgz:56549.got - 2010.06.03 17:49:19.
