data_PCOD9240371
_publ_section_title
;
Structure prediction by ZEFSAII (Michael W. Deem and Ramdas Pophale) SiO2 
 PCOD9240371
Probable space group: P 21/C
;
_chemical_formula_sum "Si O2"
_cell_formula_units_Z 24
_cell_length_a 8.000141
_cell_length_b 7.930683
_cell_length_c 18.146066
_cell_angle_alpha 90.000000
_cell_angle_beta 109.388768
_cell_angle_gamma 90.000000
_cell_volume 1086.012728
_symmetry_space_group_name_H-M "P 21/C"
_symmetry_group_IT_number 14
_symmetry_cell_setting 'monoclinic'
loop_
_space_group_symop_operation_xyz
x,y,z
-x,1/2+y,1/2-z
-x,-y,-z
x,1/2-y,1/2+z
loop_
_atom_site_type_symbol
_atom_site_label
_atom_site_fract_x
_atom_site_fract_y
_atom_site_fract_z
Si Si1 0.466006 0.597438 0.125161
Si Si2 0.910530 0.910158 0.879957
Si Si3 0.089648 0.729627 0.039325
Si Si4 0.843173 0.591577 0.126948
Si Si5 0.925190 0.574712 0.732131
Si Si6 0.610867 0.676447 0.773030
O O1 0.275408 0.632315 0.062098
O O2 0.631365 0.598883 0.093522
O O3 0.475047 0.424248 0.172780
O O4 0.494596 0.742857 0.191483
O O5 0.731715 0.826540 0.823456
O O6 0.035978 0.951323 0.829482
O O7 0.878910 0.089283 0.915566
O O8 0.002091 0.782293 0.949830
O O9 0.950575 0.623981 0.068194
O O10 0.916602 0.436489 0.185673
O O11 0.899380 0.747484 0.188183
O O12 0.747734 0.546911 0.753374
#
# Coordination Sequence:
#
# PCOD9240371 Si02
#       6
#     4   4   4   4   4   4
#     4  11  22  37  61  93 122 157 209 259 303 368
#     4  10  21  41  62  90 122 169 205 246 318 366
#     4  10  22  41  65  84 129 165 199 259 310 366
#     4  10  21  37  60  87 121 157 206 250 305 363
#     4  10  18  37  60  88 114 160 205 246 297 365
#     4  11  22  37  63  93 124 161 208 260 302 368
#
# _framework density 22.09919
#
# number of rings (size 3 to 8) (size 9 to 14) (size 15 to 20)
#    0.000    1.667    5.000    1.000    2.333    0.667 
#    0.000   15.833    0.000    0.000    0.000    0.000 
#    0.000    0.000    0.000    0.000    0.000    0.000 
#
# Total GULP energy -134153.821555 kJ/mol
# GULP energy per Si atom -5589.742565 kJ/mol
# Density = 2.204889 g / cm^3
# Si number density = 22.099190 Si / 1000 Ang^3
#
#
#
# Elastic Constant Matrix: (Units=GPa)
#
#
# Indices 1 2 3 4 5 6 
#
# 1 118.3961 33.2579 35.0762 0.0000 3.8871 0.0000
# 2 33.2579 69.5490 13.5295 0.0000 -2.2918 0.0000
# 3 35.0762 13.5295 82.3451 0.0000 4.2553 0.0000
# 4 0.0000 0.0000 0.0000 32.6834 0.0000 1.4713
# 5 3.8871 -2.2918 4.2553 0.0000 31.6950 0.0000
# 6 0.0000 0.0000 0.0000 1.4713 0.0000 35.2003
#
#
#
# Elastic Compliance Matrix: (Units=1/GPa)
#
#
# Indices 1 2 3 4 5 6 
#
# 1 0.010884 -0.004496 -0.003838 0.000000 -0.001145 0.000000
# 2 -0.004496 0.016773 -0.000939 0.000000 0.001890 0.000000
# 3 -0.003838 -0.000939 0.014010 0.000000 -0.001478 0.000000
# 4 0.000000 0.000000 0.000000 0.030654 0.000000 -0.001281
# 5 -0.001145 0.001890 -0.001478 0.000000 0.032026 0.000000
# 6 0.000000 0.000000 0.000000 -0.001281 0.000000 0.028462
#
#
# Mechanical properties :
#
#
# Convention : Reuss Voigt Hill
#
# Bulk Modulus (GPa) = 43.24999 48.22416 45.73708
# Shear Modulus (GPa) = 31.43443 32.47752 31.95597
#
# Velocity S-wave (km/s) = 3.77560 3.83773 3.80679
# Velocity P-wave (km/s) = 6.21451 6.44256 6.32956
#
# Compressibility (1/GPa) = 0.02312139
#
# Stress axis : x y z
#
# Youngs Moduli (GPa) = 91.87985 59.61971 71.37966
#
# Poissons Ratio (x) = 0.26803 0.27398
# Poissons Ratio (y) = 0.41305 0.06699
# Poissons Ratio (z) = 0.35267 0.05596
#
# Static dielectric constant tensor:
#      x y z
#    x 1.819720 0.000000 -0.017830 
#    y 0.000000 1.870330 0.000000 
#    z -0.017830 0.000000 1.772860 
# 
# From -- ./inp_files/54623.got.cif
#   From: 2010.05.17/outbox.cif.g08.bks.cpg/sg14_28_cif.got.tgz:54623.got - 2010.06.03 17:49:19.
