data_PCOD9240928
_publ_section_title
;
Structure prediction by ZEFSAII (Michael W. Deem and Ramdas Pophale) SiO2 
 PCOD9240928
Probable space group: P 21/C
;
_chemical_formula_sum "Si O2"
_cell_formula_units_Z 32
_cell_length_a 9.492918
_cell_length_b 20.427450
_cell_length_c 8.339852
_cell_angle_alpha 90.000000
_cell_angle_beta 115.447866
_cell_angle_gamma 90.000000
_cell_volume 1460.322387
_symmetry_space_group_name_H-M "P 21/C"
_symmetry_group_IT_number 14
_symmetry_cell_setting 'monoclinic'
loop_
_space_group_symop_operation_xyz
x,y,z
-x,1/2+y,1/2-z
-x,-y,-z
x,1/2-y,1/2+z
loop_
_atom_site_type_symbol
_atom_site_label
_atom_site_fract_x
_atom_site_fract_y
_atom_site_fract_z
Si Si1 0.122777 0.557321 0.870571
Si Si2 0.707696 0.607580 0.373403
Si Si3 0.672541 0.220822 0.800757
Si Si4 0.942405 0.377080 0.499483
Si Si5 0.284301 0.970965 0.943792
Si Si6 0.603460 0.153916 0.430154
Si Si7 0.439328 0.131717 0.868776
Si Si8 0.811985 0.557088 0.905750
O O1 0.076238 0.579723 0.671635
O O2 0.979002 0.576727 0.915283
O O3 0.277938 0.594745 0.993883
O O4 0.158758 0.481048 0.916085
O O5 0.713655 0.530496 0.425984
O O6 0.566974 0.626406 0.188480
O O7 0.662913 0.641816 0.522004
O O8 0.874082 0.631492 0.391041
O O9 0.840635 0.188823 0.924433
O O10 0.624067 0.194674 0.603461
O O11 0.661054 0.298188 0.816349
O O12 0.546804 0.189853 0.861264
O O13 0.854646 0.420520 0.588015
O O14 0.442076 0.928597 0.034855
O O15 0.251882 0.004215 0.757082
O O16 0.319007 0.111923 0.669115
#
# Coordination Sequence:
#
# PCOD9240928 Si02
#       8
#     4   4   4   4   4   4   4   4
#     4  10  20  36  58  86 121 154 189 241 291 347
#     4  11  20  36  61  88 121 152 195 241 287 352
#     4  10  24  43  62  79 115 153 200 247 297 349
#     4  10  21  39  59  92 119 158 191 243 294 349
#     4  10  19  33  60  90 127 159 190 233 296 349
#     4  11  23  42  61  82 113 156 200 246 298 345
#     4  10  19  36  60  89 119 157 197 238 290 348
#     4  10  19  33  58  91 123 157 192 235 288 356
#
# _framework density 21.912970000000001
#
# number of rings (size 3 to 8) (size 9 to 14) (size 15 to 20)
#    0.000    1.750    2.500    4.125    0.000    2.000 
#    4.500    5.000    0.000    0.000    0.000    0.000 
#    0.000    0.000    0.000    0.000    0.000    0.000 
#
# Total GULP energy -178921.567847 kJ/mol
# GULP energy per Si atom -5591.298995 kJ/mol
# Density = 2.186310 g / cm^3
# Si number density = 21.912970 Si / 1000 Ang^3
#
#
#
# Elastic Constant Matrix: (Units=GPa)
#
#
# Indices 1 2 3 4 5 6 
#
# 1 121.6500 12.6584 29.9642 0.0000 32.0241 0.0000
# 2 12.6584 17.1154 16.5214 0.0000 6.8742 0.0000
# 3 29.9642 16.5214 60.5904 0.0000 28.7358 0.0000
# 4 0.0000 0.0000 0.0000 19.7128 0.0000 -10.6388
# 5 32.0241 6.8742 28.7358 0.0000 43.1116 0.0000
# 6 0.0000 0.0000 0.0000 -10.6388 0.0000 15.0749
#
#
#
# Elastic Compliance Matrix: (Units=1/GPa)
#
#
# Indices 1 2 3 4 5 6 
#
# 1 0.010635 -0.004285 -0.000977 0.000000 -0.006565 0.000000
# 2 -0.004285 0.081224 -0.022512 0.000000 0.005238 0.000000
# 3 -0.000977 -0.022512 0.030823 0.000000 -0.016229 0.000000
# 4 0.000000 0.000000 0.000000 0.081935 0.000000 0.057824
# 5 -0.006565 0.005238 -0.016229 0.000000 0.038055 0.000000
# 6 0.000000 0.000000 0.000000 0.057824 0.000000 0.107144
#
#
# Mechanical properties :
#
#
# Convention : Reuss Voigt Hill
#
# Bulk Modulus (GPa) = 14.89600 35.29375 25.09488
# Shear Modulus (GPa) = 11.68924 24.92730 18.30827
#
# Velocity S-wave (km/s) = 2.31214 3.37643 2.89364
# Velocity P-wave (km/s) = 3.73370 5.59836 4.75827
#
# Compressibility (1/GPa) = 0.06713211
#
# Stress axis : x y z
#
# Youngs Moduli (GPa) = 94.02681 12.31165 32.44321
#
# Poissons Ratio (x) = 0.05276 0.03171
# Poissons Ratio (y) = 0.40295 0.73037
# Poissons Ratio (z) = 0.09189 0.27716
#
# Static dielectric constant tensor:
#      x y z
#    x 1.805120 0.000000 -0.022620 
#    y 0.000000 1.798610 0.000000 
#    z -0.022620 0.000000 1.851680 
# 
# From -- ./inp_files/10718.got.cif
#   From: 2010.05.17/outbox.cif.g08.bks.cpg/sg14_6_cif.got.tgz:10718.got - 2010.06.03 17:49:19.
