data_PCOD9240580
_publ_section_title
;
Structure prediction by ZEFSAII (Michael W. Deem and Ramdas Pophale) SiO2 
 PCOD9240580
Probable space group: P 21/C
;
_chemical_formula_sum "Si O2"
_cell_formula_units_Z 28
_cell_length_a 15.383506
_cell_length_b 5.200990
_cell_length_c 28.124682
_cell_angle_alpha 90.000000
_cell_angle_beta 134.214178
_cell_angle_gamma 90.000000
_cell_volume 1612.833137
_symmetry_space_group_name_H-M "P 21/C"
_symmetry_group_IT_number 14
_symmetry_cell_setting 'monoclinic'
loop_
_space_group_symop_operation_xyz
x,y,z
-x,1/2+y,1/2-z
-x,-y,-z
x,1/2-y,1/2+z
loop_
_atom_site_type_symbol
_atom_site_label
_atom_site_fract_x
_atom_site_fract_y
_atom_site_fract_z
Si Si1 0.934248 0.813945 0.829804
Si Si2 0.060462 0.936762 0.971847
Si Si3 0.610532 0.182053 0.745206
Si Si4 0.871399 0.563500 0.976692
Si Si5 0.068626 0.780814 0.292565
Si Si6 0.207512 0.686824 0.258855
Si Si7 0.338598 0.319616 0.175082
O O1 0.842024 0.587021 0.779119
O O2 0.969140 0.823913 0.898130
O O3 0.053645 0.765389 0.842838
O O4 0.879174 0.090296 0.795568
O O5 0.162306 0.719335 0.017604
O O6 0.106794 0.219337 0.975359
O O7 0.000000 0.000000 0.000000
O O8 0.662525 0.240969 0.713023
O O9 0.662078 0.412343 0.797178
O O10 0.465724 0.190400 0.695023
O O11 0.657620 0.915943 0.786220
O O12 0.773543 0.676724 0.903313
O O13 0.000000 0.500000 0.000000
O O14 0.188161 0.711542 0.308145
O O15 0.971881 0.573172 0.233943
#
# Coordination Sequence:
#
# PCOD9240580 Si02
#       7
#     4   4   4   4   4   4   4
#     4  10  19  31  47  69 104 124 155 204 237 293
#     4  10  21  30  43  71  93 131 163 184 239 281
#     4  10  21  32  52  69  93 131 164 199 248 278
#     4  10  21  32  47  65  97 128 165 194 234 280
#     4   8  16  30  44  68  94 122 153 197 246 289
#     4  10  19  29  51  71  92 127 162 193 251 293
#     4  10  21  36  46  69  99 129 165 203 233 292
#
# _framework density 17.360754
#
# number of rings (size 3 to 8) (size 9 to 14) (size 15 to 20)
#    0.000    2.286    0.000    2.571   12.000    0.000 
#    0.000    0.000    0.000    0.000    0.000    2.000 
#    0.000    0.000    0.000    0.000    0.000    0.000 
#
# Total GULP energy -155873.799215 kJ/mol
# GULP energy per Si atom -5566.921401 kJ/mol
# Density = 1.732124 g / cm^3
# Si number density = 17.360754 Si / 1000 Ang^3
#
#
#
# Elastic Constant Matrix: (Units=GPa)
#
#
# Indices 1 2 3 4 5 6 
#
# 1 81.5190 -3.6984 3.2965 0.0000 -6.8724 0.0000
# 2 -3.6984 127.7678 8.7101 0.0000 1.2706 0.0000
# 3 3.2965 8.7101 36.7737 0.0000 1.3586 0.0000
# 4 0.0000 0.0000 0.0000 14.9399 0.0000 -2.0652
# 5 -6.8724 1.2706 1.3586 0.0000 18.0422 0.0000
# 6 0.0000 0.0000 0.0000 -2.0652 0.0000 16.8175
#
#
#
# Elastic Compliance Matrix: (Units=1/GPa)
#
#
# Indices 1 2 3 4 5 6 
#
# 1 0.012760 0.000417 -0.001425 0.000000 0.004938 0.000000
# 2 0.000417 0.007972 -0.001916 0.000000 -0.000258 0.000000
# 3 -0.001425 -0.001916 0.027868 0.000000 -0.002506 0.000000
# 4 0.000000 0.000000 0.000000 0.068091 0.000000 0.008362
# 5 0.004938 -0.000258 -0.002506 0.000000 0.057514 0.000000
# 6 0.000000 0.000000 0.000000 0.008362 0.000000 0.060489
#
#
# Mechanical properties :
#
#
# Convention : Reuss Voigt Hill
#
# Bulk Modulus (GPa) = 23.39084 29.18634 26.28859
# Shear Modulus (GPa) = 19.62395 25.81008 22.71702
#
# Velocity S-wave (km/s) = 3.36573 3.85995 3.62128
# Velocity P-wave (km/s) = 5.34854 6.05919 5.71492
#
# Compressibility (1/GPa) = 0.04275177
#
# Stress axis : x y z
#
# Youngs Moduli (GPa) = 78.37018 125.43956 35.88401
#
# Poissons Ratio (x) = -0.05236 0.05114
# Poissons Ratio (y) = -0.03271 0.06876
# Poissons Ratio (z) = 0.11169 0.24035
#
# Static dielectric constant tensor:
#      x y z
#    x 1.696300 0.000000 -0.009990 
#    y 0.000000 1.710800 0.000000 
#    z -0.009990 0.000000 1.568670 
# 
# From -- ./inp_files/80093.got.cif
#   From: 2010.05.17/outbox.cif.g08.bks.cpg/sg14_41_cif.got.tgz:80093.got - 2010.06.03 17:49:19.
