data_PCOD9240451
_publ_section_title
;
Structure prediction by ZEFSAII (Michael W. Deem and Ramdas Pophale) SiO2 
 PCOD9240451
Probable space group: P 21/C
;
_chemical_formula_sum "Si O2"
_cell_formula_units_Z 28
_cell_length_a 7.562278
_cell_length_b 15.656618
_cell_length_c 8.683567
_cell_angle_alpha 90.000000
_cell_angle_beta 87.175934
_cell_angle_gamma 90.000000
_cell_volume 1026.883075
_symmetry_space_group_name_H-M "P 21/C"
_symmetry_group_IT_number 14
_symmetry_cell_setting 'monoclinic'
loop_
_space_group_symop_operation_xyz
x,y,z
-x,1/2+y,1/2-z
-x,-y,-z
x,1/2-y,1/2+z
loop_
_atom_site_type_symbol
_atom_site_label
_atom_site_fract_x
_atom_site_fract_y
_atom_site_fract_z
Si Si1 0.252846 0.725237 0.014826
Si Si2 0.668942 0.521257 0.600201
Si Si3 0.615292 0.346060 0.701462
Si Si4 0.910421 0.835789 0.339449
Si Si5 0.213773 0.170934 0.331943
Si Si6 0.463725 0.928928 0.369145
Si Si7 0.882859 0.000454 0.792831
O O1 0.326480 0.817789 0.970235
O O2 0.071362 0.700356 0.941056
O O3 0.394298 0.656943 0.948077
O O4 0.270500 0.714872 0.195199
O O5 0.500000 0.500000 0.500000
O O6 0.682756 0.441288 0.714365
O O7 0.607131 0.591160 0.726879
O O8 0.826903 0.520698 0.471633
O O9 0.407104 0.339073 0.743309
O O10 0.977537 0.924315 0.256768
O O11 0.859992 0.762404 0.219799
O O12 0.769175 0.842846 0.485409
O O13 0.087901 0.093432 0.280437
O O14 0.294613 0.966971 0.284825
O O15 0.500000 0.000000 0.500000
#
# Coordination Sequence:
#
# PCOD9240451 Si02
#       7
#     4   4   4   4   4   4   4
#     4  11  25  41  68 104 140 184 234 286 355 428
#     4  10  20  38  69 103 137 170 236 296 349 413
#     4  12  24  41  73 107 137 183 236 297 350 417
#     4  11  27  46  72 102 147 196 236 290 369 440
#     4  12  24  48  71 103 148 185 239 301 358 424
#     4  10  18  38  64 103 134 171 229 294 350 411
#     4  10  23  44  70 100 141 195 235 292 359 434
#
# _framework density 27.266981999999999
#
# number of rings (size 3 to 8) (size 9 to 14) (size 15 to 20)
#    0.000    1.143    4.286    2.143    8.000    1.143 
#    0.000    0.714    0.000    0.000    0.000    0.000 
#    0.000    0.000    0.000    0.000    0.000    0.000 
#
# Total GULP energy -156800.494962 kJ/mol
# GULP energy per Si atom -5600.017677 kJ/mol
# Density = 2.720492 g / cm^3
# Si number density = 27.266982 Si / 1000 Ang^3
#
#
#
# Elastic Constant Matrix: (Units=GPa)
#
#
# Indices 1 2 3 4 5 6 
#
# 1 94.1165 2.6098 9.0113 0.0000 9.5232 0.0000
# 2 2.6098 136.3342 31.9713 0.0000 -2.4652 0.0000
# 3 9.0113 31.9713 153.8622 0.0000 -9.4880 0.0000
# 4 0.0000 0.0000 0.0000 63.9580 0.0000 0.3049
# 5 9.5232 -2.4652 -9.4880 0.0000 25.3095 0.0000
# 6 0.0000 0.0000 0.0000 0.3049 0.0000 33.9405
#
#
#
# Elastic Compliance Matrix: (Units=1/GPa)
#
#
# Indices 1 2 3 4 5 6 
#
# 1 0.011177 -0.000081 -0.000919 0.000000 -0.004558 0.000000
# 2 -0.000081 0.007712 -0.001586 0.000000 0.000187 0.000000
# 3 -0.000919 -0.001586 0.007058 0.000000 0.002837 0.000000
# 4 0.000000 0.000000 0.000000 0.015636 0.000000 -0.000140
# 5 -0.004558 0.000187 0.002837 0.000000 0.042308 0.000000
# 6 0.000000 0.000000 0.000000 -0.000140 0.000000 0.029465
#
#
# Mechanical properties :
#
#
# Convention : Reuss Voigt Hill
#
# Bulk Modulus (GPa) = 48.13658 52.38861 50.26259
# Shear Modulus (GPa) = 39.85631 47.35630 43.60631
#
# Velocity S-wave (km/s) = 3.82737 4.17197 4.00338
# Velocity P-wave (km/s) = 6.10113 6.51629 6.31213
#
# Compressibility (1/GPa) = 0.02077422
#
# Stress axis : x y z
#
# Youngs Moduli (GPa) = 89.47328 129.67113 141.68962
#
# Poissons Ratio (x) = 0.01049 0.13019
# Poissons Ratio (y) = 0.00724 0.22475
# Poissons Ratio (z) = 0.08221 0.20568
#
# Static dielectric constant tensor:
#      x y z
#    x 2.238700 0.000000 -0.054990 
#    y 0.000000 2.104460 0.000000 
#    z -0.054990 0.000000 2.220690 
# 
# From -- ./inp_files/9368.got.cif
#   From: 2010.05.17/outbox.cif.g08.bks.cpg/sg14_5_cif.got.tgz:9368.got - 2010.06.03 17:49:19.
