data_PCOD9240981
_publ_section_title
;
Structure prediction by ZEFSAII (Michael W. Deem and Ramdas Pophale) SiO2 
 PCOD9240981
Probable space group: P 21/C
;
_chemical_formula_sum "Si O2"
_cell_formula_units_Z 28
_cell_length_a 15.716462
_cell_length_b 11.473649
_cell_length_c 17.017864
_cell_angle_alpha 90.000000
_cell_angle_beta 25.599553
_cell_angle_gamma 90.000000
_cell_volume 1325.941202
_symmetry_space_group_name_H-M "P 21/C"
_symmetry_group_IT_number 14
_symmetry_cell_setting 'monoclinic'
loop_
_space_group_symop_operation_xyz
x,y,z
-x,1/2+y,1/2-z
-x,-y,-z
x,1/2-y,1/2+z
loop_
_atom_site_type_symbol
_atom_site_label
_atom_site_fract_x
_atom_site_fract_y
_atom_site_fract_z
Si Si1 0.891902 0.125000 0.970181
Si Si2 0.871700 0.655777 0.869393
Si Si3 0.222317 0.128978 0.969297
Si Si4 0.072685 0.506015 0.819885
Si Si5 0.482265 0.328158 0.726289
Si Si6 0.462210 0.044537 0.921755
Si Si7 0.142865 0.673421 0.896371
O O1 0.704780 0.172894 0.073781
O O2 0.888619 0.193444 0.054974
O O3 0.085301 0.157239 0.758214
O O4 0.863831 0.985960 0.998246
O O5 0.004781 0.552337 0.792641
O O6 0.926692 0.777445 0.867141
O O7 0.653734 0.633589 0.085578
O O8 0.349117 0.090001 0.939006
O O9 0.378762 0.206297 0.789552
O O10 0.299991 0.470916 0.624156
O O11 0.043102 0.614255 0.904035
O O12 0.944089 0.400475 0.958309
O O13 0.460588 0.419649 0.673492
O O14 0.630343 0.136996 0.799619
#
# Coordination Sequence:
#
# PCOD9240981 Si02
#       7
#     4   4   4   4   4   4   4
#     4  11  20  34  56  77 107 141 175 222 266 309
#     4  10  19  34  53  77 106 139 176 217 264 321
#     4   9  19  33  51  82 101 129 186 219 256 315
#     4  11  22  34  55  83 108 145 178 211 279 319
#     4   9  19  32  54  76 102 136 176 222 260 308
#     4  11  18  36  55  79 107 144 176 221 273 312
#     4  11  22  35  54  82 114 139 177 227 259 320
#
# _framework density 21.117073999999999
#
# number of rings (size 3 to 8) (size 9 to 14) (size 15 to 20)
#    0.857    0.857    5.714    1.286    0.000    0.000 
#    0.000    0.714    0.000    0.857    0.000    0.000 
#    0.000    0.000    0.000    0.000    0.000    0.000 
#
# Total GULP energy -156064.185606 kJ/mol
# GULP energy per Si atom -5573.720914 kJ/mol
# Density = 2.106901 g / cm^3
# Si number density = 21.117074 Si / 1000 Ang^3
#
#
#
# Elastic Constant Matrix: (Units=GPa)
#
#
# Indices 1 2 3 4 5 6 
#
# 1 9.3886 -2.3187 -9.7176 0.0000 1.7364 0.0000
# 2 -2.3187 93.7007 10.4911 0.0000 5.5421 0.0000
# 3 -9.7176 10.4911 92.0642 0.0000 0.0963 0.0000
# 4 0.0000 0.0000 0.0000 23.3551 0.0000 -0.5385
# 5 1.7364 5.5421 0.0963 0.0000 16.5138 0.0000
# 6 0.0000 0.0000 0.0000 -0.5385 0.0000 16.5273
#
#
#
# Elastic Compliance Matrix: (Units=1/GPa)
#
#
# Indices 1 2 3 4 5 6 
#
# 1 0.122811 0.002434 0.012700 0.000000 -0.013804 0.000000
# 2 0.002434 0.011079 -0.001002 0.000000 -0.003968 0.000000
# 3 0.012700 -0.001002 0.012318 0.000000 -0.001071 0.000000
# 4 0.000000 0.000000 0.000000 0.042849 0.000000 0.001396
# 5 -0.013804 -0.003968 -0.001071 0.000000 0.063345 0.000000
# 6 0.000000 0.000000 0.000000 0.001396 0.000000 0.060551
#
#
# Mechanical properties :
#
#
# Convention : Reuss Voigt Hill
#
# Bulk Modulus (GPa) = 5.73156 21.34036 13.53596
# Shear Modulus (GPa) = 14.58375 24.39248 19.48812
#
# Velocity S-wave (km/s) = 2.63081 3.40237 3.04116
# Velocity P-wave (km/s) = 3.45662 5.05594 4.33075
#
# Compressibility (1/GPa) = 0.17447259
#
# Stress axis : x y z
#
# Youngs Moduli (GPa) = 8.14258 90.25806 81.18365
#
# Poissons Ratio (x) = -0.21965 -1.03104
# Poissons Ratio (y) = -0.01982 0.08131
# Poissons Ratio (z) = -0.10341 0.09040
#
# Static dielectric constant tensor:
#      x y z
#    x 1.762590 0.000000 -0.006760 
#    y 0.000000 1.826460 0.000000 
#    z -0.006760 0.000000 1.784850 
# 
# From -- ./inp_files/69872.got.cif
#   From: 2010.05.17/outbox.cif.g08.bks.cpg/sg14_35_cif.got.tgz:69872.got - 2010.06.03 17:49:19.
