data_PCOD9240969
_publ_section_title
;
Structure prediction by ZEFSAII (Michael W. Deem and Ramdas Pophale) SiO2 
 PCOD9240969
Probable space group: P 21/C
;
_chemical_formula_sum "Si O2"
_cell_formula_units_Z 28
_cell_length_a 13.830348
_cell_length_b 20.588351
_cell_length_c 5.043340
_cell_angle_alpha 90.000000
_cell_angle_beta 107.110926
_cell_angle_gamma 90.000000
_cell_volume 1372.496623
_symmetry_space_group_name_H-M "P 21/C"
_symmetry_group_IT_number 14
_symmetry_cell_setting 'monoclinic'
loop_
_space_group_symop_operation_xyz
x,y,z
-x,1/2+y,1/2-z
-x,-y,-z
x,1/2-y,1/2+z
loop_
_atom_site_type_symbol
_atom_site_label
_atom_site_fract_x
_atom_site_fract_y
_atom_site_fract_z
Si Si1 0.253382 0.981286 0.137269
Si Si2 0.510265 0.207102 0.269346
Si Si3 0.070826 0.013915 0.307433
Si Si4 0.398045 0.046279 0.624763
Si Si5 0.403992 0.912762 0.967083
Si Si6 0.201512 0.405374 0.214895
Si Si7 0.729054 0.790944 0.904420
O O1 0.298770 0.917078 0.042025
O O2 0.174793 0.974670 0.315902
O O3 0.352351 0.022989 0.309361
O O4 0.199257 0.028042 0.883600
O O5 0.529710 0.266084 0.078444
O O6 0.573446 0.146639 0.209144
O O7 0.389945 0.190947 0.162422
O O8 0.117637 0.084714 0.420624
O O9 0.000000 0.000000 0.500000
O O10 0.000000 0.000000 0.000000
O O11 0.503877 0.081632 0.747995
O O12 0.311300 0.092754 0.667774
O O13 0.403823 0.978928 0.793027
O O14 0.201081 0.347014 0.419911
O O15 0.745831 0.730166 0.116625
#
# Coordination Sequence:
#
# PCOD9240969 Si02
#       7
#     4   4   4   4   4   4   4
#     4  10  21  33  58  85 116 149 192 235 295 352
#     4  10  22  36  52  76 113 163 199 233 271 326
#     4  11  22  39  59  87 117 142 182 237 311 357
#     4   9  19  31  52  83 117 156 183 238 281 343
#     4  10  19  34  50  82 117 154 197 234 278 340
#     4  10  20  36  57  86 119 153 190 233 294 349
#     4  10  22  35  53  80 117 161 198 225 267 337
#
# _framework density 20.400779
#
# number of rings (size 3 to 8) (size 9 to 14) (size 15 to 20)
#    0.000    2.000    2.857    0.429    6.000    1.143 
#    0.000    0.000    0.000    0.000    0.000    6.000 
#    0.000    0.000    0.000    0.000    0.000    0.000 
#
# Total GULP energy -156182.501665 kJ/mol
# GULP energy per Si atom -5577.946488 kJ/mol
# Density = 2.035435 g / cm^3
# Si number density = 20.400779 Si / 1000 Ang^3
#
#
#
# Elastic Constant Matrix: (Units=GPa)
#
#
# Indices 1 2 3 4 5 6 
#
# 1 87.5100 24.4474 14.6838 0.0000 -11.3437 0.0000
# 2 24.4474 53.4928 11.0068 0.0000 6.3365 0.0000
# 3 14.6838 11.0068 87.5467 0.0000 -3.3507 0.0000
# 4 0.0000 0.0000 0.0000 25.7537 0.0000 0.9022
# 5 -11.3437 6.3365 -3.3507 0.0000 30.0766 0.0000
# 6 0.0000 0.0000 0.0000 0.9022 0.0000 16.5316
#
#
#
# Elastic Compliance Matrix: (Units=1/GPa)
#
#
# Indices 1 2 3 4 5 6 
#
# 1 0.014540 -0.007196 -0.001272 0.000000 0.006858 0.000000
# 2 -0.007196 0.023330 -0.002027 0.000000 -0.007855 0.000000
# 3 -0.001272 -0.002027 0.011939 0.000000 0.001278 0.000000
# 4 0.000000 0.000000 0.000000 0.038904 0.000000 -0.002123
# 5 0.006858 -0.007855 0.001278 0.000000 0.037632 0.000000
# 6 0.000000 0.000000 0.000000 -0.002123 0.000000 0.060606
#
#
# Mechanical properties :
#
#
# Convention : Reuss Voigt Hill
#
# Bulk Modulus (GPa) = 34.69675 36.53615 35.61645
# Shear Modulus (GPa) = 22.98352 26.36649 24.67501
#
# Velocity S-wave (km/s) = 3.36013 3.59893 3.48158
# Velocity P-wave (km/s) = 5.66555 5.93446 5.80156
#
# Compressibility (1/GPa) = 0.02882115
#
# Stress axis : x y z
#
# Youngs Moduli (GPa) = 68.77628 42.86276 83.75581
#
# Poissons Ratio (x) = 0.30843 0.10650
# Poissons Ratio (y) = 0.49490 0.16977
# Poissons Ratio (z) = 0.08745 0.08688
#
# Static dielectric constant tensor:
#      x y z
#    x 1.756650 0.000000 -0.023390 
#    y 0.000000 1.764680 0.000000 
#    z -0.023390 0.000000 1.838980 
# 
# From -- ./inp_files/3744.got.cif
#   From: 2010.05.17/outbox.cif.g08.bks.cpg/sg14_2_cif.got.tgz:3744.got - 2010.06.03 17:49:19.
