data_PCOD9240540
_publ_section_title
;
Structure prediction by ZEFSAII (Michael W. Deem and Ramdas Pophale) SiO2 
 PCOD9240540
Probable space group: P 21/C
;
_chemical_formula_sum "Si O2"
_cell_formula_units_Z 24
_cell_length_a 9.137538
_cell_length_b 14.488023
_cell_length_c 15.335532
_cell_angle_alpha 90.000000
_cell_angle_beta 142.827729
_cell_angle_gamma 90.000000
_cell_volume 1226.669685
_symmetry_space_group_name_H-M "P 21/C"
_symmetry_group_IT_number 14
_symmetry_cell_setting 'monoclinic'
loop_
_space_group_symop_operation_xyz
x,y,z
-x,1/2+y,1/2-z
-x,-y,-z
x,1/2-y,1/2+z
loop_
_atom_site_type_symbol
_atom_site_label
_atom_site_fract_x
_atom_site_fract_y
_atom_site_fract_z
Si Si1 0.258735 0.534695 0.590291
Si Si2 0.569937 0.149242 0.192839
Si Si3 0.378713 0.153688 0.633218
Si Si4 0.940792 0.101703 0.511508
Si Si5 0.240734 0.008148 0.422999
Si Si6 0.739330 0.435425 0.602454
O O1 0.419383 0.443215 0.645785
O O2 0.386019 0.597445 0.723601
O O3 0.246305 0.589144 0.492488
O O4 0.000000 0.500000 0.500000
O O5 0.419589 0.242233 0.125273
O O6 0.770914 0.153858 0.363487
O O7 0.691192 0.138624 0.155528
O O8 0.265280 0.096155 0.499252
O O9 0.199278 0.150226 0.631458
O O10 0.812841 0.080468 0.541348
O O11 0.000000 0.000000 0.500000
O O12 0.999745 0.019317 0.250025
O O13 0.500000 0.000000 0.500000
O O14 0.500000 0.500000 0.500000
#
# Coordination Sequence:
#
# PCOD9240540 Si02
#       6
#     4   4   4   4   4   4
#     4  11  23  40  63  99 132 167 215 280 338 390
#     4  11  22  41  66  92 128 176 223 270 330 401
#     4  11  23  41  68  92 127 179 223 268 337 401
#     4  10  18  41  67  85 123 175 221 265 331 392
#     4  11  21  41  70  96 127 176 225 275 335 406
#     4  10  21  40  65  92 129 168 217 277 334 388
#
# _framework density 19.565168
#
# number of rings (size 3 to 8) (size 9 to 14) (size 15 to 20)
#    0.000    1.333    6.667    2.000    2.333    0.000 
#    3.000    0.000    0.000    0.000    0.000    0.000 
#    0.000    0.000    0.000    0.000    0.000    0.000 
#
# Total GULP energy -133780.343915 kJ/mol
# GULP energy per Si atom -5574.180996 kJ/mol
# Density = 1.952064 g / cm^3
# Si number density = 19.565168 Si / 1000 Ang^3
#
#
#
# Elastic Constant Matrix: (Units=GPa)
#
#
# Indices 1 2 3 4 5 6 
#
# 1 108.5607 7.7010 8.8186 0.0000 22.4727 0.0000
# 2 7.7010 52.2488 -1.1849 0.0000 -1.9650 0.0000
# 3 8.8186 -1.1849 94.4633 0.0000 7.2787 0.0000
# 4 0.0000 0.0000 0.0000 20.3991 0.0000 7.1187
# 5 22.4727 -1.9650 7.2787 0.0000 32.1438 0.0000
# 6 0.0000 0.0000 0.0000 7.1187 0.0000 20.2794
#
#
#
# Elastic Compliance Matrix: (Units=1/GPa)
#
#
# Indices 1 2 3 4 5 6 
#
# 1 0.010976 -0.001917 -0.000456 0.000000 -0.007687 0.000000
# 2 -0.001917 0.019520 0.000233 0.000000 0.002481 0.000000
# 3 -0.000456 0.000233 0.010794 0.000000 -0.002111 0.000000
# 4 0.000000 0.000000 0.000000 0.055865 0.000000 -0.019610
# 5 -0.007687 0.002481 -0.002111 0.000000 0.037114 0.000000
# 6 0.000000 0.000000 0.000000 -0.019610 0.000000 0.056195
#
#
# Mechanical properties :
#
#
# Convention : Reuss Voigt Hill
#
# Bulk Modulus (GPa) = 27.02064 31.77133 29.39598
# Shear Modulus (GPa) = 24.14491 30.56035 27.35263
#
# Velocity S-wave (km/s) = 3.51675 3.95647 3.74308
# Velocity P-wave (km/s) = 5.50733 6.09471 5.80845
#
# Compressibility (1/GPa) = 0.03700875
#
# Stress axis : x y z
#
# Youngs Moduli (GPa) = 91.10922 51.22859 92.64148
#
# Poissons Ratio (x) = 0.09821 0.04228
# Poissons Ratio (y) = 0.17467 -0.02156
# Poissons Ratio (z) = 0.04158 -0.01192
#
# Static dielectric constant tensor:
#      x y z
#    x 1.730710 0.000000 0.009360 
#    y 0.000000 1.696740 0.000000 
#    z 0.009360 0.000000 1.722460 
# 
# From -- ./inp_files/41328.got.cif
#   From: 2010.05.17/outbox.cif.g08.bks.cpg/sg14_21_cif.got.tgz:41328.got - 2010.06.03 17:49:19.
