data_PCOD9240111
_publ_section_title
;
Structure prediction by ZEFSAII (Michael W. Deem and Ramdas Pophale) SiO2 
 PCOD9240111
Probable space group: P 21/C
;
_chemical_formula_sum "Si O2"
_cell_formula_units_Z 30
_cell_length_a 11.866021
_cell_length_b 16.261284
_cell_length_c 8.758557
_cell_angle_alpha 90.000000
_cell_angle_beta 128.497779
_cell_angle_gamma 90.000000
_cell_volume 1322.666240
_symmetry_space_group_name_H-M "P 21/C"
_symmetry_group_IT_number 14
_symmetry_cell_setting 'monoclinic'
loop_
_space_group_symop_operation_xyz
x,y,z
-x,1/2+y,1/2-z
-x,-y,-z
x,1/2-y,1/2+z
loop_
_atom_site_type_symbol
_atom_site_label
_atom_site_fract_x
_atom_site_fract_y
_atom_site_fract_z
Si Si1 0.041270 0.635079 0.942598
Si Si2 0.592971 0.630129 0.230990
Si Si3 0.410997 0.716767 0.511265
Si Si4 0.239074 0.451702 0.361851
Si Si5 0.256252 0.596614 0.603590
Si Si6 0.107709 0.707732 0.683157
Si Si7 0.361707 0.931885 0.743562
Si Si8 0.500000 0.000000 0.500000
O O1 0.032090 0.677897 0.770227
O O2 0.901801 0.579808 0.840187
O O3 0.047271 0.707153 0.070939
O O4 0.195604 0.589773 0.072167
O O5 0.541534 0.722926 0.163688
O O6 0.702616 0.612436 0.461174
O O7 0.459465 0.565621 0.172884
O O8 0.608670 0.586175 0.083171
O O9 0.351612 0.666901 0.604700
O O10 0.276690 0.775687 0.358959
O O11 0.422914 0.648168 0.387580
O O12 0.207491 0.534146 0.430656
O O13 0.355152 0.484426 0.335637
O O14 0.117948 0.637122 0.565554
O O15 0.362607 0.548889 0.803257
#
# Coordination Sequence:
#
# PCOD9240111 Si02
#       8
#     4   4   4   4   4   4   4   2
#     4  11  22  39  62  89 120 160 207 253 291 365
#     4  11  20  37  59  90 124 157 198 253 304 366
#     4  10  18  34  62  91 109 156 212 247 282 363
#     4  10  24  38  56  92 130 150 192 263 314 345
#     4  10  19  36  59  92 117 158 202 256 294 367
#     4  11  19  37  65  85 116 161 217 237 294 367
#     4  10  20  38  66  84 115 163 210 239 294 374
#     4  10  20  32  58  88 130 142 198 256 312 340
#
# _framework density 22.681457999999999
#
# number of rings (size 3 to 8) (size 9 to 14) (size 15 to 20)
#    0.000    1.600    4.000    1.600    0.000    0.533 
#    2.400    0.000    0.000    0.000    0.000    0.000 
#    0.000    0.000    0.000    0.000    0.000    0.000 
#
# Total GULP energy -167136.664043 kJ/mol
# GULP energy per Si atom -5571.222135 kJ/mol
# Density = 2.262983 g / cm^3
# Si number density = 22.681458 Si / 1000 Ang^3
#
#
#
# Elastic Constant Matrix: (Units=GPa)
#
#
# Indices 1 2 3 4 5 6 
#
# 1 22.2064 13.7033 11.8096 0.0000 12.8881 0.0000
# 2 13.7033 95.9487 26.3278 0.0000 18.4633 0.0000
# 3 11.8096 26.3278 68.8652 0.0000 19.3577 0.0000
# 4 0.0000 0.0000 0.0000 25.5955 0.0000 18.7305
# 5 12.8881 18.4633 19.3577 0.0000 28.4430 0.0000
# 6 0.0000 0.0000 0.0000 18.7305 0.0000 13.7319
#
#
#
# Elastic Compliance Matrix: (Units=1/GPa)
#
#
# Indices 1 2 3 4 5 6 
#
# 1 0.062736 -0.003572 -0.002540 0.000000 -0.024380 0.000000
# 2 -0.003572 0.012616 -0.002923 0.000000 -0.004582 0.000000
# 3 -0.002540 -0.002923 0.018817 0.000000 -0.009758 0.000000
# 4 0.000000 0.000000 0.000000 21.383206 0.000000-29.167099
# 5 -0.024380 -0.004582 -0.009758 0.000000 0.055821 0.000000
# 6 0.000000 0.000000 0.000000-29.167099 0.000000 39.857301
#
#
# Mechanical properties :
#
#
# Convention : Reuss Voigt Hill
#
# Bulk Modulus (GPa) = 13.14045 32.30018 22.72032
# Shear Modulus (GPa) = 0.08139 22.56606 11.32372
#
# Velocity S-wave (km/s) = 0.18963 3.15764 2.23681
# Velocity P-wave (km/s) = 2.41950 5.25033 4.08779
#
# Compressibility (1/GPa) = 0.07610087
#
# Stress axis : x y z
#
# Youngs Moduli (GPa) = 15.93970 79.26429 53.14307
#
# Poissons Ratio (x) = 0.28310 0.13498
# Poissons Ratio (y) = 0.05693 0.15532
# Poissons Ratio (z) = 0.04049 0.23167
#
# Static dielectric constant tensor:
#      x y z
#    x 1.647690 0.000000 0.257120 
#    y 0.000000 1.864630 0.000000 
#    z 0.257120 0.000000 1.510070 
# 
# From -- ./inp_files/16308.got.cif
#   From: 2010.05.17/outbox.cif.g08.bks.cpg/sg14_9_cif.got.tgz:16308.got - 2010.06.03 17:49:19.
