data_PCOD9240205
_publ_section_title
;
Structure prediction by ZEFSAII (Michael W. Deem and Ramdas Pophale) SiO2 
 PCOD9240205
Probable space group: P 21/C
;
_chemical_formula_sum "Si O2"
_cell_formula_units_Z 26
_cell_length_a 13.404400
_cell_length_b 5.233219
_cell_length_c 14.382895
_cell_angle_alpha 90.000000
_cell_angle_beta 90.847130
_cell_angle_gamma 90.000000
_cell_volume 1008.823355
_symmetry_space_group_name_H-M "P 21/C"
_symmetry_group_IT_number 14
_symmetry_cell_setting 'monoclinic'
loop_
_space_group_symop_operation_xyz
x,y,z
-x,1/2+y,1/2-z
-x,-y,-z
x,1/2-y,1/2+z
loop_
_atom_site_type_symbol
_atom_site_label
_atom_site_fract_x
_atom_site_fract_y
_atom_site_fract_z
Si Si1 0.000000 0.000000 0.000000
Si Si2 0.448587 0.192258 0.366969
Si Si3 0.859786 0.251947 0.252046
Si Si4 0.704416 0.766550 0.993509
Si Si5 0.624255 0.193093 0.244561
Si Si6 0.868117 0.740816 0.859672
Si Si7 0.819684 0.231511 0.546013
O O1 0.069854 0.219857 0.046050
O O2 0.907196 0.205197 0.975985
O O3 0.408392 0.224125 0.471826
O O4 0.564887 0.210706 0.341675
O O5 0.398946 0.423769 0.306333
O O6 0.414243 0.922955 0.322181
O O7 0.740168 0.233260 0.260423
O O8 0.889233 0.524304 0.291502
O O9 0.876475 0.217853 0.143137
O O10 0.899469 0.008446 0.305549
O O11 0.765281 0.538242 0.045692
O O12 0.738640 0.045579 0.028367
O O13 0.750575 0.740753 0.890423
#
# Coordination Sequence:
#
# PCOD9240205 Si02
#       7
#     2   4   4   4   4   4   4
#     4  10  26  48  60  94 112 172 202 258 296 404
#     4  10  18  35  61  91 122 166 211 251 295 382
#     4  12  22  41  60 100 120 167 196 280 309 370
#     4  11  20  41  61  94 119 181 200 256 302 400
#     4  10  20  33  61  94 124 156 213 259 304 364
#     4  11  26  39  65  85 133 157 215 252 332 364
#     4  11  23  39  70  85 129 154 222 252 324 362
#
# _framework density 25.772599
#
# number of rings (size 3 to 8) (size 9 to 14) (size 15 to 20)
#    0.000    1.231    3.077    3.692    0.000    6.769 
#    0.000    1.538    0.000    0.000    0.000    0.000 
#    0.000    0.000    0.000    0.000    0.000    0.000 
#
# Total GULP energy -144958.731500 kJ/mol
# GULP energy per Si atom -5575.335827 kJ/mol
# Density = 2.571394 g / cm^3
# Si number density = 25.772599 Si / 1000 Ang^3
#
#
#
# Elastic Constant Matrix: (Units=GPa)
#
#
# Indices 1 2 3 4 5 6 
#
# 1 96.7043 -19.2411 -23.6365 0.0000 -19.8621 0.0000
# 2 -19.2411 151.2062 37.3672 0.0000 9.0300 0.0000
# 3 -23.6365 37.3672 58.8674 0.0000 -24.3687 0.0000
# 4 0.0000 0.0000 0.0000 18.1779 0.0000 17.7705
# 5 -19.8621 9.0300 -24.3687 0.0000 33.5968 0.0000
# 6 0.0000 0.0000 0.0000 17.7705 0.0000 107.6789
#
#
#
# Elastic Compliance Matrix: (Units=1/GPa)
#
#
# Indices 1 2 3 4 5 6 
#
# 1 0.023333 -0.006101 0.028054 0.000000 0.035782 0.000000
# 2 -0.006101 0.011403 -0.017792 0.000000 -0.019576 0.000000
# 3 0.028054 -0.017792 0.069154 0.000000 0.071527 0.000000
# 4 0.000000 0.000000 0.000000 0.065594 0.000000 -0.010825
# 5 0.035782 -0.019576 0.071527 0.000000 0.108061 0.000000
# 6 0.000000 0.000000 0.000000 -0.010825 0.000000 0.011073
#
#
# Mechanical properties :
#
#
# Convention : Reuss Voigt Hill
#
# Bulk Modulus (GPa) = 8.91158 32.86190 20.88674
# Shear Modulus (GPa) = 15.73806 52.70993 34.22400
#
# Velocity S-wave (km/s) = 2.47382 4.52729 3.64802
# Velocity P-wave (km/s) = 3.40954 6.33300 5.08585
#
# Compressibility (1/GPa) = 0.11221353
#
# Stress axis : x y z
#
# Youngs Moduli (GPa) = 42.85734 87.69557 14.46041
#
# Poissons Ratio (x) = 0.53499 -0.40567
# Poissons Ratio (y) = 0.26146 0.25727
# Poissons Ratio (z) = -1.20231 1.56025
#
# Static dielectric constant tensor:
#      x y z
#    x 2.108710 0.000000 -0.143860 
#    y 0.000000 2.031500 0.000000 
#    z -0.143860 0.000000 2.295860 
# 
# From -- ./inp_files/45963.got.cif
#   From: 2010.05.17/outbox.cif.g08.bks.cpg/sg14_23_cif.got.tgz:45963.got - 2010.06.03 17:49:19.
