data_PCOD9240546
_publ_section_title
;
Structure prediction by ZEFSAII (Michael W. Deem and Ramdas Pophale) SiO2 
 PCOD9240546
Probable space group: P 21/C
;
_chemical_formula_sum "Si O2"
_cell_formula_units_Z 32
_cell_length_a 13.925760
_cell_length_b 7.334160
_cell_length_c 12.318776
_cell_angle_alpha 90.000000
_cell_angle_beta 91.018375
_cell_angle_gamma 90.000000
_cell_volume 1257.964081
_symmetry_space_group_name_H-M "P 21/C"
_symmetry_group_IT_number 14
_symmetry_cell_setting 'monoclinic'
loop_
_space_group_symop_operation_xyz
x,y,z
-x,1/2+y,1/2-z
-x,-y,-z
x,1/2-y,1/2+z
loop_
_atom_site_type_symbol
_atom_site_label
_atom_site_fract_x
_atom_site_fract_y
_atom_site_fract_z
Si Si1 0.946656 0.268484 0.521661
Si Si2 0.647326 0.618811 0.042528
Si Si3 0.222910 0.855760 0.846824
Si Si4 0.878719 0.560742 0.372615
Si Si5 0.667104 0.995867 0.955498
Si Si6 0.557809 0.564934 0.258126
Si Si7 0.358701 0.465952 0.198382
Si Si8 0.158679 0.028806 0.359739
O O1 0.882070 0.391339 0.605023
O O2 0.916260 0.356780 0.406677
O O3 0.908549 0.068721 0.552588
O O4 0.055498 0.306652 0.553997
O O5 0.615470 0.824662 0.013339
O O6 0.647112 0.510204 0.930256
O O7 0.586349 0.522637 0.134859
O O8 0.756554 0.643121 0.086709
O O9 0.215339 0.647176 0.810162
O O10 0.259707 0.983996 0.753465
O O11 0.295678 0.871118 0.950061
O O12 0.767095 0.572240 0.402223
O O13 0.892754 0.607602 0.246310
O O14 0.599507 0.058464 0.855912
O O15 0.443815 0.577801 0.256978
O O16 0.608495 0.759001 0.279593
#
# Coordination Sequence:
#
# PCOD9240546 Si02
#       8
#     4   4   4   4   4   4   4   4
#     4   8  21  38  62  91 122 160 208 248 309 368
#     4  11  23  42  61  94 126 161 209 261 307 373
#     4   9  21  41  62  93 121 167 205 255 313 367
#     4  10  18  42  63  89 128 167 198 255 314 366
#     4  10  21  42  65  87 129 170 200 254 317 375
#     4  11  24  42  62  92 123 166 210 254 320 366
#     4  11  25  40  64  90 126 162 207 261 311 378
#     4  10  22  37  67  92 120 163 208 254 305 365
#
# _framework density 25.437930000000001
#
# number of rings (size 3 to 8) (size 9 to 14) (size 15 to 20)
#    0.750    1.250    2.500    0.375    3.500    1.500 
#   11.250    0.625    0.000    0.000    0.000    0.000 
#    0.000    0.000    0.000    0.000    0.000    0.000 
#
# Total GULP energy -178858.375558 kJ/mol
# GULP energy per Si atom -5589.324236 kJ/mol
# Density = 2.538003 g / cm^3
# Si number density = 25.437930 Si / 1000 Ang^3
#
#
#
# Elastic Constant Matrix: (Units=GPa)
#
#
# Indices 1 2 3 4 5 6 
#
# 1 83.0449 1.8059 36.2759 0.0000 0.5328 0.0000
# 2 1.8059 42.8119 12.0484 0.0000 1.8707 0.0000
# 3 36.2759 12.0484 123.7270 0.0000 14.0515 0.0000
# 4 0.0000 0.0000 0.0000 21.6538 0.0000 -9.5139
# 5 0.5328 1.8707 14.0515 0.0000 38.8222 0.0000
# 6 0.0000 0.0000 0.0000 -9.5139 0.0000 26.3294
#
#
#
# Elastic Compliance Matrix: (Units=1/GPa)
#
#
# Indices 1 2 3 4 5 6 
#
# 1 0.013890 0.000560 -0.004278 0.000000 0.001331 0.000000
# 2 0.000560 0.024043 -0.002475 0.000000 -0.000271 0.000000
# 3 -0.004278 -0.002475 0.009967 0.000000 -0.003430 0.000000
# 4 0.000000 0.000000 0.000000 0.054897 0.000000 0.019837
# 5 0.001331 -0.000271 -0.003430 0.000000 0.026995 0.000000
# 6 0.000000 0.000000 0.000000 0.019837 0.000000 0.045148
#
#
# Mechanical properties :
#
#
# Convention : Reuss Voigt Hill
#
# Bulk Modulus (GPa) = 28.15807 38.87159 33.51483
# Shear Modulus (GPa) = 25.10513 30.65797 27.88155
#
# Velocity S-wave (km/s) = 3.14493 3.47538 3.31427
# Velocity P-wave (km/s) = 4.92756 5.60522 5.27727
#
# Compressibility (1/GPa) = 0.03551379
#
# Stress axis : x y z
#
# Youngs Moduli (GPa) = 71.99572 41.59278 100.33037
#
# Poissons Ratio (x) = -0.02329 0.42922
# Poissons Ratio (y) = -0.04031 0.24828
# Poissons Ratio (z) = 0.30800 0.10293
#
# Static dielectric constant tensor:
#      x y z
#    x 1.979990 0.000000 -0.013780 
#    y 0.000000 2.067610 0.000000 
#    z -0.013780 0.000000 1.995040 
# 
# From -- ./inp_files/31576.got.cif
#   From: 2010.05.17/outbox.cif.g08.bks.cpg/sg14_16_cif.got.tgz:31576.got - 2010.06.03 17:49:19.
