data_PCOD9240627
_publ_section_title
;
Structure prediction by ZEFSAII (Michael W. Deem and Ramdas Pophale) SiO2 
 PCOD9240627
Probable space group: P 21/C
;
_chemical_formula_sum "Si O2"
_cell_formula_units_Z 24
_cell_length_a 30.722104
_cell_length_b 6.667661
_cell_length_c 5.151958
_cell_angle_alpha 90.000000
_cell_angle_beta 80.004358
_cell_angle_gamma 90.000000
_cell_volume 1039.331434
_symmetry_space_group_name_H-M "P 21/C"
_symmetry_group_IT_number 14
_symmetry_cell_setting 'monoclinic'
loop_
_space_group_symop_operation_xyz
x,y,z
-x,1/2+y,1/2-z
-x,-y,-z
x,1/2-y,1/2+z
loop_
_atom_site_type_symbol
_atom_site_label
_atom_site_fract_x
_atom_site_fract_y
_atom_site_fract_z
Si Si1 0.825824 0.607742 0.144789
Si Si2 0.455715 0.118864 0.106291
Si Si3 0.952087 0.016190 0.173492
Si Si4 0.083746 0.961699 0.290430
Si Si5 0.270220 0.388746 0.797522
Si Si6 0.637400 0.888816 0.916019
O O1 0.828337 0.767487 0.376726
O O2 0.867450 0.463075 0.142047
O O3 0.777114 0.507869 0.198113
O O4 0.455385 0.196246 0.401714
O O5 0.409449 0.006548 0.091280
O O6 0.500000 0.000000 0.000000
O O7 0.937068 0.244785 0.240941
O O8 0.948428 0.932818 0.467743
O O9 0.917089 0.943897 0.994596
O O10 0.000000 0.000000 0.000000
O O11 0.270760 0.206298 0.585061
O O12 0.316381 0.499572 0.690563
O O13 0.637615 0.705434 0.703998
#
# Coordination Sequence:
#
# PCOD9240627 Si02
#       6
#     4   4   4   4   4   4
#     4  10  19  33  50  79 108 128 155 198 253 299
#     4  10  19  31  48  73 103 141 183 227 274 321
#     4  10  21  40  57  71  95 125 166 199 231 276
#     4  10  21  38  55  76  95 128 160 195 239 284
#     4   8  14  25  44  67  98 127 156 203 247 287
#     4   8  14  25  42  67  94 126 171 211 249 294
#
# _framework density 23.091767000000001
#
# number of rings (size 3 to 8) (size 9 to 14) (size 15 to 20)
#    0.000    2.667    0.000    2.000    0.000    0.000 
#   18.000    0.000    0.000    0.000    8.667    0.000 
#    0.000    0.000    0.000    0.000    0.000    0.000 
#
# Total GULP energy -133775.332421 kJ/mol
# GULP energy per Si atom -5573.972184 kJ/mol
# Density = 2.303921 g / cm^3
# Si number density = 23.091767 Si / 1000 Ang^3
#
#
#
# Elastic Constant Matrix: (Units=GPa)
#
#
# Indices 1 2 3 4 5 6 
#
# 1 189.8790 7.8977 5.7513 0.0000 -33.3114 0.0000
# 2 7.8977 41.1845 -14.4558 0.0000 -6.7943 0.0000
# 3 5.7513 -14.4558 134.0886 0.0000 18.5623 0.0000
# 4 0.0000 0.0000 0.0000 4.8423 0.0000 -4.2093
# 5 -33.3114 -6.7943 18.5623 0.0000 49.6574 0.0000
# 6 0.0000 0.0000 0.0000 -4.2093 0.0000 21.8549
#
#
#
# Elastic Compliance Matrix: (Units=1/GPa)
#
#
# Indices 1 2 3 4 5 6 
#
# 1 0.006087 -0.000785 -0.000945 0.000000 0.004329 0.000000
# 2 -0.000785 0.025652 0.002516 0.000000 0.002043 0.000000
# 3 -0.000945 0.002516 0.008236 0.000000 -0.003368 0.000000
# 4 0.000000 0.000000 0.000000 0.248038 0.000000 0.047772
# 5 0.004329 0.002043 -0.003368 0.000000 0.024581 0.000000
# 6 0.000000 0.000000 0.000000 0.047772 0.000000 0.054957
#
#
# Mechanical properties :
#
#
# Convention : Reuss Voigt Hill
#
# Bulk Modulus (GPa) = 24.06863 40.39317 32.23090
# Shear Modulus (GPa) = 13.16389 39.66819 26.41604
#
# Velocity S-wave (km/s) = 2.39020 4.14919 3.38592
# Velocity P-wave (km/s) = 4.25007 6.36277 5.41054
#
# Compressibility (1/GPa) = 0.04154786
#
# Stress axis : x y z
#
# Youngs Moduli (GPa) = 164.27635 38.98376 121.42041
#
# Poissons Ratio (x) = 0.03059 0.11475
# Poissons Ratio (y) = 0.12892 -0.30553
# Poissons Ratio (z) = 0.15525 -0.09810
#
# Static dielectric constant tensor:
#      x y z
#    x 1.966460 0.000000 -0.008540 
#    y 0.000000 2.613480 0.000000 
#    z -0.008540 0.000000 1.941460 
# 
# From -- ./inp_files/4548.got.cif
#   From: 2010.05.17/outbox.cif.g08.bks.cpg/sg14_3_cif.got.tgz:4548.got - 2010.06.03 17:49:19.
