data_PCOD9240809
_publ_section_title
;
Structure prediction by ZEFSAII (Michael W. Deem and Ramdas Pophale) SiO2 
 PCOD9240809
Probable space group: P 21/C
;
_chemical_formula_sum "Si O2"
_cell_formula_units_Z 28
_cell_length_a 37.054289
_cell_length_b 6.821417
_cell_length_c 5.164437
_cell_angle_alpha 90.000000
_cell_angle_beta 105.816080
_cell_angle_gamma 90.000000
_cell_volume 1255.957759
_symmetry_space_group_name_H-M "P 21/C"
_symmetry_group_IT_number 14
_symmetry_cell_setting 'monoclinic'
loop_
_space_group_symop_operation_xyz
x,y,z
-x,1/2+y,1/2-z
-x,-y,-z
x,1/2-y,1/2+z
loop_
_atom_site_type_symbol
_atom_site_label
_atom_site_fract_x
_atom_site_fract_y
_atom_site_fract_z
Si Si1 0.071062 0.039163 0.518871
Si Si2 0.228186 0.878021 0.890656
Si Si3 0.618407 0.613887 0.185264
Si Si4 0.463072 0.378845 0.988500
Si Si5 0.303292 0.119353 0.045258
Si Si6 0.040778 0.478883 0.458861
Si Si7 0.852470 0.114143 0.166301
O O1 0.054102 0.254721 0.438309
O O2 0.069605 0.945929 0.232019
O O3 0.112580 0.028136 0.714372
O O4 0.043949 0.938524 0.676545
O O5 0.228318 0.699426 0.096940
O O6 0.265495 0.999946 0.011940
O O7 0.188418 0.982088 0.871380
O O8 0.619285 0.786907 0.403881
O O9 0.657615 0.505552 0.318064
O O10 0.577449 0.516720 0.132213
O O11 0.463774 0.298331 0.281990
O O12 0.500000 0.500000 0.000000
O O13 0.303518 0.295360 0.255607
O O14 0.000000 0.500000 0.500000
O O15 0.854354 0.284235 0.389878
#
# Coordination Sequence:
#
# PCOD9240809 Si02
#       7
#     4   4   4   4   4   4   4
#     4  10  21  40  58  82 106 144 177 210 258 313
#     4  10  21  38  59  82 118 152 182 226 287 338
#     4   8  16  30  50  71 106 144 181 226 287 344
#     4  10  19  33  51  74 103 145 187 236 288 341
#     4  10  19  35  56  86 110 144 193 236 276 338
#     4  10  21  40  59  80 112 136 171 221 264 300
#     4  10  21  40  59  82 112 148 181 212 261 323
#
# _framework density 22.293745999999999
#
# number of rings (size 3 to 8) (size 9 to 14) (size 15 to 20)
#    0.000    2.286    0.000    2.571    0.000    0.000 
#   20.571    1.429    0.000    0.000    0.000    0.000 
#    0.000    0.000    0.000    0.000    0.000    0.000 
#
# Total GULP energy -156152.603533 kJ/mol
# GULP energy per Si atom -5576.878698 kJ/mol
# Density = 2.224300 g / cm^3
# Si number density = 22.293746 Si / 1000 Ang^3
#
#
#
# Elastic Constant Matrix: (Units=GPa)
#
#
# Indices 1 2 3 4 5 6 
#
# 1 170.1488 13.0667 14.9004 0.0000 40.3648 0.0000
# 2 13.0667 33.5730 -11.8298 0.0000 12.0425 0.0000
# 3 14.9004 -11.8298 102.1518 0.0000 -14.3453 0.0000
# 4 0.0000 0.0000 0.0000 10.9778 0.0000 7.1684
# 5 40.3648 12.0425 -14.3453 0.0000 61.1034 0.0000
# 6 0.0000 0.0000 0.0000 7.1684 0.0000 33.7396
#
#
#
# Elastic Compliance Matrix: (Units=1/GPa)
#
#
# Indices 1 2 3 4 5 6 
#
# 1 0.007369 -0.001779 -0.001981 0.000000 -0.004983 0.000000
# 2 -0.001779 0.033347 0.003478 0.000000 -0.004580 0.000000
# 3 -0.001981 0.003478 0.010929 0.000000 0.003189 0.000000
# 4 0.000000 0.000000 0.000000 0.105767 0.000000 -0.022471
# 5 -0.004983 -0.004580 0.003189 0.000000 0.021309 0.000000
# 6 0.000000 0.000000 0.000000 -0.022471 0.000000 0.034413
#
#
# Mechanical properties :
#
#
# Convention : Reuss Voigt Hill
#
# Bulk Modulus (GPa) = 19.57644 37.57203 28.57423
# Shear Modulus (GPa) = 21.67097 40.47991 31.07544
#
# Velocity S-wave (km/s) = 3.12118 4.26579 3.73756
# Velocity P-wave (km/s) = 4.66789 6.41501 5.60988
#
# Compressibility (1/GPa) = 0.05108181
#
# Stress axis : x y z
#
# Youngs Moduli (GPa) = 135.69827 29.98799 91.50112
#
# Poissons Ratio (x) = 0.05334 0.18123
# Poissons Ratio (y) = 0.24138 -0.31824
# Poissons Ratio (z) = 0.26877 -0.10430
#
# Static dielectric constant tensor:
#      x y z
#    x 1.885150 0.000000 0.008610 
#    y 0.000000 2.264420 0.000000 
#    z 0.008610 0.000000 1.877950 
# 
# From -- ./inp_files/4558.got.cif
#   From: 2010.05.17/outbox.cif.g08.bks.cpg/sg14_3_cif.got.tgz:4558.got - 2010.06.03 17:49:19.
