data_PCOD9240850
_publ_section_title
;
Structure prediction by ZEFSAII (Michael W. Deem and Ramdas Pophale) SiO2 
 PCOD9240850
Probable space group: P 21/C
;
_chemical_formula_sum "Si O2"
_cell_formula_units_Z 32
_cell_length_a 15.472524
_cell_length_b 8.407751
_cell_length_c 22.773150
_cell_angle_alpha 90.000000
_cell_angle_beta 28.431488
_cell_angle_gamma 90.000000
_cell_volume 1410.487349
_symmetry_space_group_name_H-M "P 21/C"
_symmetry_group_IT_number 14
_symmetry_cell_setting 'monoclinic'
loop_
_space_group_symop_operation_xyz
x,y,z
-x,1/2+y,1/2-z
-x,-y,-z
x,1/2-y,1/2+z
loop_
_atom_site_type_symbol
_atom_site_label
_atom_site_fract_x
_atom_site_fract_y
_atom_site_fract_z
Si Si1 0.823954 0.164960 0.802657
Si Si2 0.959632 0.981347 0.833963
Si Si3 0.571275 0.753664 0.446068
Si Si4 0.758907 0.472026 0.677987
Si Si5 0.844423 0.641556 0.520352
Si Si6 0.882237 0.968393 0.460658
Si Si7 0.418153 0.037987 0.455232
Si Si8 0.127166 0.257021 0.815328
O O1 0.892650 0.347693 0.771546
O O2 0.947354 0.111395 0.674796
O O3 0.870316 0.055106 0.830347
O O4 0.608824 0.167104 0.925141
O O5 0.829720 0.900395 0.960127
O O6 0.045667 0.126272 0.819325
O O7 0.654447 0.832525 0.455020
O O8 0.716484 0.665425 0.318604
O O9 0.497958 0.895536 0.447261
O O10 0.738423 0.508917 0.621472
O O11 0.588934 0.401702 0.814317
O O12 0.786426 0.652392 0.685286
O O13 0.945684 0.384044 0.583559
O O14 0.803305 0.829405 0.548948
O O15 0.735435 0.011952 0.498748
O O16 0.972318 0.127257 0.431805
#
# Coordination Sequence:
#
# PCOD9240850 Si02
#       8
#     4   4   4   4   4   4   4   4
#     4  11  20  33  54  79 114 148 184 229 283 338
#     4  10  19  33  54  81 111 149 187 229 283 336
#     4  10  19  33  54  82 112 148 187 225 276 345
#     4   9  19  40  62  77 104 153 195 230 282 343
#     4   9  20  39  60  80 109 147 193 236 284 341
#     4  11  22  35  55  87 117 143 183 239 289 337
#     4  10  19  34  57  80 110 149 189 227 278 343
#     4  10  20  34  54  80 111 144 186 232 285 343
#
# _framework density 22.687194999999999
#
# number of rings (size 3 to 8) (size 9 to 14) (size 15 to 20)
#    0.000    2.000    0.000    6.750    0.000    2.000 
#    0.000    8.750    0.000    0.000    0.000    0.000 
#    0.000    0.000    0.000    0.000    0.000    0.000 
#
# Total GULP energy -178664.037826 kJ/mol
# GULP energy per Si atom -5583.251182 kJ/mol
# Density = 2.263556 g / cm^3
# Si number density = 22.687195 Si / 1000 Ang^3
#
#
#
# Elastic Constant Matrix: (Units=GPa)
#
#
# Indices 1 2 3 4 5 6 
#
# 1 48.5155 9.2032 -7.9676 0.0000 10.5964 0.0000
# 2 9.2032 66.3880 -7.1255 0.0000 3.5094 0.0000
# 3 -7.9676 -7.1255 45.9962 0.0000 6.1216 0.0000
# 4 0.0000 0.0000 0.0000 21.2721 0.0000 -5.2517
# 5 10.5964 3.5094 6.1216 0.0000 24.5317 0.0000
# 6 0.0000 0.0000 0.0000 -5.2517 0.0000 27.4273
#
#
#
# Elastic Compliance Matrix: (Units=1/GPa)
#
#
# Indices 1 2 3 4 5 6 
#
# 1 0.024457 -0.002193 0.005442 0.000000 -0.011608 0.000000
# 2 -0.002193 0.015713 0.002304 0.000000 -0.001876 0.000000
# 3 0.005442 0.002304 0.024201 0.000000 -0.008719 0.000000
# 4 0.000000 0.000000 0.000000 0.049342 0.000000 0.009448
# 5 -0.011608 -0.001876 -0.008719 0.000000 0.048222 0.000000
# 6 0.000000 0.000000 0.000000 0.009448 0.000000 0.038269
#
#
# Mechanical properties :
#
#
# Convention : Reuss Voigt Hill
#
# Bulk Modulus (GPa) = 13.24894 16.56887 14.90890
# Shear Modulus (GPa) = 23.33637 25.76552 24.55095
#
# Velocity S-wave (km/s) = 3.21068 3.37365 3.29317
# Velocity P-wave (km/s) = 4.42687 4.74282 4.58757
#
# Compressibility (1/GPa) = 0.07547775
#
# Stress axis : x y z
#
# Youngs Moduli (GPa) = 40.88798 63.63999 41.32069
#
# Poissons Ratio (x) = 0.13954 -0.22486
# Poissons Ratio (y) = 0.08966 -0.09520
# Poissons Ratio (z) = -0.22251 -0.14663
#
# Static dielectric constant tensor:
#      x y z
#    x 1.845420 0.000000 0.038200 
#    y 0.000000 1.940840 0.000000 
#    z 0.038200 0.000000 1.890140 
# 
# From -- ./inp_files/73827.got.cif
#   From: 2010.05.17/outbox.cif.g08.bks.cpg/sg14_37_cif.got.tgz:73827.got - 2010.06.03 17:49:19.
