data_PCOD9240841
_publ_section_title
;
Structure prediction by ZEFSAII (Michael W. Deem and Ramdas Pophale) SiO2 
 PCOD9240841
Probable space group: P 21/C
;
_chemical_formula_sum "Si O2"
_cell_formula_units_Z 32
_cell_length_a 14.946723
_cell_length_b 5.688510
_cell_length_c 14.200871
_cell_angle_alpha 90.000000
_cell_angle_beta 104.770618
_cell_angle_gamma 90.000000
_cell_volume 1167.522944
_symmetry_space_group_name_H-M "P 21/C"
_symmetry_group_IT_number 14
_symmetry_cell_setting 'monoclinic'
loop_
_space_group_symop_operation_xyz
x,y,z
-x,1/2+y,1/2-z
-x,-y,-z
x,1/2-y,1/2+z
loop_
_atom_site_type_symbol
_atom_site_label
_atom_site_fract_x
_atom_site_fract_y
_atom_site_fract_z
Si Si1 0.622724 0.694080 0.243723
Si Si2 0.117525 0.890633 0.814044
Si Si3 0.469626 0.727733 0.441498
Si Si4 0.153537 0.084151 0.521681
Si Si5 0.412765 0.802880 0.711977
Si Si6 0.892440 0.074698 0.970264
Si Si7 0.902767 0.890569 0.704246
Si Si8 0.662967 0.947177 0.547859
O O1 0.636794 0.452695 0.308819
O O2 0.511703 0.695165 0.185892
O O3 0.669489 0.661819 0.154013
O O4 0.639731 0.945277 0.299504
O O5 0.141515 0.901025 0.930647
O O6 0.146352 0.636413 0.782912
O O7 0.005255 0.889245 0.775403
O O8 0.143806 0.144114 0.781953
O O9 0.500000 0.500000 0.500000
O O10 0.451671 0.705443 0.327751
O O11 0.564355 0.873769 0.478764
O O12 0.364971 0.781449 0.448499
O O13 0.149835 0.329000 0.577794
O O14 0.087848 0.100283 0.408740
O O15 0.251378 0.081090 0.495309
O O16 0.127834 0.842062 0.568918
O O17 0.000000 0.000000 0.000000
#
# Coordination Sequence:
#
# PCOD9240841 Si02
#       8
#     4   4   4   4   4   4   4   4
#     4   9  17  30  49  73 100 131 174 224 266 315
#     4   8  14  26  48  71  93 121 161 201 241 309
#     4  10  19  33  54  78 107 149 193 222 266 329
#     4  10  21  33  54  78 107 137 176 228 266 309
#     4   9  17  30  49  74  98 133 180 220 263 313
#     4  10  20  35  54  80 104 142 175 210 269 334
#     4   8  14  27  45  72  94 120 160 202 251 294
#     4  10  21  33  52  81 108 143 188 233 272 319
#
# _framework density 27.408452
#
# number of rings (size 3 to 8) (size 9 to 14) (size 15 to 20)
#    0.000    2.750    1.250    0.375    1.750    0.000 
#    0.000    0.000    2.750    0.000    0.000    0.000 
#    0.000    0.000    0.000    0.000    0.000    0.000 
#
# Total GULP energy -178507.794555 kJ/mol
# GULP energy per Si atom -5578.368580 kJ/mol
# Density = 2.734607 g / cm^3
# Si number density = 27.408452 Si / 1000 Ang^3
#
#
#
# Elastic Constant Matrix: (Units=GPa)
#
#
# Indices 1 2 3 4 5 6 
#
# 1 123.0893 43.8025 4.9816 0.0000 -24.1707 0.0000
# 2 43.8025 280.4248 -0.0420 0.0000 -15.6968 0.0000
# 3 4.9816 -0.0420 30.7488 0.0000 3.3048 0.0000
# 4 0.0000 0.0000 0.0000 18.4636 0.0000 -7.5197
# 5 -24.1707 -15.6968 3.3048 0.0000 21.1285 0.0000
# 6 0.0000 0.0000 0.0000 -7.5197 0.0000 24.4532
#
#
#
# Elastic Compliance Matrix: (Units=1/GPa)
#
#
# Indices 1 2 3 4 5 6 
#
# 1 0.011044 -0.001034 -0.003118 0.000000 0.012354 0.000000
# 2 -0.001034 0.003820 -0.000005 0.000000 0.001656 0.000000
# 3 -0.003118 -0.000005 0.033982 0.000000 -0.008887 0.000000
# 4 0.000000 0.000000 0.000000 0.061915 0.000000 0.019040
# 5 0.012354 0.001656 -0.008887 0.000000 0.064083 0.000000
# 6 0.000000 0.000000 0.000000 0.019040 0.000000 0.046749
#
#
# Mechanical properties :
#
#
# Convention : Reuss Voigt Hill
#
# Bulk Modulus (GPa) = 24.67250 59.08300 41.87775
# Shear Modulus (GPa) = 20.54068 38.51045 29.52557
#
# Velocity S-wave (km/s) = 2.74054 3.75248 3.28570
# Velocity P-wave (km/s) = 4.36296 6.35437 5.45039
#
# Compressibility (1/GPa) = 0.04053095
#
# Stress axis : x y z
#
# Youngs Moduli (GPa) = 90.54429 261.76399 29.42739
#
# Poissons Ratio (x) = 0.27068 0.09177
# Poissons Ratio (y) = 0.09363 0.00015
# Poissons Ratio (z) = 0.28236 0.00137
#
# Static dielectric constant tensor:
#      x y z
#    x 2.051860 0.000000 -0.029640 
#    y 0.000000 2.199370 0.000000 
#    z -0.029640 0.000000 2.039590 
# 
# From -- ./inp_files/58459.got.cif
#   From: 2010.05.17/outbox.cif.g08.bks.cpg/sg14_30_cif.got.tgz:58459.got - 2010.06.03 17:49:19.
