data_PCOD9240495
_publ_section_title
;
Structure prediction by ZEFSAII (Michael W. Deem and Ramdas Pophale) SiO2 
 PCOD9240495
Probable space group: P 21/C
;
_chemical_formula_sum "Si O2"
_cell_formula_units_Z 28
_cell_length_a 12.289992
_cell_length_b 9.903352
_cell_length_c 20.981687
_cell_angle_alpha 90.000000
_cell_angle_beta 151.318602
_cell_angle_gamma 90.000000
_cell_volume 1225.631697
_symmetry_space_group_name_H-M "P 21/C"
_symmetry_group_IT_number 14
_symmetry_cell_setting 'monoclinic'
loop_
_space_group_symop_operation_xyz
x,y,z
-x,1/2+y,1/2-z
-x,-y,-z
x,1/2-y,1/2+z
loop_
_atom_site_type_symbol
_atom_site_label
_atom_site_fract_x
_atom_site_fract_y
_atom_site_fract_z
Si Si1 0.222108 0.892002 0.031474
Si Si2 0.982612 0.604927 0.890248
Si Si3 0.461556 0.407117 0.420472
Si Si4 0.680621 0.641024 0.962143
Si Si5 0.356717 0.133904 0.414784
Si Si6 0.245487 0.462245 0.725365
Si Si7 0.641270 0.782978 0.309518
O O1 0.374900 0.945860 0.052764
O O2 0.400482 0.859018 0.178848
O O3 0.121804 0.744333 0.961695
O O4 0.004250 0.985025 0.930584
O O5 0.795631 0.593020 0.738036
O O6 0.831149 0.618604 0.876468
O O7 0.151428 0.480630 0.970491
O O8 0.500000 0.500000 0.500000
O O9 0.510191 0.254363 0.467127
O O10 0.424945 0.580678 0.828229
O O11 0.690524 0.745131 0.908592
O O12 0.735920 0.679136 0.063669
O O13 0.201611 0.096205 0.274657
O O14 0.500000 0.000000 0.500000
O O15 0.353709 0.346340 0.735093
#
# Coordination Sequence:
#
# PCOD9240495 Si02
#       7
#     4   4   4   4   4   4   4
#     4  10  18  39  65  83 122 173 211 244 322 398
#     4  10  20  39  67  85 127 173 216 252 328 393
#     4  11  23  39  62 100 131 165 211 271 327 379
#     4  11  22  37  63  97 122 160 225 264 315 379
#     4  10  20  41  65  91 122 170 217 259 316 381
#     4  10  20  39  65  84 120 173 208 257 325 381
#     4  10  20  38  60  91 121 167 213 257 315 385
#
# _framework density 22.845362999999999
#
# number of rings (size 3 to 8) (size 9 to 14) (size 15 to 20)
#    0.000    1.714    5.714    1.286    2.000    0.571 
#    5.143    0.000    0.000    0.000    0.000    0.000 
#    0.000    0.000    0.000    0.000    0.000    0.000 
#
# Total GULP energy -156271.025808 kJ/mol
# GULP energy per Si atom -5581.108065 kJ/mol
# Density = 2.279337 g / cm^3
# Si number density = 22.845363 Si / 1000 Ang^3
#
#
#
# Elastic Constant Matrix: (Units=GPa)
#
#
# Indices 1 2 3 4 5 6 
#
# 1 109.3329 2.1075 52.6940 0.0000 -43.9280 0.0000
# 2 2.1075 30.0547 16.9558 0.0000 -3.1358 0.0000
# 3 52.6940 16.9558 75.8145 0.0000 1.6923 0.0000
# 4 0.0000 0.0000 0.0000 25.8662 0.0000 -7.2522
# 5 -43.9280 -3.1358 1.6923 0.0000 53.5875 0.0000
# 6 0.0000 0.0000 0.0000 -7.2522 0.0000 23.4312
#
#
#
# Elastic Compliance Matrix: (Units=1/GPa)
#
#
# Indices 1 2 3 4 5 6 
#
# 1 0.034986 0.016984 -0.028798 0.000000 0.030583 0.000000
# 2 0.016984 0.046660 -0.022628 0.000000 0.017368 0.000000
# 3 -0.028798 -0.022628 0.038850 0.000000 -0.026158 0.000000
# 4 0.000000 0.000000 0.000000 0.042334 0.000000 0.013103
# 5 0.030583 0.017368 -0.026158 0.000000 0.045574 0.000000
# 6 0.000000 0.000000 0.000000 0.013103 0.000000 0.046734
#
#
# Mechanical properties :
#
#
# Convention : Reuss Voigt Hill
#
# Bulk Modulus (GPa) = 19.37483 39.85743 29.61613
# Shear Modulus (GPa) = 14.65308 30.13995 22.39651
#
# Velocity S-wave (km/s) = 2.53534 3.63616 3.13446
# Velocity P-wave (km/s) = 4.13157 5.92565 5.10800
#
# Compressibility (1/GPa) = 0.05161336
#
# Stress axis : x y z
#
# Youngs Moduli (GPa) = 28.58270 21.43178 25.73976
#
# Poissons Ratio (x) = -0.36401 0.74125
# Poissons Ratio (y) = -0.48546 0.58244
# Poissons Ratio (z) = 0.82312 0.48496
#
# Static dielectric constant tensor:
#      x y z
#    x 1.945380 0.000000 -0.119370 
#    y 0.000000 1.853340 0.000000 
#    z -0.119370 0.000000 1.988070 
# 
# From -- ./inp_files/67348.got.cif
#   From: 2010.05.17/outbox.cif.g08.bks.cpg/sg14_34_cif.got.tgz:67348.got - 2010.06.03 17:49:19.
