data_PCOD9240416
_publ_section_title
;
Structure prediction by ZEFSAII (Michael W. Deem and Ramdas Pophale) SiO2 
 PCOD9240416
Probable space group: P 21/C
;
_chemical_formula_sum "Si O2"
_cell_formula_units_Z 32
_cell_length_a 16.781763
_cell_length_b 9.248162
_cell_length_c 12.279754
_cell_angle_alpha 90.000000
_cell_angle_beta 43.922752
_cell_angle_gamma 90.000000
_cell_volume 1322.046710
_symmetry_space_group_name_H-M "P 21/C"
_symmetry_group_IT_number 14
_symmetry_cell_setting 'monoclinic'
loop_
_space_group_symop_operation_xyz
x,y,z
-x,1/2+y,1/2-z
-x,-y,-z
x,1/2-y,1/2+z
loop_
_atom_site_type_symbol
_atom_site_label
_atom_site_fract_x
_atom_site_fract_y
_atom_site_fract_z
Si Si1 0.725757 0.152528 0.949324
Si Si2 0.868449 0.789166 0.949247
Si Si3 0.969517 0.526244 0.737446
Si Si4 0.920727 0.218996 0.133640
Si Si5 0.650732 0.887338 0.723049
Si Si6 0.469547 0.777978 0.505349
Si Si7 0.537791 0.034660 0.273806
Si Si8 0.808824 0.355826 0.051351
O O1 0.644304 0.211335 0.933550
O O2 0.651829 0.031896 0.085930
O O3 0.738463 0.277955 0.026589
O O4 0.852814 0.160071 0.771523
O O5 0.930389 0.690349 0.794638
O O6 0.902381 0.957002 0.896015
O O7 0.944793 0.753504 0.982053
O O8 0.741181 0.734047 0.093675
O O9 0.907991 0.442705 0.695998
O O10 0.910727 0.447344 0.897477
O O11 0.866597 0.236775 0.070370
O O12 0.572976 0.835488 0.899321
O O13 0.565785 0.927592 0.706930
O O14 0.725962 0.024264 0.682783
O O15 0.451863 0.844241 0.641392
O O16 0.509444 0.895287 0.374757
#
# Coordination Sequence:
#
# PCOD9240416 Si02
#       8
#     4   4   4   4   4   4   4   4
#     4  10  19  37  59  81 111 151 195 239 282 352
#     4   9  19  39  57  84 124 150 196 240 294 347
#     4   8  19  35  57  80 118 155 186 241 285 343
#     4   9  20  35  59  85 110 154 194 237 295 346
#     4  10  21  38  58  87 115 155 193 245 291 347
#     4  10  21  39  57  82 114 157 192 238 302 342
#     4  10  21  38  58  80 117 151 192 243 296 344
#     4  10  18  38  60  84 115 154 195 232 293 350
#
# _framework density 24.204893999999999
#
# number of rings (size 3 to 8) (size 9 to 14) (size 15 to 20)
#    0.750    1.750    1.250    0.750    0.000    3.000 
#    9.000    2.500    0.000    0.000    0.000    0.000 
#    0.000    0.000    0.000    0.000    0.000    0.000 
#
# Total GULP energy -178492.447369 kJ/mol
# GULP energy per Si atom -5577.888980 kJ/mol
# Density = 2.414980 g / cm^3
# Si number density = 24.204894 Si / 1000 Ang^3
#
#
#
# Elastic Constant Matrix: (Units=GPa)
#
#
# Indices 1 2 3 4 5 6 
#
# 1 79.9528 19.6942 29.7640 0.0000 -12.7263 0.0000
# 2 19.6942 65.3123 13.9395 0.0000 11.7303 0.0000
# 3 29.7640 13.9395 59.5990 0.0000 -7.1343 0.0000
# 4 0.0000 0.0000 0.0000 34.5610 0.0000 3.4323
# 5 -12.7263 11.7303 -7.1343 0.0000 36.5571 0.0000
# 6 0.0000 0.0000 0.0000 3.4323 0.0000 17.0226
#
#
#
# Elastic Compliance Matrix: (Units=1/GPa)
#
#
# Indices 1 2 3 4 5 6 
#
# 1 0.017197 -0.004877 -0.006700 0.000000 0.006244 0.000000
# 2 -0.004877 0.018920 -0.002989 0.000000 -0.008352 0.000000
# 3 -0.006700 -0.002989 0.021154 0.000000 0.002755 0.000000
# 4 0.000000 0.000000 0.000000 0.029526 0.000000 -0.005953
# 5 0.006244 -0.008352 0.002755 0.000000 0.032746 0.000000
# 6 0.000000 0.000000 0.000000 -0.005953 0.000000 0.059946
#
#
# Mechanical properties :
#
#
# Convention : Reuss Voigt Hill
#
# Bulk Modulus (GPa) = 35.53957 36.85107 36.19532
# Shear Modulus (GPa) = 22.93584 27.05923 24.99754
#
# Velocity S-wave (km/s) = 3.08160 3.34716 3.21712
# Velocity P-wave (km/s) = 5.23224 5.49506 5.36526
#
# Compressibility (1/GPa) = 0.02813765
#
# Stress axis : x y z
#
# Youngs Moduli (GPa) = 58.15044 52.85498 47.27280
#
# Poissons Ratio (x) = 0.25777 0.31673
# Poissons Ratio (y) = 0.28360 0.14131
# Poissons Ratio (z) = 0.38961 0.15800
#
# Static dielectric constant tensor:
#      x y z
#    x 1.910390 0.000000 -0.000050 
#    y 0.000000 1.970170 0.000000 
#    z -0.000050 0.000000 1.982980 
# 
# From -- ./inp_files/33820.got.cif
#   From: 2010.05.17/outbox.cif.g08.bks.cpg/sg14_17_cif.got.tgz:33820.got - 2010.06.03 17:49:19.
