data_PCOD9240080
_publ_section_title
;
Structure prediction by ZEFSAII (Michael W. Deem and Ramdas Pophale) SiO2 
 PCOD9240080
Probable space group: P 21/C
;
_chemical_formula_sum "Si O2"
_cell_formula_units_Z 24
_cell_length_a 15.712502
_cell_length_b 15.493324
_cell_length_c 8.695432
_cell_angle_alpha 90.000000
_cell_angle_beta 33.884483
_cell_angle_gamma 90.000000
_cell_volume 1180.162469
_symmetry_space_group_name_H-M "P 21/C"
_symmetry_group_IT_number 14
_symmetry_cell_setting 'monoclinic'
loop_
_space_group_symop_operation_xyz
x,y,z
-x,1/2+y,1/2-z
-x,-y,-z
x,1/2-y,1/2+z
loop_
_atom_site_type_symbol
_atom_site_label
_atom_site_fract_x
_atom_site_fract_y
_atom_site_fract_z
Si Si1 0.499976 0.713881 0.194831
Si Si2 0.171431 0.350056 0.286410
Si Si3 0.500003 0.875779 0.376323
Si Si4 0.171367 0.649948 0.699377
Si Si5 0.241789 0.499994 0.387331
Si Si6 0.000035 0.249993 0.793721
O O1 0.499988 0.815466 0.228581
O O2 0.345558 0.668447 0.486440
O O3 0.654364 0.668432 0.023245
O O4 0.499996 0.693123 0.014537
O O5 0.154629 0.442542 0.392785
O O6 0.131547 0.283288 0.483661
O O7 0.060526 0.326006 0.313182
O O8 0.353182 0.935607 0.625282
O O9 0.646844 0.935593 0.184754
O O10 0.154600 0.557451 0.643387
O O11 0.131486 0.716698 0.621754
O O12 0.060444 0.674006 0.005349
#
# Coordination Sequence:
#
# PCOD9240080 Si02
#       6
#     4   4   4   4   4   4
#     4  10  18  34  60  78 100 140 184 214 256 324
#     4  10  20  36  56  79 107 141 180 222 265 317
#     4   9  18  32  56  85 106 134 178 227 266 306
#     4  10  20  36  56  79 107 141 180 222 265 317
#     4   9  18  32  54  80 110 139 174 222 272 309
#     4  10  22  36  54  80 110 144 180 216 268 324
#
# _framework density 20.336183999999999
#
# number of rings (size 3 to 8) (size 9 to 14) (size 15 to 20)
#    0.000    2.333    0.000    5.000    0.000    1.333 
#    0.000    0.000    0.000   50.000    0.000    0.000 
#    0.000    1.333    0.000    0.000    0.000    0.000 
#
# Total GULP energy -133850.103028 kJ/mol
# GULP energy per Si atom -5577.087626 kJ/mol
# Density = 2.028990 g / cm^3
# Si number density = 20.336184 Si / 1000 Ang^3
#
#
#
# Elastic Constant Matrix: (Units=GPa)
#
#
# Indices 1 2 3 4 5 6 
#
# 1 27.6072 9.8426 17.5179 0.0000 5.7288 0.0000
# 2 9.8426 86.3260 -0.9826 0.0000 13.2086 0.0000
# 3 17.5179 -0.9826 31.2587 0.0000 -10.1867 0.0000
# 4 0.0000 0.0000 0.0000 27.3239 0.0000 2.9233
# 5 5.7288 13.2086 -10.1867 0.0000 22.1412 0.0000
# 6 0.0000 0.0000 0.0000 2.9233 0.0000 29.7350
#
#
#
# Elastic Compliance Matrix: (Units=1/GPa)
#
#
# Indices 1 2 3 4 5 6 
#
# 1 0.092982 -0.003074 -0.069933 0.000000 -0.054399 0.000000
# 2 -0.003074 0.013010 -0.000163 0.000000 -0.007041 0.000000
# 3 -0.069933 -0.000163 0.090705 0.000000 0.059923 0.000000
# 4 0.000000 0.000000 0.000000 0.036987 0.000000 -0.003636
# 5 -0.054399 -0.007041 0.059923 0.000000 0.091009 0.000000
# 6 0.000000 0.000000 0.000000 -0.003636 0.000000 0.033988
#
#
# Mechanical properties :
#
#
# Convention : Reuss Voigt Hill
#
# Bulk Modulus (GPa) = 19.85784 21.99417 20.92600
# Shear Modulus (GPa) = 9.58211 23.76097 16.67154
#
# Velocity S-wave (km/s) = 2.17303 3.42191 2.86632
# Velocity P-wave (km/s) = 4.01025 5.14309 4.61159
#
# Compressibility (1/GPa) = 0.05035796
#
# Stress axis : x y z
#
# Youngs Moduli (GPa) = 10.75479 76.86447 11.02473
#
# Poissons Ratio (x) = 0.23628 0.77099
# Poissons Ratio (y) = 0.03306 0.00179
# Poissons Ratio (z) = 0.75211 0.01251
#
# Static dielectric constant tensor:
#      x y z
#    x 1.719880 0.000000 -0.029480 
#    y 0.000000 1.742730 0.000000 
#    z -0.029480 0.000000 1.744000 
# 
# From -- ./inp_files/12617.got.cif
#   From: 2010.05.17/outbox.cif.g08.bks.cpg/sg14_7_cif.got.tgz:12617.got - 2010.06.03 17:49:19.
