data_PCOD9240190
_publ_section_title
;
Structure prediction by ZEFSAII (Michael W. Deem and Ramdas Pophale) SiO2 
 PCOD9240190
Probable space group: P 21/C
;
_chemical_formula_sum "Si O2"
_cell_formula_units_Z 32
_cell_length_a 18.954712
_cell_length_b 9.101643
_cell_length_c 23.355599
_cell_angle_alpha 90.000000
_cell_angle_beta 155.789455
_cell_angle_gamma 90.000000
_cell_volume 1652.373142
_symmetry_space_group_name_H-M "P 21/C"
_symmetry_group_IT_number 14
_symmetry_cell_setting 'monoclinic'
loop_
_space_group_symop_operation_xyz
x,y,z
-x,1/2+y,1/2-z
-x,-y,-z
x,1/2-y,1/2+z
loop_
_atom_site_type_symbol
_atom_site_label
_atom_site_fract_x
_atom_site_fract_y
_atom_site_fract_z
Si Si1 0.270020 0.266828 0.740874
Si Si2 0.521291 0.506579 0.947474
Si Si3 0.961506 0.318903 0.792738
Si Si4 0.882261 0.722750 0.485277
Si Si5 0.318087 0.976027 0.836269
Si Si6 0.929787 0.109383 0.036575
Si Si7 0.745342 0.258041 0.299205
Si Si8 0.077805 0.472915 0.765002
O O1 0.453331 0.346053 0.878723
O O2 0.235078 0.212861 0.651026
O O3 0.115510 0.379914 0.642008
O O4 0.246510 0.136341 0.768281
O O5 0.392252 0.619754 0.821390
O O6 0.500000 0.500000 0.000000
O O7 0.717132 0.550927 0.081896
O O8 0.798781 0.384681 0.706210
O O9 0.112722 0.311609 0.952261
O O10 0.001122 0.417896 0.767695
O O11 0.939787 0.147893 0.759355
O O12 0.844267 0.550696 0.465473
O O13 0.076677 0.723159 0.604318
O O14 0.327565 0.891307 0.782402
O O15 0.500000 0.000000 0.000000
O O16 0.983023 0.113278 0.142718
O O17 0.807052 0.222658 0.910907
#
# Coordination Sequence:
#
# PCOD9240190 Si02
#       8
#     4   4   4   4   4   4   4   4
#     4  11  19  33  65  89 123 153 198 257 315 344
#     4  12  19  34  63  95 113 153 208 248 293 365
#     4  10  24  42  58  86 125 161 209 242 304 373
#     4   9  17  37  60  90 118 151 196 261 295 361
#     4  11  24  38  58  95 129 153 199 270 305 345
#     4  10  18  35  60  93 114 158 200 246 302 365
#     4  10  19  34  58  87 123 147 195 249 301 356
#     4  11  24  39  64  86 121 167 203 252 299 369
#
# _framework density 19.366085000000002
#
# number of rings (size 3 to 8) (size 9 to 14) (size 15 to 20)
#    0.000    1.500    3.750    3.750    1.750    4.500 
#    0.000    0.000    5.500    0.000    0.000    0.000 
#    0.000    0.000    0.000    0.000    0.000    0.000 
#
# Total GULP energy -178316.049023 kJ/mol
# GULP energy per Si atom -5572.376532 kJ/mol
# Density = 1.932201 g / cm^3
# Si number density = 19.366085 Si / 1000 Ang^3
#
#
#
# Elastic Constant Matrix: (Units=GPa)
#
#
# Indices 1 2 3 4 5 6 
#
# 1 89.1732 29.6882 55.3458 0.0000 -30.8620 0.0000
# 2 29.6882 69.1063 42.2074 0.0000 -11.5884 0.0000
# 3 55.3458 42.2074 133.7795 0.0000 -31.8126 0.0000
# 4 0.0000 0.0000 0.0000 24.3161 0.0000 -9.6141
# 5 -30.8620 -11.5884 -31.8126 0.0000 23.3830 0.0000
# 6 0.0000 0.0000 0.0000 -9.6141 0.0000 25.3809
#
#
#
# Elastic Compliance Matrix: (Units=1/GPa)
#
#
# Indices 1 2 3 4 5 6 
#
# 1 0.022477 -0.004238 -0.002079 0.000000 0.024736 0.000000
# 2 -0.004238 0.018772 -0.004859 0.000000 -0.002901 0.000000
# 3 -0.002079 -0.004859 0.012777 0.000000 0.012230 0.000000
# 4 0.000000 0.000000 0.000000 0.048369 0.000000 0.018322
# 5 0.024736 -0.002901 0.012230 0.000000 0.090616 0.000000
# 6 0.000000 0.000000 0.000000 0.018322 0.000000 0.046340
#
#
# Mechanical properties :
#
#
# Convention : Reuss Voigt Hill
#
# Bulk Modulus (GPa) = 31.57319 60.72686 46.15003
# Shear Modulus (GPa) = 18.36471 25.60384 21.98427
#
# Velocity S-wave (km/s) = 3.08278 3.64001 3.37292
# Velocity P-wave (km/s) = 5.38610 7.00654 6.24907
#
# Compressibility (1/GPa) = 0.03167244
#
# Stress axis : x y z
#
# Youngs Moduli (GPa) = 44.49051 53.26942 78.26785
#
# Poissons Ratio (x) = 0.22575 0.16275
# Poissons Ratio (y) = 0.18855 0.38033
# Poissons Ratio (z) = 0.09252 0.25885
#
# Static dielectric constant tensor:
#      x y z
#    x 1.457960 0.000000 -1.049640 
#    y 0.000000 1.712190 0.000000 
#    z -1.049640 0.000000 -3.399760 
# 
# From -- ./inp_files/78151.got.cif
#   From: 2010.05.17/outbox.cif.g08.bks.cpg/sg14_40_cif.got.tgz:78151.got - 2010.06.03 17:49:19.
