data_PCOD9240886
_publ_section_title
;
Structure prediction by ZEFSAII (Michael W. Deem and Ramdas Pophale) SiO2 
 PCOD9240886
Probable space group: P 21/C
;
_chemical_formula_sum "Si O2"
_cell_formula_units_Z 20
_cell_length_a 7.293472
_cell_length_b 5.554365
_cell_length_c 19.935464
_cell_angle_alpha 90.000000
_cell_angle_beta 58.134726
_cell_angle_gamma 90.000000
_cell_volume 685.886128
_symmetry_space_group_name_H-M "P 21/C"
_symmetry_group_IT_number 14
_symmetry_cell_setting 'monoclinic'
loop_
_space_group_symop_operation_xyz
x,y,z
-x,1/2+y,1/2-z
-x,-y,-z
x,1/2-y,1/2+z
loop_
_atom_site_type_symbol
_atom_site_label
_atom_site_fract_x
_atom_site_fract_y
_atom_site_fract_z
Si Si1 0.958291 0.735278 0.586548
Si Si2 0.640565 0.750971 0.873328
Si Si3 0.603455 0.247864 0.205754
Si Si4 0.065530 0.496852 0.781993
Si Si5 0.215285 0.261343 0.013735
O O1 0.079722 0.484770 0.552171
O O2 0.897214 0.773828 0.675401
O O3 0.759546 0.747421 0.571798
O O4 0.101572 0.976809 0.545230
O O5 0.429434 0.743070 0.868320
O O6 0.787568 0.962654 0.811795
O O7 0.611586 0.753942 0.958934
O O8 0.810424 0.535317 0.825276
O O9 0.490666 0.494066 0.252854
O O10 0.837463 0.285229 0.192918
#
# Coordination Sequence:
#
# PCOD9240886 Si02
#       5
#     4   4   4   4   4
#     4   9  18  32  51  76 105 136 171 213 259 306
#     4  10  19  33  56  80 104 139 177 215 260 313
#     4  10  22  36  51  78 111 136 170 222 266 304
#     4  10  19  33  56  80 104 139 177 215 260 313
#     4   9  18  32  51  76 105 136 171 213 259 306
#
# _framework density 29.15936
#
# number of rings (size 3 to 8) (size 9 to 14) (size 15 to 20)
#    0.000    2.400    0.000    2.400    0.000    9.600 
#    0.000    1.000    0.000    0.000    0.000   49.000 
#    0.000    0.000    0.000    0.000    0.000    0.000 
#
# Total GULP energy -111716.899514 kJ/mol
# GULP energy per Si atom -5585.844976 kJ/mol
# Density = 2.909299 g / cm^3
# Si number density = 29.159360 Si / 1000 Ang^3
#
#
#
# Elastic Constant Matrix: (Units=GPa)
#
#
# Indices 1 2 3 4 5 6 
#
# 1 72.7674 46.6556 56.9886 0.0000 39.1756 0.0000
# 2 46.6556 226.0659 48.8256 0.0000 -16.0160 0.0000
# 3 56.9886 48.8256 90.7703 0.0000 49.4339 0.0000
# 4 0.0000 0.0000 0.0000 52.5128 0.0000 -14.4834
# 5 39.1756 -16.0160 49.4339 0.0000 66.7187 0.0000
# 6 0.0000 0.0000 0.0000 -14.4834 0.0000 60.3332
#
#
#
# Elastic Compliance Matrix: (Units=1/GPa)
#
#
# Indices 1 2 3 4 5 6 
#
# 1 0.031886 -0.005111 -0.010738 0.000000 -0.011993 0.000000
# 2 -0.005111 0.007305 -0.005549 0.000000 0.008866 0.000000
# 3 -0.010738 -0.005549 0.030235 0.000000 -0.017429 0.000000
# 4 0.000000 0.000000 0.000000 0.020393 0.000000 0.004896
# 5 -0.011993 0.008866 -0.017429 0.000000 0.037073 0.000000
# 6 0.000000 0.000000 0.000000 0.004896 0.000000 0.017750
#
#
# Mechanical properties :
#
#
# Convention : Reuss Voigt Hill
#
# Bulk Modulus (GPa) = 37.55170 77.17146 57.36158
# Shear Modulus (GPa) = 25.46930 51.72185 38.59558
#
# Velocity S-wave (km/s) = 2.95863 4.21618 3.64209
# Velocity P-wave (km/s) = 4.95756 7.08692 6.11563
#
# Compressibility (1/GPa) = 0.02662995
#
# Stress axis : x y z
#
# Youngs Moduli (GPa) = 31.36158 136.89462 33.07400
#
# Poissons Ratio (x) = 0.69969 0.35515
# Poissons Ratio (y) = 0.16029 0.18352
# Poissons Ratio (z) = 0.33677 0.75960
#
# Static dielectric constant tensor:
#      x y z
#    x 2.316440 0.000000 0.009350 
#    y 0.000000 2.250240 0.000000 
#    z 0.009350 0.000000 2.279090 
# 
# From -- ./inp_files/64126.got.cif
#   From: 2010.05.17/outbox.cif.g08.bks.cpg/sg14_33_cif.got.tgz:64126.got - 2010.06.03 17:49:19.
