data_PCOD9240332
_publ_section_title
;
Structure prediction by ZEFSAII (Michael W. Deem and Ramdas Pophale) SiO2 
 PCOD9240332
Probable space group: P 21/C
;
_chemical_formula_sum "Si O2"
_cell_formula_units_Z 32
_cell_length_a 11.237943
_cell_length_b 16.685075
_cell_length_c 11.523127
_cell_angle_alpha 90.000000
_cell_angle_beta 49.172980
_cell_angle_gamma 90.000000
_cell_volume 1634.938834
_symmetry_space_group_name_H-M "P 21/C"
_symmetry_group_IT_number 14
_symmetry_cell_setting 'monoclinic'
loop_
_space_group_symop_operation_xyz
x,y,z
-x,1/2+y,1/2-z
-x,-y,-z
x,1/2-y,1/2+z
loop_
_atom_site_type_symbol
_atom_site_label
_atom_site_fract_x
_atom_site_fract_y
_atom_site_fract_z
Si Si1 0.525323 0.401048 0.211312
Si Si2 0.196319 0.577332 0.558131
Si Si3 0.498208 0.861262 0.005975
Si Si4 0.338614 0.954936 0.725641
Si Si5 0.858196 0.442270 0.010523
Si Si6 0.445802 0.325111 0.039076
Si Si7 0.156052 0.423535 0.172220
Si Si8 0.810124 0.550968 0.257165
O O1 0.498406 0.394753 0.364933
O O2 0.472409 0.487835 0.197053
O O3 0.710629 0.388627 0.072880
O O4 0.436259 0.339977 0.183885
O O5 0.338341 0.617219 0.540010
O O6 0.242379 0.579574 0.394672
O O7 0.187038 0.486445 0.615628
O O8 0.018560 0.607313 0.688737
O O9 0.514583 0.766329 0.006687
O O10 0.649204 0.900836 0.845718
O O11 0.424523 0.886886 0.595454
O O12 0.226984 0.013086 0.721009
O O13 0.826601 0.474801 0.160021
O O14 0.852162 0.523378 0.938245
O O15 0.027412 0.403924 0.876671
O O16 0.281970 0.352710 0.087309
#
# Coordination Sequence:
#
# PCOD9240332 Si02
#       8
#     4   4   4   4   4   4   4   4
#     4  11  20  41  64  87 117 161 215 250 300 375
#     4  11  22  37  64  91 119 153 211 261 298 363
#     4  12  25  40  59  93 130 163 199 259 330 367
#     4  11  20  40  67  89 119 165 210 258 297 371
#     4  10  18  36  66  88 115 148 214 254 292 352
#     4  11  25  40  60  88 128 169 199 251 321 381
#     4  10  21  40  62  90 117 160 211 253 299 363
#     4  10  21  36  60  93 117 157 198 258 306 359
#
# _framework density 19.572596999999998
#
# number of rings (size 3 to 8) (size 9 to 14) (size 15 to 20)
#    0.000    1.250    5.000    2.250    1.750    0.000 
#    2.250    0.000    0.000    0.000    0.000    0.000 
#    0.000    0.000    0.000    0.000    0.000    0.000 
#
# Total GULP energy -178490.948511 kJ/mol
# GULP energy per Si atom -5577.842141 kJ/mol
# Density = 1.952805 g / cm^3
# Si number density = 19.572597 Si / 1000 Ang^3
#
#
#
# Elastic Constant Matrix: (Units=GPa)
#
#
# Indices 1 2 3 4 5 6 
#
# 1 88.5224 18.9786 42.0926 0.0000 -17.1409 0.0000
# 2 18.9786 55.4928 21.2075 0.0000 -13.1669 0.0000
# 3 42.0926 21.2075 109.6592 0.0000 -20.2396 0.0000
# 4 0.0000 0.0000 0.0000 11.3455 0.0000 0.0171
# 5 -17.1409 -13.1669 -20.2396 0.0000 46.4202 0.0000
# 6 0.0000 0.0000 0.0000 0.0171 0.0000 8.8313
#
#
#
# Elastic Compliance Matrix: (Units=1/GPa)
#
#
# Indices 1 2 3 4 5 6 
#
# 1 0.014548 -0.002594 -0.004597 0.000000 0.002632 0.000000
# 2 -0.002594 0.020711 -0.002286 0.000000 0.003920 0.000000
# 3 -0.004597 -0.002286 0.011846 0.000000 0.002819 0.000000
# 4 0.000000 0.000000 0.000000 0.088141 0.000000 -0.000170
# 5 0.002632 0.003920 0.002819 0.000000 0.024855 0.000000
# 6 0.000000 0.000000 0.000000 -0.000170 0.000000 0.113235
#
#
# Mechanical properties :
#
#
# Convention : Reuss Voigt Hill
#
# Bulk Modulus (GPa) = 35.52252 46.47020 40.99636
# Shear Modulus (GPa) = 16.57415 24.74576 20.65996
#
# Velocity S-wave (km/s) = 2.91315 3.55957 3.25246
# Velocity P-wave (km/s) = 5.43173 6.37872 5.92418
#
# Compressibility (1/GPa) = 0.02815115
#
# Stress axis : x y z
#
# Youngs Moduli (GPa) = 68.73697 48.28265 84.41588
#
# Poissons Ratio (x) = 0.12526 0.38805
# Poissons Ratio (y) = 0.17832 0.19299
# Poissons Ratio (z) = 0.31597 0.11038
#
# Static dielectric constant tensor:
#      x y z
#    x 1.738070 0.000000 -0.016920 
#    y 0.000000 1.655070 0.000000 
#    z -0.016920 0.000000 1.731860 
# 
# From -- ./inp_files/30426.got.cif
#   From: 2010.05.17/outbox.cif.g08.bks.cpg/sg14_16_cif.got.tgz:30426.got - 2010.06.03 17:49:19.
