data_PCOD9240883
_publ_section_title
;
Structure prediction by ZEFSAII (Michael W. Deem and Ramdas Pophale) SiO2 
 PCOD9240883
Probable space group: P 21/C
;
_chemical_formula_sum "Si O2"
_cell_formula_units_Z 32
_cell_length_a 18.462093
_cell_length_b 10.843266
_cell_length_c 9.283769
_cell_angle_alpha 90.000000
_cell_angle_beta 46.512538
_cell_angle_gamma 90.000000
_cell_volume 1348.396899
_symmetry_space_group_name_H-M "P 21/C"
_symmetry_group_IT_number 14
_symmetry_cell_setting 'monoclinic'
loop_
_space_group_symop_operation_xyz
x,y,z
-x,1/2+y,1/2-z
-x,-y,-z
x,1/2-y,1/2+z
loop_
_atom_site_type_symbol
_atom_site_label
_atom_site_fract_x
_atom_site_fract_y
_atom_site_fract_z
Si Si1 0.333595 0.099308 0.349355
Si Si2 0.488185 0.915431 0.293839
Si Si3 0.801376 0.260998 0.865323
Si Si4 0.176680 0.483584 0.251041
Si Si5 0.335189 0.942549 0.077474
Si Si6 0.933547 0.283397 0.936023
Si Si7 0.489694 0.741303 0.521838
Si Si8 0.984867 0.486938 0.308700
O O1 0.414010 0.015033 0.325282
O O2 0.245382 0.120493 0.585203
O O3 0.290487 0.025366 0.269002
O O4 0.399947 0.206655 0.188219
O O5 0.467371 0.873648 0.484789
O O6 0.482996 0.791759 0.199190
O O7 0.597657 0.970374 0.114943
O O8 0.762012 0.388409 0.850885
O O9 0.736556 0.142372 0.918957
O O10 0.827644 0.284271 0.994886
O O11 0.905221 0.241932 0.638103
O O12 0.123438 0.474874 0.477532
O O13 0.079142 0.504857 0.285662
O O14 0.410854 0.852654 0.059186
O O15 0.983773 0.161192 0.800696
O O16 0.990708 0.411676 0.844496
#
# Coordination Sequence:
#
# PCOD9240883 Si02
#       8
#     4   4   4   4   4   4   4   4
#     4   9  17  32  52  73 100 138 175 210 258 314
#     4   9  18  33  51  73 105 137 171 213 258 311
#     4  10  19  33  56  80 102 133 176 220 257 308
#     4   9  17  33  55  76 102 137 177 215 259 311
#     4   9  17  31  52  76 101 135 176 215 255 304
#     4  10  21  37  56  80 108 137 175 220 269 320
#     4   9  18  32  50  72 103 139 170 207 261 313
#     4   9  19  35  54  78 107 138 173 220 269 314
#
# _framework density 23.731884999999998
#
# number of rings (size 3 to 8) (size 9 to 14) (size 15 to 20)
#    0.000    2.750    0.000    4.500    0.000    1.500 
#    0.000   10.000    0.000    0.000    0.000    0.000 
#    0.000    0.000    0.000    0.000    0.000    0.000 
#
# Total GULP energy -178419.532392 kJ/mol
# GULP energy per Si atom -5575.610387 kJ/mol
# Density = 2.367787 g / cm^3
# Si number density = 23.731885 Si / 1000 Ang^3
#
#
#
# Elastic Constant Matrix: (Units=GPa)
#
#
# Indices 1 2 3 4 5 6 
#
# 1 44.2890 11.4266 9.0824 0.0000 2.8295 0.0000
# 2 11.4266 40.5189 8.3524 0.0000 3.0250 0.0000
# 3 9.0824 8.3524 51.4208 0.0000 -2.9015 0.0000
# 4 0.0000 0.0000 0.0000 37.9311 0.0000 0.3370
# 5 2.8295 3.0250 -2.9015 0.0000 16.4894 0.0000
# 6 0.0000 0.0000 0.0000 0.3370 0.0000 30.2776
#
#
#
# Elastic Compliance Matrix: (Units=1/GPa)
#
#
# Indices 1 2 3 4 5 6 
#
# 1 0.025138 -0.006044 -0.003676 0.000000 -0.003852 0.000000
# 2 -0.006044 0.027486 -0.003659 0.000000 -0.004649 0.000000
# 3 -0.003676 -0.003659 0.020973 0.000000 0.004992 0.000000
# 4 0.000000 0.000000 0.000000 0.026366 0.000000 -0.000293
# 5 -0.003852 -0.004649 0.004992 0.000000 0.063038 0.000000
# 6 0.000000 0.000000 0.000000 -0.000293 0.000000 0.033031
#
#
# Mechanical properties :
#
#
# Convention : Reuss Voigt Hill
#
# Bulk Modulus (GPa) = 21.34992 21.55017 21.45004
# Shear Modulus (GPa) = 20.97298 24.09745 22.53521
#
# Velocity S-wave (km/s) = 2.97601 3.19000 3.08486
# Velocity P-wave (km/s) = 4.56341 4.76115 4.66333
#
# Compressibility (1/GPa) = 0.04683858
#
# Stress axis : x y z
#
# Youngs Moduli (GPa) = 39.78018 36.38260 47.68095
#
# Poissons Ratio (x) = 0.21989 0.17526
# Poissons Ratio (y) = 0.24043 0.17448
# Poissons Ratio (z) = 0.14622 0.13314
#
# Static dielectric constant tensor:
#      x y z
#    x 1.904230 0.000000 -0.015080 
#    y 0.000000 1.990160 0.000000 
#    z -0.015080 0.000000 1.956520 
# 
# From -- ./inp_files/32200.got.cif
#   From: 2010.05.17/outbox.cif.g08.bks.cpg/sg14_17_cif.got.tgz:32200.got - 2010.06.03 17:49:19.
