data_PCOD9240976
_publ_section_title
;
Structure prediction by ZEFSAII (Michael W. Deem and Ramdas Pophale) SiO2 
 PCOD9240976
Probable space group: P 21/C
;
_chemical_formula_sum "Si O2"
_cell_formula_units_Z 28
_cell_length_a 5.473802
_cell_length_b 13.455207
_cell_length_c 19.162925
_cell_angle_alpha 90.000000
_cell_angle_beta 61.097731
_cell_angle_gamma 90.000000
_cell_volume 1235.578453
_symmetry_space_group_name_H-M "P 21/C"
_symmetry_group_IT_number 14
_symmetry_cell_setting 'monoclinic'
loop_
_space_group_symop_operation_xyz
x,y,z
-x,1/2+y,1/2-z
-x,-y,-z
x,1/2-y,1/2+z
loop_
_atom_site_type_symbol
_atom_site_label
_atom_site_fract_x
_atom_site_fract_y
_atom_site_fract_z
Si Si1 0.896822 0.705940 0.727295
Si Si2 0.968921 0.919150 0.859904
Si Si3 0.512534 0.813591 0.006752
Si Si4 0.883233 0.606186 0.584104
Si Si5 0.617001 0.346413 0.885507
Si Si6 0.033655 0.978386 0.283495
Si Si7 0.562201 0.879974 0.729100
O O1 0.714070 0.804493 0.759342
O O2 0.787711 0.649765 0.672837
O O3 0.191108 0.753799 0.665007
O O4 0.925779 0.632566 0.788383
O O5 0.240913 0.867766 0.790909
O O6 0.891617 0.992179 0.807057
O O7 0.075942 0.988703 0.908497
O O8 0.723735 0.848493 0.917857
O O9 0.200838 0.851906 0.031669
O O10 0.494566 0.695280 0.026104
O O11 0.665672 0.863438 0.054021
O O12 0.381035 0.353821 0.859255
O O13 0.804370 0.446206 0.849685
O O14 0.321440 0.008450 0.280480
#
# Coordination Sequence:
#
# PCOD9240976 Si02
#       7
#     4   4   4   4   4   4   4
#     4   9  18  34  54  76 109 142 182 229 268 322
#     4  10  22  31  51  82 110 144 177 224 269 333
#     4  11  21  35  54  80 116 148 179 218 272 329
#     4  10  21  33  54  79 115 149 179 212 272 333
#     4   9  19  33  51  79 104 144 184 218 272 324
#     4   9  20  34  52  79 106 145 181 229 269 327
#     4  10  19  34  52  75 110 139 189 223 275 322
#
# _framework density 22.661449999999999
#
# number of rings (size 3 to 8) (size 9 to 14) (size 15 to 20)
#    0.000    2.286    1.429    0.857    8.000    1.143 
#    0.000    0.000    0.000    0.857    0.000   10.000 
#    0.000    0.000    0.000    0.000    0.000    0.000 
#
# Total GULP energy -156019.057256 kJ/mol
# GULP energy per Si atom -5572.109188 kJ/mol
# Density = 2.260987 g / cm^3
# Si number density = 22.661450 Si / 1000 Ang^3
#
#
#
# Elastic Constant Matrix: (Units=GPa)
#
#
# Indices 1 2 3 4 5 6 
#
# 1 71.5515 3.8945 6.9881 0.0000 -4.1229 0.0000
# 2 3.8945 34.5308 -22.3565 0.0000 -1.2295 0.0000
# 3 6.9881 -22.3565 18.0740 0.0000 1.2121 0.0000
# 4 0.0000 0.0000 0.0000 20.5294 0.0000 4.0374
# 5 -4.1229 -1.2295 1.2121 0.0000 27.2434 0.0000
# 6 0.0000 0.0000 0.0000 4.0374 0.0000 30.7005
#
#
#
# Elastic Compliance Matrix: (Units=1/GPa)
#
#
# Indices 1 2 3 4 5 6 
#
# 1 0.022203 -0.040644 -0.059137 0.000000 0.004157 0.000000
# 2 -0.040644 0.219864 0.288280 0.000000 -0.009055 0.000000
# 3 -0.059137 0.288280 0.435806 0.000000 -0.015329 0.000000
# 4 0.000000 0.000000 0.000000 0.050004 0.000000 -0.006576
# 5 0.004157 -0.009055 -0.015329 0.000000 0.037609 0.000000
# 6 0.000000 0.000000 0.000000 -0.006576 0.000000 0.033438
#
#
# Mechanical properties :
#
#
# Convention : Reuss Voigt Hill
#
# Bulk Modulus (GPa) = 0.94798 11.24540 6.09669
# Shear Modulus (GPa) = 6.46371 24.73668 15.60020
#
# Velocity S-wave (km/s) = 1.69071 3.30748 2.62659
# Velocity P-wave (km/s) = 2.05683 4.42256 3.44888
#
# Compressibility (1/GPa) = 1.05487137
#
# Stress axis : x y z
#
# Youngs Moduli (GPa) = 45.03829 4.54827 2.29460
#
# Poissons Ratio (x) = 0.18486 0.13570
# Poissons Ratio (y) = 1.83052 -0.66149
# Poissons Ratio (z) = 2.66344 -1.31118
#
# Static dielectric constant tensor:
#      x y z
#    x 1.905860 0.000000 0.024930 
#    y 0.000000 1.937530 0.000000 
#    z 0.024930 0.000000 1.903610 
# 
# From -- ./inp_files/53170.got.cif
#   From: 2010.05.17/outbox.cif.g08.bks.cpg/sg14_27_cif.got.tgz:53170.got - 2010.06.03 17:49:19.
