data_PCOD9240611
_publ_section_title
;
Structure prediction by ZEFSAII (Michael W. Deem and Ramdas Pophale) SiO2 
 PCOD9240611
Probable space group: P 21/C
;
_chemical_formula_sum "Si O2"
_cell_formula_units_Z 28
_cell_length_a 5.434410
_cell_length_b 12.496218
_cell_length_c 24.479500
_cell_angle_alpha 90.000000
_cell_angle_beta 107.331350
_cell_angle_gamma 90.000000
_cell_volume 1586.916339
_symmetry_space_group_name_H-M "P 21/C"
_symmetry_group_IT_number 14
_symmetry_cell_setting 'monoclinic'
loop_
_space_group_symop_operation_xyz
x,y,z
-x,1/2+y,1/2-z
-x,-y,-z
x,1/2-y,1/2+z
loop_
_atom_site_type_symbol
_atom_site_label
_atom_site_fract_x
_atom_site_fract_y
_atom_site_fract_z
Si Si1 0.163793 0.440590 0.931361
Si Si2 0.770770 0.521109 0.743845
Si Si3 0.673289 0.922878 0.436687
Si Si4 0.977944 0.320752 0.816683
Si Si5 0.140767 0.237771 0.213571
Si Si6 0.756506 0.092254 0.780120
Si Si7 0.428175 0.777499 0.333129
O O1 0.418612 0.503864 0.928321
O O2 0.911065 0.516494 0.922412
O O3 0.103330 0.352948 0.881640
O O4 0.225758 0.396434 0.995860
O O5 0.804739 0.420449 0.785484
O O6 0.834041 0.633025 0.778861
O O7 0.479221 0.536839 0.705440
O O8 0.989735 0.521533 0.711599
O O9 0.572746 0.823623 0.394842
O O10 0.829598 0.208037 0.809214
O O11 0.168880 0.305385 0.777211
O O12 0.368317 0.208289 0.188036
O O13 0.845635 0.220022 0.175550
O O14 0.650995 0.122954 0.712187
#
# Coordination Sequence:
#
# PCOD9240611 Si02
#       7
#     4   4   4   4   4   4   4
#     4  10  20  29  45  69  94 127 165 190 224 294
#     4   9  17  29  43  61  91 122 144 188 238 269
#     4  10  19  31  45  67  94 130 165 185 227 292
#     4  10  19  32  49  68 100 129 155 198 245 277
#     4   9  19  28  44  68  86 117 164 189 227 292
#     4   9  19  28  42  68  87 117 164 185 224 294
#     4   9  15  29  42  57  90 116 145 196 221 255
#
# _framework density 17.644283999999999
#
# number of rings (size 3 to 8) (size 9 to 14) (size 15 to 20)
#    0.000    2.857    0.000    4.286    0.000    9.143 
#    0.000    0.000    0.000    0.000    0.000    0.000 
#    0.000   37.714    0.000    0.000    0.000    5.857 
#
# Total GULP energy -155905.139514 kJ/mol
# GULP energy per Si atom -5568.040697 kJ/mol
# Density = 1.760412 g / cm^3
# Si number density = 17.644284 Si / 1000 Ang^3
#
#
#
# Elastic Constant Matrix: (Units=GPa)
#
#
# Indices 1 2 3 4 5 6 
#
# 1 129.6433 40.9089 28.1599 0.0000 3.0613 0.0000
# 2 40.9089 57.4378 44.9091 0.0000 6.4117 0.0000
# 3 28.1599 44.9091 104.7045 0.0000 5.4873 0.0000
# 4 0.0000 0.0000 0.0000 24.0256 0.0000 2.0889
# 5 3.0613 6.4117 5.4873 0.0000 9.8010 0.0000
# 6 0.0000 0.0000 0.0000 2.0889 0.0000 6.2456
#
#
#
# Elastic Compliance Matrix: (Units=1/GPa)
#
#
# Indices 1 2 3 4 5 6 
#
# 1 0.009994 -0.007721 0.000538 0.000000 0.001628 0.000000
# 2 -0.007721 0.033403 -0.011571 0.000000 -0.012962 0.000000
# 3 0.000538 -0.011571 0.014404 0.000000 -0.000663 0.000000
# 4 0.000000 0.000000 0.000000 0.042869 0.000000 -0.014338
# 5 0.001628 -0.012962 -0.000663 0.000000 0.110372 0.000000
# 6 0.000000 0.000000 0.000000 -0.014338 0.000000 0.164908
#
#
# Mechanical properties :
#
#
# Convention : Reuss Voigt Hill
#
# Bulk Modulus (GPa) = 49.27635 57.74904 53.51270
# Shear Modulus (GPa) = 11.89842 19.86828 15.88335
#
# Velocity S-wave (km/s) = 2.59964 3.35930 3.00359
# Velocity P-wave (km/s) = 6.08269 6.91717 6.51331
#
# Compressibility (1/GPa) = 0.02029371
#
# Stress axis : x y z
#
# Youngs Moduli (GPa) = 100.05554 29.93699 69.42642
#
# Poissons Ratio (x) = 0.23114 -0.03738
# Poissons Ratio (y) = 0.77253 0.80336
# Poissons Ratio (z) = -0.05386 0.34641
#
# Static dielectric constant tensor:
#      x y z
#    x 1.734430 0.000000 -0.004800 
#    y 0.000000 1.640430 0.000000 
#    z -0.004800 0.000000 1.579250 
# 
# From -- ./inp_files/71182.got.cif
#   From: 2010.05.17/outbox.cif.g08.bks.cpg/sg14_36_cif.got.tgz:71182.got - 2010.06.03 17:49:19.
