data_PCOD9240651
_publ_section_title
;
Structure prediction by ZEFSAII (Michael W. Deem and Ramdas Pophale) SiO2 
 PCOD9240651
Probable space group: P 21/C
;
_chemical_formula_sum "Si O2"
_cell_formula_units_Z 32
_cell_length_a 11.639404
_cell_length_b 18.740248
_cell_length_c 9.133873
_cell_angle_alpha 90.000000
_cell_angle_beta 113.101835
_cell_angle_gamma 90.000000
_cell_volume 1832.561961
_symmetry_space_group_name_H-M "P 21/C"
_symmetry_group_IT_number 14
_symmetry_cell_setting 'monoclinic'
loop_
_space_group_symop_operation_xyz
x,y,z
-x,1/2+y,1/2-z
-x,-y,-z
x,1/2-y,1/2+z
loop_
_atom_site_type_symbol
_atom_site_label
_atom_site_fract_x
_atom_site_fract_y
_atom_site_fract_z
Si Si1 0.731298 0.925080 0.042517
Si Si2 0.993995 0.086786 0.165093
Si Si3 0.503374 0.326551 0.927537
Si Si4 0.268701 0.425081 0.811216
Si Si5 0.256779 0.920634 0.453428
Si Si6 0.743221 0.420634 0.696651
Si Si7 0.496625 0.673448 0.424158
Si Si8 0.993995 0.086786 0.828903
O O1 0.866654 0.891653 0.149122
O O2 0.720375 0.001977 0.112927
O O3 0.732543 0.935443 0.866272
O O4 0.616069 0.874822 0.024316
O O5 0.876669 0.107098 0.204937
O O6 0.133346 0.108346 0.282468
O O7 0.000000 1.000000 0.169411
O O8 0.972561 0.108945 0.986281
O O9 0.383930 0.374823 0.908248
O O10 0.501746 0.318500 0.750875
O O11 0.629994 0.368474 0.030428
O O12 0.498123 0.250000 0.999064
O O13 0.279626 0.501978 0.892550
O O14 0.253210 0.928228 0.626604
O O15 0.123330 0.892901 0.328267
O O16 0.629995 0.368474 0.599571
#
# Coordination Sequence:
#
# PCOD9240651 Si02
#       8
#     4   4   4   4   4   4   4   4
#     4   9  18  34  54  75  99 129 166 203 243 294
#     4   8  15  29  50  74 100 129 159 197 245 293
#     4  10  22  37  51  71 100 133 169 206 244 290
#     4   9  18  34  54  75  99 129 166 203 243 294
#     4  10  19  31  51  79 104 126 160 205 247 291
#     4  10  19  31  51  79 104 126 160 205 247 291
#     4  10  22  37  51  71 100 133 169 206 244 290
#     4   8  15  29  50  74 100 129 159 197 245 293
#
# _framework density 17.461893
#
# number of rings (size 3 to 8) (size 9 to 14) (size 15 to 20)
#    0.000    2.750    0.000    3.000    0.000    7.500 
#    0.000    1.250    0.000    6.000    0.000    0.000 
#    0.000    0.000    0.000    0.000    0.000    0.000 
#
# Total GULP energy -178394.555000 kJ/mol
# GULP energy per Si atom -5574.829844 kJ/mol
# Density = 1.742215 g / cm^3
# Si number density = 17.461893 Si / 1000 Ang^3
#
#
#
# Elastic Constant Matrix: (Units=GPa)
#
#
# Indices 1 2 3 4 5 6 
#
# 1 134.9335 40.7881 41.8304 0.0000 14.8128 0.0000
# 2 40.7881 51.6468 30.5308 0.0000 4.6311 0.0000
# 3 41.8304 30.5308 50.9609 0.0000 23.0966 0.0000
# 4 0.0000 0.0000 0.0000 23.0800 0.0000 -10.1592
# 5 14.8128 4.6311 23.0966 0.0000 26.4072 0.0000
# 6 0.0000 0.0000 0.0000 -10.1592 0.0000 0.5752
#
#
#
# Elastic Compliance Matrix: (Units=1/GPa)
#
#
# Indices 1 2 3 4 5 6 
#
# 1 0.010732 -0.005103 -0.005681 0.000000 -0.000156 0.000000
# 2 -0.005103 0.038092 -0.028002 0.000000 0.020674 0.000000
# 3 -0.005681 -0.028002 0.061949 0.000000 -0.046085 0.000000
# 4 0.000000 0.000000 0.000000 -0.006396 0.000000 -0.112964
# 5 -0.000156 0.020674 -0.046085 0.000000 0.074638 0.000000
# 6 0.000000 0.000000 0.000000 -0.112964 0.000000 -0.256634
#
#
# Mechanical properties :
#
#
# Convention : Reuss Voigt Hill
#
# Bulk Modulus (GPa) = 30.12008 51.53776 40.82892
# Shear Modulus (GPa) = 453.74391 18.30528 236.02460
#
# Velocity S-wave (km/s) = 16.13729 3.24126 11.63868
# Velocity P-wave (km/s) = 19.09195 6.60198 14.28441
#
# Compressibility (1/GPa) = 0.03320045
#
# Stress axis : x y z
#
# Youngs Moduli (GPa) = 93.17931 26.25217 16.14238
#
# Poissons Ratio (x) = 0.13397 0.09170
# Poissons Ratio (y) = 0.47552 0.45202
# Poissons Ratio (z) = 0.52935 0.73511
#
# Static dielectric constant tensor:
#      x y z
#    x 1.623940 0.000000 0.014660 
#    y 0.000000 1.548800 0.000000 
#    z 0.014660 0.000000 1.591470 
# 
# From -- ./inp_files/13778.got.cif
#   From: 2010.05.17/outbox.cif.g08.bks.cpg/sg14_7_cif.got.tgz:13778.got - 2010.06.03 17:49:19.
