data_PCOD9240367
_publ_section_title
;
Structure prediction by ZEFSAII (Michael W. Deem and Ramdas Pophale) SiO2 
 PCOD9240367
Probable space group: P 21/C
;
_chemical_formula_sum "Si O2"
_cell_formula_units_Z 20
_cell_length_a 7.202078
_cell_length_b 13.139910
_cell_length_c 12.985892
_cell_angle_alpha 90.000000
_cell_angle_beta 43.462173
_cell_angle_gamma 90.000000
_cell_volume 845.340853
_symmetry_space_group_name_H-M "P 21/C"
_symmetry_group_IT_number 14
_symmetry_cell_setting 'monoclinic'
loop_
_space_group_symop_operation_xyz
x,y,z
-x,1/2+y,1/2-z
-x,-y,-z
x,1/2-y,1/2+z
loop_
_atom_site_type_symbol
_atom_site_label
_atom_site_fract_x
_atom_site_fract_y
_atom_site_fract_z
Si Si1 0.362744 0.610098 0.346804
Si Si2 0.335010 0.782666 0.526070
Si Si3 0.909556 0.548780 0.165830
Si Si4 0.059553 0.469215 0.622713
Si Si5 0.920050 0.853619 0.316029
O O1 0.356723 0.710909 0.417367
O O2 0.668071 0.586541 0.192618
O O3 0.142886 0.610675 0.345489
O O4 0.262294 0.514429 0.457552
O O5 0.630901 0.804874 0.451286
O O6 0.179799 0.885377 0.555898
O O7 0.145620 0.722363 0.682638
O O8 0.802963 0.567252 0.327498
O O9 0.967974 0.428755 0.140823
O O10 0.884601 0.565080 0.735416
#
# Coordination Sequence:
#
# PCOD9240367 Si02
#       5
#     4   4   4   4   4
#     4  10  18  37  60  82 117 163 186 245 290 355
#     4  11  19  36  62  88 119 154 202 232 302 338
#     4  10  20  36  61  84 119 156 193 244 291 337
#     4   8  20  35  57  86 115 152 198 233 298 339
#     4   9  21  35  61  87 120 155 188 251 280 359
#
# _framework density 23.659094
#
# number of rings (size 3 to 8) (size 9 to 14) (size 15 to 20)
#    1.200    1.200    2.000    1.200    0.000    0.000 
#    0.000    5.000    0.000    0.000    0.000    0.000 
#    0.000    0.000    0.000    0.000    0.000    0.000 
#
# Total GULP energy -111661.063691 kJ/mol
# GULP energy per Si atom -5583.053185 kJ/mol
# Density = 2.360524 g / cm^3
# Si number density = 23.659094 Si / 1000 Ang^3
#
#
#
# Elastic Constant Matrix: (Units=GPa)
#
#
# Indices 1 2 3 4 5 6 
#
# 1 55.4622 13.3805 20.1254 0.0000 -10.3377 0.0000
# 2 13.3805 87.8774 34.2935 0.0000 -10.1794 0.0000
# 3 20.1254 34.2935 115.2070 0.0000 -24.8187 0.0000
# 4 0.0000 0.0000 0.0000 30.8771 0.0000 -10.9363
# 5 -10.3377 -10.1794 -24.8187 0.0000 38.2160 0.0000
# 6 0.0000 0.0000 0.0000 -10.9363 0.0000 15.3689
#
#
#
# Elastic Compliance Matrix: (Units=1/GPa)
#
#
# Indices 1 2 3 4 5 6 
#
# 1 0.019905 -0.001769 -0.002200 0.000000 0.003485 0.000000
# 2 -0.001769 0.013072 -0.003412 0.000000 0.000787 0.000000
# 3 -0.002200 -0.003412 0.011343 0.000000 0.005862 0.000000
# 4 0.000000 0.000000 0.000000 0.043299 0.000000 0.030811
# 5 0.003485 0.000787 0.005862 0.000000 0.031127 0.000000
# 6 0.000000 0.000000 0.000000 0.030811 0.000000 0.086991
#
#
# Mechanical properties :
#
#
# Convention : Reuss Voigt Hill
#
# Bulk Modulus (GPa) = 33.83254 43.79395 38.81325
# Shear Modulus (GPa) = 21.70598 29.60889 25.65743
#
# Velocity S-wave (km/s) = 3.03223 3.54146 3.29669
# Velocity P-wave (km/s) = 5.15657 5.93913 5.56163
#
# Compressibility (1/GPa) = 0.02955734
#
# Stress axis : x y z
#
# Youngs Moduli (GPa) = 50.23917 76.50134 88.15955
#
# Poissons Ratio (x) = 0.13530 0.19395
# Poissons Ratio (y) = 0.08885 0.30084
# Poissons Ratio (z) = 0.11053 0.26106
#
# Static dielectric constant tensor:
#      x y z
#    x 1.897250 0.000000 0.065440 
#    y 0.000000 1.887560 0.000000 
#    z 0.065440 0.000000 1.893070 
# 
# From -- ./inp_files/55880.got.cif
#   From: 2010.05.17/outbox.cif.g08.bks.cpg/sg14_28_cif.got.tgz:55880.got - 2010.06.03 17:49:19.
