data_PCOD9240184
_publ_section_title
;
Structure prediction by ZEFSAII (Michael W. Deem and Ramdas Pophale) SiO2 
 PCOD9240184
Probable space group: P 21/C
;
_chemical_formula_sum "Si O2"
_cell_formula_units_Z 28
_cell_length_a 10.809244
_cell_length_b 7.676925
_cell_length_c 17.624590
_cell_angle_alpha 90.000000
_cell_angle_beta 128.636122
_cell_angle_gamma 90.000000
_cell_volume 1142.413396
_symmetry_space_group_name_H-M "P 21/C"
_symmetry_group_IT_number 14
_symmetry_cell_setting 'monoclinic'
loop_
_space_group_symop_operation_xyz
x,y,z
-x,1/2+y,1/2-z
-x,-y,-z
x,1/2-y,1/2+z
loop_
_atom_site_type_symbol
_atom_site_label
_atom_site_fract_x
_atom_site_fract_y
_atom_site_fract_z
Si Si1 0.121399 0.940931 0.406732
Si Si2 0.194666 0.145530 0.058854
Si Si3 0.915953 0.256551 0.336855
Si Si4 0.427352 0.190658 0.381017
Si Si5 0.099768 0.349184 0.697975
Si Si6 0.426469 0.161944 0.541619
Si Si7 0.270789 0.751569 0.598584
O O1 0.165811 0.892122 0.511828
O O2 0.062881 0.755661 0.352551
O O3 0.283236 0.042130 0.451667
O O4 0.982913 0.075902 0.330989
O O5 0.156586 0.178825 0.132079
O O6 0.206584 0.939243 0.055293
O O7 0.350526 0.229290 0.080345
O O8 0.050315 0.210237 0.952588
O O9 0.910687 0.442499 0.292986
O O10 0.755016 0.222666 0.321930
O O11 0.245452 0.234194 0.298907
O O12 0.481984 0.255146 0.485655
O O13 0.550843 0.249630 0.364138
O O14 0.449901 0.980464 0.383160
#
# Coordination Sequence:
#
# PCOD9240184 Si02
#       7
#     4   4   4   4   4   4   4
#     4  10  19  36  64  83 112 160 197 246 296 352
#     4  10  19  35  65  91 112 154 206 250 293 361
#     4  10  19  35  59  93 115 151 198 249 303 356
#     4  10  23  40  56  85 126 164 193 246 296 367
#     4  11  21  37  59  94 122 142 208 261 292 334
#     4   9  22  42  60  80 122 172 198 225 313 370
#     4  10  18  35  60  86 117 158 195 235 307 356
#
# _framework density 24.509513999999999
#
# number of rings (size 3 to 8) (size 9 to 14) (size 15 to 20)
#    0.000    2.000    2.857    1.286    4.000    2.857 
#    7.714    0.000    0.000    0.000    0.000    0.000 
#    0.000    0.000    0.000    0.000    0.000    0.000 
#
# Total GULP energy -156186.323265 kJ/mol
# GULP energy per Si atom -5578.082974 kJ/mol
# Density = 2.445373 g / cm^3
# Si number density = 24.509514 Si / 1000 Ang^3
#
#
#
# Elastic Constant Matrix: (Units=GPa)
#
#
# Indices 1 2 3 4 5 6 
#
# 1 58.7001 20.9843 -8.5567 0.0000 -6.3264 0.0000
# 2 20.9843 80.9626 2.2040 0.0000 -2.9604 0.0000
# 3 -8.5567 2.2040 39.7280 0.0000 5.4304 0.0000
# 4 0.0000 0.0000 0.0000 22.5216 0.0000 -2.0471
# 5 -6.3264 -2.9604 5.4304 0.0000 30.9313 0.0000
# 6 0.0000 0.0000 0.0000 -2.0471 0.0000 31.5821
#
#
#
# Elastic Compliance Matrix: (Units=1/GPa)
#
#
# Indices 1 2 3 4 5 6 
#
# 1 0.019783 -0.005137 0.004160 0.000000 0.002824 0.000000
# 2 -0.005137 0.013758 -0.001953 0.000000 0.000609 0.000000
# 3 0.004160 -0.001953 0.026726 0.000000 -0.004028 0.000000
# 4 0.000000 0.000000 0.000000 0.044665 0.000000 0.002895
# 5 0.002824 0.000609 -0.004028 0.000000 0.033673 0.000000
# 6 0.000000 0.000000 0.000000 0.002895 0.000000 0.031851
#
#
# Mechanical properties :
#
#
# Convention : Reuss Voigt Hill
#
# Bulk Modulus (GPa) = 18.38021 23.18377 20.78199
# Shear Modulus (GPa) = 25.71313 27.99094 26.85203
#
# Velocity S-wave (km/s) = 3.24251 3.38308 3.31354
# Velocity P-wave (km/s) = 4.64047 4.97393 4.81009
#
# Compressibility (1/GPa) = 0.05440635
#
# Stress axis : x y z
#
# Youngs Moduli (GPa) = 50.54831 72.68307 37.41658
#
# Poissons Ratio (x) = 0.37341 -0.15565
# Poissons Ratio (y) = 0.25969 0.07308
# Poissons Ratio (z) = -0.21028 0.14195
#
# Static dielectric constant tensor:
#      x y z
#    x 2.072520 0.000000 -0.038350 
#    y 0.000000 1.972400 0.000000 
#    z -0.038350 0.000000 1.994330 
# 
# From -- ./inp_files/66897.got.cif
#   From: 2010.05.17/outbox.cif.g08.bks.cpg/sg14_34_cif.got.tgz:66897.got - 2010.06.03 17:49:19.
