data_PCOD9240443
_publ_section_title
;
Structure prediction by ZEFSAII (Michael W. Deem and Ramdas Pophale) SiO2 
 PCOD9240443
Probable space group: P 21/C
;
_chemical_formula_sum "Si O2"
_cell_formula_units_Z 32
_cell_length_a 11.793073
_cell_length_b 9.228770
_cell_length_c 19.870545
_cell_angle_alpha 90.000000
_cell_angle_beta 47.195240
_cell_angle_gamma 90.000000
_cell_volume 1586.658166
_symmetry_space_group_name_H-M "P 21/C"
_symmetry_group_IT_number 14
_symmetry_cell_setting 'monoclinic'
loop_
_space_group_symop_operation_xyz
x,y,z
-x,1/2+y,1/2-z
-x,-y,-z
x,1/2-y,1/2+z
loop_
_atom_site_type_symbol
_atom_site_label
_atom_site_fract_x
_atom_site_fract_y
_atom_site_fract_z
Si Si1 0.068527 0.786877 0.526379
Si Si2 0.163377 0.527091 0.579533
Si Si3 0.999503 0.234756 0.187267
Si Si4 0.788696 0.641635 0.576634
Si Si5 0.774998 0.520231 0.953584
Si Si6 0.482399 0.192075 0.359898
Si Si7 0.301199 0.745305 0.604305
Si Si8 0.222659 0.653333 0.345020
O O1 0.074045 0.661238 0.581004
O O2 0.206858 0.753035 0.417646
O O3 0.910773 0.763846 0.548982
O O4 0.100117 0.936008 0.550776
O O5 0.195193 0.416679 0.505771
O O6 0.311226 0.607246 0.551278
O O7 0.074715 0.424042 0.667561
O O8 0.871629 0.267812 0.294846
O O9 0.896801 0.215852 0.161097
O O10 0.132458 0.354780 0.123849
O O11 0.615606 0.699157 0.646934
O O12 0.823322 0.504239 0.609225
O O13 0.699162 0.397773 0.935719
O O14 0.643400 0.586795 0.054921
O O15 0.575119 0.257639 0.386076
O O16 0.615237 0.133068 0.257535
#
# Coordination Sequence:
#
# PCOD9240443 Si02
#       8
#     4   4   4   4   4   4   4   4
#     4  10  20  38  66  91 116 159 201 252 295 365
#     4  10  18  38  63  83 115 156 203 244 295 345
#     4  11  19  39  63  89 114 155 204 261 291 349
#     4  11  20  40  62  89 120 160 204 242 301 362
#     4  11  23  40  63  93 123 155 203 254 309 344
#     4  11  24  38  59  88 127 164 192 250 302 366
#     4  10  24  39  61  85 122 159 207 243 301 358
#     4  10  21  37  61  88 125 155 199 245 305 359
#
# _framework density 20.168175000000002
#
# number of rings (size 3 to 8) (size 9 to 14) (size 15 to 20)
#    0.000    1.500    3.750    1.875    1.750    2.500 
#    2.250    0.000    0.000    0.000    0.000    0.000 
#    0.000    0.000    0.000    0.000    0.000    0.000 
#
# Total GULP energy -178416.983166 kJ/mol
# GULP energy per Si atom -5575.530724 kJ/mol
# Density = 2.012227 g / cm^3
# Si number density = 20.168175 Si / 1000 Ang^3
#
#
#
# Elastic Constant Matrix: (Units=GPa)
#
#
# Indices 1 2 3 4 5 6 
#
# 1 84.5886 24.5415 13.6876 0.0000 4.2993 0.0000
# 2 24.5415 60.1848 5.9824 0.0000 -2.3005 0.0000
# 3 13.6876 5.9824 61.5634 0.0000 -8.3913 0.0000
# 4 0.0000 0.0000 0.0000 16.9427 0.0000 5.2249
# 5 4.2993 -2.3005 -8.3913 0.0000 27.7591 0.0000
# 6 0.0000 0.0000 0.0000 5.2249 0.0000 24.2404
#
#
#
# Elastic Compliance Matrix: (Units=1/GPa)
#
#
# Indices 1 2 3 4 5 6 
#
# 1 0.014125 -0.005590 -0.003086 0.000000 -0.003584 0.000000
# 2 -0.005590 0.019013 -0.000284 0.000000 0.002356 0.000000
# 3 -0.003086 -0.000284 0.017750 0.000000 0.005820 0.000000
# 4 0.000000 0.000000 0.000000 0.063225 0.000000 -0.013628
# 5 -0.003584 0.002356 0.005820 0.000000 0.038534 0.000000
# 6 0.000000 0.000000 0.000000 -0.013628 0.000000 0.044191
#
#
# Mechanical properties :
#
#
# Convention : Reuss Voigt Hill
#
# Bulk Modulus (GPa) = 30.33082 32.75110 31.54096
# Shear Modulus (GPa) = 22.14862 24.59680 23.37271
#
# Velocity S-wave (km/s) = 3.31750 3.49604 3.40794
# Velocity P-wave (km/s) = 5.45399 5.70707 5.58197
#
# Compressibility (1/GPa) = 0.03296977
#
# Stress axis : x y z
#
# Youngs Moduli (GPa) = 70.79522 52.59508 56.33687
#
# Poissons Ratio (x) = 0.29401 0.17384
# Poissons Ratio (y) = 0.39575 0.01598
# Poissons Ratio (z) = 0.21846 0.01492
#
# Static dielectric constant tensor:
#      x y z
#    x 1.729750 0.000000 0.005250 
#    y 0.000000 1.709660 0.000000 
#    z 0.005250 0.000000 1.744160 
# 
# From -- ./inp_files/62650.got.cif
#   From: 2010.05.17/outbox.cif.g08.bks.cpg/sg14_32_cif.got.tgz:62650.got - 2010.06.03 17:49:19.
