data_PCOD9240155
_publ_section_title
;
Structure prediction by ZEFSAII (Michael W. Deem and Ramdas Pophale) SiO2 
 PCOD9240155
Probable space group: P 21/C
;
_chemical_formula_sum "Si O2"
_cell_formula_units_Z 32
_cell_length_a 11.908405
_cell_length_b 8.805985
_cell_length_c 14.360026
_cell_angle_alpha 90.000000
_cell_angle_beta 68.439395
_cell_angle_gamma 90.000000
_cell_volume 1400.501027
_symmetry_space_group_name_H-M "P 21/C"
_symmetry_group_IT_number 14
_symmetry_cell_setting 'monoclinic'
loop_
_space_group_symop_operation_xyz
x,y,z
-x,1/2+y,1/2-z
-x,-y,-z
x,1/2-y,1/2+z
loop_
_atom_site_type_symbol
_atom_site_label
_atom_site_fract_x
_atom_site_fract_y
_atom_site_fract_z
Si Si1 0.662748 0.242685 0.106538
Si Si2 0.907226 0.810880 0.494791
Si Si3 0.763591 0.945610 0.110481
Si Si4 0.575930 0.675476 0.205028
Si Si5 0.262987 0.918060 0.251591
Si Si6 0.657677 0.533535 0.005327
Si Si7 0.226591 0.905466 0.694129
Si Si8 0.983429 0.530467 0.161491
O O1 0.548449 0.219216 0.208790
O O2 0.757346 0.337118 0.141101
O O3 0.634953 0.357059 0.033388
O O4 0.708556 0.078607 0.064382
O O5 0.870658 0.639327 0.525283
O O6 0.984775 0.859538 0.382826
O O7 0.781682 0.900045 0.511928
O O8 0.964298 0.873082 0.572928
O O9 0.664412 0.819396 0.169302
O O10 0.795562 0.028280 0.196667
O O11 0.634534 0.541145 0.251142
O O12 0.562565 0.617529 0.101836
O O13 0.276837 0.767237 0.184795
O O14 0.147606 0.014301 0.252935
O O15 0.686637 0.525523 0.887252
O O16 0.097217 0.906297 0.681887
#
# Coordination Sequence:
#
# PCOD9240155 Si02
#       8
#     4   4   4   4   4   4   4   4
#     4  10  19  35  59  81 104 143 197 233 271 328
#     4   9  18  34  60  79 108 148 189 224 270 334
#     4  10  19  35  54  90 111 138 194 235 269 339
#     4  10  19  37  62  77 106 151 192 236 280 321
#     4  10  20  37  54  84 116 148 184 228 285 338
#     4   9  18  39  56  81 110 151 181 230 284 334
#     4  10  23  34  56  84 119 148 178 226 288 345
#     4  10  18  35  58  79 112 150 183 215 282 333
#
# _framework density 22.848965
#
# number of rings (size 3 to 8) (size 9 to 14) (size 15 to 20)
#    0.000    2.250    3.750    1.500    1.750    0.000 
#    0.000   13.750    0.000    0.000    0.000    0.875 
#    0.000    0.000    0.000    0.000    0.000    0.000 
#
# Total GULP energy -178278.076987 kJ/mol
# GULP energy per Si atom -5571.189906 kJ/mol
# Density = 2.279696 g / cm^3
# Si number density = 22.848965 Si / 1000 Ang^3
#
#
#
# Elastic Constant Matrix: (Units=GPa)
#
#
# Indices 1 2 3 4 5 6 
#
# 1 78.3046 10.2133 -9.3989 0.0000 -3.8689 0.0000
# 2 10.2133 78.6520 -18.2733 0.0000 4.0737 0.0000
# 3 -9.3989 -18.2733 23.1058 0.0000 -0.9461 0.0000
# 4 0.0000 0.0000 0.0000 20.1947 0.0000 4.5726
# 5 -3.8689 4.0737 -0.9461 0.0000 18.6142 0.0000
# 6 0.0000 0.0000 0.0000 4.5726 0.0000 11.3159
#
#
#
# Elastic Compliance Matrix: (Units=1/GPa)
#
#
# Indices 1 2 3 4 5 6 
#
# 1 0.013641 -0.000760 0.005081 0.000000 0.003260 0.000000
# 2 -0.000760 0.015764 0.012036 0.000000 -0.002996 0.000000
# 3 0.005081 0.012036 0.054914 0.000000 0.001213 0.000000
# 4 0.000000 0.000000 0.000000 0.054505 0.000000 -0.022025
# 5 0.003260 -0.002996 0.001213 0.000000 0.055117 0.000000
# 6 0.000000 0.000000 0.000000 -0.022025 0.000000 0.097271
#
#
# Mechanical properties :
#
#
# Convention : Reuss Voigt Hill
#
# Bulk Modulus (GPa) = 8.54448 16.12717 12.33583
# Shear Modulus (GPa) = 16.80620 23.19305 19.99963
#
# Velocity S-wave (km/s) = 2.71502 3.18946 2.96175
# Velocity P-wave (km/s) = 3.68457 4.54280 4.13600
#
# Compressibility (1/GPa) = 0.11703460
#
# Stress axis : x y z
#
# Youngs Moduli (GPa) = 73.31009 63.43440 18.21017
#
# Poissons Ratio (x) = 0.04818 -0.09253
# Poissons Ratio (y) = 0.05568 -0.21917
# Poissons Ratio (z) = -0.37252 -0.76347
#
# Static dielectric constant tensor:
#      x y z
#    x 1.904760 0.000000 -0.000130 
#    y 0.000000 1.880820 0.000000 
#    z -0.000130 0.000000 1.889410 
# 
# From -- ./inp_files/57040.got.cif
#   From: 2010.05.17/outbox.cif.g08.bks.cpg/sg14_29_cif.got.tgz:57040.got - 2010.06.03 17:49:19.
