data_PCOD9240222
_publ_section_title
;
Structure prediction by ZEFSAII (Michael W. Deem and Ramdas Pophale) SiO2 
 PCOD9240222
Probable space group: P 21/C
;
_chemical_formula_sum "Si O2"
_cell_formula_units_Z 28
_cell_length_a 12.780831
_cell_length_b 10.112042
_cell_length_c 8.877781
_cell_angle_alpha 90.000000
_cell_angle_beta 109.030621
_cell_angle_gamma 90.000000
_cell_volume 1084.657094
_symmetry_space_group_name_H-M "P 21/C"
_symmetry_group_IT_number 14
_symmetry_cell_setting 'monoclinic'
loop_
_space_group_symop_operation_xyz
x,y,z
-x,1/2+y,1/2-z
-x,-y,-z
x,1/2-y,1/2+z
loop_
_atom_site_type_symbol
_atom_site_label
_atom_site_fract_x
_atom_site_fract_y
_atom_site_fract_z
Si Si1 0.064108 0.643355 0.057045
Si Si2 0.231100 0.353680 0.267618
Si Si3 0.378233 0.935309 0.974698
Si Si4 0.783007 0.498610 0.060664
Si Si5 0.591473 0.628377 0.096276
Si Si6 0.558031 0.250411 0.233509
Si Si7 0.961695 0.670648 0.300247
O O1 0.170036 0.629886 0.999871
O O2 0.005107 0.780075 0.980365
O O3 0.000000 0.500000 0.000000
O O4 0.063895 0.650058 0.235960
O O5 0.284790 0.457216 0.406966
O O6 0.315053 0.232019 0.311145
O O7 0.114379 0.300006 0.270002
O O8 0.225731 0.404962 0.092168
O O9 0.388278 0.858612 0.134347
O O10 0.360738 0.828287 0.835667
O O11 0.500000 0.000000 0.000000
O O12 0.664006 0.500999 0.084895
O O13 0.875425 0.553088 0.221800
O O14 0.504390 0.642044 0.190202
O O15 0.531212 0.681110 0.918357
#
# Coordination Sequence:
#
# PCOD9240222 Si02
#       7
#     4   4   4   4   4   4   4
#     4  10  20  40  64  95 128 156 206 265 322 375
#     4  11  19  35  65  87 121 170 210 262 309 366
#     4  11  21  39  63  90 134 172 215 269 319 365
#     4  10  20  36  65  96 123 156 210 265 310 373
#     4  10  18  35  63  92 124 163 220 257 305 383
#     4  10  20  36  62  94 126 176 217 260 314 379
#     4  10  20  37  67  89 123 164 206 259 315 391
#
# _framework density 25.814609999999998
#
# number of rings (size 3 to 8) (size 9 to 14) (size 15 to 20)
#    0.000    1.714    7.143    0.000    0.000    0.000 
#    0.000   10.714    3.143    0.000    0.000    0.000 
#    0.000    0.000    0.000    0.000    0.000    0.000 
#
# Total GULP energy -156423.672452 kJ/mol
# GULP energy per Si atom -5586.559730 kJ/mol
# Density = 2.575585 g / cm^3
# Si number density = 25.814610 Si / 1000 Ang^3
#
#
#
# Elastic Constant Matrix: (Units=GPa)
#
#
# Indices 1 2 3 4 5 6 
#
# 1 50.5955 10.5446 8.2230 0.0000 -12.4908 0.0000
# 2 10.5446 38.1283 11.8639 0.0000 1.0912 0.0000
# 3 8.2230 11.8639 81.8156 0.0000 -15.9141 0.0000
# 4 0.0000 0.0000 0.0000 54.4094 0.0000 4.6429
# 5 -12.4908 1.0912 -15.9141 0.0000 36.2900 0.0000
# 6 0.0000 0.0000 0.0000 4.6429 0.0000 37.2510
#
#
#
# Elastic Compliance Matrix: (Units=1/GPa)
#
#
# Indices 1 2 3 4 5 6 
#
# 1 0.023171 -0.006726 0.000259 0.000000 0.008291 0.000000
# 2 -0.006726 0.029684 -0.004649 0.000000 -0.005246 0.000000
# 3 0.000259 -0.004649 0.014120 0.000000 0.006421 0.000000
# 4 0.000000 0.000000 0.000000 0.018577 0.000000 -0.002315
# 5 0.008291 -0.005246 0.006421 0.000000 0.033383 0.000000
# 6 0.000000 0.000000 0.000000 -0.002315 0.000000 0.027133
#
#
# Mechanical properties :
#
#
# Convention : Reuss Voigt Hill
#
# Bulk Modulus (GPa) = 22.34964 25.75581 24.05272
# Shear Modulus (GPa) = 27.29049 34.91727 31.10388
#
# Velocity S-wave (km/s) = 3.25495 3.68178 3.47492
# Velocity P-wave (km/s) = 4.77523 5.29839 5.04359
#
# Compressibility (1/GPa) = 0.04474344
#
# Stress axis : x y z
#
# Youngs Moduli (GPa) = 43.15707 33.68814 70.82350
#
# Poissons Ratio (x) = 0.22659 -0.01836
# Poissons Ratio (y) = 0.29028 0.32925
# Poissons Ratio (z) = -0.01119 0.15661
#
# Static dielectric constant tensor:
#      x y z
#    x 2.070140 0.000000 0.046840 
#    y 0.000000 2.091720 0.000000 
#    z 0.046840 0.000000 1.996320 
# 
# From -- ./inp_files/15591.got.cif
#   From: 2010.05.17/outbox.cif.g08.bks.cpg/sg14_8_cif.got.tgz:15591.got - 2010.06.03 17:49:19.
