data_PCOD9240007
_publ_section_title
;
Structure prediction by ZEFSAII (Michael W. Deem and Ramdas Pophale) SiO2 
 PCOD9240007
Probable space group: P 21/C
;
_chemical_formula_sum "Si O2"
_cell_formula_units_Z 28
_cell_length_a 11.681405
_cell_length_b 9.596484
_cell_length_c 15.406223
_cell_angle_alpha 90.000000
_cell_angle_beta 66.039917
_cell_angle_gamma 90.000000
_cell_volume 1578.222214
_symmetry_space_group_name_H-M "P 21/C"
_symmetry_group_IT_number 14
_symmetry_cell_setting 'monoclinic'
loop_
_space_group_symop_operation_xyz
x,y,z
-x,1/2+y,1/2-z
-x,-y,-z
x,1/2-y,1/2+z
loop_
_atom_site_type_symbol
_atom_site_label
_atom_site_fract_x
_atom_site_fract_y
_atom_site_fract_z
Si Si1 0.594681 0.901117 0.378022
Si Si2 0.674722 0.365272 0.963158
Si Si3 0.646744 0.040312 0.941034
Si Si4 0.538326 0.756410 0.726786
Si Si5 0.294380 0.272311 0.493969
Si Si6 0.344259 0.964698 0.263967
Si Si7 0.855343 0.525202 0.028065
O O1 0.445801 0.912084 0.442302
O O2 0.610968 0.827208 0.280875
O O3 0.649864 0.803035 0.437474
O O4 0.654446 0.051898 0.378891
O O5 0.667680 0.200568 0.957835
O O6 0.796785 0.421580 0.974051
O O7 0.724911 0.931987 0.974686
O O8 0.680420 0.021885 0.830079
O O9 0.500000 0.000000 0.000000
O O10 0.603035 0.734174 0.614100
O O11 0.549951 0.918800 0.746018
O O12 0.402381 0.686707 0.764864
O O13 0.179095 0.179886 0.495806
O O14 0.226215 0.999001 0.360089
O O15 0.000000 0.500000 0.000000
#
# Coordination Sequence:
#
# PCOD9240007 Si02
#       7
#     4   4   4   4   4   4   4
#     4  10  18  34  53  85 119 147 184 237 298 354
#     4  10  20  33  57  80 115 151 192 235 290 345
#     4  12  20  34  55  92 125 139 173 250 317 344
#     4  11  20  31  53  89 117 149 182 234 306 351
#     4  10  21  36  58  88 120 147 186 246 296 346
#     4  11  22  33  57  87 120 149 187 237 295 356
#     4  10  23  43  59  76 113 169 206 224 266 352
#
# _framework density 17.741479999999999
#
# number of rings (size 3 to 8) (size 9 to 14) (size 15 to 20)
#    0.000    1.429    5.714    0.000    4.000    0.000 
#    0.000    2.143    0.000    0.000    0.000    0.000 
#    0.000    0.000    0.000    0.000    0.000    0.000 
#
# Total GULP energy -156306.750179 kJ/mol
# GULP energy per Si atom -5582.383935 kJ/mol
# Density = 1.770110 g / cm^3
# Si number density = 17.741480 Si / 1000 Ang^3
#
#
#
# Elastic Constant Matrix: (Units=GPa)
#
#
# Indices 1 2 3 4 5 6 
#
# 1 104.8384 45.8877 26.2974 0.0000 -3.6536 0.0000
# 2 45.8877 139.1026 28.7986 0.0000 1.0545 0.0000
# 3 26.2974 28.7986 77.3106 0.0000 15.7782 0.0000
# 4 0.0000 0.0000 0.0000 23.8832 0.0000 6.3188
# 5 -3.6536 1.0545 15.7782 0.0000 18.5520 0.0000
# 6 0.0000 0.0000 0.0000 6.3188 0.0000 15.6694
#
#
#
# Elastic Compliance Matrix: (Units=1/GPa)
#
#
# Indices 1 2 3 4 5 6 
#
# 1 0.012215 -0.003202 -0.004223 0.000000 0.006179 0.000000
# 2 -0.003202 0.008722 -0.002335 0.000000 0.000860 0.000000
# 3 -0.004223 -0.002335 0.018615 0.000000 -0.016531 0.000000
# 4 0.000000 0.000000 0.000000 0.046871 0.000000 -0.018901
# 5 0.006179 0.000860 -0.016531 0.000000 0.069130 0.000000
# 6 0.000000 0.000000 0.000000 -0.018901 0.000000 0.071440
#
#
# Mechanical properties :
#
#
# Convention : Reuss Voigt Hill
#
# Bulk Modulus (GPa) = 49.92321 58.13545 54.02933
# Shear Modulus (GPa) = 19.74792 26.30546 23.02669
#
# Velocity S-wave (km/s) = 3.33992 3.85477 3.60655
# Velocity P-wave (km/s) = 6.56306 7.25614 6.91829
#
# Compressibility (1/GPa) = 0.02003077
#
# Stress axis : x y z
#
# Youngs Moduli (GPa) = 81.86882 114.65021 53.71994
#
# Poissons Ratio (x) = 0.36710 0.22687
# Poissons Ratio (y) = 0.26214 0.12546
# Poissons Ratio (z) = 0.34575 0.26775
#
# Static dielectric constant tensor:
#      x y z
#    x 1.587030 0.000000 0.042810 
#    y 0.000000 1.656600 0.000000 
#    z 0.042810 0.000000 1.624930 
# 
# From -- ./inp_files/43362.got.cif
#   From: 2010.05.17/outbox.cif.g08.bks.cpg/sg14_22_cif.got.tgz:43362.got - 2010.06.03 17:49:19.
