data_PCOD9240210
_publ_section_title
;
Structure prediction by ZEFSAII (Michael W. Deem and Ramdas Pophale) SiO2 
 PCOD9240210
Probable space group: P 21/C
;
_chemical_formula_sum "Si O2"
_cell_formula_units_Z 30
_cell_length_a 14.900400
_cell_length_b 13.685525
_cell_length_c 11.536901
_cell_angle_alpha 90.000000
_cell_angle_beta 150.441329
_cell_angle_gamma 90.000000
_cell_volume 1160.573042
_symmetry_space_group_name_H-M "P 21/C"
_symmetry_group_IT_number 14
_symmetry_cell_setting 'monoclinic'
loop_
_space_group_symop_operation_xyz
x,y,z
-x,1/2+y,1/2-z
-x,-y,-z
x,1/2-y,1/2+z
loop_
_atom_site_type_symbol
_atom_site_label
_atom_site_fract_x
_atom_site_fract_y
_atom_site_fract_z
Si Si1 0.616575 0.675037 0.303763
Si Si2 0.500000 0.000000 0.500000
Si Si3 0.211597 0.897631 0.134723
Si Si4 0.176914 0.128425 0.756162
Si Si5 0.784643 0.461458 0.878529
Si Si6 0.947867 0.768859 0.052570
Si Si7 0.142093 0.979688 0.288136
Si Si8 0.293777 0.704442 0.364071
O O1 0.582253 0.602681 0.158756
O O2 0.659185 0.622296 0.471064
O O3 0.802534 0.734177 0.489511
O O4 0.451181 0.749277 0.115496
O O5 0.389981 0.930602 0.270579
O O6 0.264351 0.973781 0.307725
O O7 0.228174 0.787975 0.197487
O O8 0.013497 0.937637 0.880558
O O9 0.150237 0.237151 0.676082
O O10 0.989131 0.086957 0.600877
O O11 0.209091 0.063095 0.679675
O O12 0.665485 0.389467 0.665838
O O13 0.745365 0.472981 0.969148
O O14 0.031568 0.877569 0.149238
O O15 0.118015 0.694615 0.249839
#
# Coordination Sequence:
#
# PCOD9240210 Si02
#       8
#     4   2   4   4   4   4   4   4
#     4  11  21  44  63  94 129 167 216 272 314 396
#     4  10  18  36  62  86 124 164 206 264 320 366
#     4   9  18  33  58  95 118 165 208 257 311 378
#     4  10  22  40  67  93 132 171 218 260 336 380
#     4  10  20  41  64  96 130 172 212 271 320 390
#     4  10  20  41  63  92 124 172 206 266 315 385
#     4  10  18  35  62  90 128 159 216 259 315 379
#     4   9  22  39  64  92 129 163 219 256 327 380
#
# _framework density 25.849298000000001
#
# number of rings (size 3 to 8) (size 9 to 14) (size 15 to 20)
#    0.000    2.133    2.667    0.000    0.000    1.067 
#   14.400    4.667    0.000    0.000    0.000    0.000 
#    0.000    0.000    0.000    0.000    0.000    0.000 
#
# Total GULP energy -167322.683237 kJ/mol
# GULP energy per Si atom -5577.422775 kJ/mol
# Density = 2.579046 g / cm^3
# Si number density = 25.849298 Si / 1000 Ang^3
#
#
#
# Elastic Constant Matrix: (Units=GPa)
#
#
# Indices 1 2 3 4 5 6 
#
# 1 67.2637 19.0876 40.3523 0.0000 -5.6976 0.0000
# 2 19.0876 77.7810 32.6500 0.0000 -4.3547 0.0000
# 3 40.3523 32.6500 124.9109 0.0000 -4.3576 0.0000
# 4 0.0000 0.0000 0.0000 30.6680 0.0000 -4.4074
# 5 -5.6976 -4.3547 -4.3576 0.0000 36.8173 0.0000
# 6 0.0000 0.0000 0.0000 -4.4074 0.0000 21.9610
#
#
#
# Elastic Compliance Matrix: (Units=1/GPa)
#
#
# Indices 1 2 3 4 5 6 
#
# 1 0.018954 -0.002244 -0.005466 0.000000 0.002021 0.000000
# 2 -0.002244 0.014766 -0.003099 0.000000 0.001032 0.000000
# 3 -0.005466 -0.003099 0.010583 0.000000 0.000040 0.000000
# 4 0.000000 0.000000 0.000000 0.033576 0.000000 0.006738
# 5 0.002021 0.001032 0.000040 0.000000 0.027601 0.000000
# 6 0.000000 0.000000 0.000000 0.006738 0.000000 0.046888
#
#
# Mechanical properties :
#
#
# Convention : Reuss Voigt Hill
#
# Bulk Modulus (GPa) = 44.08090 50.45949 47.27020
# Shear Modulus (GPa) = 27.54132 29.74698 28.64415
#
# Velocity S-wave (km/s) = 3.26768 3.39600 3.33246
# Velocity P-wave (km/s) = 5.59705 5.91102 5.75618
#
# Compressibility (1/GPa) = 0.02268556
#
# Stress axis : x y z
#
# Youngs Moduli (GPa) = 52.75960 67.72418 94.49229
#
# Poissons Ratio (x) = 0.15195 0.51650
# Poissons Ratio (y) = 0.11838 0.29281
# Poissons Ratio (z) = 0.28839 0.20986
#
# Static dielectric constant tensor:
#      x y z
#    x 2.345350 0.000000 0.084960 
#    y 0.000000 2.083040 0.000000 
#    z 0.084960 0.000000 2.190580 
# 
# From -- ./inp_files/34198.got.cif
#   From: 2010.05.17/outbox.cif.g08.bks.cpg/sg14_18_cif.got.tgz:34198.got - 2010.06.03 17:49:19.
