data_PCOD9240257
_publ_section_title
;
Structure prediction by ZEFSAII (Michael W. Deem and Ramdas Pophale) SiO2 
 PCOD9240257
Probable space group: P 21/C
;
_chemical_formula_sum "Si O2"
_cell_formula_units_Z 28
_cell_length_a 12.078503
_cell_length_b 13.695087
_cell_length_c 8.255338
_cell_angle_alpha 90.000000
_cell_angle_beta 102.782811
_cell_angle_gamma 90.000000
_cell_volume 1331.721725
_symmetry_space_group_name_H-M "P 21/C"
_symmetry_group_IT_number 14
_symmetry_cell_setting 'monoclinic'
loop_
_space_group_symop_operation_xyz
x,y,z
-x,1/2+y,1/2-z
-x,-y,-z
x,1/2-y,1/2+z
loop_
_atom_site_type_symbol
_atom_site_label
_atom_site_fract_x
_atom_site_fract_y
_atom_site_fract_z
Si Si1 0.342629 0.288537 0.928241
Si Si2 0.666259 0.565614 0.667699
Si Si3 0.037816 0.405700 0.665536
Si Si4 0.483645 0.922267 0.353542
Si Si5 0.908100 0.775436 0.509735
Si Si6 0.717514 0.524950 0.312437
Si Si7 0.911496 0.960238 0.335188
O O1 0.350816 0.182273 0.854089
O O2 0.226538 0.277489 0.995085
O O3 0.324898 0.375109 0.790981
O O4 0.452454 0.324451 0.065672
O O5 0.552470 0.534726 0.721992
O O6 0.692217 0.532173 0.494470
O O7 0.774947 0.531830 0.810764
O O8 0.041112 0.333260 0.821864
O O9 0.043724 0.330572 0.517976
O O10 0.150968 0.471084 0.691013
O O11 0.940851 0.482290 0.680567
O O12 0.500000 0.000000 0.500000
O O13 0.350691 0.930190 0.272127
O O14 0.926741 0.844167 0.358008
O O15 0.000000 0.000000 0.500000
#
# Coordination Sequence:
#
# PCOD9240257 Si02
#       7
#     4   4   4   4   4   4   4
#     4  10  19  36  62  92 121 152 209 269 305 351
#     4  12  20  37  62  93 123 159 217 260 298 372
#     4  10  21  36  59  92 125 163 214 255 315 367
#     4  10  22  37  60  91 125 159 192 263 319 367
#     4  10  18  36  57  89 119 162 213 263 299 358
#     4  10  21  34  56  94 125 160 204 260 316 365
#     4  10  22  36  60  92 129 169 204 264 318 369
#
# _framework density 21.025414000000001
#
# number of rings (size 3 to 8) (size 9 to 14) (size 15 to 20)
#    0.000    1.714    2.857    3.000    2.000    0.571 
#    0.000    0.000    0.000    6.857    0.000    0.000 
#    0.000    0.000    0.000    0.000    0.000    0.000 
#
# Total GULP energy -155933.067549 kJ/mol
# GULP energy per Si atom -5569.038127 kJ/mol
# Density = 2.097756 g / cm^3
# Si number density = 21.025414 Si / 1000 Ang^3
#
#
#
# Elastic Constant Matrix: (Units=GPa)
#
#
# Indices 1 2 3 4 5 6 
#
# 1 76.8563 39.6323 17.2681 0.0000 -11.9904 0.0000
# 2 39.6323 81.1147 24.6120 0.0000 -7.3487 0.0000
# 3 17.2681 24.6120 81.7497 0.0000 -12.8427 0.0000
# 4 0.0000 0.0000 0.0000 36.0854 0.0000 -11.3037
# 5 -11.9904 -7.3487 -12.8427 0.0000 36.3717 0.0000
# 6 0.0000 0.0000 0.0000 -11.3037 0.0000 35.6991
#
#
#
# Elastic Compliance Matrix: (Units=1/GPa)
#
#
# Indices 1 2 3 4 5 6 
#
# 1 0.018047 -0.008241 -0.000697 0.000000 0.004039 0.000000
# 2 -0.008241 0.017396 -0.003569 0.000000 -0.000462 0.000000
# 3 -0.000697 -0.003569 0.014086 0.000000 0.004023 0.000000
# 4 0.000000 0.000000 0.000000 0.030763 0.000000 0.009741
# 5 0.004039 -0.000462 0.004023 0.000000 0.030152 0.000000
# 6 0.000000 0.000000 0.000000 0.009741 0.000000 0.031096
#
#
# Mechanical properties :
#
#
# Convention : Reuss Voigt Hill
#
# Bulk Modulus (GPa) = 40.78943 44.74949 42.76946
# Shear Modulus (GPa) = 28.61624 32.17846 30.39735
#
# Velocity S-wave (km/s) = 3.69322 3.91635 3.80642
# Velocity P-wave (km/s) = 6.13422 6.46375 6.30114
#
# Compressibility (1/GPa) = 0.02451616
#
# Stress axis : x y z
#
# Youngs Moduli (GPa) = 55.41007 57.48582 70.99152
#
# Poissons Ratio (x) = 0.47371 0.04946
# Poissons Ratio (y) = 0.45661 0.25338
# Poissons Ratio (z) = 0.03861 0.20518
#
# Static dielectric constant tensor:
#      x y z
#    x 1.746900 0.000000 0.017370 
#    y 0.000000 1.767140 0.000000 
#    z 0.017370 0.000000 1.900480 
# 
# From -- ./inp_files/12898.got.cif
#   From: 2010.05.17/outbox.cif.g08.bks.cpg/sg14_7_cif.got.tgz:12898.got - 2010.06.03 17:49:19.
