data_PCOD9240244
_publ_section_title
;
Structure prediction by ZEFSAII (Michael W. Deem and Ramdas Pophale) SiO2 
 PCOD9240244
Probable space group: P 21/C
;
_chemical_formula_sum "Si O2"
_cell_formula_units_Z 28
_cell_length_a 10.847679
_cell_length_b 7.627894
_cell_length_c 24.210015
_cell_angle_alpha 90.000000
_cell_angle_beta 37.017996
_cell_angle_gamma 90.000000
_cell_volume 1206.092224
_symmetry_space_group_name_H-M "P 21/C"
_symmetry_group_IT_number 14
_symmetry_cell_setting 'monoclinic'
loop_
_space_group_symop_operation_xyz
x,y,z
-x,1/2+y,1/2-z
-x,-y,-z
x,1/2-y,1/2+z
loop_
_atom_site_type_symbol
_atom_site_label
_atom_site_fract_x
_atom_site_fract_y
_atom_site_fract_z
Si Si1 0.173458 0.431539 0.111531
Si Si2 0.957557 0.758744 0.735243
Si Si3 0.579702 0.984658 0.824764
Si Si4 0.571286 0.852604 0.018250
Si Si5 0.126788 0.669045 0.477241
Si Si6 0.158428 0.841455 0.355981
Si Si7 0.015218 0.485605 0.371816
O O1 0.062225 0.300666 0.195012
O O2 0.387666 0.337143 0.022476
O O3 0.148065 0.621294 0.148348
O O4 0.037603 0.424545 0.104760
O O5 0.959133 0.584247 0.698348
O O6 0.756036 0.863279 0.787793
O O7 0.652078 0.057811 0.739727
O O8 0.365590 0.882072 0.897581
O O9 0.553820 0.136147 0.880342
O O10 0.798002 0.917661 0.953874
O O11 0.500000 0.000000 0.000000
O O12 0.123492 0.824420 0.433877
O O13 0.013676 0.681144 0.576914
O O14 0.000000 0.500000 0.500000
O O15 0.174125 0.635145 0.332380
#
# Coordination Sequence:
#
# PCOD9240244 Si02
#       7
#     4   4   4   4   4   4   4
#     4  10  20  35  58  82 117 151 190 236 291 345
#     4  11  21  37  58  88 114 149 195 239 291 345
#     4  10  21  35  60  86 113 149 199 240 285 346
#     4  10  18  36  55  79 113 155 182 230 292 341
#     4   9  19  38  58  81 115 155 191 231 297 348
#     4   9  19  36  58  84 109 151 195 235 283 338
#     4   9  20  36  59  79 115 153 187 235 292 346
#
# _framework density 23.215474
#
# number of rings (size 3 to 8) (size 9 to 14) (size 15 to 20)
#    0.000    2.286    1.429    2.571    2.000    2.286 
#    0.000    7.857    0.000    0.000    0.000    0.000 
#    0.000    0.000    0.000    0.000    0.000    0.000 
#
# Total GULP energy -156224.127887 kJ/mol
# GULP energy per Si atom -5579.433139 kJ/mol
# Density = 2.316263 g / cm^3
# Si number density = 23.215474 Si / 1000 Ang^3
#
#
#
# Elastic Constant Matrix: (Units=GPa)
#
#
# Indices 1 2 3 4 5 6 
#
# 1 60.9052 3.2407 10.2067 0.0000 0.8582 0.0000
# 2 3.2407 64.2343 -3.4823 0.0000 3.3222 0.0000
# 3 10.2067 -3.4823 45.5395 0.0000 0.7123 0.0000
# 4 0.0000 0.0000 0.0000 35.4595 0.0000 9.8081
# 5 0.8582 3.3222 0.7123 0.0000 41.9895 0.0000
# 6 0.0000 0.0000 0.0000 9.8081 0.0000 26.8343
#
#
#
# Elastic Compliance Matrix: (Units=1/GPa)
#
#
# Indices 1 2 3 4 5 6 
#
# 1 0.017135 -0.001067 -0.003919 0.000000 -0.000199 0.000000
# 2 -0.001067 0.015766 0.001464 0.000000 -0.001250 0.000000
# 3 -0.003919 0.001464 0.022956 0.000000 -0.000425 0.000000
# 4 0.000000 0.000000 0.000000 0.031373 0.000000 -0.011467
# 5 -0.000199 -0.001250 -0.000425 0.000000 0.023926 0.000000
# 6 0.000000 0.000000 0.000000 -0.011467 0.000000 0.041457
#
#
# Mechanical properties :
#
#
# Convention : Reuss Voigt Hill
#
# Bulk Modulus (GPa) = 20.48581 21.17881 20.83231
# Shear Modulus (GPa) = 28.42090 31.57093 29.99592
#
# Velocity S-wave (km/s) = 3.50268 3.69170 3.59843
# Velocity P-wave (km/s) = 5.02014 5.22628 5.12424
#
# Compressibility (1/GPa) = 0.04881427
#
# Stress axis : x y z
#
# Youngs Moduli (GPa) = 58.35916 63.42814 43.56177
#
# Poissons Ratio (x) = 0.06765 0.17072
# Poissons Ratio (y) = 0.06225 -0.06378
# Poissons Ratio (z) = 0.22871 -0.09287
#
# Static dielectric constant tensor:
#      x y z
#    x 1.918840 0.000000 0.019700 
#    y 0.000000 1.956500 0.000000 
#    z 0.019700 0.000000 1.874430 
# 
# From -- ./inp_files/43099.got.cif
#   From: 2010.05.17/outbox.cif.g08.bks.cpg/sg14_22_cif.got.tgz:43099.got - 2010.06.03 17:49:19.
