data_PCOD9240233
_publ_section_title
;
Structure prediction by ZEFSAII (Michael W. Deem and Ramdas Pophale) SiO2 
 PCOD9240233
Probable space group: P 21/C
;
_chemical_formula_sum "Si O2"
_cell_formula_units_Z 32
_cell_length_a 9.072313
_cell_length_b 11.794716
_cell_length_c 14.058727
_cell_angle_alpha 90.000000
_cell_angle_beta 76.872326
_cell_angle_gamma 90.000000
_cell_volume 1465.044730
_symmetry_space_group_name_H-M "P 21/C"
_symmetry_group_IT_number 14
_symmetry_cell_setting 'monoclinic'
loop_
_space_group_symop_operation_xyz
x,y,z
-x,1/2+y,1/2-z
-x,-y,-z
x,1/2-y,1/2+z
loop_
_atom_site_type_symbol
_atom_site_label
_atom_site_fract_x
_atom_site_fract_y
_atom_site_fract_z
Si Si1 0.549423 0.606853 0.105117
Si Si2 0.737689 0.964121 0.915341
Si Si3 0.372899 0.272400 0.087574
Si Si4 0.302657 0.654097 0.431862
Si Si5 0.943760 0.331518 0.384064
Si Si6 0.288951 0.185896 0.811845
Si Si7 0.746749 0.295527 0.771266
Si Si8 0.421045 0.941594 0.238904
O O1 0.637037 0.702427 0.153793
O O2 0.372055 0.637509 0.144611
O O3 0.584066 0.491558 0.154982
O O4 0.606025 0.626294 0.990405
O O5 0.722931 0.832684 0.942612
O O6 0.891837 0.036518 0.875143
O O7 0.351007 0.024749 0.171296
O O8 0.666991 0.042774 0.008003
O O9 0.542759 0.225931 0.084335
O O10 0.292456 0.304253 0.196980
O O11 0.160809 0.705680 0.511631
O O12 0.248547 0.642793 0.331109
O O13 0.894755 0.245865 0.306256
O O14 0.120807 0.330294 0.372693
O O15 0.407557 0.086261 0.813103
O O16 0.668053 0.175096 0.758813
#
# Coordination Sequence:
#
# PCOD9240233 Si02
#       8
#     4   4   4   4   4   4   4   4
#     4  11  22  37  65  95 119 169 211 265 307 373
#     4   9  20  39  68  90 120 165 214 255 313 369
#     4  12  20  38  68  93 120 167 214 259 306 378
#     4  10  18  35  66  90 116 163 214 257 303 368
#     4   9  22  39  60  92 130 162 197 267 324 364
#     4  11  23  41  61  95 132 158 214 266 312 373
#     4  10  19  38  60  88 123 167 208 259 315 370
#     4  10  19  40  64  88 124 167 216 252 311 377
#
# _framework density 21.842334999999999
#
# number of rings (size 3 to 8) (size 9 to 14) (size 15 to 20)
#    0.750    1.000    5.000    1.125    0.000    3.500 
#    2.250    0.625    0.000    2.250    0.000    0.000 
#    0.000    0.000    0.000    0.000    0.000    0.000 
#
# Total GULP energy -178588.544225 kJ/mol
# GULP energy per Si atom -5580.892007 kJ/mol
# Density = 2.179262 g / cm^3
# Si number density = 21.842335 Si / 1000 Ang^3
#
#
#
# Elastic Constant Matrix: (Units=GPa)
#
#
# Indices 1 2 3 4 5 6 
#
# 1 88.3091 -8.8194 7.5808 0.0000 -11.0424 0.0000
# 2 -8.8194 24.0446 -4.4494 0.0000 3.7400 0.0000
# 3 7.5808 -4.4494 88.4340 0.0000 6.7687 0.0000
# 4 0.0000 0.0000 0.0000 36.3939 0.0000 3.9692
# 5 -11.0424 3.7400 6.7687 0.0000 26.2393 0.0000
# 6 0.0000 0.0000 0.0000 3.9692 0.0000 8.0963
#
#
#
# Elastic Compliance Matrix: (Units=1/GPa)
#
#
# Indices 1 2 3 4 5 6 
#
# 1 0.012418 0.003533 -0.001273 0.000000 0.005051 0.000000
# 2 0.003533 0.044158 0.002333 0.000000 -0.005409 0.000000
# 3 -0.001273 0.002333 0.011835 0.000000 -0.003921 0.000000
# 4 0.000000 0.000000 0.000000 0.029029 0.000000 -0.014231
# 5 0.005051 -0.005409 -0.003921 0.000000 0.042019 0.000000
# 6 0.000000 0.000000 0.000000 -0.014231 0.000000 0.130490
#
#
# Mechanical properties :
#
#
# Convention : Reuss Voigt Hill
#
# Bulk Modulus (GPa) = 12.88713 21.04573 16.96643
# Shear Modulus (GPa) = 17.44425 27.91095 22.67760
#
# Velocity S-wave (km/s) = 2.82909 3.57856 3.22567
# Velocity P-wave (km/s) = 4.07242 5.17021 4.65379
#
# Compressibility (1/GPa) = 0.07759679
#
# Stress axis : x y z
#
# Youngs Moduli (GPa) = 80.53101 22.64570 84.49860
#
# Poissons Ratio (x) = -0.08002 0.10759
# Poissons Ratio (y) = -0.28456 -0.19712
# Poissons Ratio (z) = 0.10254 -0.05283
#
# Static dielectric constant tensor:
#      x y z
#    x 1.781690 0.000000 0.029850 
#    y 0.000000 1.864660 0.000000 
#    z 0.029850 0.000000 1.825000 
# 
# From -- ./inp_files/40914.got.cif
#   From: 2010.05.17/outbox.cif.g08.bks.cpg/sg14_21_cif.got.tgz:40914.got - 2010.06.03 17:49:19.
