data_PCOD9240732
_publ_section_title
;
Structure prediction by ZEFSAII (Michael W. Deem and Ramdas Pophale) SiO2 
 PCOD9240732
Probable space group: P 21/C
;
_chemical_formula_sum "Si O2"
_cell_formula_units_Z 24
_cell_length_a 8.365429
_cell_length_b 9.052266
_cell_length_c 17.270517
_cell_angle_alpha 90.000000
_cell_angle_beta 135.822429
_cell_angle_gamma 90.000000
_cell_volume 911.405428
_symmetry_space_group_name_H-M "P 21/C"
_symmetry_group_IT_number 14
_symmetry_cell_setting 'monoclinic'
loop_
_space_group_symop_operation_xyz
x,y,z
-x,1/2+y,1/2-z
-x,-y,-z
x,1/2-y,1/2+z
loop_
_atom_site_type_symbol
_atom_site_label
_atom_site_fract_x
_atom_site_fract_y
_atom_site_fract_z
Si Si1 0.156074 0.734111 0.159909
Si Si2 0.534724 0.609435 0.398069
Si Si3 0.061323 0.545634 0.898099
Si Si4 0.370934 0.803135 0.993112
Si Si5 0.650413 0.769382 0.781594
Si Si6 0.926920 0.523821 0.279569
O O1 0.290580 0.652202 0.276385
O O2 0.976312 0.610197 0.071593
O O3 0.381250 0.771993 0.187930
O O4 0.050138 0.879885 0.158740
O O5 0.540594 0.437820 0.423392
O O6 0.545465 0.704369 0.481162
O O7 0.695027 0.652238 0.381143
O O8 0.828423 0.636901 0.834146
O O9 0.277270 0.649477 0.993501
O O10 0.092381 0.518434 0.816497
O O11 0.140291 0.874184 0.876138
O O12 0.709280 0.885310 0.734974
#
# Coordination Sequence:
#
# PCOD9240732 Si02
#       6
#     4   4   4   4   4   4
#     4  10  19  32  53  79 105 130 175 212 262 296
#     4   9  19  36  54  80  99 144 175 210 250 306
#     4  11  18  32  51  81 103 136 172 217 254 304
#     4  10  20  34  58  75 109 135 177 209 253 313
#     4   9  20  33  56  73 107 135 180 207 256 307
#     4  11  18  32  51  81 103 136 172 217 254 304
#
# _framework density 26.332955999999999
#
# number of rings (size 3 to 8) (size 9 to 14) (size 15 to 20)
#    1.000    1.000    3.333    2.000    0.000    2.667 
#    0.000    0.000    0.000   12.000    0.000    0.000 
#    0.000    0.000    0.000    0.000    0.000    0.000 
#
# Total GULP energy -134162.946234 kJ/mol
# GULP energy per Si atom -5590.122760 kJ/mol
# Density = 2.627302 g / cm^3
# Si number density = 26.332956 Si / 1000 Ang^3
#
#
#
# Elastic Constant Matrix: (Units=GPa)
#
#
# Indices 1 2 3 4 5 6 
#
# 1 167.5016 50.6120 32.1620 0.0000 -12.0687 0.0000
# 2 50.6120 93.4563 6.1826 0.0000 5.9163 0.0000
# 3 32.1620 6.1826 74.2005 0.0000 -8.1527 0.0000
# 4 0.0000 0.0000 0.0000 27.1848 0.0000 -5.0515
# 5 -12.0687 5.9163 -8.1527 0.0000 36.5877 0.0000
# 6 0.0000 0.0000 0.0000 -5.0515 0.0000 51.6045
#
#
#
# Elastic Compliance Matrix: (Units=1/GPa)
#
#
# Indices 1 2 3 4 5 6 
#
# 1 0.008013 -0.004325 -0.002814 0.000000 0.002715 0.000000
# 2 -0.004325 0.013237 0.000389 0.000000 -0.003480 0.000000
# 3 -0.002814 0.000389 0.014921 0.000000 0.002333 0.000000
# 4 0.000000 0.000000 0.000000 0.037467 0.000000 0.003668
# 5 0.002715 -0.003480 0.002333 0.000000 0.029310 0.000000
# 6 0.000000 0.000000 0.000000 0.003668 0.000000 0.019737
#
#
# Mechanical properties :
#
#
# Convention : Reuss Voigt Hill
#
# Bulk Modulus (GPa) = 44.11044 57.00796 50.55920
# Shear Modulus (GPa) = 34.78444 39.48887 37.13666
#
# Velocity S-wave (km/s) = 3.63843 3.87667 3.75943
# Velocity P-wave (km/s) = 5.86841 6.46018 6.17139
#
# Compressibility (1/GPa) = 0.02267037
#
# Stress axis : x y z
#
# Youngs Moduli (GPa) = 124.79635 75.54515 67.02028
#
# Poissons Ratio (x) = 0.32675 0.18863
# Poissons Ratio (y) = 0.53977 -0.02610
# Poissons Ratio (z) = 0.35124 -0.02942
#
# Static dielectric constant tensor:
#      x y z
#    x 2.114620 0.000000 -0.006880 
#    y 0.000000 2.061810 0.000000 
#    z -0.006880 0.000000 2.113110 
# 
# From -- ./inp_files/64406.got.cif
#   From: 2010.05.17/outbox.cif.g08.bks.cpg/sg14_33_cif.got.tgz:64406.got - 2010.06.03 17:49:19.
