data_PCOD9240057
_publ_section_title
;
Structure prediction by ZEFSAII (Michael W. Deem and Ramdas Pophale) SiO2 
 PCOD9240057
Probable space group: P 21/C
;
_chemical_formula_sum "Si O2"
_cell_formula_units_Z 32
_cell_length_a 11.795218
_cell_length_b 16.910893
_cell_length_c 11.343366
_cell_angle_alpha 90.000000
_cell_angle_beta 47.878044
_cell_angle_gamma 90.000000
_cell_volume 1678.238926
_symmetry_space_group_name_H-M "P 21/C"
_symmetry_group_IT_number 14
_symmetry_cell_setting 'monoclinic'
loop_
_space_group_symop_operation_xyz
x,y,z
-x,1/2+y,1/2-z
-x,-y,-z
x,1/2-y,1/2+z
loop_
_atom_site_type_symbol
_atom_site_label
_atom_site_fract_x
_atom_site_fract_y
_atom_site_fract_z
Si Si1 0.841284 0.462535 0.068537
Si Si2 0.600051 0.074901 0.081712
Si Si3 0.509122 0.082194 0.419789
Si Si4 0.812681 0.943698 0.349430
Si Si5 0.003366 0.336391 0.828057
Si Si6 0.689257 0.938736 0.864596
Si Si7 0.838466 0.102161 0.213787
Si Si8 0.909451 0.156091 0.902738
O O1 0.727751 0.488050 0.249316
O O2 0.790219 0.504312 0.982910
O O3 0.885595 0.373648 0.005845
O O4 0.000000 0.500000 0.000000
O O5 0.541401 0.073020 0.257617
O O6 0.463180 0.096207 0.087754
O O7 0.739737 0.136791 0.974663
O O8 0.658840 0.986429 0.006303
O O9 0.335722 0.112066 0.558269
O O10 0.660802 0.127640 0.357055
O O11 0.500000 0.000000 0.500000
O O12 0.970529 0.898421 0.249381
O O13 0.830005 0.006856 0.231711
O O14 0.945951 0.366818 0.741570
O O15 0.978486 0.243403 0.848582
O O16 0.170727 0.376405 0.730310
O O17 0.898697 0.129462 0.046372
#
# Coordination Sequence:
#
# PCOD9240057 Si02
#       8
#     4   4   4   4   4   4   4   4
#     4   9  17  32  57  83 108 148 194 237 272 338
#     4  10  20  37  61  90 114 152 198 248 294 337
#     4   9  18  34  60  85 111 143 193 247 282 331
#     4  10  18  34  58  84 109 150 198 230 284 345
#     4  10  22  37  56  87 120 153 195 237 301 358
#     4  10  20  37  63  87 119 152 204 247 288 352
#     4   9  20  37  57  81 113 149 201 240 275 346
#     4  11  22  36  58  85 120 154 186 244 301 348
#
# _framework density 19.067606999999999
#
# number of rings (size 3 to 8) (size 9 to 14) (size 15 to 20)
#    0.000    2.250    1.250    2.625    0.000    5.000 
#    2.250    0.000    2.750    0.000    0.000    0.000 
#    0.000    0.000    0.000    0.000    0.000    0.000 
#
# Total GULP energy -178158.279915 kJ/mol
# GULP energy per Si atom -5567.446247 kJ/mol
# Density = 1.902421 g / cm^3
# Si number density = 19.067607 Si / 1000 Ang^3
#
#
#
# Elastic Constant Matrix: (Units=GPa)
#
#
# Indices 1 2 3 4 5 6 
#
# 1 107.2869 29.6731 33.6671 0.0000 -21.3434 0.0000
# 2 29.6731 69.7136 27.3202 0.0000 -12.1370 0.0000
# 3 33.6671 27.3202 74.9603 0.0000 -19.6972 0.0000
# 4 0.0000 0.0000 0.0000 13.5266 0.0000 -2.5223
# 5 -21.3434 -12.1370 -19.6972 0.0000 32.0653 0.0000
# 6 0.0000 0.0000 0.0000 -2.5223 0.0000 13.3469
#
#
#
# Elastic Compliance Matrix: (Units=1/GPa)
#
#
# Indices 1 2 3 4 5 6 
#
# 1 0.012124 -0.003111 -0.002982 0.000000 0.005061 0.000000
# 2 -0.003111 0.017793 -0.004605 0.000000 0.001835 0.000000
# 3 -0.002982 -0.004605 0.018339 0.000000 0.007537 0.000000
# 4 0.000000 0.000000 0.000000 0.076629 0.000000 0.014481
# 5 0.005061 0.001835 0.007537 0.000000 0.039880 0.000000
# 6 0.000000 0.000000 0.000000 0.014481 0.000000 0.077660
#
#
# Mechanical properties :
#
#
# Convention : Reuss Voigt Hill
#
# Bulk Modulus (GPa) = 37.23089 48.14241 42.68665
# Shear Modulus (GPa) = 18.33031 22.54111 20.43571
#
# Velocity S-wave (km/s) = 3.10390 3.44200 3.27731
# Velocity P-wave (km/s) = 5.69330 6.41089 6.06272
#
# Compressibility (1/GPa) = 0.02685942
#
# Stress axis : x y z
#
# Youngs Moduli (GPa) = 82.48395 56.20244 54.52981
#
# Poissons Ratio (x) = 0.17483 0.16258
# Poissons Ratio (y) = 0.25659 0.25113
# Poissons Ratio (z) = 0.24593 0.25884
#
# Static dielectric constant tensor:
#      x y z
#    x 1.730040 0.000000 -0.020520 
#    y 0.000000 1.671320 0.000000 
#    z -0.020520 0.000000 1.706020 
# 
# From -- ./inp_files/30010.got.cif
#   From: 2010.05.17/outbox.cif.g08.bks.cpg/sg14_16_cif.got.tgz:30010.got - 2010.06.03 17:49:19.
