data_PCOD9240787
_publ_section_title
;
Structure prediction by ZEFSAII (Michael W. Deem and Ramdas Pophale) SiO2 
 PCOD9240787
Probable space group: P 21/C
;
_chemical_formula_sum "Si O2"
_cell_formula_units_Z 24
_cell_length_a 28.789174
_cell_length_b 9.024701
_cell_length_c 15.190809
_cell_angle_alpha 90.000000
_cell_angle_beta 18.935406
_cell_angle_gamma 90.000000
_cell_volume 1280.738001
_symmetry_space_group_name_H-M "P 21/C"
_symmetry_group_IT_number 14
_symmetry_cell_setting 'monoclinic'
loop_
_space_group_symop_operation_xyz
x,y,z
-x,1/2+y,1/2-z
-x,-y,-z
x,1/2-y,1/2+z
loop_
_atom_site_type_symbol
_atom_site_label
_atom_site_fract_x
_atom_site_fract_y
_atom_site_fract_z
Si Si1 0.306314 0.597579 0.939214
Si Si2 0.668379 0.457616 0.426687
Si Si3 0.140684 0.602614 0.756172
Si Si4 0.641375 0.635109 0.297848
Si Si5 0.598062 0.123251 0.536002
Si Si6 0.659344 0.526094 0.750570
O O1 0.465543 0.647828 0.617236
O O2 0.293503 0.449426 0.903672
O O3 0.332374 0.572263 0.996327
O O4 0.179472 0.721797 0.163929
O O5 0.804325 0.420616 0.242577
O O6 0.687748 0.541736 0.300300
O O7 0.593629 0.300129 0.543151
O O8 0.560471 0.555978 0.677900
O O9 0.241979 0.527416 0.503673
O O10 0.000000 0.500000 0.000000
O O11 0.689328 0.803095 0.216511
O O12 0.677078 0.065415 0.308444
O O13 0.500000 0.500000 0.000000
#
# Coordination Sequence:
#
# PCOD9240787 Si02
#       6
#     4   4   4   4   4   4
#     4   9  19  36  59  91 117 158 195 253 313 345
#     4  10  20  35  58  89 117 156 196 254 315 351
#     4  11  23  40  58  85 127 163 197 244 312 380
#     4  10  20  34  61  90 120 146 207 261 296 358
#     4  10  19  32  58  86 120 146 207 259 297 356
#     4  12  21  35  58  90 116 155 209 248 299 358
#
# _framework density 18.739194999999999
#
# number of rings (size 3 to 8) (size 9 to 14) (size 15 to 20)
#    0.000    1.667    3.333    3.000    4.667    1.333 
#    0.000    5.833    0.000    0.000    0.000    0.000 
#    0.000    0.000    0.000    0.000    0.000    0.000 
#
# Total GULP energy -133619.596130 kJ/mol
# GULP energy per Si atom -5567.483172 kJ/mol
# Density = 1.869654 g / cm^3
# Si number density = 18.739195 Si / 1000 Ang^3
#
#
#
# Elastic Constant Matrix: (Units=GPa)
#
#
# Indices 1 2 3 4 5 6 
#
# 1 63.2765 44.2530 23.3624 0.0000 17.1004 0.0000
# 2 44.2530 111.7292 13.0834 0.0000 -1.2438 0.0000
# 3 23.3624 13.0834 63.5924 0.0000 3.4147 0.0000
# 4 0.0000 0.0000 0.0000 26.4211 0.0000 7.1686
# 5 17.1004 -1.2438 3.4147 0.0000 25.2684 0.0000
# 6 0.0000 0.0000 0.0000 7.1686 0.0000 27.1149
#
#
#
# Elastic Compliance Matrix: (Units=1/GPa)
#
#
# Indices 1 2 3 4 5 6 
#
# 1 0.033911 -0.012668 -0.008649 0.000000 -0.022404 0.000000
# 2 -0.012668 0.013916 0.001303 0.000000 0.009082 0.000000
# 3 -0.008649 0.001303 0.018451 0.000000 0.003424 0.000000
# 4 0.000000 0.000000 0.000000 0.040773 0.000000 -0.010780
# 5 -0.022404 0.009082 0.003424 0.000000 0.054722 0.000000
# 6 0.000000 0.000000 0.000000 -0.010780 0.000000 0.039730
#
#
# Mechanical properties :
#
#
# Convention : Reuss Voigt Hill
#
# Bulk Modulus (GPa) = 38.09446 44.44399 41.26922
# Shear Modulus (GPa) = 19.97764 26.28749 23.13257
#
# Velocity S-wave (km/s) = 3.26864 3.74947 3.51728
# Velocity P-wave (km/s) = 5.88373 6.52022 6.21014
#
# Compressibility (1/GPa) = 0.02625054
#
# Stress axis : x y z
#
# Youngs Moduli (GPa) = 29.48898 71.85899 54.19887
#
# Poissons Ratio (x) = 0.91030 0.46876
# Poissons Ratio (y) = 0.37356 -0.07063
# Poissons Ratio (z) = 0.25504 -0.09364
#
# Static dielectric constant tensor:
#      x y z
#    x 1.650680 0.000000 -0.010310 
#    y 0.000000 1.599190 0.000000 
#    z -0.010310 0.000000 1.630490 
# 
# From -- ./inp_files/52221.got.cif
#   From: 2010.05.17/outbox.cif.g08.bks.cpg/sg14_27_cif.got.tgz:52221.got - 2010.06.03 17:49:19.
