data_PCOD9240892
_publ_section_title
;
Structure prediction by ZEFSAII (Michael W. Deem and Ramdas Pophale) SiO2 
 PCOD9240892
Probable space group: P 21/C
;
_chemical_formula_sum "Si O2"
_cell_formula_units_Z 26
_cell_length_a 17.235364
_cell_length_b 5.105194
_cell_length_c 25.387114
_cell_angle_alpha 90.000000
_cell_angle_beta 25.624489
_cell_angle_gamma 90.000000
_cell_volume 966.057996
_symmetry_space_group_name_H-M "P 21/C"
_symmetry_group_IT_number 14
_symmetry_cell_setting 'monoclinic'
loop_
_space_group_symop_operation_xyz
x,y,z
-x,1/2+y,1/2-z
-x,-y,-z
x,1/2-y,1/2+z
loop_
_atom_site_type_symbol
_atom_site_label
_atom_site_fract_x
_atom_site_fract_y
_atom_site_fract_z
Si Si1 0.928318 0.458265 0.269247
Si Si2 0.603067 0.153910 0.025546
Si Si3 0.879332 0.080741 0.208375
Si Si4 0.691412 0.240426 0.089076
Si Si5 0.264030 0.241333 0.375516
Si Si6 0.500000 0.000000 0.500000
Si Si7 0.812110 0.931561 0.692376
O O1 0.716265 0.506826 0.412173
O O2 0.978314 0.283144 0.187855
O O3 0.013806 0.743691 0.222009
O O4 0.696590 0.167254 0.024709
O O5 0.398504 0.065557 0.160379
O O6 0.585281 0.428932 0.006863
O O7 0.864310 0.266268 0.166427
O O8 0.692060 0.059157 0.354321
O O9 0.907262 0.782692 0.172102
O O10 0.477378 0.245375 0.231948
O O11 0.762479 0.517864 0.064742
O O12 0.775208 0.017373 0.074266
O O13 0.175215 0.168605 0.374775
#
# Coordination Sequence:
#
# PCOD9240892 Si02
#       7
#     4   4   4   4   4   2   4
#     4  11  24  39  54  76 107 145 186 221 253 309
#     4   9  20  34  55  80 111 144 178 218 270 319
#     4  10  20  34  54  79 107 141 177 219 272 319
#     4   9  17  29  47  74 109 141 166 205 263 328
#     4   9  17  29  47  77 110 134 165 208 266 330
#     4   8  18  32  50  78 108 134 172 220 264 322
#     4  10  19  33  56  84 110 137 170 220 277 326
#
# _framework density 26.913497
#
# number of rings (size 3 to 8) (size 9 to 14) (size 15 to 20)
#    0.000    2.462    0.000    1.846    0.000   17.846 
#    0.000    0.000    0.000    0.000    0.000   21.538 
#    0.000    0.000    0.000    0.000    0.000    0.000 
#
# Total GULP energy -144928.333643 kJ/mol
# GULP energy per Si atom -5574.166679 kJ/mol
# Density = 2.685224 g / cm^3
# Si number density = 26.913497 Si / 1000 Ang^3
#
#
#
# Elastic Constant Matrix: (Units=GPa)
#
#
# Indices 1 2 3 4 5 6 
#
# 1 70.4700 -22.9566 12.5370 0.0000 18.8321 0.0000
# 2 -22.9566 84.1030 30.3036 0.0000 -17.6499 0.0000
# 3 12.5370 30.3036 128.8070 0.0000 1.2985 0.0000
# 4 0.0000 0.0000 0.0000 27.8660 0.0000 1.8369
# 5 18.8321 -17.6499 1.2985 0.0000 28.8717 0.0000
# 6 0.0000 0.0000 0.0000 1.8369 0.0000 29.3003
#
#
#
# Elastic Compliance Matrix: (Units=1/GPa)
#
#
# Indices 1 2 3 4 5 6 
#
# 1 0.018508 0.004013 -0.002650 0.000000 -0.009500 0.000000
# 2 0.004013 0.016067 -0.004245 0.000000 0.007396 0.000000
# 3 -0.002650 -0.004245 0.009033 0.000000 -0.001273 0.000000
# 4 0.000000 0.000000 0.000000 0.036035 0.000000 -0.002259
# 5 -0.009500 0.007396 -0.001273 0.000000 0.045411 0.000000
# 6 0.000000 0.000000 0.000000 -0.002259 0.000000 0.034271
#
#
# Mechanical properties :
#
#
# Convention : Reuss Voigt Hill
#
# Bulk Modulus (GPa) = 26.42413 35.90534 31.16473
# Shear Modulus (GPa) = 28.13683 34.77402 31.45542
#
# Velocity S-wave (km/s) = 3.23686 3.59843 3.42242
# Velocity P-wave (km/s) = 4.87946 5.53488 5.21747
#
# Compressibility (1/GPa) = 0.03784420
#
# Stress axis : x y z
#
# Youngs Moduli (GPa) = 54.03133 62.23847 110.70485
#
# Poissons Ratio (x) = -0.24976 0.29334
# Poissons Ratio (y) = -0.21683 0.46996
# Poissons Ratio (z) = 0.14317 0.26421
#
# Static dielectric constant tensor:
#      x y z
#    x 2.241810 0.000000 -0.157580 
#    y 0.000000 2.091470 0.000000 
#    z -0.157580 0.000000 2.500860 
# 
# From -- ./inp_files/74055.got.cif
#   From: 2010.05.17/outbox.cif.g08.bks.cpg/sg14_38_cif.got.tgz:74055.got - 2010.06.03 17:49:19.
