data_PCOD9240768
_publ_section_title
;
Structure prediction by ZEFSAII (Michael W. Deem and Ramdas Pophale) SiO2 
 PCOD9240768
Probable space group: P 21/C
;
_chemical_formula_sum "Si O2"
_cell_formula_units_Z 24
_cell_length_a 17.614201
_cell_length_b 14.121182
_cell_length_c 11.524908
_cell_angle_alpha 90.000000
_cell_angle_beta 160.813604
_cell_angle_gamma 90.000000
_cell_volume 942.095810
_symmetry_space_group_name_H-M "P 21/C"
_symmetry_group_IT_number 14
_symmetry_cell_setting 'monoclinic'
loop_
_space_group_symop_operation_xyz
x,y,z
-x,1/2+y,1/2-z
-x,-y,-z
x,1/2-y,1/2+z
loop_
_atom_site_type_symbol
_atom_site_label
_atom_site_fract_x
_atom_site_fract_y
_atom_site_fract_z
Si Si1 0.667800 0.443089 0.459563
Si Si2 0.482750 0.394159 0.430149
Si Si3 0.460078 0.287016 0.036998
Si Si4 0.183439 0.967162 0.172117
Si Si5 0.842046 0.898193 0.078818
Si Si6 0.086386 0.295846 0.712620
O O1 0.647855 0.403387 0.558159
O O2 0.822719 0.533856 0.661979
O O3 0.676988 0.347727 0.396409
O O4 0.426882 0.490906 0.064831
O O5 0.500000 0.500000 0.500000
O O6 0.527165 0.318032 0.594913
O O7 0.243522 0.358864 0.027031
O O8 0.370566 0.345412 0.795483
O O9 0.250833 0.285800 0.833284
O O10 0.107411 0.021465 0.945097
O O11 0.150925 0.854548 0.136631
O O12 0.000000 0.000000 0.000000
O O13 0.962529 0.803883 0.298223
#
# Coordination Sequence:
#
# PCOD9240768 Si02
#       6
#     4   4   4   4   4   4
#     4  10  20  36  61  91 117 158 205 244 303 365
#     4  10  19  32  55  85 122 155 193 246 301 352
#     4   9  17  32  56  82 113 154 199 230 294 349
#     4  11  18  37  63  89 117 159 207 242 302 368
#     4  10  20  35  61  85 121 153 197 253 294 355
#     4  10  20  36  59  88 116 162 199 245 306 357
#
# _framework density 25.475114000000001
#
# number of rings (size 3 to 8) (size 9 to 14) (size 15 to 20)
#    0.000    2.000    5.000    3.000    0.000    0.000 
#    0.000    5.000   11.000    9.000    0.000    0.000 
#    0.000    0.000    0.000    0.000    0.000    0.000 
#
# Total GULP energy -133841.429699 kJ/mol
# GULP energy per Si atom -5576.726237 kJ/mol
# Density = 2.541713 g / cm^3
# Si number density = 25.475114 Si / 1000 Ang^3
#
#
#
# Elastic Constant Matrix: (Units=GPa)
#
#
# Indices 1 2 3 4 5 6 
#
# 1 68.7495 78.9681 22.3110 0.0000 -8.0940 0.0000
# 2 78.9681 249.9547 39.8082 0.0000 -14.5049 0.0000
# 3 22.3110 39.8082 54.3512 0.0000 -0.5275 0.0000
# 4 0.0000 0.0000 0.0000 33.0092 0.0000 7.1879
# 5 -8.0940 -14.5049 -0.5275 0.0000 19.9066 0.0000
# 6 0.0000 0.0000 0.0000 7.1879 0.0000 36.0646
#
#
#
# Elastic Compliance Matrix: (Units=1/GPa)
#
#
# Indices 1 2 3 4 5 6 
#
# 1 0.024368 -0.006594 -0.005125 0.000000 0.004967 0.000000
# 2 -0.006594 0.006529 -0.002055 0.000000 0.002021 0.000000
# 3 -0.005125 -0.002055 0.021979 0.000000 -0.002999 0.000000
# 4 0.000000 0.000000 0.000000 0.031669 0.000000 -0.006312
# 5 0.004967 0.002021 -0.002999 0.000000 0.053648 0.000000
# 6 0.000000 0.000000 0.000000 -0.006312 0.000000 0.028986
#
#
# Mechanical properties :
#
#
# Convention : Reuss Voigt Hill
#
# Bulk Modulus (GPa) = 39.48423 72.80335 56.14379
# Shear Modulus (GPa) = 24.61008 33.26061 28.93534
#
# Velocity S-wave (km/s) = 3.11150 3.61725 3.37386
# Velocity P-wave (km/s) = 5.33304 6.78868 6.10441
#
# Compressibility (1/GPa) = 0.02532657
#
# Stress axis : x y z
#
# Youngs Moduli (GPa) = 41.03789 153.17213 45.49816
#
# Poissons Ratio (x) = 1.01002 0.23318
# Poissons Ratio (y) = 0.27060 0.09351
# Poissons Ratio (z) = 0.21032 0.31481
#
# Static dielectric constant tensor:
#      x y z
#    x 2.001410 0.000000 0.102950 
#    y 0.000000 2.039850 0.000000 
#    z 0.102950 0.000000 2.059490 
# 
# From -- ./inp_files/29199.got.cif
#   From: 2010.05.17/outbox.cif.g08.bks.cpg/sg14_15_cif.got.tgz:29199.got - 2010.06.03 17:49:19.
