data_PCOD9240171
_publ_section_title
;
Structure prediction by ZEFSAII (Michael W. Deem and Ramdas Pophale) SiO2 
 PCOD9240171
Probable space group: P 21/C
;
_chemical_formula_sum "Si O2"
_cell_formula_units_Z 30
_cell_length_a 11.348024
_cell_length_b 8.719453
_cell_length_c 15.410154
_cell_angle_alpha 90.000000
_cell_angle_beta 111.250667
_cell_angle_gamma 90.000000
_cell_volume 1421.130887
_symmetry_space_group_name_H-M "P 21/C"
_symmetry_group_IT_number 14
_symmetry_cell_setting 'monoclinic'
loop_
_space_group_symop_operation_xyz
x,y,z
-x,1/2+y,1/2-z
-x,-y,-z
x,1/2-y,1/2+z
loop_
_atom_site_type_symbol
_atom_site_label
_atom_site_fract_x
_atom_site_fract_y
_atom_site_fract_z
Si Si1 0.946640 0.749535 0.064214
Si Si2 0.652206 0.684897 0.642376
Si Si3 0.756586 0.477631 0.815916
Si Si4 0.108623 0.761410 0.774059
Si Si5 0.221954 0.484568 0.900959
Si Si6 0.798157 0.464095 0.552902
Si Si7 0.000000 0.500000 0.000000
Si Si8 0.367103 0.697179 0.061344
O O1 0.870956 0.581356 0.046495
O O2 0.995744 0.758822 0.175414
O O3 0.870809 0.899976 0.022801
O O4 0.039691 0.689295 0.016388
O O5 0.692725 0.615279 0.745404
O O6 0.728991 0.836362 0.635094
O O7 0.694529 0.556313 0.583646
O O8 0.507364 0.735865 0.600447
O O9 0.783264 0.337868 0.756650
O O10 0.892607 0.529585 0.888975
O O11 0.666906 0.407979 0.865695
O O12 0.143875 0.596559 0.819883
O O13 0.106879 0.877331 0.855065
O O14 0.333800 0.584827 0.971792
O O15 0.724295 0.342909 0.475416
#
# Coordination Sequence:
#
# PCOD9240171 Si02
#       8
#     4   4   4   4   4   4   2   4
#     4  10  18  35  59  85 118 159 198 243 307 356
#     4  10  22  40  61  88 119 159 203 252 301 368
#     4  10  22  41  57  85 121 164 192 252 312 352
#     4   9  19  35  58  84 122 150 200 253 294 359
#     4  10  20  37  61  89 114 156 208 244 306 362
#     4   9  20  37  59  89 116 156 206 242 302 360
#     4  10  20  40  58  82 124 156 196 254 302 364
#     4  11  21  40  62  88 122 157 205 252 305 364
#
# _framework density 21.109949
#
# number of rings (size 3 to 8) (size 9 to 14) (size 15 to 20)
#    0.000    2.133    1.333    1.600    0.000    2.133 
#    7.200    2.667    0.000    0.000    0.000    0.000 
#    0.000    0.000    0.000    0.000    0.000    0.000 
#
# Total GULP energy -167034.704360 kJ/mol
# GULP energy per Si atom -5567.823479 kJ/mol
# Density = 2.106190 g / cm^3
# Si number density = 21.109949 Si / 1000 Ang^3
#
#
#
# Elastic Constant Matrix: (Units=GPa)
#
#
# Indices 1 2 3 4 5 6 
#
# 1 74.9991 61.4388 36.6447 0.0000 15.0110 0.0000
# 2 61.4388 157.7084 74.5255 0.0000 9.2482 0.0000
# 3 36.6447 74.5255 84.0294 0.0000 0.1618 0.0000
# 4 0.0000 0.0000 0.0000 32.0063 0.0000 1.0269
# 5 15.0110 9.2482 0.1618 0.0000 25.3560 0.0000
# 6 0.0000 0.0000 0.0000 1.0269 0.0000 29.9289
#
#
#
# Elastic Compliance Matrix: (Units=1/GPa)
#
#
# Indices 1 2 3 4 5 6 
#
# 1 0.022766 -0.006075 -0.004519 0.000000 -0.011233 0.000000
# 2 -0.006075 0.012941 -0.008826 0.000000 -0.001067 0.000000
# 3 -0.004519 -0.008826 0.021688 0.000000 0.005756 0.000000
# 4 0.000000 0.000000 0.000000 0.031278 0.000000 -0.001073
# 5 -0.011233 -0.001067 0.005756 0.000000 0.046441 0.000000
# 6 0.000000 0.000000 0.000000 -0.001073 0.000000 0.033449
#
#
# Mechanical properties :
#
#
# Convention : Reuss Voigt Hill
#
# Bulk Modulus (GPa) = 53.89180 73.55054 63.72117
# Shear Modulus (GPa) = 23.40963 27.06677 25.23820
#
# Velocity S-wave (km/s) = 3.33369 3.58464 3.46144
# Velocity P-wave (km/s) = 6.35629 7.21458 6.79899
#
# Compressibility (1/GPa) = 0.01855570
#
# Stress axis : x y z
#
# Youngs Moduli (GPa) = 43.92460 77.27560 46.10934
#
# Poissons Ratio (x) = 0.46946 0.20835
# Poissons Ratio (y) = 0.26685 0.40695
# Poissons Ratio (z) = 0.19848 0.68201
#
# Static dielectric constant tensor:
#      x y z
#    x 2.134740 0.000000 -0.117440 
#    y 0.000000 1.812500 0.000000 
#    z -0.117440 0.000000 1.822160 
# 
# From -- ./inp_files/57304.got.cif
#   From: 2010.05.17/outbox.cif.g08.bks.cpg/sg14_29_cif.got.tgz:57304.got - 2010.06.03 17:49:19.
