data_PCOD9240039
_publ_section_title
;
Structure prediction by ZEFSAII (Michael W. Deem and Ramdas Pophale) SiO2 
 PCOD9240039
Probable space group: P 21/C
;
_chemical_formula_sum "Si O2"
_cell_formula_units_Z 32
_cell_length_a 11.626797
_cell_length_b 11.583329
_cell_length_c 13.891874
_cell_angle_alpha 90.000000
_cell_angle_beta 117.897360
_cell_angle_gamma 90.000000
_cell_volume 1653.491701
_symmetry_space_group_name_H-M "P 21/C"
_symmetry_group_IT_number 14
_symmetry_cell_setting 'monoclinic'
loop_
_space_group_symop_operation_xyz
x,y,z
-x,1/2+y,1/2-z
-x,-y,-z
x,1/2-y,1/2+z
loop_
_atom_site_type_symbol
_atom_site_label
_atom_site_fract_x
_atom_site_fract_y
_atom_site_fract_z
Si Si1 0.695256 0.687456 0.400206
Si Si2 0.919043 0.510353 0.777846
Si Si3 0.483394 0.137359 0.006466
Si Si4 0.902321 0.362389 0.292101
Si Si5 0.246854 0.266544 0.284876
Si Si6 0.104658 0.168833 0.409975
Si Si7 0.776267 0.184257 0.108964
Si Si8 0.146876 0.541989 0.539802
O O1 0.559433 0.674401 0.402516
O O2 0.700155 0.702067 0.287959
O O3 0.777537 0.794929 0.475372
O O4 0.769368 0.568908 0.457180
O O5 0.846087 0.626056 0.781289
O O6 0.815223 0.414489 0.702659
O O7 0.999645 0.545071 0.714131
O O8 0.027202 0.450749 0.887726
O O9 0.366362 0.181756 0.893093
O O10 0.622422 0.190378 0.035848
O O11 0.500000 0.000000 0.000000
O O12 0.832231 0.301129 0.175383
O O13 0.810402 0.412484 0.338362
O O14 0.993807 0.266245 0.377410
O O15 0.161931 0.186942 0.323946
O O16 0.839692 0.141082 0.034482
O O17 0.000000 0.500000 0.500000
#
# Coordination Sequence:
#
# PCOD9240039 Si02
#       8
#     4   4   4   4   4   4   4   4
#     4  11  22  37  63  84 114 161 198 243 289 355
#     4  10  18  34  56  87 126 150 185 246 306 349
#     4  11  21  43  60  81 118 160 203 237 286 342
#     4  10  21  32  56  92 118 148 189 239 299 347
#     4  10  21  35  61  87 112 162 205 241 291 352
#     4   9  19  34  54  86 123 153 185 241 307 352
#     4  11  22  38  61  84 121 158 192 247 288 350
#     4  12  20  35  60  90 116 151 196 235 297 362
#
# _framework density 19.352983999999999
#
# number of rings (size 3 to 8) (size 9 to 14) (size 15 to 20)
#    0.000    1.500    5.000    1.500    3.500    1.500 
#    0.000    1.250    2.750    2.250    0.000    0.000 
#    0.000    0.000    0.000    0.000    0.000    0.000 
#
# Total GULP energy -178514.938290 kJ/mol
# GULP energy per Si atom -5578.591822 kJ/mol
# Density = 1.930894 g / cm^3
# Si number density = 19.352984 Si / 1000 Ang^3
#
#
#
# Elastic Constant Matrix: (Units=GPa)
#
#
# Indices 1 2 3 4 5 6 
#
# 1 96.7325 23.0365 26.7938 0.0000 -2.2650 0.0000
# 2 23.0365 43.1118 26.0773 0.0000 2.9315 0.0000
# 3 26.7938 26.0773 58.1754 0.0000 -17.1512 0.0000
# 4 0.0000 0.0000 0.0000 28.9062 0.0000 0.6179
# 5 -2.2650 2.9315 -17.1512 0.0000 30.1251 0.0000
# 6 0.0000 0.0000 0.0000 0.6179 0.0000 25.1571
#
#
#
# Elastic Compliance Matrix: (Units=1/GPa)
#
#
# Indices 1 2 3 4 5 6 
#
# 1 0.012445 -0.003993 -0.004268 0.000000 -0.001105 0.000000
# 2 -0.003993 0.038423 -0.019918 0.000000 -0.015379 0.000000
# 3 -0.004268 -0.019918 0.034321 0.000000 0.021157 0.000000
# 4 0.000000 0.000000 0.000000 0.034613 0.000000 -0.000850
# 5 -0.001105 -0.015379 0.021157 0.000000 0.046654 0.000000
# 6 0.000000 0.000000 0.000000 -0.000850 0.000000 0.039771
#
#
# Mechanical properties :
#
#
# Convention : Reuss Voigt Hill
#
# Bulk Modulus (GPa) = 34.68526 38.87055 36.77791
# Shear Modulus (GPa) = 18.36915 24.97849 21.67382
#
# Velocity S-wave (km/s) = 3.08419 3.59650 3.35015
# Velocity P-wave (km/s) = 5.53573 6.11351 5.83178
#
# Compressibility (1/GPa) = 0.02883069
#
# Stress axis : x y z
#
# Youngs Moduli (GPa) = 80.35362 26.02603 29.13673
#
# Poissons Ratio (x) = 0.10393 0.12435
# Poissons Ratio (y) = 0.32088 0.58035
# Poissons Ratio (z) = 0.34292 0.51839
#
# Static dielectric constant tensor:
#      x y z
#    x 1.658780 0.000000 -0.010490 
#    y 0.000000 1.693220 0.000000 
#    z -0.010490 0.000000 1.736060 
# 
# From -- ./inp_files/29167.got.cif
#   From: 2010.05.17/outbox.cif.g08.bks.cpg/sg14_15_cif.got.tgz:29167.got - 2010.06.03 17:49:19.
