data_PCOD9240475
_publ_section_title
;
Structure prediction by ZEFSAII (Michael W. Deem and Ramdas Pophale) SiO2 
 PCOD9240475
Probable space group: P 21/C
;
_chemical_formula_sum "Si O2"
_cell_formula_units_Z 16
_cell_length_a 4.959893
_cell_length_b 26.567949
_cell_length_c 4.953447
_cell_angle_alpha 90.000000
_cell_angle_beta 119.979769
_cell_angle_gamma 90.000000
_cell_volume 565.401542
_symmetry_space_group_name_H-M "P 21/C"
_symmetry_group_IT_number 14
_symmetry_cell_setting 'monoclinic'
loop_
_space_group_symop_operation_xyz
x,y,z
-x,1/2+y,1/2-z
-x,-y,-z
x,1/2-y,1/2+z
loop_
_atom_site_type_symbol
_atom_site_label
_atom_site_fract_x
_atom_site_fract_y
_atom_site_fract_z
Si Si1 0.000000 0.500000 0.000000
Si Si2 0.500000 0.500000 0.000000
Si Si3 0.435682 0.715942 0.888008
Si Si4 0.920297 0.649292 0.446265
Si Si5 0.578537 0.077155 0.057712
O O1 0.533201 0.537708 0.722617
O O2 0.128667 0.481192 0.778936
O O3 0.710770 0.454701 0.883579
O O4 0.453302 0.736024 0.592714
O O5 0.105922 0.687476 0.733489
O O6 0.700654 0.678833 0.127482
O O7 0.715665 0.609834 0.505587
O O8 0.179843 0.617952 0.420724
#
# Coordination Sequence:
#
# PCOD9240475 Si02
#       5
#     2   2   4   4   4
#     4   8  14  32  64 102 156 194 240 298 370 438
#     4   8  14  32  64 102 156 194 240 298 370 438
#     4  12  29  54  78 111 154 201 254 334 409 452
#     4  12  25  44  80 109 150 195 266 308 373 480
#     4  10  18  38  70 114 146 204 246 304 372 442
#
# _framework density 28.298469999999998
#
# number of rings (size 3 to 8) (size 9 to 14) (size 15 to 20)
#    1.500    0.000    2.500    3.000    0.000    6.000 
#    0.000    0.000    0.000   30.000    0.000    0.000 
#    0.000    0.000    0.000    0.000    0.000    0.000 
#
# Total GULP energy -89319.066198 kJ/mol
# GULP energy per Si atom -5582.441637 kJ/mol
# Density = 2.823406 g / cm^3
# Si number density = 28.298470 Si / 1000 Ang^3
#
#
#
# Elastic Constant Matrix: (Units=GPa)
#
#
# Indices 1 2 3 4 5 6 
#
# 1 173.3502 62.1115 18.2045 0.0000 -13.5291 0.0000
# 2 62.1115 136.7442 56.9467 0.0000 16.5867 0.0000
# 3 18.2045 56.9467 181.3084 0.0000 22.8407 0.0000
# 4 0.0000 0.0000 0.0000 64.6795 0.0000 24.6679
# 5 -13.5291 16.5867 22.8407 0.0000 28.0737 0.0000
# 6 0.0000 0.0000 0.0000 24.6679 0.0000 37.5668
#
#
#
# Elastic Compliance Matrix: (Units=1/GPa)
#
#
# Indices 1 2 3 4 5 6 
#
# 1 0.007817 -0.004222 -0.000276 0.000000 0.006486 0.000000
# 2 -0.004222 0.010951 -0.002166 0.000000 -0.006742 0.000000
# 3 -0.000276 -0.002166 0.006773 0.000000 -0.004364 0.000000
# 4 0.000000 0.000000 0.000000 0.020626 0.000000 -0.013544
# 5 0.006486 -0.006742 -0.004364 0.000000 0.046280 0.000000
# 6 0.000000 0.000000 0.000000 -0.013544 0.000000 0.035513
#
#
# Mechanical properties :
#
#
# Convention : Reuss Voigt Hill
#
# Bulk Modulus (GPa) = 81.88566 85.10313 83.49440
# Shear Modulus (GPa) = 34.39754 49.67334 42.03544
#
# Velocity S-wave (km/s) = 3.49022 4.19422 3.85831
# Velocity P-wave (km/s) = 6.72618 7.32079 7.02977
#
# Compressibility (1/GPa) = 0.01221215
#
# Stress axis : x y z
#
# Youngs Moduli (GPa) = 127.93109 91.31815 147.63982
#
# Poissons Ratio (x) = 0.38558 0.04071
# Poissons Ratio (y) = 0.54017 0.31981
# Poissons Ratio (z) = 0.03527 0.19781
#
# Static dielectric constant tensor:
#      x y z
#    x 2.224620 0.000000 -0.173060 
#    y 0.000000 2.126750 0.000000 
#    z -0.173060 0.000000 1.898430 
# 
# From -- ./inp_files/644.got.cif
#   From: 2010.05.17/outbox.cif.g08.bks.cpg/sg14_1_cif.got.tgz:644.got - 2010.06.03 17:49:19.
