data_PCOD9240081
_publ_section_title
;
Structure prediction by ZEFSAII (Michael W. Deem and Ramdas Pophale) SiO2 
 PCOD9240081
Probable space group: P 21/C
;
_chemical_formula_sum "Si O2"
_cell_formula_units_Z 28
_cell_length_a 9.032862
_cell_length_b 20.625327
_cell_length_c 16.668467
_cell_angle_alpha 90.000000
_cell_angle_beta 32.488373
_cell_angle_gamma 90.000000
_cell_volume 1668.015310
_symmetry_space_group_name_H-M "P 21/C"
_symmetry_group_IT_number 14
_symmetry_cell_setting 'monoclinic'
loop_
_space_group_symop_operation_xyz
x,y,z
-x,1/2+y,1/2-z
-x,-y,-z
x,1/2-y,1/2+z
loop_
_atom_site_type_symbol
_atom_site_label
_atom_site_fract_x
_atom_site_fract_y
_atom_site_fract_z
Si Si1 0.987900 0.368841 0.914870
Si Si2 0.629053 0.622696 0.816613
Si Si3 0.398068 0.816204 0.089771
Si Si4 0.341895 0.488055 0.701932
Si Si5 0.872172 0.757025 0.770860
Si Si6 0.360044 0.625083 0.778989
Si Si7 0.158355 0.550551 0.626461
O O1 0.083754 0.305646 0.823442
O O2 0.207693 0.425747 0.804366
O O3 0.689456 0.390824 0.015169
O O4 0.903762 0.355816 0.045745
O O5 0.609290 0.627664 0.728930
O O6 0.721395 0.691601 0.810176
O O7 0.850444 0.569923 0.743035
O O8 0.163220 0.764649 0.174325
O O9 0.402718 0.830951 0.181960
O O10 0.308172 0.883326 0.087758
O O11 0.683807 0.792301 0.922552
O O12 0.321599 0.551652 0.765897
O O13 0.182224 0.502641 0.691233
O O14 0.656783 0.476398 0.530528
#
# Coordination Sequence:
#
# PCOD9240081 Si02
#       7
#     4   4   4   4   4   4   4
#     4  10  20  35  56  80 107 145 176 221 273 323
#     4   9  21  36  53  80 112 139 179 223 269 318
#     4  10  19  35  56  77 105 138 183 222 266 317
#     4  10  18  34  60  78 108 145 182 217 271 317
#     4  11  19  36  59  77 102 146 182 222 265 329
#     4   9  21  36  53  80 111 139 177 227 268 321
#     4   9  19  33  56  82 105 142 181 220 258 323
#
# _framework density 16.786417
#
# number of rings (size 3 to 8) (size 9 to 14) (size 15 to 20)
#    0.857    1.429    2.857    0.429    0.000    2.286 
#    0.000    0.000    3.143    0.000    0.000    0.000 
#    0.000    0.000    0.000    0.000    0.000    0.000 
#
# Total GULP energy -155895.980675 kJ/mol
# GULP energy per Si atom -5567.713596 kJ/mol
# Density = 1.674821 g / cm^3
# Si number density = 16.786417 Si / 1000 Ang^3
#
#
#
# Elastic Constant Matrix: (Units=GPa)
#
#
# Indices 1 2 3 4 5 6 
#
# 1 33.2900 1.0831 2.8253 0.0000 15.5180 0.0000
# 2 1.0831 30.6905 5.3496 0.0000 12.8946 0.0000
# 3 2.8253 5.3496 58.0626 0.0000 18.6543 0.0000
# 4 0.0000 0.0000 0.0000 7.9248 0.0000 4.0510
# 5 15.5180 12.8946 18.6543 0.0000 27.4156 0.0000
# 6 0.0000 0.0000 0.0000 4.0510 0.0000 20.0222
#
#
#
# Elastic Compliance Matrix: (Units=1/GPa)
#
#
# Indices 1 2 3 4 5 6 
#
# 1 0.046968 0.013106 0.008995 0.000000 -0.038870 0.000000
# 2 0.013106 0.044696 0.005607 0.000000 -0.032256 0.000000
# 3 0.008995 0.005607 0.023998 0.000000 -0.024058 0.000000
# 4 0.000000 0.000000 0.000000 0.140743 0.000000 -0.028476
# 5 -0.038870 -0.032256 -0.024058 0.000000 0.090018 0.000000
# 6 0.000000 0.000000 0.000000 -0.028476 0.000000 0.055706
#
#
# Mechanical properties :
#
#
# Convention : Reuss Voigt Hill
#
# Bulk Modulus (GPa) = 5.84527 15.61769 10.73148
# Shear Modulus (GPa) = 12.38427 18.59151 15.48789
#
# Velocity S-wave (km/s) = 2.71911 3.33157 3.04080
# Velocity P-wave (km/s) = 3.65346 4.91153 4.32845
#
# Compressibility (1/GPa) = 0.17107839
#
# Stress axis : x y z
#
# Youngs Moduli (GPa) = 21.29088 22.37355 41.67078
#
# Poissons Ratio (x) = -0.29322 -0.37484
# Poissons Ratio (y) = -0.27903 -0.23366
# Poissons Ratio (z) = -0.19152 -0.12546
#
# Static dielectric constant tensor:
#      x y z
#    x 1.556920 0.000000 0.004030 
#    y 0.000000 1.551000 0.000000 
#    z 0.004030 0.000000 1.558150 
# 
# From -- ./inp_files/56200.got.cif
#   From: 2010.05.17/outbox.cif.g08.bks.cpg/sg14_29_cif.got.tgz:56200.got - 2010.06.03 17:49:19.
