data_PCOD9240908
_publ_section_title
;
Structure prediction by ZEFSAII (Michael W. Deem and Ramdas Pophale) SiO2 
 PCOD9240908
Probable space group: P 21/C
;
_chemical_formula_sum "Si O2"
_cell_formula_units_Z 24
_cell_length_a 7.384684
_cell_length_b 8.514961
_cell_length_c 17.732370
_cell_angle_alpha 90.000000
_cell_angle_beta 129.328828
_cell_angle_gamma 90.000000
_cell_volume 862.489296
_symmetry_space_group_name_H-M "P 21/C"
_symmetry_group_IT_number 14
_symmetry_cell_setting 'monoclinic'
loop_
_space_group_symop_operation_xyz
x,y,z
-x,1/2+y,1/2-z
-x,-y,-z
x,1/2-y,1/2+z
loop_
_atom_site_type_symbol
_atom_site_label
_atom_site_fract_x
_atom_site_fract_y
_atom_site_fract_z
Si Si1 0.397647 0.232981 0.805755
Si Si2 0.359104 0.900097 0.281810
Si Si3 0.786418 0.254086 0.042894
Si Si4 0.709220 0.086906 0.171961
Si Si5 0.192039 0.066148 0.492002
Si Si6 0.832001 0.644867 0.456463
O O1 0.534146 0.164887 0.768616
O O2 0.297986 0.412081 0.766032
O O3 0.226713 0.087952 0.784422
O O4 0.593353 0.247040 0.924837
O O5 0.203165 0.749595 0.266605
O O6 0.574243 0.906523 0.398139
O O7 0.736972 0.123251 0.091200
O O8 0.050335 0.234797 0.082597
O O9 0.772800 0.438052 0.062684
O O10 0.431828 0.092261 0.116849
O O11 0.126797 0.245427 0.459356
O O12 0.000000 0.000000 0.500000
O O13 0.000000 0.500000 0.500000
#
# Coordination Sequence:
#
# PCOD9240908 Si02
#       6
#     4   4   4   4   4   4
#     4  11  20  35  57  90 120 156 201 247 309 366
#     4  10  21  35  59  89 119 162 202 246 311 378
#     4  10  21  38  60  90 118 151 211 254 294 366
#     4  11  22  39  63  88 118 159 205 254 299 363
#     4   8  18  35  56  84 116 155 197 250 296 350
#     4  10  19  33  57  87 119 153 194 248 304 354
#
# _framework density 27.826433999999999
#
# number of rings (size 3 to 8) (size 9 to 14) (size 15 to 20)
#    0.000    2.000    3.333    0.500    0.000    6.000 
#    0.000    0.000    0.000   12.000    0.000    0.000 
#    0.000    0.000    0.000    0.000    0.000    0.000 
#
# Total GULP energy -133907.832419 kJ/mol
# GULP energy per Si atom -5579.493017 kJ/mol
# Density = 2.776310 g / cm^3
# Si number density = 27.826434 Si / 1000 Ang^3
#
#
#
# Elastic Constant Matrix: (Units=GPa)
#
#
# Indices 1 2 3 4 5 6 
#
# 1 103.8939 26.7586 27.1568 0.0000 -5.1068 0.0000
# 2 26.7586 285.7666 29.7891 0.0000 -11.1173 0.0000
# 3 27.1568 29.7891 94.0640 0.0000 4.0463 0.0000
# 4 0.0000 0.0000 0.0000 32.9148 0.0000 -12.5907
# 5 -5.1068 -11.1173 4.0463 0.0000 36.0158 0.0000
# 6 0.0000 0.0000 0.0000 -12.5907 0.0000 40.3980
#
#
#
# Elastic Compliance Matrix: (Units=1/GPa)
#
#
# Indices 1 2 3 4 5 6 
#
# 1 0.010637 -0.000625 -0.002944 0.000000 0.001646 0.000000
# 2 -0.000625 0.003713 -0.001046 0.000000 0.001175 0.000000
# 3 -0.002944 -0.001046 0.011901 0.000000 -0.002077 0.000000
# 4 0.000000 0.000000 0.000000 0.034494 0.000000 0.010751
# 5 0.001646 0.001175 -0.002077 0.000000 0.028595 0.000000
# 6 0.000000 0.000000 0.000000 0.010751 0.000000 0.028104
#
#
# Mechanical properties :
#
#
# Convention : Reuss Voigt Hill
#
# Bulk Modulus (GPa) = 58.74932 72.34815 65.54873
# Shear Modulus (GPa) = 37.77952 48.53372 43.15662
#
# Velocity S-wave (km/s) = 3.68867 4.18084 3.94245
# Velocity P-wave (km/s) = 6.26900 7.02582 6.65817
#
# Compressibility (1/GPa) = 0.01702147
#
# Stress axis : x y z
#
# Youngs Moduli (GPa) = 94.01541 269.35185 84.02317
#
# Poissons Ratio (x) = 0.16837 0.24734
# Poissons Ratio (y) = 0.05877 0.08787
# Poissons Ratio (z) = 0.27675 0.28169
#
# Static dielectric constant tensor:
#      x y z
#    x 2.213670 0.000000 -0.073370 
#    y 0.000000 3.055370 0.000000 
#    z -0.073370 0.000000 2.324430 
# 
# From -- ./inp_files/54618.got.cif
#   From: 2010.05.17/outbox.cif.g08.bks.cpg/sg14_28_cif.got.tgz:54618.got - 2010.06.03 17:49:19.
