data_PCOD9240173
_publ_section_title
;
Structure prediction by ZEFSAII (Michael W. Deem and Ramdas Pophale) SiO2 
 PCOD9240173
Probable space group: P 21/C
;
_chemical_formula_sum "Si O2"
_cell_formula_units_Z 28
_cell_length_a 10.641371
_cell_length_b 4.980399
_cell_length_c 36.919673
_cell_angle_alpha 90.000000
_cell_angle_beta 56.928804
_cell_angle_gamma 90.000000
_cell_volume 1639.683537
_symmetry_space_group_name_H-M "P 21/C"
_symmetry_group_IT_number 14
_symmetry_cell_setting 'monoclinic'
loop_
_space_group_symop_operation_xyz
x,y,z
-x,1/2+y,1/2-z
-x,-y,-z
x,1/2-y,1/2+z
loop_
_atom_site_type_symbol
_atom_site_label
_atom_site_fract_x
_atom_site_fract_y
_atom_site_fract_z
Si Si1 0.730119 0.919986 0.363547
Si Si2 0.048288 0.191136 0.221178
Si Si3 0.600768 0.552775 0.063571
Si Si4 0.032727 0.047148 0.070688
Si Si5 0.904787 0.048704 0.859513
Si Si6 0.910466 0.951428 0.551304
Si Si7 0.629032 0.447461 0.509070
O O1 0.790436 0.819097 0.315000
O O2 0.767087 0.664872 0.383175
O O3 0.559455 0.001717 0.393173
O O4 0.835657 0.164780 0.359964
O O5 0.953138 0.438876 0.251615
O O6 0.001800 0.067130 0.189414
O O7 0.737232 0.503043 0.069410
O O8 0.619656 0.351225 0.026605
O O9 0.609232 0.849915 0.045774
O O10 0.979937 0.346501 0.069828
O O11 0.012938 0.964386 0.115470
O O12 0.939112 0.849542 0.059810
O O13 0.207221 0.002955 0.033352
O O14 0.000000 0.000000 0.500000
O O15 0.500000 0.500000 0.500000
#
# Coordination Sequence:
#
# PCOD9240173 Si02
#       7
#     4   4   4   4   4   4   4
#     4  10  20  35  55  84 119 133 177 223 285 329
#     4  10  18  35  59  86 115 137 164 213 294 363
#     4  12  23  37  52  78 111 150 194 231 259 323
#     4  12  22  38  54  78 111 153 196 236 266 310
#     4  10  21  35  57  85 119 133 179 227 283 333
#     4  12  23  39  54  73 107 163 205 232 254 308
#     4  12  23  34  55  75 110 152 189 223 289 311
#
# _framework density 17.076467999999998
#
# number of rings (size 3 to 8) (size 9 to 14) (size 15 to 20)
#    0.857    0.000    4.286    5.143    0.000    0.000 
#    0.000    0.000    0.000    0.000    0.000    4.000 
#    0.000    0.000    0.000    0.000    0.000    0.000 
#
# Total GULP energy -156171.381452 kJ/mol
# GULP energy per Si atom -5577.549338 kJ/mol
# Density = 1.703760 g / cm^3
# Si number density = 17.076468 Si / 1000 Ang^3
#
#
#
# Elastic Constant Matrix: (Units=GPa)
#
#
# Indices 1 2 3 4 5 6 
#
# 1 59.9528 -7.8695 16.1979 0.0000 9.4615 0.0000
# 2 -7.8695 54.6891 -6.5344 0.0000 -1.1578 0.0000
# 3 16.1979 -6.5344 71.0230 0.0000 -0.9863 0.0000
# 4 0.0000 0.0000 0.0000 15.2154 0.0000 6.0746
# 5 9.4615 -1.1578 -0.9863 0.0000 9.1440 0.0000
# 6 0.0000 0.0000 0.0000 6.0746 0.0000 23.7651
#
#
#
# Elastic Compliance Matrix: (Units=1/GPa)
#
#
# Indices 1 2 3 4 5 6 
#
# 1 0.021974 0.002060 -0.005142 0.000000 -0.023031 0.000000
# 2 0.002060 0.018740 0.001260 0.000000 0.000377 0.000000
# 3 -0.005142 0.001260 0.015468 0.000000 0.007148 0.000000
# 4 0.000000 0.000000 0.000000 0.073192 0.000000 -0.018709
# 5 -0.023031 0.000377 0.007148 0.000000 0.134010 0.000000
# 6 0.000000 0.000000 0.000000 -0.018709 0.000000 0.046861
#
#
# Mechanical properties :
#
#
# Convention : Reuss Voigt Hill
#
# Bulk Modulus (GPa) = 19.03404 21.02810 20.03107
# Shear Modulus (GPa) = 15.08745 21.88297 18.48521
#
# Velocity S-wave (km/s) = 2.97564 3.58364 3.29370
# Velocity P-wave (km/s) = 4.79337 5.42809 5.12058
#
# Compressibility (1/GPa) = 0.05253745
#
# Stress axis : x y z
#
# Youngs Moduli (GPa) = 45.50833 53.36154 64.65060
#
# Poissons Ratio (x) = -0.10993 0.33242
# Poissons Ratio (y) = -0.09375 -0.08143
# Poissons Ratio (z) = 0.23400 -0.06721
#
# Static dielectric constant tensor:
#      x y z
#    x 1.563510 0.000000 -0.002340 
#    y 0.000000 1.592620 0.000000 
#    z -0.002340 0.000000 1.598040 
# 
# From -- ./inp_files/79019.got.cif
#   From: 2010.05.17/outbox.cif.g08.bks.cpg/sg14_40_cif.got.tgz:79019.got - 2010.06.03 17:49:19.
