data_PCOD9240270
_publ_section_title
;
Structure prediction by ZEFSAII (Michael W. Deem and Ramdas Pophale) SiO2 
 PCOD9240270
Probable space group: P 21/C
;
_chemical_formula_sum "Si O2"
_cell_formula_units_Z 32
_cell_length_a 8.848637
_cell_length_b 11.068272
_cell_length_c 25.308431
_cell_angle_alpha 90.000000
_cell_angle_beta 44.168357
_cell_angle_gamma 90.000000
_cell_volume 1727.071371
_symmetry_space_group_name_H-M "P 21/C"
_symmetry_group_IT_number 14
_symmetry_cell_setting 'monoclinic'
loop_
_space_group_symop_operation_xyz
x,y,z
-x,1/2+y,1/2-z
-x,-y,-z
x,1/2-y,1/2+z
loop_
_atom_site_type_symbol
_atom_site_label
_atom_site_fract_x
_atom_site_fract_y
_atom_site_fract_z
Si Si1 0.212282 0.871332 0.247887
Si Si2 0.121969 0.779824 0.667386
Si Si3 0.033861 0.058372 0.586459
Si Si4 0.692657 0.184246 0.590626
Si Si5 0.587974 0.698511 0.179867
Si Si6 0.951014 0.234668 0.426864
Si Si7 0.365926 0.121775 0.220115
Si Si8 0.539248 0.936801 0.583048
O O1 0.134299 0.811563 0.213164
O O2 0.371023 0.774986 0.234928
O O3 0.034445 0.905936 0.336926
O O4 0.355778 0.989095 0.198522
O O5 0.159408 0.724342 0.599710
O O6 0.302402 0.885113 0.628703
O O7 0.877659 0.829058 0.726770
O O8 0.279822 0.089611 0.507072
O O9 0.864212 0.121018 0.587998
O O10 0.027192 0.912748 0.581764
O O11 0.823668 0.255109 0.512344
O O12 0.532372 0.278712 0.657942
O O13 0.559069 0.076950 0.594788
O O14 0.586637 0.607422 0.229346
O O15 0.606794 0.634410 0.119027
O O16 0.802146 0.779768 0.133348
#
# Coordination Sequence:
#
# PCOD9240270 Si02
#       8
#     4   4   4   4   4   4   4   4
#     4  11  22  38  56  86 122 151 194 235 292 349
#     4  10  24  37  54  82 125 160 180 237 298 348
#     4  11  18  35  65  91 114 138 198 265 285 325
#     4  11  20  34  66  91 110 149 198 251 286 338
#     4  10  18  36  59  81 121 151 182 244 288 343
#     4  10  19  38  58  90 118 146 194 243 296 338
#     4  11  23  37  56  87 120 154 195 235 285 357
#     4  10  20  35  61  90 114 146 193 245 300 334
#
# _framework density 18.528476000000001
#
# number of rings (size 3 to 8) (size 9 to 14) (size 15 to 20)
#    0.000    1.500    6.250    0.750    1.750    3.000 
#    0.000    1.250    0.000    0.000    0.000    0.000 
#    0.000    0.000    0.000    0.000    0.000    0.000 
#
# Total GULP energy -178387.985021 kJ/mol
# GULP energy per Si atom -5574.624532 kJ/mol
# Density = 1.848630 g / cm^3
# Si number density = 18.528476 Si / 1000 Ang^3
#
#
#
# Elastic Constant Matrix: (Units=GPa)
#
#
# Indices 1 2 3 4 5 6 
#
# 1 87.2882 10.7890 29.9687 0.0000 12.6636 0.0000
# 2 10.7890 30.3882 11.2108 0.0000 7.4565 0.0000
# 3 29.9687 11.2108 106.9932 0.0000 11.8319 0.0000
# 4 0.0000 0.0000 0.0000 30.1329 0.0000 -0.3710
# 5 12.6636 7.4565 11.8319 0.0000 18.3747 0.0000
# 6 0.0000 0.0000 0.0000 -0.3710 0.0000 18.8346
#
#
#
# Elastic Compliance Matrix: (Units=1/GPa)
#
#
# Indices 1 2 3 4 5 6 
#
# 1 0.013679 -0.002154 -0.002864 0.000000 -0.006709 0.000000
# 2 -0.002154 0.037446 -0.001942 0.000000 -0.012461 0.000000
# 3 -0.002864 -0.001942 0.010817 0.000000 -0.004203 0.000000
# 4 0.000000 0.000000 0.000000 0.033194 0.000000 0.000654
# 5 -0.006709 -0.012461 -0.004203 0.000000 0.066810 0.000000
# 6 0.000000 0.000000 0.000000 0.000654 0.000000 0.053107
#
#
# Mechanical properties :
#
#
# Convention : Reuss Voigt Hill
#
# Bulk Modulus (GPa) = 20.82364 36.51184 28.66774
# Shear Modulus (GPa) = 20.40976 24.98186 22.69581
#
# Velocity S-wave (km/s) = 3.32254 3.67590 3.50368
# Velocity P-wave (km/s) = 5.09727 6.14531 5.64566
#
# Compressibility (1/GPa) = 0.04802235
#
# Stress axis : x y z
#
# Youngs Moduli (GPa) = 73.10403 26.70483 92.44789
#
# Poissons Ratio (x) = 0.05752 0.26476
# Poissons Ratio (y) = 0.15745 0.17957
# Poissons Ratio (z) = 0.20936 0.05187
#
# Static dielectric constant tensor:
#      x y z
#    x 1.668130 0.000000 -0.000400 
#    y 0.000000 1.622560 0.000000 
#    z -0.000400 0.000000 1.673520 
# 
# From -- ./inp_files/55414.got.cif
#   From: 2010.05.17/outbox.cif.g08.bks.cpg/sg14_28_cif.got.tgz:55414.got - 2010.06.03 17:49:19.
