data_PCOD9240417
_publ_section_title
;
Structure prediction by ZEFSAII (Michael W. Deem and Ramdas Pophale) SiO2 
 PCOD9240417
Probable space group: P 21/C
;
_chemical_formula_sum "Si O2"
_cell_formula_units_Z 32
_cell_length_a 10.857267
_cell_length_b 9.747114
_cell_length_c 13.025075
_cell_angle_alpha 90.000000
_cell_angle_beta 111.029700
_cell_angle_gamma 90.000000
_cell_volume 1286.595567
_symmetry_space_group_name_H-M "P 21/C"
_symmetry_group_IT_number 14
_symmetry_cell_setting 'monoclinic'
loop_
_space_group_symop_operation_xyz
x,y,z
-x,1/2+y,1/2-z
-x,-y,-z
x,1/2-y,1/2+z
loop_
_atom_site_type_symbol
_atom_site_label
_atom_site_fract_x
_atom_site_fract_y
_atom_site_fract_z
Si Si1 0.130647 0.968277 0.150565
Si Si2 0.839588 0.633714 0.040664
Si Si3 0.336612 0.717208 0.772349
Si Si4 0.502827 0.909882 0.160663
Si Si5 0.967977 0.283772 0.541743
Si Si6 0.417207 0.181484 0.036655
Si Si7 0.236050 0.989523 0.668526
Si Si8 0.944014 0.812593 0.243262
O O1 0.257509 0.925544 0.253796
O O2 0.002619 0.909498 0.172499
O O3 0.095145 0.119923 0.106870
O O4 0.135006 0.879191 0.046603
O O5 0.972197 0.676476 0.019827
O O6 0.711359 0.728476 0.983008
O O7 0.800455 0.497976 0.963399
O O8 0.879895 0.678455 0.168852
O O9 0.421284 0.705750 0.693148
O O10 0.443718 0.747648 0.891329
O O11 0.235550 0.841650 0.722961
O O12 0.613381 0.962470 0.271966
O O13 0.415777 0.040527 0.100837
O O14 0.574078 0.858078 0.079789
O O15 0.936727 0.226701 0.644033
O O16 0.150167 0.095942 0.711569
#
# Coordination Sequence:
#
# PCOD9240417 Si02
#       8
#     4   4   4   4   4   4   4   4
#     4  10  22  40  61  86 115 157 200 247 299 349
#     4  10  18  38  60  85 116 154 201 236 295 353
#     4  11  23  38  58  92 126 150 192 256 303 346
#     4  10  20  37  58  88 118 161 194 240 291 351
#     4   9  21  40  61  84 111 158 202 248 286 361
#     4  10  20  35  62  86 116 160 200 234 293 358
#     4  10  21  38  60  87 122 156 192 250 298 349
#     4  10  21  38  63  84 114 157 201 241 293 357
#
# _framework density 24.871842000000001
#
# number of rings (size 3 to 8) (size 9 to 14) (size 15 to 20)
#    0.000    2.000    2.500    0.750    1.750    1.000 
#    4.500    2.500    0.000    0.000    0.000    0.000 
#    0.000    0.000    0.000    0.000    0.000    0.000 
#
# Total GULP energy -178695.676355 kJ/mol
# GULP energy per Si atom -5584.239886 kJ/mol
# Density = 2.481523 g / cm^3
# Si number density = 24.871842 Si / 1000 Ang^3
#
#
#
# Elastic Constant Matrix: (Units=GPa)
#
#
# Indices 1 2 3 4 5 6 
#
# 1 49.7128 20.1157 11.9314 0.0000 14.3665 0.0000
# 2 20.1157 40.6665 9.8704 0.0000 4.3244 0.0000
# 3 11.9314 9.8704 110.4515 0.0000 15.5617 0.0000
# 4 0.0000 0.0000 0.0000 33.7519 0.0000 5.3171
# 5 14.3665 4.3244 15.5617 0.0000 26.5026 0.0000
# 6 0.0000 0.0000 0.0000 5.3171 0.0000 44.6733
#
#
#
# Elastic Compliance Matrix: (Units=1/GPa)
#
#
# Indices 1 2 3 4 5 6 
#
# 1 0.029394 -0.013059 -0.000069 0.000000 -0.013762 0.000000
# 2 -0.013059 0.031163 -0.001804 0.000000 0.003054 0.000000
# 3 -0.000069 -0.001804 0.010003 0.000000 -0.005542 0.000000
# 4 0.000000 0.000000 0.000000 0.030194 0.000000 -0.003594
# 5 -0.013762 0.003054 -0.005542 0.000000 0.047948 0.000000
# 6 0.000000 0.000000 0.000000 -0.003594 0.000000 0.022812
#
#
# Mechanical properties :
#
#
# Convention : Reuss Voigt Hill
#
# Bulk Modulus (GPa) = 24.57351 31.62954 28.10152
# Shear Modulus (GPa) = 23.26172 31.57976 27.42074
#
# Velocity S-wave (km/s) = 3.06153 3.56715 3.32397
# Velocity P-wave (km/s) = 4.73273 5.45075 5.10438
#
# Compressibility (1/GPa) = 0.04069423
#
# Stress axis : x y z
#
# Youngs Moduli (GPa) = 34.02103 32.08903 99.96738
#
# Poissons Ratio (x) = 0.41906 0.00692
# Poissons Ratio (y) = 0.44429 0.18038
# Poissons Ratio (z) = 0.00235 0.05790
#
# Static dielectric constant tensor:
#      x y z
#    x 1.918670 0.000000 0.001430 
#    y 0.000000 2.009640 0.000000 
#    z 0.001430 0.000000 1.979220 
# 
# From -- ./inp_files/29400.got.cif
#   From: 2010.05.17/outbox.cif.g08.bks.cpg/sg14_15_cif.got.tgz:29400.got - 2010.06.03 17:49:19.
