data_PCOD9240106
_publ_section_title
;
Structure prediction by ZEFSAII (Michael W. Deem and Ramdas Pophale) SiO2 
 PCOD9240106
Probable space group: P 21/C
;
_chemical_formula_sum "Si O2"
_cell_formula_units_Z 28
_cell_length_a 21.665578
_cell_length_b 7.537159
_cell_length_c 14.879499
_cell_angle_alpha 90.000000
_cell_angle_beta 150.393696
_cell_angle_gamma 90.000000
_cell_volume 1200.400610
_symmetry_space_group_name_H-M "P 21/C"
_symmetry_group_IT_number 14
_symmetry_cell_setting 'monoclinic'
loop_
_space_group_symop_operation_xyz
x,y,z
-x,1/2+y,1/2-z
-x,-y,-z
x,1/2-y,1/2+z
loop_
_atom_site_type_symbol
_atom_site_label
_atom_site_fract_x
_atom_site_fract_y
_atom_site_fract_z
Si Si1 0.734326 0.209149 0.810312
Si Si2 0.404012 0.842435 0.704224
Si Si3 0.901064 0.088866 0.307881
Si Si4 0.641630 0.416473 0.519833
Si Si5 0.819105 0.889102 0.597519
Si Si6 0.977302 0.292010 0.231809
Si Si7 0.147062 0.521261 0.681099
O O1 0.643878 0.203103 0.781444
O O2 0.668454 0.340613 0.654490
O O3 0.772009 0.028229 0.806395
O O4 0.871124 0.272089 0.020221
O O5 0.397563 0.741886 0.599909
O O6 0.302844 0.004030 0.587607
O O7 0.535273 0.934730 0.886405
O O8 0.959907 0.142699 0.287497
O O9 0.849516 0.275608 0.281362
O O10 0.767527 0.995692 0.138479
O O11 0.000000 0.000000 0.500000
O O12 0.934698 0.028577 0.727345
O O13 0.802225 0.885003 0.682531
O O14 0.882558 0.722803 0.629195
O O15 0.000000 0.500000 0.500000
#
# Coordination Sequence:
#
# PCOD9240106 Si02
#       7
#     4   4   4   4   4   4   4
#     4  10  19  39  66  90 129 170 215 268 334 389
#     4  11  23  44  65  91 134 180 224 277 328 400
#     4  10  22  39  61  94 131 163 217 276 331 391
#     4  11  23  45  65  92 128 181 226 274 333 399
#     4  10  20  37  59  93 127 167 208 267 338 384
#     4  10  20  35  64  93 129 164 209 271 334 393
#     4  10  18  34  61  91 125 166 204 262 337 386
#
# _framework density 23.325548000000001
#
# number of rings (size 3 to 8) (size 9 to 14) (size 15 to 20)
#    0.000    1.714    7.143    0.429    8.000    0.000 
#    5.143    0.714    0.000    0.000    0.000    0.000 
#    0.000    0.000    0.000    0.000    0.000    0.000 
#
# Total GULP energy -156005.437969 kJ/mol
# GULP energy per Si atom -5571.622785 kJ/mol
# Density = 2.327246 g / cm^3
# Si number density = 23.325548 Si / 1000 Ang^3
#
#
#
# Elastic Constant Matrix: (Units=GPa)
#
#
# Indices 1 2 3 4 5 6 
#
# 1 104.2892 9.3788 55.9207 0.0000 -5.8515 0.0000
# 2 9.3788 63.1669 19.5126 0.0000 0.9961 0.0000
# 3 55.9207 19.5126 111.8434 0.0000 3.1075 0.0000
# 4 0.0000 0.0000 0.0000 36.7241 0.0000 9.6699
# 5 -5.8515 0.9961 3.1075 0.0000 48.5730 0.0000
# 6 0.0000 0.0000 0.0000 9.6699 0.0000 32.3704
#
#
#
# Elastic Compliance Matrix: (Units=1/GPa)
#
#
# Indices 1 2 3 4 5 6 
#
# 1 0.013298 0.000069 -0.006717 0.000000 0.002030 0.000000
# 2 0.000069 0.016734 -0.002950 0.000000 -0.000146 0.000000
# 3 -0.006717 -0.002950 0.012858 0.000000 -0.001571 0.000000
# 4 0.000000 0.000000 0.000000 0.029555 0.000000 -0.008829
# 5 0.002030 -0.000146 -0.001571 0.000000 0.020936 0.000000
# 6 0.000000 0.000000 0.000000 -0.008829 0.000000 0.033530
#
#
# Mechanical properties :
#
#
# Convention : Reuss Voigt Hill
#
# Bulk Modulus (GPa) = 42.20563 49.88039 46.04301
# Shear Modulus (GPa) = 32.46617 36.49931 34.48274
#
# Velocity S-wave (km/s) = 3.73483 3.96002 3.84907
# Velocity P-wave (km/s) = 6.06070 6.50691 6.28776
#
# Compressibility (1/GPa) = 0.02369352
#
# Stress axis : x y z
#
# Youngs Moduli (GPa) = 75.19683 59.75711 77.77239
#
# Poissons Ratio (x) = -0.00410 0.52243
# Poissons Ratio (y) = -0.00515 0.22941
# Poissons Ratio (z) = 0.50513 0.17627
#
# Static dielectric constant tensor:
#      x y z
#    x 2.016860 0.000000 -0.001280 
#    y 0.000000 2.021530 0.000000 
#    z -0.001280 0.000000 1.935740 
# 
# From -- ./inp_files/50274.got.cif
#   From: 2010.05.17/outbox.cif.g08.bks.cpg/sg14_26_cif.got.tgz:50274.got - 2010.06.03 17:49:19.
