data_PCOD9240745
_publ_section_title
;
Structure prediction by ZEFSAII (Michael W. Deem and Ramdas Pophale) SiO2 
 PCOD9240745
Probable space group: P 21/C
;
_chemical_formula_sum "Si O2"
_cell_formula_units_Z 28
_cell_length_a 5.221631
_cell_length_b 15.280923
_cell_length_c 18.738765
_cell_angle_alpha 90.000000
_cell_angle_beta 80.134377
_cell_angle_gamma 90.000000
_cell_volume 1473.080761
_symmetry_space_group_name_H-M "P 21/C"
_symmetry_group_IT_number 14
_symmetry_cell_setting 'monoclinic'
loop_
_space_group_symop_operation_xyz
x,y,z
-x,1/2+y,1/2-z
-x,-y,-z
x,1/2-y,1/2+z
loop_
_atom_site_type_symbol
_atom_site_label
_atom_site_fract_x
_atom_site_fract_y
_atom_site_fract_z
Si Si1 0.139140 0.983575 0.880575
Si Si2 0.680445 0.447660 0.316132
Si Si3 0.620598 0.210941 0.930367
Si Si4 0.513596 0.402775 0.914398
Si Si5 0.199337 0.428342 0.069911
Si Si6 0.640999 0.433867 0.153406
Si Si7 0.923402 0.643614 0.502997
O O1 0.440132 0.987529 0.844882
O O2 0.953092 0.007460 0.823355
O O3 0.104613 0.061701 0.940512
O O4 0.035707 0.897218 0.925050
O O5 0.651187 0.364584 0.369793
O O6 0.660197 0.417435 0.235811
O O7 0.597635 0.305139 0.895208
O O8 0.358776 0.187191 0.986445
O O9 0.866000 0.206667 0.971028
O O10 0.747012 0.466280 0.930401
O O11 0.393963 0.461070 0.856972
O O12 0.308930 0.398826 0.989070
O O13 0.393216 0.395249 0.123306
O O14 0.904875 0.407328 0.101127
#
# Coordination Sequence:
#
# PCOD9240745 Si02
#       7
#     4   4   4   4   4   4   4
#     4   9  17  32  51  73 105 138 179 200 245 316
#     4  10  19  32  54  78 104 144 173 203 260 325
#     4  10  20  31  54  80 104 133 175 221 264 300
#     4   9  21  34  58  77 101 132 182 222 262 300
#     4   9  20  34  58  75  96 136 181 221 256 308
#     4  10  19  34  55  77 102 138 175 217 254 321
#     4   9  18  31  50  77 103 136 170 221 247 289
#
# _framework density 19.007784000000001
#
# number of rings (size 3 to 8) (size 9 to 14) (size 15 to 20)
#    0.857    1.714    0.000    2.143    2.000    3.429 
#    0.000    0.000    9.429    0.000    0.000    0.000 
#    0.000    0.000    0.000    0.000    0.000    0.000 
#
# Total GULP energy -156017.254214 kJ/mol
# GULP energy per Si atom -5572.044793 kJ/mol
# Density = 1.896452 g / cm^3
# Si number density = 19.007784 Si / 1000 Ang^3
#
#
#
# Elastic Constant Matrix: (Units=GPa)
#
#
# Indices 1 2 3 4 5 6 
#
# 1 47.4091 -0.7637 -9.0961 0.0000 3.6267 0.0000
# 2 -0.7637 30.1522 -2.6818 0.0000 1.3534 0.0000
# 3 -9.0961 -2.6818 36.2993 0.0000 7.2357 0.0000
# 4 0.0000 0.0000 0.0000 6.5055 0.0000 3.8726
# 5 3.6267 1.3534 7.2357 0.0000 19.0539 0.0000
# 6 0.0000 0.0000 0.0000 3.8726 0.0000 3.6862
#
#
#
# Elastic Compliance Matrix: (Units=1/GPa)
#
#
# Indices 1 2 3 4 5 6 
#
# 1 0.023088 0.001567 0.007356 0.000000 -0.007299 0.000000
# 2 0.001567 0.033718 0.003701 0.000000 -0.004099 0.000000
# 3 0.007356 0.003701 0.032454 0.000000 -0.013987 0.000000
# 4 0.000000 0.000000 0.000000 0.410321 0.000000 -0.431067
# 5 -0.007299 -0.004099 -0.013987 0.000000 0.059475 0.000000
# 6 0.000000 0.000000 0.000000 -0.431067 0.000000 0.724140
#
#
# Mechanical properties :
#
#
# Convention : Reuss Voigt Hill
#
# Bulk Modulus (GPa) = 8.73312 9.86418 9.29865
# Shear Modulus (GPa) = 3.85768 14.27596 9.06682
#
# Velocity S-wave (km/s) = 1.42616 2.74352 2.18642
# Velocity P-wave (km/s) = 2.70488 3.90342 3.35805
#
# Compressibility (1/GPa) = 0.11450667
#
# Stress axis : x y z
#
# Youngs Moduli (GPa) = 43.31254 29.65786 30.81319
#
# Poissons Ratio (x) = -0.04646 -0.22667
# Poissons Ratio (y) = -0.06786 -0.11403
# Poissons Ratio (z) = -0.31862 -0.10975
#
# Static dielectric constant tensor:
#      x y z
#    x 1.677860 0.000000 0.007750 
#    y 0.000000 1.670570 0.000000 
#    z 0.007750 0.000000 1.642950 
# 
# From -- ./inp_files/53176.got.cif
#   From: 2010.05.17/outbox.cif.g08.bks.cpg/sg14_27_cif.got.tgz:53176.got - 2010.06.03 17:49:19.
