data_PCOD9240954
_publ_section_title
;
Structure prediction by ZEFSAII (Michael W. Deem and Ramdas Pophale) SiO2 
 PCOD9240954
Probable space group: P 21/C
;
_chemical_formula_sum "Si O2"
_cell_formula_units_Z 28
_cell_length_a 17.127940
_cell_length_b 5.184894
_cell_length_c 26.742746
_cell_angle_alpha 90.000000
_cell_angle_beta 146.959237
_cell_angle_gamma 90.000000
_cell_volume 1294.896907
_symmetry_space_group_name_H-M "P 21/C"
_symmetry_group_IT_number 14
_symmetry_cell_setting 'monoclinic'
loop_
_space_group_symop_operation_xyz
x,y,z
-x,1/2+y,1/2-z
-x,-y,-z
x,1/2-y,1/2+z
loop_
_atom_site_type_symbol
_atom_site_label
_atom_site_fract_x
_atom_site_fract_y
_atom_site_fract_z
Si Si1 0.606388 0.238784 0.373817
Si Si2 0.156720 0.336604 0.033836
Si Si3 0.189830 0.508146 0.452532
Si Si4 0.130587 0.144016 0.214868
Si Si5 0.097823 0.230624 0.803381
Si Si6 0.837336 0.370974 0.832567
Si Si7 0.662169 0.016876 0.805036
O O1 0.665514 0.337455 0.458330
O O2 0.585419 0.444438 0.317677
O O3 0.736967 0.070169 0.421249
O O4 0.458352 0.090682 0.296289
O O5 0.208688 0.175322 0.110056
O O6 0.989652 0.400234 0.942271
O O7 0.175787 0.157853 0.995186
O O8 0.185473 0.338642 0.400279
O O9 0.043380 0.675312 0.373717
O O10 0.182365 0.179556 0.299467
O O11 0.190558 0.366709 0.211803
O O12 0.152582 0.864120 0.202283
O O13 0.012045 0.965474 0.744962
O O14 0.725071 0.269201 0.812645
#
# Coordination Sequence:
#
# PCOD9240954 Si02
#       7
#     4   4   4   4   4   4   4
#     4  11  21  38  57  81 119 151 208 242 288 351
#     4  10  20  38  55  84 114 150 197 244 288 349
#     4   9  20  34  58  87 116 151 189 248 296 342
#     4  10  20  37  57  89 119 147 189 242 293 354
#     4  10  19  33  61  91 120 149 188 245 305 343
#     4  11  23  38  59  86 120 154 192 242 297 346
#     4  11  24  36  58  81 113 163 195 244 292 347
#
# _framework density 21.623343999999999
#
# number of rings (size 3 to 8) (size 9 to 14) (size 15 to 20)
#    0.000    1.714    2.857    3.000    4.000    0.571 
#    0.000    0.000    0.000    1.714    0.000    0.000 
#    0.000    0.000    0.000    0.000    0.000    0.000 
#
# Total GULP energy -156392.722497 kJ/mol
# GULP energy per Si atom -5585.454375 kJ/mol
# Density = 2.157413 g / cm^3
# Si number density = 21.623344 Si / 1000 Ang^3
#
#
#
# Elastic Constant Matrix: (Units=GPa)
#
#
# Indices 1 2 3 4 5 6 
#
# 1 79.5088 20.8284 37.6670 0.0000 -22.7764 0.0000
# 2 20.8284 78.9897 24.0118 0.0000 -13.6423 0.0000
# 3 37.6670 24.0118 93.2436 0.0000 -15.4817 0.0000
# 4 0.0000 0.0000 0.0000 33.5429 0.0000 -11.4082
# 5 -22.7764 -13.6423 -15.4817 0.0000 38.9260 0.0000
# 6 0.0000 0.0000 0.0000 -11.4082 0.0000 30.0454
#
#
#
# Elastic Compliance Matrix: (Units=1/GPa)
#
#
# Indices 1 2 3 4 5 6 
#
# 1 0.017814 -0.001709 -0.005487 0.000000 0.007642 0.000000
# 2 -0.001709 0.014401 -0.002512 0.000000 0.003048 0.000000
# 3 -0.005487 -0.002512 0.013821 0.000000 0.001406 0.000000
# 4 0.000000 0.000000 0.000000 0.034233 0.000000 0.012998
# 5 0.007642 0.003048 0.001406 0.000000 0.031788 0.000000
# 6 0.000000 0.000000 0.000000 0.012998 0.000000 0.038218
#
#
# Mechanical properties :
#
#
# Convention : Reuss Voigt Hill
#
# Bulk Modulus (GPa) = 37.56705 46.30627 41.93666
# Shear Modulus (GPa) = 28.00094 31.78519 29.89307
#
# Velocity S-wave (km/s) = 3.60243 3.83815 3.72216
# Velocity P-wave (km/s) = 5.89190 6.41118 6.15702
#
# Compressibility (1/GPa) = 0.02661907
#
# Stress axis : x y z
#
# Youngs Moduli (GPa) = 56.13700 69.44180 72.35116
#
# Poissons Ratio (x) = 0.11870 0.39699
# Poissons Ratio (y) = 0.09596 0.18173
# Poissons Ratio (z) = 0.30803 0.17443
#
# Static dielectric constant tensor:
#      x y z
#    x 1.808430 0.000000 -0.016110 
#    y 0.000000 1.904160 0.000000 
#    z -0.016110 0.000000 1.824080 
# 
# From -- ./inp_files/58658.got.cif
#   From: 2010.05.17/outbox.cif.g08.bks.cpg/sg14_30_cif.got.tgz:58658.got - 2010.06.03 17:49:19.
