data_PCOD9240610
_publ_section_title
;
Structure prediction by ZEFSAII (Michael W. Deem and Ramdas Pophale) SiO2 
 PCOD9240610
Probable space group: P 21/C
;
_chemical_formula_sum "Si O2"
_cell_formula_units_Z 28
_cell_length_a 12.495697
_cell_length_b 17.574707
_cell_length_c 5.567056
_cell_angle_alpha 90.000000
_cell_angle_beta 64.367355
_cell_angle_gamma 90.000000
_cell_volume 1102.253335
_symmetry_space_group_name_H-M "P 21/C"
_symmetry_group_IT_number 14
_symmetry_cell_setting 'monoclinic'
loop_
_space_group_symop_operation_xyz
x,y,z
-x,1/2+y,1/2-z
-x,-y,-z
x,1/2-y,1/2+z
loop_
_atom_site_type_symbol
_atom_site_label
_atom_site_fract_x
_atom_site_fract_y
_atom_site_fract_z
Si Si1 0.397239 0.345657 0.487492
Si Si2 0.336924 0.907791 0.231961
Si Si3 0.965885 0.083820 0.110941
Si Si4 0.389901 0.553416 0.179434
Si Si5 0.110034 0.849956 0.312968
Si Si6 0.107640 0.229567 0.973205
Si Si7 0.594683 0.664502 0.022257
O O1 0.527408 0.383023 0.368246
O O2 0.415756 0.254953 0.471638
O O3 0.344413 0.364234 0.280371
O O4 0.343024 0.365455 0.797189
O O5 0.308153 0.943189 0.522373
O O6 0.246990 0.838992 0.256403
O O7 0.335640 0.961975 0.996278
O O8 0.928262 0.094225 0.428235
O O9 0.075601 0.142189 0.993105
O O10 0.889881 0.116872 0.957344
O O11 0.000000 0.000000 0.000000
O O12 0.500000 0.500000 0.000000
O O13 0.459317 0.633515 0.149043
O O14 0.015540 0.780487 0.406394
O O15 0.168740 0.247224 0.166373
#
# Coordination Sequence:
#
# PCOD9240610 Si02
#       7
#     4   4   4   4   4   4   4
#     4   8  14  25  37  57  82 111 139 187 218 267
#     4  10  19  31  46  68  94 131 163 201 238 294
#     4  10  19  33  49  70 102 146 171 201 246 313
#     4  10  19  31  44  62  91 133 167 199 237 286
#     4  10  19  33  48  74 101 137 173 206 258 303
#     4   8  16  30  44  68  98 133 168 197 239 300
#     4   8  14  25  36  55  78 111 146 183 219 267
#
# _framework density 25.402508000000001
#
# number of rings (size 3 to 8) (size 9 to 14) (size 15 to 20)
#    0.000    2.857    0.000    1.714    0.000    0.000 
#   30.857    0.000    0.000    0.000    0.000    0.000 
#    0.000    0.000  582.857    0.000    0.000    0.000 
#
# Total GULP energy -156113.676102 kJ/mol
# GULP energy per Si atom -5575.488432 kJ/mol
# Density = 2.534469 g / cm^3
# Si number density = 25.402508 Si / 1000 Ang^3
#
#
#
# Elastic Constant Matrix: (Units=GPa)
#
#
# Indices 1 2 3 4 5 6 
#
# 1 59.9849 -0.1978 40.0123 0.0000 26.9588 0.0000
# 2 -0.1978 78.1771 13.2949 0.0000 2.0548 0.0000
# 3 40.0123 13.2949 223.8395 0.0000 75.9983 0.0000
# 4 0.0000 0.0000 0.0000 31.6941 0.0000 2.6743
# 5 26.9588 2.0548 75.9983 0.0000 63.5064 0.0000
# 6 0.0000 0.0000 0.0000 2.6743 0.0000 14.4991
#
#
#
# Elastic Compliance Matrix: (Units=1/GPa)
#
#
# Indices 1 2 3 4 5 6 
#
# 1 0.020811 0.000459 -0.001251 0.000000 -0.007352 0.000000
# 2 0.000459 0.012959 -0.001083 0.000000 0.000683 0.000000
# 3 -0.001251 -0.001083 0.007686 0.000000 -0.008632 0.000000
# 4 0.000000 0.000000 0.000000 0.032050 0.000000 -0.005912
# 5 -0.007352 0.000683 -0.008632 0.000000 0.029175 0.000000
# 6 0.000000 0.000000 0.000000 -0.005912 0.000000 0.070060
#
#
# Mechanical properties :
#
#
# Convention : Reuss Voigt Hill
#
# Bulk Modulus (GPa) = 26.52204 52.02448 39.27326
# Shear Modulus (GPa) = 26.44635 42.53274 34.48954
#
# Velocity S-wave (km/s) = 3.23010 4.09632 3.68873
# Velocity P-wave (km/s) = 4.93708 6.54963 5.79967
#
# Compressibility (1/GPa) = 0.03770449
#
# Stress axis : x y z
#
# Youngs Moduli (GPa) = 48.05119 77.16680 130.10299
#
# Poissons Ratio (x) = -0.03539 0.16278
# Poissons Ratio (y) = -0.02204 0.14096
# Poissons Ratio (z) = 0.06012 0.08360
#
# Static dielectric constant tensor:
#      x y z
#    x 2.042030 0.000000 0.053770 
#    y 0.000000 2.011930 0.000000 
#    z 0.053770 0.000000 2.172760 
# 
# From -- ./inp_files/3770.got.cif
#   From: 2010.05.17/outbox.cif.g08.bks.cpg/sg14_2_cif.got.tgz:3770.got - 2010.06.03 17:49:19.
