data_PCOD9240923
_publ_section_title
;
Structure prediction by ZEFSAII (Michael W. Deem and Ramdas Pophale) SiO2 
 PCOD9240923
Probable space group: P 21/C
;
_chemical_formula_sum "Si O2"
_cell_formula_units_Z 32
_cell_length_a 10.447829
_cell_length_b 9.293150
_cell_length_c 18.871059
_cell_angle_alpha 90.000000
_cell_angle_beta 134.306220
_cell_angle_gamma 90.000000
_cell_volume 1311.190729
_symmetry_space_group_name_H-M "P 21/C"
_symmetry_group_IT_number 14
_symmetry_cell_setting 'monoclinic'
loop_
_space_group_symop_operation_xyz
x,y,z
-x,1/2+y,1/2-z
-x,-y,-z
x,1/2-y,1/2+z
loop_
_atom_site_type_symbol
_atom_site_label
_atom_site_fract_x
_atom_site_fract_y
_atom_site_fract_z
Si Si1 0.893438 0.779702 0.355944
Si Si2 0.870023 0.094196 0.749155
Si Si3 0.488446 0.215810 0.924307
Si Si4 0.347426 0.194012 0.107080
Si Si5 0.869897 0.678709 0.182834
Si Si6 0.529372 0.519139 0.867068
Si Si7 0.824256 0.436318 0.543709
Si Si8 0.645296 0.002312 0.249852
O O1 0.740963 0.721259 0.350256
O O2 0.871820 0.722490 0.267624
O O3 0.850930 0.950381 0.337170
O O4 0.076496 0.703516 0.451589
O O5 0.862927 0.993500 0.675849
O O6 0.029722 0.021010 0.854961
O O7 0.676189 0.067724 0.705251
O O8 0.945272 0.254000 0.771522
O O9 0.317049 0.242050 0.908124
O O10 0.546054 0.373382 0.918414
O O11 0.433995 0.118144 0.835058
O O12 0.656443 0.130400 0.021499
O O13 0.341569 0.346688 0.064442
O O14 0.556205 0.148329 0.188248
O O15 0.245404 0.056894 0.036753
O O16 0.568255 0.498594 0.799393
#
# Coordination Sequence:
#
# PCOD9240923 Si02
#       8
#     4   4   4   4   4   4   4   4
#     4   9  18  33  55  80 110 141 177 220 269 316
#     4  10  21  37  58  78 105 141 186 227 265 318
#     4   9  19  34  53  76 111 144 175 223 283 323
#     4  10  19  33  58  87 114 140 177 222 275 330
#     4   9  19  36  55  78 103 142 184 223 264 316
#     4  10  19  35  54  80 110 144 182 225 271 323
#     4  10  20  35  55  82 111 144 177 221 275 330
#     4   9  16  31  55  80 106 144 183 216 263 331
#
# _framework density 24.4053
#
# number of rings (size 3 to 8) (size 9 to 14) (size 15 to 20)
#    0.000    2.500    0.000    4.875    0.000    4.500 
#    0.000    7.500    0.000    7.500    0.000    0.000 
#    0.000    0.000    0.000    0.000    0.000    0.000 
#
# Total GULP energy -178207.214641 kJ/mol
# GULP energy per Si atom -5568.975458 kJ/mol
# Density = 2.434975 g / cm^3
# Si number density = 24.405300 Si / 1000 Ang^3
#
#
#
# Elastic Constant Matrix: (Units=GPa)
#
#
# Indices 1 2 3 4 5 6 
#
# 1 46.1012 -4.2143 10.0256 0.0000 3.2894 0.0000
# 2 -4.2143 57.9766 -4.1140 0.0000 6.9071 0.0000
# 3 10.0256 -4.1140 35.4154 0.0000 5.4297 0.0000
# 4 0.0000 0.0000 0.0000 26.2507 0.0000 3.0193
# 5 3.2894 6.9071 5.4297 0.0000 24.1761 0.0000
# 6 0.0000 0.0000 0.0000 3.0193 0.0000 -167.8081
#
#
#
# Elastic Compliance Matrix: (Units=1/GPa)
#
#
# Indices 1 2 3 4 5 6 
#
# 1 0.023313 0.001531 -0.006078 0.000000 -0.002244 0.000000
# 2 0.001531 0.018261 0.002610 0.000000 -0.006011 0.000000
# 3 -0.006078 0.002610 0.031326 0.000000 -0.006954 0.000000
# 4 0.000000 0.000000 0.000000 0.038016 0.000000 0.000684
# 5 -0.002244 -0.006011 -0.006954 0.000000 0.044948 0.000000
# 6 0.000000 0.000000 0.000000 0.000684 0.000000 -0.005947
#
#
# Mechanical properties :
#
#
# Convention : Reuss Voigt Hill
#
# Bulk Modulus (GPa) = 14.48740 15.87642 15.18191
# Shear Modulus (GPa) = 28.28053 -14.28986 6.99534
#
# Velocity S-wave (km/s) = 3.40779 -2.42238 1.69486
# Velocity P-wave (km/s) = 4.62959 1.14214 3.17243
#
# Compressibility (1/GPa) = 0.06902550
#
# Stress axis : x y z
#
# Youngs Moduli (GPa) = 42.89410 54.76163 31.92223
#
# Poissons Ratio (x) = -0.08383 0.19402
# Poissons Ratio (y) = -0.06566 -0.08330
# Poissons Ratio (z) = 0.26070 -0.14291
#
# Static dielectric constant tensor:
#      x y z
#    x 1.918860 0.000000 0.046720 
#    y 0.000000 2.043990 0.000000 
#    z 0.046720 0.000000 2.163670 
# 
# From -- ./inp_files/73123.got.cif
#   From: 2010.05.17/outbox.cif.g08.bks.cpg/sg14_37_cif.got.tgz:73123.got - 2010.06.03 17:49:19.
