data_PCOD9240310
_publ_section_title
;
Structure prediction by ZEFSAII (Michael W. Deem and Ramdas Pophale) SiO2 
 PCOD9240310
Probable space group: P 21/C
;
_chemical_formula_sum "Si O2"
_cell_formula_units_Z 26
_cell_length_a 6.553920
_cell_length_b 11.056838
_cell_length_c 15.448299
_cell_angle_alpha 90.000000
_cell_angle_beta 57.856447
_cell_angle_gamma 90.000000
_cell_volume 947.875737
_symmetry_space_group_name_H-M "P 21/C"
_symmetry_group_IT_number 14
_symmetry_cell_setting 'monoclinic'
loop_
_space_group_symop_operation_xyz
x,y,z
-x,1/2+y,1/2-z
-x,-y,-z
x,1/2-y,1/2+z
loop_
_atom_site_type_symbol
_atom_site_label
_atom_site_fract_x
_atom_site_fract_y
_atom_site_fract_z
Si Si1 0.145359 0.937158 0.632302
Si Si2 0.796141 0.734947 0.412432
Si Si3 0.000000 0.500000 0.000000
Si Si4 0.832910 0.030147 0.858516
Si Si5 0.012516 0.207060 0.947107
Si Si6 0.664867 0.249435 0.297361
Si Si7 0.412998 0.806619 0.365792
O O1 0.012407 0.829272 0.605545
O O2 0.349392 0.870572 0.641202
O O3 0.165713 0.027545 0.548549
O O4 0.975006 0.993005 0.741059
O O5 0.720017 0.593838 0.414999
O O6 0.065870 0.741900 0.308208
O O7 0.624779 0.812641 0.387681
O O8 0.811295 0.737227 0.513904
O O9 0.765283 0.422193 0.095794
O O10 0.014468 0.088723 0.888238
O O11 0.669645 0.139530 0.862239
O O12 0.757694 0.201998 0.055915
O O13 0.501920 0.272138 0.249974
#
# Coordination Sequence:
#
# PCOD9240310 Si02
#       7
#     4   4   2   4   4   4   4
#     4   9  18  34  62  84 115 167 211 253 321 381
#     4  10  21  37  62  91 125 168 216 262 320 388
#     4  10  18  36  64  84 122 172 208 264 324 370
#     4  10  18  37  63  85 125 173 206 262 334 382
#     4   9  20  37  59  87 125 167 210 272 316 383
#     4   9  19  38  59  87 127 162 210 268 313 379
#     4  10  20  38  61  89 128 164 214 269 311 386
#
# _framework density 27.429753000000002
#
# number of rings (size 3 to 8) (size 9 to 14) (size 15 to 20)
#    0.000    2.462    1.538    0.462    0.000    0.615 
#    0.000   25.385    0.000    0.000    0.000    0.000 
#    0.000    0.000    0.000    0.000    0.000    0.000 
#
# Total GULP energy -144857.152806 kJ/mol
# GULP energy per Si atom -5571.428954 kJ/mol
# Density = 2.736732 g / cm^3
# Si number density = 27.429753 Si / 1000 Ang^3
#
#
#
# Elastic Constant Matrix: (Units=GPa)
#
#
# Indices 1 2 3 4 5 6 
#
# 1 144.0301 50.6201 61.3536 0.0000 41.5090 0.0000
# 2 50.6201 68.6823 45.3866 0.0000 22.9242 0.0000
# 3 61.3536 45.3866 189.2690 0.0000 59.7802 0.0000
# 4 0.0000 0.0000 0.0000 36.7813 0.0000 -1.2079
# 5 41.5090 22.9242 59.7802 0.0000 62.6193 0.0000
# 6 0.0000 0.0000 0.0000 -1.2079 0.0000 19.8432
#
#
#
# Elastic Compliance Matrix: (Units=1/GPa)
#
#
# Indices 1 2 3 4 5 6 
#
# 1 0.010505 -0.005909 -0.000676 0.000000 -0.004155 0.000000
# 2 -0.005909 0.021145 -0.002788 0.000000 -0.001163 0.000000
# 3 -0.000676 -0.002788 0.008171 0.000000 -0.006332 0.000000
# 4 0.000000 0.000000 0.000000 0.027242 0.000000 0.001658
# 5 -0.004155 -0.001163 -0.006332 0.000000 0.025194 0.000000
# 6 0.000000 0.000000 0.000000 0.001658 0.000000 0.050496
#
#
# Mechanical properties :
#
#
# Convention : Reuss Voigt Hill
#
# Bulk Modulus (GPa) = 47.44837 79.63357 63.54097
# Shear Modulus (GPa) = 29.66922 40.15683 34.91303
#
# Velocity S-wave (km/s) = 3.29240 3.83036 3.57153
# Velocity P-wave (km/s) = 5.63817 6.97546 6.34216
#
# Compressibility (1/GPa) = 0.02107554
#
# Stress axis : x y z
#
# Youngs Moduli (GPa) = 95.19127 47.29223 122.38290
#
# Poissons Ratio (x) = 0.27945 0.08274
# Poissons Ratio (y) = 0.56248 0.34120
# Poissons Ratio (z) = 0.06435 0.13185
#
# Static dielectric constant tensor:
#      x y z
#    x 2.694460 0.000000 0.740370 
#    y 0.000000 -15.190680 0.000000 
#    z 0.740370 0.000000 3.392930 
# 
# From -- ./inp_files/53018.got.cif
#   From: 2010.05.17/outbox.cif.g08.bks.cpg/sg14_27_cif.got.tgz:53018.got - 2010.06.03 17:49:19.
