data_PCOD9240038
_publ_section_title
;
Structure prediction by ZEFSAII (Michael W. Deem and Ramdas Pophale) SiO2 
 PCOD9240038
Probable space group: P 21/C
;
_chemical_formula_sum "Si O2"
_cell_formula_units_Z 28
_cell_length_a 18.190585
_cell_length_b 5.286775
_cell_length_c 15.109677
_cell_angle_alpha 90.000000
_cell_angle_beta 49.612440
_cell_angle_gamma 90.000000
_cell_volume 1106.788559
_symmetry_space_group_name_H-M "P 21/C"
_symmetry_group_IT_number 14
_symmetry_cell_setting 'monoclinic'
loop_
_space_group_symop_operation_xyz
x,y,z
-x,1/2+y,1/2-z
-x,-y,-z
x,1/2-y,1/2+z
loop_
_atom_site_type_symbol
_atom_site_label
_atom_site_fract_x
_atom_site_fract_y
_atom_site_fract_z
Si Si1 0.773378 0.864071 0.685491
Si Si2 0.036834 0.147812 0.343593
Si Si3 0.547926 0.928631 0.182841
Si Si4 0.248866 0.627570 0.402388
Si Si5 0.669512 0.848517 0.928437
Si Si6 0.784214 0.151384 0.386524
Si Si7 0.007221 0.355143 0.657447
O O1 0.864426 0.858808 0.680956
O O2 0.788403 0.641725 0.603006
O O3 0.756913 0.144853 0.662441
O O4 0.679264 0.785229 0.817574
O O5 0.976260 0.395550 0.410632
O O6 0.048901 0.146883 0.225189
O O7 0.974296 0.900098 0.408200
O O8 0.528337 0.654868 0.242276
O O9 0.572172 0.872840 0.060779
O O10 0.642983 0.056866 0.150825
O O11 0.201508 0.747486 0.526201
O O12 0.730677 0.618951 0.925972
O O13 0.719113 0.125879 0.896040
O O14 0.889732 0.137780 0.260723
#
# Coordination Sequence:
#
# PCOD9240038 Si02
#       7
#     4   4   4   4   4   4   4
#     4  12  21  40  56  95 124 154 193 248 303 344
#     4  10  20  32  57  86 122 155 198 254 288 327
#     4  11  23  45  65  87 115 154 198 241 292 365
#     4  11  25  37  62  88 125 152 191 248 307 350
#     4  11  22  37  67  88 114 158 204 237 285 362
#     4  11  19  39  58  89 115 164 211 240 274 356
#     4  10  18  34  56  87 114 160 211 245 276 331
#
# _framework density 25.298416
#
# number of rings (size 3 to 8) (size 9 to 14) (size 15 to 20)
#    0.000    1.143    2.857    6.000    0.000    0.000 
#    0.000    5.714    0.000    0.000    0.000    0.000 
#    0.000    0.000    0.000    0.000    0.000    0.000 
#
# Total GULP energy -156675.967306 kJ/mol
# GULP energy per Si atom -5595.570261 kJ/mol
# Density = 2.524084 g / cm^3
# Si number density = 25.298416 Si / 1000 Ang^3
#
#
#
# Elastic Constant Matrix: (Units=GPa)
#
#
# Indices 1 2 3 4 5 6 
#
# 1 28.9876 5.7159 -8.2150 0.0000 9.6295 0.0000
# 2 5.7159 185.8255 15.4798 0.0000 1.7884 0.0000
# 3 -8.2150 15.4798 79.2214 0.0000 -7.9145 0.0000
# 4 0.0000 0.0000 0.0000 38.2462 0.0000 2.2118
# 5 9.6295 1.7884 -7.9145 0.0000 29.1805 0.0000
# 6 0.0000 0.0000 0.0000 2.2118 0.0000 52.7207
#
#
#
# Elastic Compliance Matrix: (Units=1/GPa)
#
#
# Indices 1 2 3 4 5 6 
#
# 1 0.039705 -0.001368 0.003170 0.000000 -0.012159 0.000000
# 2 -0.001368 0.005529 -0.001245 0.000000 -0.000225 0.000000
# 3 0.003170 -0.001245 0.013463 0.000000 0.002682 0.000000
# 4 0.000000 0.000000 0.000000 0.026210 0.000000 -0.001100
# 5 -0.012159 -0.000225 0.002682 0.000000 0.039023 0.000000
# 6 0.000000 0.000000 0.000000 -0.001100 0.000000 0.019014
#
#
# Mechanical properties :
#
#
# Convention : Reuss Voigt Hill
#
# Bulk Modulus (GPa) = 16.71955 35.55513 26.13734
# Shear Modulus (GPa) = 30.90868 42.76641 36.83755
#
# Velocity S-wave (km/s) = 3.49917 4.11600 3.82005
# Velocity P-wave (km/s) = 4.79049 6.05586 5.45996
#
# Compressibility (1/GPa) = 0.05981023
#
# Stress axis : x y z
#
# Youngs Moduli (GPa) = 25.18595 180.85334 74.27934
#
# Poissons Ratio (x) = 0.24747 -0.23546
# Poissons Ratio (y) = 0.03446 0.09246
# Poissons Ratio (z) = -0.07984 0.22513
#
# Static dielectric constant tensor:
#      x y z
#    x 1.998060 0.000000 -0.018180 
#    y 0.000000 2.099440 0.000000 
#    z -0.018180 0.000000 2.078710 
# 
# From -- ./inp_files/47906.got.cif
#   From: 2010.05.17/outbox.cif.g08.bks.cpg/sg14_24_cif.got.tgz:47906.got - 2010.06.03 17:49:19.
