data_PCOD9240524
_publ_section_title
;
Structure prediction by ZEFSAII (Michael W. Deem and Ramdas Pophale) SiO2 
 PCOD9240524
Probable space group: P 21/C
;
_chemical_formula_sum "Si O2"
_cell_formula_units_Z 28
_cell_length_a 20.474821
_cell_length_b 7.487771
_cell_length_c 13.984206
_cell_angle_alpha 90.000000
_cell_angle_beta 30.746408
_cell_angle_gamma 90.000000
_cell_volume 1096.060768
_symmetry_space_group_name_H-M "P 21/C"
_symmetry_group_IT_number 14
_symmetry_cell_setting 'monoclinic'
loop_
_space_group_symop_operation_xyz
x,y,z
-x,1/2+y,1/2-z
-x,-y,-z
x,1/2-y,1/2+z
loop_
_atom_site_type_symbol
_atom_site_label
_atom_site_fract_x
_atom_site_fract_y
_atom_site_fract_z
Si Si1 0.118707 0.031559 0.577938
Si Si2 0.637596 0.586210 0.314781
Si Si3 0.314855 0.418982 0.536508
Si Si4 0.333917 0.509453 0.190454
Si Si5 0.480791 0.886495 0.680753
Si Si6 0.029502 0.163250 0.391622
Si Si7 0.050389 0.396952 0.545640
O O1 0.061805 0.874588 0.582745
O O2 0.054914 0.003024 0.760908
O O3 0.272421 0.027262 0.384938
O O4 0.081189 0.217310 0.571446
O O5 0.500000 0.500000 0.500000
O O6 0.708560 0.530150 0.323794
O O7 0.635317 0.802153 0.317394
O O8 0.425022 0.269224 0.405413
O O9 0.382635 0.564232 0.386685
O O10 0.177928 0.354539 0.671270
O O11 0.388874 0.634397 0.203857
O O12 0.183217 0.504860 0.371785
O O13 0.415035 0.531150 0.991064
O O14 0.016194 0.323623 0.483861
O O15 0.000000 0.000000 0.500000
#
# Coordination Sequence:
#
# PCOD9240524 Si02
#       7
#     4   4   4   4   4   4   4
#     4  10  21  40  66  94 122 174 216 265 329 388
#     4  10  21  40  60  88 134 168 208 272 330 392
#     4  11  21  40  61  97 127 169 224 268 328 386
#     4   9  19  41  61  86 133 172 211 265 337 387
#     4  10  21  36  63  94 124 175 214 265 328 392
#     4  10  18  40  68  86 129 173 213 264 324 390
#     4  10  19  40  67  96 124 169 217 269 328 389
#
# _framework density 25.546028
#
# number of rings (size 3 to 8) (size 9 to 14) (size 15 to 20)
#    0.000    2.000    5.714    0.857    2.000    0.000 
#   18.000    0.714    0.000    0.000    0.000    0.000 
#    0.000    0.000    0.000    0.000    0.000    0.000 
#
# Total GULP energy -156571.089077 kJ/mol
# GULP energy per Si atom -5591.824610 kJ/mol
# Density = 2.548788 g / cm^3
# Si number density = 25.546028 Si / 1000 Ang^3
#
#
#
# Elastic Constant Matrix: (Units=GPa)
#
#
# Indices 1 2 3 4 5 6 
#
# 1 70.6486 19.4160 44.8477 0.0000 -5.0995 0.0000
# 2 19.4160 56.4949 44.6088 0.0000 -11.3297 0.0000
# 3 44.8477 44.6088 207.7211 0.0000 -10.5291 0.0000
# 4 0.0000 0.0000 0.0000 45.4411 0.0000 0.8814
# 5 -5.0995 -11.3297 -10.5291 0.0000 53.0871 0.0000
# 6 0.0000 0.0000 0.0000 0.8814 0.0000 30.2600
#
#
#
# Elastic Compliance Matrix: (Units=1/GPa)
#
#
# Indices 1 2 3 4 5 6 
#
# 1 0.016976 -0.003480 -0.002902 0.000000 0.000312 0.000000
# 2 -0.003480 0.022764 -0.003948 0.000000 0.003741 0.000000
# 3 -0.002902 -0.003948 0.006295 0.000000 0.000127 0.000000
# 4 0.000000 0.000000 0.000000 0.022019 0.000000 -0.000641
# 5 0.000312 0.003741 0.000127 0.000000 0.019691 0.000000
# 6 0.000000 0.000000 0.000000 -0.000641 0.000000 0.033066
#
#
# Mechanical properties :
#
#
# Convention : Reuss Voigt Hill
#
# Bulk Modulus (GPa) = 39.40848 61.40107 50.40477
# Shear Modulus (GPa) = 33.34945 40.82380 37.08663
#
# Velocity S-wave (km/s) = 3.61704 4.00190 3.81433
# Velocity P-wave (km/s) = 5.73620 6.74101 6.25880
#
# Compressibility (1/GPa) = 0.02537525
#
# Stress axis : x y z
#
# Youngs Moduli (GPa) = 58.90784 43.92889 158.85873
#
# Poissons Ratio (x) = 0.15288 0.46099
# Poissons Ratio (y) = 0.20501 0.62712
# Poissons Ratio (z) = 0.17094 0.17342
#
# Static dielectric constant tensor:
#      x y z
#    x 2.050220 0.000000 0.032350 
#    y 0.000000 2.201210 0.000000 
#    z 0.032350 0.000000 2.008910 
# 
# From -- ./inp_files/50052.got.cif
#   From: 2010.05.17/outbox.cif.g08.bks.cpg/sg14_26_cif.got.tgz:50052.got - 2010.06.03 17:49:19.
