data_PCOD9240137
_publ_section_title
;
Structure prediction by ZEFSAII (Michael W. Deem and Ramdas Pophale) SiO2 
 PCOD9240137
Probable space group: P 21/C
;
_chemical_formula_sum "Si O2"
_cell_formula_units_Z 28
_cell_length_a 17.385259
_cell_length_b 7.207412
_cell_length_c 20.629781
_cell_angle_alpha 90.000000
_cell_angle_beta 140.999012
_cell_angle_gamma 90.000000
_cell_volume 1626.807564
_symmetry_space_group_name_H-M "P 21/C"
_symmetry_group_IT_number 14
_symmetry_cell_setting 'monoclinic'
loop_
_space_group_symop_operation_xyz
x,y,z
-x,1/2+y,1/2-z
-x,-y,-z
x,1/2-y,1/2+z
loop_
_atom_site_type_symbol
_atom_site_label
_atom_site_fract_x
_atom_site_fract_y
_atom_site_fract_z
Si Si1 0.307336 0.424880 0.343653
Si Si2 0.767674 0.580712 0.275684
Si Si3 0.870697 0.169906 0.349888
Si Si4 0.849013 0.635634 0.937063
Si Si5 0.499549 0.089942 0.341633
Si Si6 0.616873 0.768646 0.864355
Si Si7 0.436385 0.949780 0.058552
O O1 0.260726 0.213103 0.304610
O O2 0.197694 0.558315 0.251327
O O3 0.418828 0.465069 0.365380
O O4 0.361655 0.472814 0.448888
O O5 0.835319 0.384728 0.318352
O O6 0.839133 0.717392 0.371516
O O7 0.632580 0.544803 0.215295
O O8 0.016159 0.142244 0.445124
O O9 0.828134 0.065841 0.389220
O O10 0.746653 0.705382 0.919957
O O11 0.469511 0.191712 0.254032
O O12 0.574145 0.230627 0.435529
O O13 0.568297 0.902597 0.373367
O O14 0.606604 0.943254 0.905449
#
# Coordination Sequence:
#
# PCOD9240137 Si02
#       7
#     4   4   4   4   4   4   4
#     4   9  20  35  55  77 104 142 179 218 269 317
#     4   9  18  32  55  81 103 135 177 214 266 318
#     4  10  18  35  55  74 110 138 181 226 257 316
#     4   9  21  32  51  83 106 138 178 222 270 310
#     4  10  20  30  52  82 104 136 165 216 281 323
#     4  11  20  32  52  77 109 135 173 214 276 326
#     4  10  20  36  52  78 111 134 174 229 267 327
#
# _framework density 17.211622999999999
#
# number of rings (size 3 to 8) (size 9 to 14) (size 15 to 20)
#    0.000    2.286    1.429    2.143    2.000    1.143 
#    0.000    4.286    6.286    0.000    0.000    0.000 
#    0.000    0.000    0.000    0.000    0.000    0.000 
#
# Total GULP energy -155969.133967 kJ/mol
# GULP energy per Si atom -5570.326213 kJ/mol
# Density = 1.717245 g / cm^3
# Si number density = 17.211623 Si / 1000 Ang^3
#
#
#
# Elastic Constant Matrix: (Units=GPa)
#
#
# Indices 1 2 3 4 5 6 
#
# 1 -69.1274 -109.0959 -1.3405 0.0000 21.0821 0.0000
# 2 -109.0959 -54.3445 17.7740 0.0000 40.3064 0.0000
# 3 -1.3405 17.7740 75.3687 0.0000 10.4399 0.0000
# 4 0.0000 0.0000 0.0000 10.9688 0.0000 2.1092
# 5 21.0821 40.3064 10.4399 0.0000 6.0437 0.0000
# 6 0.0000 0.0000 0.0000 2.1092 0.0000 22.1970
#
#
#
# Elastic Compliance Matrix: (Units=1/GPa)
#
#
# Indices 1 2 3 4 5 6 
#
# 1 0.019926 -0.015284 -0.000700 0.000000 0.033634 0.000000
# 2 -0.015284 0.009021 -0.001907 0.000000 -0.003554 0.000000
# 3 -0.000700 -0.001907 0.015256 0.000000 -0.011193 0.000000
# 4 0.000000 0.000000 0.000000 0.092865 0.000000 -0.008824
# 5 0.033634 -0.003554 -0.011193 0.000000 0.091178 0.000000
# 6 0.000000 0.000000 0.000000 -0.008824 0.000000 0.045890
#
#
# Mechanical properties :
#
#
# Convention : Reuss Voigt Hill
#
# Bulk Modulus (GPa) = 118.75332 -25.93643 46.40844
# Shear Modulus (GPa) = 15.98857 10.81249 13.40053
#
# Velocity S-wave (km/s) = 3.05116 2.50913 2.79332
# Velocity P-wave (km/s) = 9.03098 2.58989 6.11764
#
# Compressibility (1/GPa) = 0.00842082
#
# Stress axis : x y z
#
# Youngs Moduli (GPa) = 50.18691 110.85289 65.54865
#
# Poissons Ratio (x) = 1.69425 0.04589
# Poissons Ratio (y) = 0.76704 0.12500
# Poissons Ratio (z) = 0.03514 0.21139
#
# Static dielectric constant tensor:
#      x y z
#    x 1.594960 0.000000 -0.016390 
#    y 0.000000 1.599200 0.000000 
#    z -0.016390 0.000000 1.578710 
# 
# From -- ./inp_files/66556.got.cif
#   From: 2010.05.17/outbox.cif.g08.bks.cpg/sg14_34_cif.got.tgz:66556.got - 2010.06.03 17:49:19.
