data_PCOD9240868
_publ_section_title
;
Structure prediction by ZEFSAII (Michael W. Deem and Ramdas Pophale) SiO2 
 PCOD9240868
Probable space group: P 21/C
;
_chemical_formula_sum "Si O2"
_cell_formula_units_Z 16
_cell_length_a 6.712846
_cell_length_b 4.758763
_cell_length_c 20.299950
_cell_angle_alpha 90.000000
_cell_angle_beta 58.507820
_cell_angle_gamma 90.000000
_cell_volume 552.965242
_symmetry_space_group_name_H-M "P 21/C"
_symmetry_group_IT_number 14
_symmetry_cell_setting 'monoclinic'
loop_
_space_group_symop_operation_xyz
x,y,z
-x,1/2+y,1/2-z
-x,-y,-z
x,1/2-y,1/2+z
loop_
_atom_site_type_symbol
_atom_site_label
_atom_site_fract_x
_atom_site_fract_y
_atom_site_fract_z
Si Si1 0.790214 0.198688 0.061764
Si Si2 0.572857 0.481124 0.280383
Si Si3 0.971723 0.686985 0.849656
Si Si4 0.303267 0.781589 0.059887
O O1 0.571311 0.017808 0.127412
O O2 0.874367 0.373048 0.110337
O O3 0.732585 0.369093 0.006062
O O4 0.000000 0.000000 0.000000
O O5 0.429162 0.278187 0.256572
O O6 0.836293 0.369430 0.239104
O O7 0.748222 0.484328 0.884195
O O8 0.889068 0.000763 0.878640
O O9 0.500000 0.000000 0.000000
#
# Coordination Sequence:
#
# PCOD9240868 Si02
#       4
#     4   4   4   4
#     4   9  19  35  58  82 107 141 184 225 271 325
#     4  10  19  33  55  83 108 135 177 228 272 318
#     4  10  20  37  56  79 109 144 183 227 274 326
#     4  11  22  37  55  80 111 146 183 226 274 331
#
# _framework density 28.934913000000002
#
# number of rings (size 3 to 8) (size 9 to 14) (size 15 to 20)
#    0.000    2.000    0.000    6.000    0.000    6.000 
#    0.000    2.500    0.000    0.000    0.000    0.000 
#    0.000    0.000    0.000    0.000    0.000    0.000 
#
# Total GULP energy -89375.062593 kJ/mol
# GULP energy per Si atom -5585.941412 kJ/mol
# Density = 2.886906 g / cm^3
# Si number density = 28.934913 Si / 1000 Ang^3
#
#
#
# Elastic Constant Matrix: (Units=GPa)
#
#
# Indices 1 2 3 4 5 6 
#
# 1 42.1332 1.7913 50.6560 0.0000 -12.9857 0.0000
# 2 1.7913 103.3253 46.7993 0.0000 -23.0542 0.0000
# 3 50.6560 46.7993 274.5229 0.0000 -38.9405 0.0000
# 4 0.0000 0.0000 0.0000 57.0991 0.0000 -14.9283
# 5 -12.9857 -23.0542 -38.9405 0.0000 71.7210 0.0000
# 6 0.0000 0.0000 0.0000 -14.9283 0.0000 25.7689
#
#
#
# Elastic Compliance Matrix: (Units=1/GPa)
#
#
# Indices 1 2 3 4 5 6 
#
# 1 0.031720 0.002878 -0.005848 0.000000 0.003493 0.000000
# 2 0.002878 0.011217 -0.002013 0.000000 0.003034 0.000000
# 3 -0.005848 -0.002013 0.005225 0.000000 0.001131 0.000000
# 4 0.000000 0.000000 0.000000 0.020639 0.000000 0.011957
# 5 0.003493 0.003034 0.001131 0.000000 0.016165 0.000000
# 6 0.000000 0.000000 0.000000 0.011957 0.000000 0.045733
#
#
# Mechanical properties :
#
#
# Convention : Reuss Voigt Hill
#
# Bulk Modulus (GPa) = 26.18060 68.71940 47.45000
# Shear Modulus (GPa) = 32.59507 52.30011 42.44759
#
# Velocity S-wave (km/s) = 3.35997 4.25609 3.83430
# Velocity P-wave (km/s) = 4.91124 6.92486 6.00308
#
# Compressibility (1/GPa) = 0.03819623
#
# Stress axis : x y z
#
# Youngs Moduli (GPa) = 31.52618 89.15096 191.37134
#
# Poissons Ratio (x) = -0.25660 1.11918
# Poissons Ratio (y) = -0.09074 0.38523
# Poissons Ratio (z) = 0.18437 0.17946
#
# Static dielectric constant tensor:
#      x y z
#    x 2.620250 0.000000 -0.019460 
#    y 0.000000 2.123300 0.000000 
#    z -0.019460 0.000000 2.212080 
# 
# From -- ./inp_files/46034.got.cif
#   From: 2010.05.17/outbox.cif.g08.bks.cpg/sg14_24_cif.got.tgz:46034.got - 2010.06.03 17:49:19.
