data_PCOD9240379
_publ_section_title
;
Structure prediction by ZEFSAII (Michael W. Deem and Ramdas Pophale) SiO2 
 PCOD9240379
Probable space group: P 21/C
;
_chemical_formula_sum "Si O2"
_cell_formula_units_Z 24
_cell_length_a 9.257677
_cell_length_b 9.922668
_cell_length_c 22.528029
_cell_angle_alpha 90.000000
_cell_angle_beta 23.745608
_cell_angle_gamma 90.000000
_cell_volume 833.316525
_symmetry_space_group_name_H-M "P 21/C"
_symmetry_group_IT_number 14
_symmetry_cell_setting 'monoclinic'
loop_
_space_group_symop_operation_xyz
x,y,z
-x,1/2+y,1/2-z
-x,-y,-z
x,1/2-y,1/2+z
loop_
_atom_site_type_symbol
_atom_site_label
_atom_site_fract_x
_atom_site_fract_y
_atom_site_fract_z
Si Si1 0.840439 0.021680 0.291403
Si Si2 0.428832 0.392729 0.456098
Si Si3 0.800706 0.877813 0.522775
Si Si4 0.591338 0.282482 0.984377
Si Si5 0.847182 0.750012 0.124897
Si Si6 0.472837 0.498991 0.706008
O O1 0.614844 0.905647 0.409708
O O2 0.207037 0.940450 0.148301
O O3 0.587549 0.048505 0.329104
O O4 0.810508 0.149488 0.347165
O O5 0.313740 0.267466 0.458548
O O6 0.291982 0.320682 0.569657
O O7 0.446352 0.497614 0.394322
O O8 0.963677 0.847129 0.525894
O O9 0.073439 0.944657 0.373135
O O10 0.867474 0.233798 0.930274
O O11 0.527626 0.654729 0.271382
O O12 0.717410 0.893227 0.148732
#
# Coordination Sequence:
#
# PCOD9240379 Si02
#       6
#     4   4   4   4   4   4
#     4  10  18  37  62  84 117 158 215 249 303 372
#     4  10  20  34  59  89 119 156 202 260 303 357
#     4  10  22  38  63  88 123 166 207 258 311 373
#     4  10  20  34  60  90 114 163 203 253 306 368
#     4  11  23  38  65  95 124 166 208 258 309 378
#     4  11  22  42  61  91 129 165 208 256 311 370
#
# _framework density 28.80058
#
# number of rings (size 3 to 8) (size 9 to 14) (size 15 to 20)
#    0.000    1.667    3.333    2.500    2.333    0.000 
#    0.000    3.333    7.333    9.000    0.000    0.000 
#    0.000    0.000    0.000    0.000    0.000    0.000 
#
# Total GULP energy -133881.282295 kJ/mol
# GULP energy per Si atom -5578.386762 kJ/mol
# Density = 2.873503 g / cm^3
# Si number density = 28.800580 Si / 1000 Ang^3
#
#
#
# Elastic Constant Matrix: (Units=GPa)
#
#
# Indices 1 2 3 4 5 6 
#
# 1 205.0864 52.4878 25.6896 0.0000 3.1135 0.0000
# 2 52.4878 96.8222 29.7852 0.0000 4.0249 0.0000
# 3 25.6896 29.7852 63.2839 0.0000 -12.2692 0.0000
# 4 0.0000 0.0000 0.0000 19.7125 0.0000 -8.1248
# 5 3.1135 4.0249 -12.2692 0.0000 38.4727 0.0000
# 6 0.0000 0.0000 0.0000 -8.1248 0.0000 3.0863
#
#
#
# Elastic Compliance Matrix: (Units=1/GPa)
#
#
# Indices 1 2 3 4 5 6 
#
# 1 0.005726 -0.002729 -0.001145 0.000000 -0.000543 0.000000
# 2 -0.002729 0.013779 -0.005984 0.000000 -0.003129 0.000000
# 3 -0.001145 -0.005984 0.020489 0.000000 0.007253 0.000000
# 4 0.000000 0.000000 0.000000 -0.596575 0.000000 -1.570499
# 5 -0.000543 -0.003129 0.007253 0.000000 0.028677 0.000000
# 6 0.000000 0.000000 0.000000 -1.570499 0.000000 -3.810369
#
#
# Mechanical properties :
#
#
# Convention : Reuss Voigt Hill
#
# Bulk Modulus (GPa) = 49.31584 64.56863 56.94224
# Shear Modulus (GPa) = -1.15961 29.40298 14.12169
#
# Velocity S-wave (km/s) = -0.63522 3.19864 2.21673
# Velocity P-wave (km/s) = 4.07705 6.00913 5.13478
#
# Compressibility (1/GPa) = 0.02027746
#
# Stress axis : x y z
#
# Youngs Moduli (GPa) = 174.63566 72.57633 48.80646
#
# Poissons Ratio (x) = 0.19808 0.05589
# Poissons Ratio (y) = 0.47664 0.29204
# Poissons Ratio (z) = 0.19999 0.43427
#
# Static dielectric constant tensor:
#      x y z
#    x 2.254460 0.000000 0.167110 
#    y 0.000000 2.458250 0.000000 
#    z 0.167110 0.000000 2.783860 
# 
# From -- ./inp_files/65325.got.cif
#   From: 2010.05.17/outbox.cif.g08.bks.cpg/sg14_33_cif.got.tgz:65325.got - 2010.06.03 17:49:19.
