data_PCOD9240358
_publ_section_title
;
Structure prediction by ZEFSAII (Michael W. Deem and Ramdas Pophale) SiO2 
 PCOD9240358
Probable space group: P 21/C
;
_chemical_formula_sum "Si O2"
_cell_formula_units_Z 24
_cell_length_a 7.033001
_cell_length_b 17.541219
_cell_length_c 11.677465
_cell_angle_alpha 90.000000
_cell_angle_beta 39.863506
_cell_angle_gamma 90.000000
_cell_volume 923.380155
_symmetry_space_group_name_H-M "P 21/C"
_symmetry_group_IT_number 14
_symmetry_cell_setting 'monoclinic'
loop_
_space_group_symop_operation_xyz
x,y,z
-x,1/2+y,1/2-z
-x,-y,-z
x,1/2-y,1/2+z
loop_
_atom_site_type_symbol
_atom_site_label
_atom_site_fract_x
_atom_site_fract_y
_atom_site_fract_z
Si Si1 0.302981 0.914541 0.214055
Si Si2 0.906573 0.207513 0.995822
Si Si3 0.848351 0.371524 0.952381
Si Si4 0.497074 0.929334 0.823309
Si Si5 0.349751 0.098454 0.509039
Si Si6 0.546033 0.738390 0.615840
O O1 0.458925 0.839065 0.094142
O O2 0.977986 0.932718 0.314253
O O3 0.518707 0.986379 0.119225
O O4 0.189001 0.104699 0.278467
O O5 0.835701 0.279414 0.948076
O O6 0.775880 0.126094 0.024141
O O7 0.742714 0.225390 0.192126
O O8 0.247791 0.212922 0.872341
O O9 0.775584 0.393802 0.117059
O O10 0.607739 0.410135 0.982089
O O11 0.541415 0.931330 0.664906
O O12 0.305899 0.190804 0.516880
#
# Coordination Sequence:
#
# PCOD9240358 Si02
#       6
#     4   4   4   4   4   4
#     4  10  21  36  54  82 116 142 179 232 276 323
#     4  10  18  37  58  82 109 146 187 224 270 327
#     4  10  19  34  61  81 106 148 193 222 263 328
#     4  10  21  36  54  82 116 142 179 232 276 323
#     4  10  19  34  61  81 106 148 193 222 263 328
#     4  10  18  37  58  82 109 146 187 224 270 327
#
# _framework density 25.991463
#
# number of rings (size 3 to 8) (size 9 to 14) (size 15 to 20)
#    0.000    2.000    6.667    2.000    0.000    4.667 
#    0.000    0.000    0.000    1.000    0.000    0.000 
#    0.000    0.000    0.000    0.000    0.000    0.000 
#
# Total GULP energy -134386.258220 kJ/mol
# GULP energy per Si atom -5599.427426 kJ/mol
# Density = 2.593231 g / cm^3
# Si number density = 25.991463 Si / 1000 Ang^3
#
#
#
# Elastic Constant Matrix: (Units=GPa)
#
#
# Indices 1 2 3 4 5 6 
#
# 1 125.0928 -17.1345 31.4374 0.0000 -10.9236 0.0000
# 2 -17.1345 124.2983 0.1501 0.0000 3.7435 0.0000
# 3 31.4374 0.1501 36.5142 0.0000 4.3264 0.0000
# 4 0.0000 0.0000 0.0000 35.3269 0.0000 -14.9691
# 5 -10.9236 3.7435 4.3264 0.0000 40.4796 0.0000
# 6 0.0000 0.0000 0.0000 -14.9691 0.0000 21.7158
#
#
#
# Elastic Compliance Matrix: (Units=1/GPa)
#
#
# Indices 1 2 3 4 5 6 
#
# 1 0.011035 0.001415 -0.009970 0.000000 0.003913 0.000000
# 2 0.001415 0.008249 -0.001223 0.000000 -0.000250 0.000000
# 3 -0.009970 -0.001223 0.036747 0.000000 -0.006505 0.000000
# 4 0.000000 0.000000 0.000000 0.039987 0.000000 0.027564
# 5 0.003913 -0.000250 -0.006505 0.000000 0.026478 0.000000
# 6 0.000000 0.000000 0.000000 0.027564 0.000000 0.065050
#
#
# Mechanical properties :
#
#
# Convention : Reuss Voigt Hill
#
# Bulk Modulus (GPa) = 27.41576 34.97904 31.19740
# Shear Modulus (GPa) = 22.80400 37.60127 30.20263
#
# Velocity S-wave (km/s) = 2.96525 3.80765 3.41254
# Velocity P-wave (km/s) = 4.72170 5.72870 5.24940
#
# Compressibility (1/GPa) = 0.03647537
#
# Stress axis : x y z
#
# Youngs Moduli (GPa) = 90.61837 121.22256 27.21345
#
# Poissons Ratio (x) = -0.17158 0.27133
# Poissons Ratio (y) = -0.12826 0.03328
# Poissons Ratio (z) = 0.90350 0.14824
#
# Static dielectric constant tensor:
#      x y z
#    x 2.058600 0.000000 0.035170 
#    y 0.000000 2.088330 0.000000 
#    z 0.035170 0.000000 1.946140 
# 
# From -- ./inp_files/56071.got.cif
#   From: 2010.05.17/outbox.cif.g08.bks.cpg/sg14_29_cif.got.tgz:56071.got - 2010.06.03 17:49:19.
