data_PCOD9240297
_publ_section_title
;
Structure prediction by ZEFSAII (Michael W. Deem and Ramdas Pophale) SiO2 
 PCOD9240297
Probable space group: P 21/C
;
_chemical_formula_sum "Si O2"
_cell_formula_units_Z 28
_cell_length_a 29.918620
_cell_length_b 8.078413
_cell_length_c 30.930368
_cell_angle_alpha 90.000000
_cell_angle_beta 170.921376
_cell_angle_gamma 90.000000
_cell_volume 1179.590499
_symmetry_space_group_name_H-M "P 21/C"
_symmetry_group_IT_number 14
_symmetry_cell_setting 'monoclinic'
loop_
_space_group_symop_operation_xyz
x,y,z
-x,1/2+y,1/2-z
-x,-y,-z
x,1/2-y,1/2+z
loop_
_atom_site_type_symbol
_atom_site_label
_atom_site_fract_x
_atom_site_fract_y
_atom_site_fract_z
Si Si1 0.919569 0.773495 0.164477
Si Si2 0.114098 0.168291 0.528931
Si Si3 0.439301 0.576069 0.657980
Si Si4 0.628470 0.360877 0.756553
Si Si5 0.715626 0.354485 0.097856
Si Si6 0.202555 0.924412 0.229178
Si Si7 0.910867 0.821785 0.755373
O O1 0.951492 0.754962 0.246691
O O2 0.230434 0.724711 0.444576
O O3 0.695913 0.642334 0.931643
O O4 0.761496 0.948246 0.007829
O O5 0.397886 0.283637 0.797594
O O6 0.906824 0.233644 0.369092
O O7 0.207214 0.979087 0.619415
O O8 0.933078 0.202777 0.312186
O O9 0.553613 0.481256 0.725279
O O10 0.341748 0.284981 0.464734
O O11 0.810228 0.212051 0.950464
O O12 0.797137 0.461017 0.219197
O O13 0.801596 0.491546 0.145752
O O14 0.500000 0.000000 0.500000
O O15 0.000000 0.000000 0.000000
#
# Coordination Sequence:
#
# PCOD9240297 Si02
#       7
#     4   4   4   4   4   4   4
#     4  11  23  40  58  83 114 157 198 244 295 343
#     4  10  21  36  60  92 111 150 201 232 287 337
#     4  11  23  40  58  83 114 157 198 244 295 343
#     4  11  23  40  59  83 122 156 191 241 302 347
#     4  10  21  36  60  92 111 150 201 232 287 337
#     4  10  18  36  62  88 120 148 188 242 290 342
#     4  11  23  40  59  83 122 156 191 241 302 347
#
# _framework density 23.737051000000001
#
# number of rings (size 3 to 8) (size 9 to 14) (size 15 to 20)
#    0.857    0.571    1.429    6.000    0.000    3.429 
#    0.000    0.000    0.000    5.143    0.000    0.000 
#    0.000    0.000    0.000    0.000    0.000    0.000 
#
# Total GULP energy -156191.789107 kJ/mol
# GULP energy per Si atom -5578.278182 kJ/mol
# Density = 2.368302 g / cm^3
# Si number density = 23.737051 Si / 1000 Ang^3
#
#
#
# Elastic Constant Matrix: (Units=GPa)
#
#
# Indices 1 2 3 4 5 6 
#
# 1 11.8139 -2.0771 4.7670 0.0000 1.7483 0.0000
# 2 -2.0771 49.6147 -4.4348 0.0000 5.5828 0.0000
# 3 4.7670 -4.4348 129.2110 0.0000 4.5919 0.0000
# 4 0.0000 0.0000 0.0000 45.3269 0.0000 3.2077
# 5 1.7483 5.5828 4.5919 0.0000 24.3557 0.0000
# 6 0.0000 0.0000 0.0000 3.2077 0.0000 14.9249
#
#
#
# Elastic Compliance Matrix: (Units=1/GPa)
#
#
# Indices 1 2 3 4 5 6 
#
# 1 0.087519 0.004163 -0.002848 0.000000 -0.006700 0.000000
# 2 0.004163 0.020988 0.000753 0.000000 -0.005252 0.000000
# 3 -0.002848 0.000753 0.007922 0.000000 -0.001462 0.000000
# 4 0.000000 0.000000 0.000000 0.022403 0.000000 -0.004815
# 5 -0.006700 -0.005252 -0.001462 0.000000 0.043018 0.000000
# 6 0.000000 0.000000 0.000000 -0.004815 0.000000 0.068037
#
#
# Mechanical properties :
#
#
# Convention : Reuss Voigt Hill
#
# Bulk Modulus (GPa) = 8.29419 20.79444 14.54432
# Shear Modulus (GPa) = 17.48628 29.74713 23.61671
#
# Velocity S-wave (km/s) = 2.71710 3.54389 3.15767
# Velocity P-wave (km/s) = 3.65312 5.05222 4.40853
#
# Compressibility (1/GPa) = 0.12056631
#
# Stress axis : x y z
#
# Youngs Moduli (GPa) = 11.42610 47.64658 126.22832
#
# Poissons Ratio (x) = -0.19836 0.35948
# Poissons Ratio (y) = -0.04757 -0.09510
# Poissons Ratio (z) = 0.03254 -0.03590
#
# Static dielectric constant tensor:
#      x y z
#    x 2.012170 0.000000 0.059210 
#    y 0.000000 2.035650 0.000000 
#    z 0.059210 0.000000 1.894810 
# 
# From -- ./inp_files/80929.got.cif
#   From: 2010.05.17/outbox.cif.g08.bks.cpg/sg14_41_cif.got.tgz:80929.got - 2010.06.03 17:49:19.
