data_PCOD9240812
_publ_section_title
;
Structure prediction by ZEFSAII (Michael W. Deem and Ramdas Pophale) SiO2 
 PCOD9240812
Probable space group: P 21/C
;
_chemical_formula_sum "Si O2"
_cell_formula_units_Z 20
_cell_length_a 27.384109
_cell_length_b 7.099503
_cell_length_c 5.010020
_cell_angle_alpha 90.000000
_cell_angle_beta 79.860787
_cell_angle_gamma 90.000000
_cell_volume 958.804569
_symmetry_space_group_name_H-M "P 21/C"
_symmetry_group_IT_number 14
_symmetry_cell_setting 'monoclinic'
loop_
_space_group_symop_operation_xyz
x,y,z
-x,1/2+y,1/2-z
-x,-y,-z
x,1/2-y,1/2+z
loop_
_atom_site_type_symbol
_atom_site_label
_atom_site_fract_x
_atom_site_fract_y
_atom_site_fract_z
Si Si1 0.741028 0.116761 0.188700
Si Si2 0.152890 0.880595 0.796994
Si Si3 0.356943 0.124256 0.717353
Si Si4 0.546874 0.127051 0.380383
Si Si5 0.952459 0.377829 0.476143
O O1 0.738508 0.290096 0.399733
O O2 0.794852 0.022447 0.188290
O O3 0.695064 0.980361 0.275552
O O4 0.153026 0.801130 0.496792
O O5 0.100457 0.977007 0.911745
O O6 0.360338 0.299590 0.514129
O O7 0.402427 0.984977 0.618814
O O8 0.545265 0.306491 0.576824
O O9 0.500000 0.000000 0.500000
O O10 0.953345 0.302054 0.174333
O O11 0.000000 0.500000 0.500000
#
# Coordination Sequence:
#
# PCOD9240812 Si02
#       5
#     4   4   4   4   4
#     4  10  19  36  58  79 102 141 186 223 262 318
#     4   8  16  30  51  73  99 134 177 217 261 318
#     4  12  24  39  57  85 118 147 178 223 273 321
#     4  12  24  42  64  88 115 149 187 226 268 318
#     4  10  19  33  51  75 103 137 175 219 267 321
#
# _framework density 20.859309
#
# number of rings (size 3 to 8) (size 9 to 14) (size 15 to 20)
#    0.000    1.600    0.000    6.000    0.000    0.000 
#    0.000    2.000    0.000    0.000    0.000    0.000 
#    0.000    0.000    0.000    0.000    0.000    0.000 
#
# Total GULP energy -111740.218399 kJ/mol
# GULP energy per Si atom -5587.010920 kJ/mol
# Density = 2.081183 g / cm^3
# Si number density = 20.859309 Si / 1000 Ang^3
#
#
#
# Elastic Constant Matrix: (Units=GPa)
#
#
# Indices 1 2 3 4 5 6 
#
# 1 181.3911 35.8502 1.4949 0.0000 -32.8438 0.0000
# 2 35.8502 21.4181 -6.7008 0.0000 -11.3119 0.0000
# 3 1.4949 -6.7008 68.1551 0.0000 2.1198 0.0000
# 4 0.0000 0.0000 0.0000 34.4290 0.0000 0.3102
# 5 -32.8438 -11.3119 2.1198 0.0000 36.5281 0.0000
# 6 0.0000 0.0000 0.0000 0.3102 0.0000 36.1121
#
#
#
# Elastic Compliance Matrix: (Units=1/GPa)
#
#
# Indices 1 2 3 4 5 6 
#
# 1 0.008862 -0.013249 -0.001620 0.000000 0.003959 0.000000
# 2 -0.013249 0.077352 0.007535 0.000000 0.011604 0.000000
# 3 -0.001620 0.007535 0.015449 0.000000 -0.000020 0.000000
# 4 0.000000 0.000000 0.000000 0.029048 0.000000 -0.000249
# 5 0.003959 0.011604 -0.000020 0.000000 0.034531 0.000000
# 6 0.000000 0.000000 0.000000 -0.000249 0.000000 0.027694
#
#
# Mechanical properties :
#
#
# Convention : Reuss Voigt Hill
#
# Bulk Modulus (GPa) = 11.49501 36.91697 24.20599
# Shear Modulus (GPa) = 21.13263 37.43517 29.28390
#
# Velocity S-wave (km/s) = 3.18638 4.24093 3.75090
# Velocity P-wave (km/s) = 4.36578 6.45888 5.51258
#
# Compressibility (1/GPa) = 0.08699430
#
# Stress axis : x y z
#
# Youngs Moduli (GPa) = 112.84609 12.92797 64.72765
#
# Poissons Ratio (x) = 0.17128 0.10486
# Poissons Ratio (y) = 1.49507 -0.48770
# Poissons Ratio (z) = 0.18282 -0.09741
#
# Static dielectric constant tensor:
#      x y z
#    x 1.782350 0.000000 -0.015790 
#    y 0.000000 1.708570 0.000000 
#    z -0.015790 0.000000 1.719920 
# 
# From -- ./inp_files/4502.got.cif
#   From: 2010.05.17/outbox.cif.g08.bks.cpg/sg14_3_cif.got.tgz:4502.got - 2010.06.03 17:49:19.
