data_PCOD9240720
_publ_section_title
;
Structure prediction by ZEFSAII (Michael W. Deem and Ramdas Pophale) SiO2 
 PCOD9240720
Probable space group: P 21/C
;
_chemical_formula_sum "Si O2"
_cell_formula_units_Z 32
_cell_length_a 10.756841
_cell_length_b 9.499352
_cell_length_c 29.282798
_cell_angle_alpha 90.000000
_cell_angle_beta 147.144226
_cell_angle_gamma 90.000000
_cell_volume 1623.349433
_symmetry_space_group_name_H-M "P 21/C"
_symmetry_group_IT_number 14
_symmetry_cell_setting 'monoclinic'
loop_
_space_group_symop_operation_xyz
x,y,z
-x,1/2+y,1/2-z
-x,-y,-z
x,1/2-y,1/2+z
loop_
_atom_site_type_symbol
_atom_site_label
_atom_site_fract_x
_atom_site_fract_y
_atom_site_fract_z
Si Si1 0.572667 0.011905 0.117116
Si Si2 0.569090 0.915856 0.629086
Si Si3 0.037705 0.421161 0.463756
Si Si4 0.319328 0.799295 0.375961
Si Si5 0.049421 0.314213 0.611099
Si Si6 0.916406 0.341495 0.979260
Si Si7 0.477436 0.782713 0.019819
Si Si8 0.824190 0.800949 0.258587
O O1 0.717688 0.153382 0.161583
O O2 0.601483 0.919837 0.079438
O O3 0.646700 0.909936 0.181204
O O4 0.308912 0.060891 0.038867
O O5 0.348217 0.857493 0.587837
O O6 0.559214 0.847317 0.575775
O O7 0.781194 0.849135 0.721015
O O8 0.578328 0.081604 0.624802
O O9 0.908837 0.520669 0.387038
O O10 0.000000 0.500000 0.500000
O O11 0.958650 0.261596 0.449101
O O12 0.485333 0.756665 0.469395
O O13 0.078992 0.850453 0.323203
O O14 0.043696 0.230997 0.561614
O O15 0.790180 0.307167 0.550897
O O16 0.196079 0.232975 0.694219
O O17 0.000000 0.500000 0.000000
#
# Coordination Sequence:
#
# PCOD9240720 Si02
#       8
#     4   4   4   4   4   4   4   4
#     4  10  19  32  52  78 103 135 174 212 257 311
#     4  10  20  34  51  74 104 139 171 211 262 309
#     4   9  17  34  57  74  94 132 174 212 253 301
#     4  11  19  31  51  77 104 137 173 210 255 311
#     4   8  17  33  53  72  97 134 170 205 256 311
#     4  10  19  35  55  78 101 127 171 227 264 295
#     4   8  17  32  51  72  99 133 173 213 252 300
#     4  10  20  35  49  71 109 141 166 206 259 316
#
# _framework density 19.712329
#
# number of rings (size 3 to 8) (size 9 to 14) (size 15 to 20)
#    0.000    2.500    0.000    4.500    0.000    0.000 
#    0.000    5.000    0.000    0.000    0.000    0.000 
#    0.000    0.000    0.000    0.000    0.000    0.000 
#
# Total GULP energy -178271.898428 kJ/mol
# GULP energy per Si atom -5570.996826 kJ/mol
# Density = 1.966746 g / cm^3
# Si number density = 19.712329 Si / 1000 Ang^3
#
#
#
# Elastic Constant Matrix: (Units=GPa)
#
#
# Indices 1 2 3 4 5 6 
#
# 1 45.0257 25.0557 22.3401 0.0000 -2.1922 0.0000
# 2 25.0557 147.9759 29.9185 0.0000 -6.5522 0.0000
# 3 22.3401 29.9185 52.0358 0.0000 -11.8386 0.0000
# 4 0.0000 0.0000 0.0000 14.3955 0.0000 0.6989
# 5 -2.1922 -6.5522 -11.8386 0.0000 24.0746 0.0000
# 6 0.0000 0.0000 0.0000 0.6989 0.0000 27.0907
#
#
#
# Elastic Compliance Matrix: (Units=1/GPa)
#
#
# Indices 1 2 3 4 5 6 
#
# 1 0.029490 -0.002746 -0.011981 0.000000 -0.003954 0.000000
# 2 -0.002746 0.007903 -0.003302 0.000000 0.000277 0.000000
# 3 -0.011981 -0.003302 0.029058 0.000000 0.012300 0.000000
# 4 0.000000 0.000000 0.000000 0.069553 0.000000 -0.001794
# 5 -0.003954 0.000277 0.012300 0.000000 0.047301 0.000000
# 6 0.000000 0.000000 0.000000 -0.001794 0.000000 0.036959
#
#
# Mechanical properties :
#
#
# Convention : Reuss Voigt Hill
#
# Bulk Modulus (GPa) = 32.90294 44.40734 38.65514
# Shear Modulus (GPa) = 18.76502 24.29369 21.52936
#
# Velocity S-wave (km/s) = 3.08871 3.51438 3.30840
# Velocity P-wave (km/s) = 5.42659 6.24855 5.85202
#
# Compressibility (1/GPa) = 0.03039242
#
# Stress axis : x y z
#
# Youngs Moduli (GPa) = 33.91004 126.53987 34.41383
#
# Poissons Ratio (x) = 0.34747 0.41232
# Poissons Ratio (y) = 0.09311 0.11363
# Poissons Ratio (z) = 0.40629 0.41781
#
# Static dielectric constant tensor:
#      x y z
#    x 1.746500 0.000000 0.018120 
#    y 0.000000 1.722960 0.000000 
#    z 0.018120 0.000000 1.730650 
# 
# From -- ./inp_files/73100.got.cif
#   From: 2010.05.17/outbox.cif.g08.bks.cpg/sg14_37_cif.got.tgz:73100.got - 2010.06.03 17:49:19.
