data_PCOD9240922
_publ_section_title
;
Structure prediction by ZEFSAII (Michael W. Deem and Ramdas Pophale) SiO2 
 PCOD9240922
Probable space group: P 21/C
;
_chemical_formula_sum "Si O2"
_cell_formula_units_Z 26
_cell_length_a 10.979636
_cell_length_b 4.920160
_cell_length_c 20.713275
_cell_angle_alpha 90.000000
_cell_angle_beta 107.138816
_cell_angle_gamma 90.000000
_cell_volume 1069.274399
_symmetry_space_group_name_H-M "P 21/C"
_symmetry_group_IT_number 14
_symmetry_cell_setting 'monoclinic'
loop_
_space_group_symop_operation_xyz
x,y,z
-x,1/2+y,1/2-z
-x,-y,-z
x,1/2-y,1/2+z
loop_
_atom_site_type_symbol
_atom_site_label
_atom_site_fract_x
_atom_site_fract_y
_atom_site_fract_z
Si Si1 0.000000 0.500000 0.500000
Si Si2 0.376910 0.700680 0.288344
Si Si3 0.815961 0.945041 0.433369
Si Si4 0.608775 0.263571 0.454029
Si Si5 0.826198 0.940215 0.054781
Si Si6 0.334134 0.305343 0.870239
Si Si7 0.335984 0.080005 0.170019
O O1 0.104576 0.780012 0.550243
O O2 0.045571 0.609209 0.431826
O O3 0.348148 0.897367 0.343938
O O4 0.308019 0.846642 0.217682
O O5 0.343058 0.404537 0.311279
O O6 0.527181 0.717470 0.293840
O O7 0.678933 0.985936 0.447939
O O8 0.869312 0.711953 0.491924
O O9 0.772661 0.801299 0.360815
O O10 0.698724 0.389419 0.522621
O O11 0.458672 0.234208 0.435577
O O12 0.633115 0.432346 0.392662
O O13 0.792042 0.749384 0.107876
#
# Coordination Sequence:
#
# PCOD9240922 Si02
#       7
#     2   4   4   4   4   4   4
#     4   8  20  40  54  86 110 160 208 248 302 348
#     4  11  23  35  59  86 126 162 191 242 309 366
#     4   9  19  36  59  81 115 152 208 252 298 354
#     4  10  19  33  58  86 113 159 192 252 310 357
#     4   9  21  37  55  83 119 152 203 249 306 365
#     4  11  23  36  56  91 125 157 191 249 315 373
#     4  10  20  37  53  87 119 153 206 240 293 380
#
# _framework density 24.315556999999998
#
# number of rings (size 3 to 8) (size 9 to 14) (size 15 to 20)
#    0.923    1.231    1.538    2.308    4.308    1.231 
#    0.000    0.000    0.000    1.846    0.000    0.000 
#    0.000    0.000    0.000    0.000    0.000    0.000 
#
# Total GULP energy -144753.988539 kJ/mol
# GULP energy per Si atom -5567.461098 kJ/mol
# Density = 2.426021 g / cm^3
# Si number density = 24.315557 Si / 1000 Ang^3
#
#
#
# Elastic Constant Matrix: (Units=GPa)
#
#
# Indices 1 2 3 4 5 6 
#
# 1 98.2186 21.2073 31.6173 0.0000 -9.6096 0.0000
# 2 21.2073 101.2485 37.9265 0.0000 5.3016 0.0000
# 3 31.6173 37.9265 57.8071 0.0000 -5.3021 0.0000
# 4 0.0000 0.0000 0.0000 46.4054 0.0000 3.6969
# 5 -9.6096 5.3016 -5.3021 0.0000 29.4299 0.0000
# 6 0.0000 0.0000 0.0000 3.6969 0.0000 31.7981
#
#
#
# Elastic Compliance Matrix: (Units=1/GPa)
#
#
# Indices 1 2 3 4 5 6 
#
# 1 0.012613 -0.000428 -0.006338 0.000000 0.003054 0.000000
# 2 -0.000428 0.013583 -0.009065 0.000000 -0.004220 0.000000
# 3 -0.006338 -0.009065 0.027121 0.000000 0.004450 0.000000
# 4 0.000000 0.000000 0.000000 0.021751 0.000000 -0.002529
# 5 0.003054 -0.004220 0.004450 0.000000 0.036538 0.000000
# 6 0.000000 0.000000 0.000000 -0.002529 0.000000 0.031742
#
#
# Mechanical properties :
#
#
# Convention : Reuss Voigt Hill
#
# Bulk Modulus (GPa) = 46.17660 48.75291 47.46476
# Shear Modulus (GPa) = 27.43855 32.62822 30.03338
#
# Velocity S-wave (km/s) = 3.36286 3.66712 3.51828
# Velocity P-wave (km/s) = 5.84040 6.16636 6.00559
#
# Compressibility (1/GPa) = 0.02165599
#
# Stress axis : x y z
#
# Youngs Moduli (GPa) = 79.28551 73.62320 36.87239
#
# Poissons Ratio (x) = 0.03149 0.23369
# Poissons Ratio (y) = 0.03391 0.33423
# Poissons Ratio (z) = 0.50249 0.66736
#
# Static dielectric constant tensor:
#      x y z
#    x 2.000300 0.000000 0.126120 
#    y 0.000000 2.205070 0.000000 
#    z 0.126120 0.000000 2.080790 
# 
# From -- ./inp_files/66177.got.cif
#   From: 2010.05.17/outbox.cif.g08.bks.cpg/sg14_34_cif.got.tgz:66177.got - 2010.06.03 17:49:19.
