data_PCOD9240822
_publ_section_title
;
Structure prediction by ZEFSAII (Michael W. Deem and Ramdas Pophale) SiO2 
 PCOD9240822
Probable space group: P 21/C
;
_chemical_formula_sum "Si O2"
_cell_formula_units_Z 32
_cell_length_a 28.680555
_cell_length_b 9.014713
_cell_length_c 24.835185
_cell_angle_alpha 90.000000
_cell_angle_beta 15.797966
_cell_angle_gamma 90.000000
_cell_volume 1748.108979
_symmetry_space_group_name_H-M "P 21/C"
_symmetry_group_IT_number 14
_symmetry_cell_setting 'monoclinic'
loop_
_space_group_symop_operation_xyz
x,y,z
-x,1/2+y,1/2-z
-x,-y,-z
x,1/2-y,1/2+z
loop_
_atom_site_type_symbol
_atom_site_label
_atom_site_fract_x
_atom_site_fract_y
_atom_site_fract_z
Si Si1 0.315718 0.312088 0.510814
Si Si2 0.787963 0.093379 0.579336
Si Si3 0.738672 0.831176 0.052274
Si Si4 0.885100 0.326597 0.178205
Si Si5 0.522562 0.406617 0.610138
Si Si6 0.988287 0.826598 0.575020
Si Si7 0.968781 0.187917 0.704687
Si Si8 0.320563 0.831171 0.888492
O O1 0.237012 0.317015 0.538859
O O2 0.389835 0.472590 0.447302
O O3 0.691729 0.000003 0.116542
O O4 0.173022 0.263544 0.712625
O O5 0.847906 0.170084 0.567741
O O6 0.760231 0.215405 0.564128
O O7 0.610989 0.999998 0.778022
O O8 0.935893 0.972586 0.401244
O O9 0.591049 0.715411 0.233311
O O10 0.518205 0.709406 0.175937
O O11 0.906487 0.790599 0.899372
O O12 0.679200 0.329914 0.405153
O O13 0.944316 0.263542 0.170036
O O14 0.939824 0.500000 0.120351
O O15 0.969115 0.262345 0.030884
O O16 0.788756 0.182990 0.935371
#
# Coordination Sequence:
#
# PCOD9240822 Si02
#       8
#     4   4   4   4   4   4   4   4
#     4  10  19  33  52  76 104 130 167 212 255 303
#     4   9  19  33  51  78 104 129 166 211 255 302
#     4  11  20  32  52  76 104 134 165 206 258 311
#     4   9  17  32  54  76  99 130 170 213 253 295
#     4   9  19  33  51  78 104 129 166 211 255 302
#     4   9  17  32  54  76  99 130 170 213 253 295
#     4  10  19  33  52  76 104 130 167 212 255 303
#     4  11  20  32  52  76 104 134 165 206 258 311
#
# _framework density 18.305496000000002
#
# number of rings (size 3 to 8) (size 9 to 14) (size 15 to 20)
#    0.000    2.250    0.000    5.250    0.000    0.500 
#    0.000    7.500    0.000    4.500    0.000    0.000 
#    0.000    0.000    0.000    0.000    0.000    0.000 
#
# Total GULP energy -178453.342410 kJ/mol
# GULP energy per Si atom -5576.666950 kJ/mol
# Density = 1.826383 g / cm^3
# Si number density = 18.305496 Si / 1000 Ang^3
#
#
#
# Elastic Constant Matrix: (Units=GPa)
#
#
# Indices 1 2 3 4 5 6 
#
# 1 134.3344 31.0388 91.7827 0.0000 -1.9807 0.0000
# 2 31.0388 53.1362 30.6773 0.0000 0.5886 0.0000
# 3 91.7827 30.6773 135.4424 0.0000 0.1834 0.0000
# 4 0.0000 0.0000 0.0000 20.2379 0.0000 -5.3947
# 5 -1.9807 0.5886 0.1834 0.0000 18.3668 0.0000
# 6 0.0000 0.0000 0.0000 -5.3947 0.0000 16.9206
#
#
#
# Elastic Compliance Matrix: (Units=1/GPa)
#
#
# Indices 1 2 3 4 5 6 
#
# 1 0.014369 -0.003210 -0.009013 0.000000 0.001742 0.000000
# 2 -0.003210 0.022375 -0.002892 0.000000 -0.001034 0.000000
# 3 -0.009013 -0.002892 0.014147 0.000000 -0.001021 0.000000
# 4 0.000000 0.000000 0.000000 0.054002 0.000000 0.017217
# 5 0.001742 -0.001034 -0.001021 0.000000 0.054677 0.000000
# 6 0.000000 0.000000 0.000000 0.017217 0.000000 0.064589
#
#
# Mechanical properties :
#
#
# Convention : Reuss Voigt Hill
#
# Bulk Modulus (GPa) = 48.39384 69.99007 59.19195
# Shear Modulus (GPa) = 19.13693 22.39935 20.76814
#
# Velocity S-wave (km/s) = 3.23680 3.50185 3.37193
# Velocity P-wave (km/s) = 6.36108 7.39379 6.89679
#
# Compressibility (1/GPa) = 0.02066379
#
# Stress axis : x y z
#
# Youngs Moduli (GPa) = 69.59306 44.69223 70.68632
#
# Poissons Ratio (x) = 0.14344 0.63708
# Poissons Ratio (y) = 0.22336 0.20439
# Poissons Ratio (z) = 0.62722 0.12923
#
# Static dielectric constant tensor:
#      x y z
#    x 1.650280 0.000000 -0.010000 
#    y 0.000000 1.636220 0.000000 
#    z -0.010000 0.000000 1.656420 
# 
# From -- ./inp_files/70293.got.cif
#   From: 2010.05.17/outbox.cif.g08.bks.cpg/sg14_36_cif.got.tgz:70293.got - 2010.06.03 17:49:19.
