data_PCOD9240946
_publ_section_title
;
Structure prediction by ZEFSAII (Michael W. Deem and Ramdas Pophale) SiO2 
 PCOD9240946
Probable space group: P 21/C
;
_chemical_formula_sum "Si O2"
_cell_formula_units_Z 28
_cell_length_a 5.439522
_cell_length_b 15.855725
_cell_length_c 14.778122
_cell_angle_alpha 90.000000
_cell_angle_beta 114.149679
_cell_angle_gamma 90.000000
_cell_volume 1163.025783
_symmetry_space_group_name_H-M "P 21/C"
_symmetry_group_IT_number 14
_symmetry_cell_setting 'monoclinic'
loop_
_space_group_symop_operation_xyz
x,y,z
-x,1/2+y,1/2-z
-x,-y,-z
x,1/2-y,1/2+z
loop_
_atom_site_type_symbol
_atom_site_label
_atom_site_fract_x
_atom_site_fract_y
_atom_site_fract_z
Si Si1 0.768578 0.052712 0.516862
Si Si2 0.580317 0.095741 0.310512
Si Si3 0.841064 0.569341 0.766531
Si Si4 0.897356 0.973692 0.845308
Si Si5 0.337468 0.651349 0.666186
Si Si6 0.001006 0.697461 0.449865
Si Si7 0.376639 0.762654 0.834702
O O1 0.674572 0.117952 0.425223
O O2 0.903832 0.084511 0.629393
O O3 0.500000 0.000000 0.500000
O O4 0.000000 0.000000 0.500000
O O5 0.261834 0.079902 0.255652
O O6 0.651375 0.159508 0.240905
O O7 0.690119 0.002817 0.302882
O O8 0.662417 0.650920 0.716251
O O9 0.878953 0.522443 0.676874
O O10 0.957309 0.903193 0.927185
O O11 0.731157 0.052905 0.857682
O O12 0.168820 0.702155 0.567713
O O13 0.282017 0.684819 0.758306
O O14 0.192122 0.724485 0.394817
O O15 0.700528 0.738922 0.406780
#
# Coordination Sequence:
#
# PCOD9240946 Si02
#       7
#     4   4   4   4   4   4   4
#     4  10  19  33  60  94 127 167 216 270 331 395
#     4   9  19  39  60  94 131 183 224 275 342 410
#     4  10  20  37  65  97 135 173 230 288 334 404
#     4  10  20  41  71 100 140 175 237 292 345 417
#     4  11  27  43  69 106 139 184 235 304 350 424
#     4  11  26  48  73 100 139 192 232 286 363 426
#     4  11  26  46  67  98 140 182 233 285 355 434
#
# _framework density 24.075132
#
# number of rings (size 3 to 8) (size 9 to 14) (size 15 to 20)
#    0.000    1.714    2.857    0.429    4.000    1.714 
#    0.000    0.000    0.000    0.000    0.000    0.000 
#    0.000    0.000    0.000    0.000    0.000    0.000 
#
# Total GULP energy -156107.869757 kJ/mol
# GULP energy per Si atom -5575.281063 kJ/mol
# Density = 2.402034 g / cm^3
# Si number density = 24.075132 Si / 1000 Ang^3
#
#
#
# Elastic Constant Matrix: (Units=GPa)
#
#
# Indices 1 2 3 4 5 6 
#
# 1 123.3276 11.5052 53.2236 0.0000 6.3554 0.0000
# 2 11.5052 58.4948 42.7116 0.0000 8.4477 0.0000
# 3 53.2236 42.7116 171.4426 0.0000 24.7074 0.0000
# 4 0.0000 0.0000 0.0000 2.3202 0.0000 -6.7824
# 5 6.3554 8.4477 24.7074 0.0000 29.0491 0.0000
# 6 0.0000 0.0000 0.0000 -6.7824 0.0000 17.7347
#
#
#
# Elastic Compliance Matrix: (Units=1/GPa)
#
#
# Indices 1 2 3 4 5 6 
#
# 1 0.009374 0.000322 -0.003056 0.000000 0.000455 0.000000
# 2 0.000322 0.020998 -0.005061 0.000000 -0.001872 0.000000
# 3 -0.003056 -0.005061 0.008814 0.000000 -0.005357 0.000000
# 4 0.000000 0.000000 0.000000 -3.653511 0.000000 -1.397247
# 5 0.000455 -0.001872 -0.005357 0.000000 0.039425 0.000000
# 6 0.000000 0.000000 0.000000 -1.397247 0.000000 -0.477976
#
#
# Mechanical properties :
#
#
# Convention : Reuss Voigt Hill
#
# Bulk Modulus (GPa) = 42.38037 63.12730 52.75383
# Shear Modulus (GPa) = -1.24087 26.20908 12.48411
#
# Velocity S-wave (km/s) = -0.71870 3.30303 2.27963
# Velocity P-wave (km/s) = 4.11739 6.38941 5.37482
#
# Compressibility (1/GPa) = 0.02359583
#
# Stress axis : x y z
#
# Youngs Moduli (GPa) = 106.68052 47.62279 113.45025
#
# Poissons Ratio (x) = -0.01533 0.34668
# Poissons Ratio (y) = -0.03434 0.57423
# Poissons Ratio (z) = 0.32599 0.24104
#
# Static dielectric constant tensor:
#      x y z
#    x 1.940880 0.000000 0.080030 
#    y 0.000000 1.963850 0.000000 
#    z 0.080030 0.000000 2.031350 
# 
# From -- ./inp_files/37777.got.cif
#   From: 2010.05.17/outbox.cif.g08.bks.cpg/sg14_19_cif.got.tgz:37777.got - 2010.06.03 17:49:19.
