data_PCOD9240728
_publ_section_title
;
Structure prediction by ZEFSAII (Michael W. Deem and Ramdas Pophale) SiO2 
 PCOD9240728
Probable space group: P 21/C
;
_chemical_formula_sum "Si O2"
_cell_formula_units_Z 28
_cell_length_a 21.300168
_cell_length_b 8.632730
_cell_length_c 19.004220
_cell_angle_alpha 90.000000
_cell_angle_beta 162.315002
_cell_angle_gamma 90.000000
_cell_volume 1061.562519
_symmetry_space_group_name_H-M "P 21/C"
_symmetry_group_IT_number 14
_symmetry_cell_setting 'monoclinic'
loop_
_space_group_symop_operation_xyz
x,y,z
-x,1/2+y,1/2-z
-x,-y,-z
x,1/2-y,1/2+z
loop_
_atom_site_type_symbol
_atom_site_label
_atom_site_fract_x
_atom_site_fract_y
_atom_site_fract_z
Si Si1 0.430452 0.988554 0.148791
Si Si2 0.223300 0.954026 0.682537
Si Si3 0.533667 0.970773 0.416848
Si Si4 0.327714 0.263622 0.196969
Si Si5 0.116399 0.771149 0.966551
Si Si6 0.346812 0.161789 0.924072
Si Si7 0.021231 0.461239 0.287076
O O1 0.546855 0.011060 0.347377
O O2 0.542095 0.858283 0.222015
O O3 0.192968 0.960594 0.918930
O O4 0.400540 0.131123 0.063249
O O5 0.226370 0.114240 0.641635
O O6 0.216140 0.014580 0.754225
O O7 0.072347 0.822131 0.490532
O O8 0.443757 0.876540 0.897091
O O9 0.319010 0.874445 0.191394
O O10 0.690067 0.847538 0.618430
O O11 0.484923 0.137441 0.398842
O O12 0.147012 0.165120 0.966804
O O13 0.954660 0.896156 0.764671
O O14 0.133812 0.633572 0.927453
#
# Coordination Sequence:
#
# PCOD9240728 Si02
#       7
#     4   4   4   4   4   4   4
#     4   9  17  30  47  70  96 122 159 203 245 290
#     4   9  17  30  48  69 100 135 165 202 240 298
#     4   9  17  29  48  73  97 125 162 210 248 288
#     4   9  17  28  46  72  98 125 162 207 250 289
#     4   9  18  31  47  72  97 125 166 198 243 295
#     4   9  17  30  48  71  99 133 166 200 250 290
#     4  10  19  32  53  75  98 131 164 209 250 285
#
# _framework density 26.376214000000001
#
# number of rings (size 3 to 8) (size 9 to 14) (size 15 to 20)
#    0.000    3.143    0.000    2.571    0.000    2.857 
#    0.000    5.000    0.000    0.000    0.000    9.000 
#    0.000    0.000    0.000    0.000    0.000    0.000 
#
# Total GULP energy -156188.701605 kJ/mol
# GULP energy per Si atom -5578.167914 kJ/mol
# Density = 2.631618 g / cm^3
# Si number density = 26.376214 Si / 1000 Ang^3
#
#
#
# Elastic Constant Matrix: (Units=GPa)
#
#
# Indices 1 2 3 4 5 6 
#
# 1 84.8710 13.8776 -3.7494 0.0000 -2.3438 0.0000
# 2 13.8776 142.7211 21.3077 0.0000 -7.4902 0.0000
# 3 -3.7494 21.3077 54.4678 0.0000 -3.5305 0.0000
# 4 0.0000 0.0000 0.0000 52.5594 0.0000 -0.5303
# 5 -2.3438 -7.4902 -3.5305 0.0000 20.5967 0.0000
# 6 0.0000 0.0000 0.0000 -0.5303 0.0000 29.9185
#
#
#
# Elastic Compliance Matrix: (Units=1/GPa)
#
#
# Indices 1 2 3 4 5 6 
#
# 1 0.012094 -0.001329 0.001426 0.000000 0.001137 0.000000
# 2 -0.001329 0.007690 -0.002961 0.000000 0.002138 0.000000
# 3 0.001426 -0.002961 0.019777 0.000000 0.002475 0.000000
# 4 0.000000 0.000000 0.000000 0.019029 0.000000 0.000337
# 5 0.001137 0.002138 0.002475 0.000000 0.049883 0.000000
# 6 0.000000 0.000000 0.000000 0.000337 0.000000 0.033430
#
#
# Mechanical properties :
#
#
# Convention : Reuss Voigt Hill
#
# Bulk Modulus (GPa) = 29.55739 38.32574 33.94157
# Shear Modulus (GPa) = 31.46445 37.32319 34.39382
#
# Velocity S-wave (km/s) = 3.45760 3.76577 3.61497
# Velocity P-wave (km/s) = 5.21252 5.78533 5.50638
#
# Compressibility (1/GPa) = 0.03383249
#
# Stress axis : x y z
#
# Youngs Moduli (GPa) = 82.68323 130.03503 50.56486
#
# Poissons Ratio (x) = 0.17285 -0.07212
# Poissons Ratio (y) = 0.10991 0.14974
# Poissons Ratio (z) = -0.11793 0.38508
#
# Static dielectric constant tensor:
#      x y z
#    x 2.116620 0.000000 0.040470 
#    y 0.000000 2.082610 0.000000 
#    z 0.040470 0.000000 2.383960 
# 
# From -- ./inp_files/70449.got.cif
#   From: 2010.05.17/outbox.cif.g08.bks.cpg/sg14_36_cif.got.tgz:70449.got - 2010.06.03 17:49:19.
