data_PCOD9240557
_publ_section_title
;
Structure prediction by ZEFSAII (Michael W. Deem and Ramdas Pophale) SiO2 
 PCOD9240557
Probable space group: P 21/C
;
_chemical_formula_sum "Si O2"
_cell_formula_units_Z 28
_cell_length_a 6.923942
_cell_length_b 15.977769
_cell_length_c 9.991492
_cell_angle_alpha 90.000000
_cell_angle_beta 79.409905
_cell_angle_gamma 90.000000
_cell_volume 1086.522945
_symmetry_space_group_name_H-M "P 21/C"
_symmetry_group_IT_number 14
_symmetry_cell_setting 'monoclinic'
loop_
_space_group_symop_operation_xyz
x,y,z
-x,1/2+y,1/2-z
-x,-y,-z
x,1/2-y,1/2+z
loop_
_atom_site_type_symbol
_atom_site_label
_atom_site_fract_x
_atom_site_fract_y
_atom_site_fract_z
Si Si1 0.506135 0.086685 0.834699
Si Si2 0.920115 0.794878 0.878694
Si Si3 0.963387 0.582334 0.594193
Si Si4 0.444579 0.101548 0.141099
Si Si5 0.425343 0.159719 0.582462
Si Si6 0.725232 0.167903 0.318110
Si Si7 0.118295 0.484558 0.121501
O O1 0.539286 0.148897 0.709127
O O2 0.990860 0.062733 0.755359
O O3 0.561437 0.991538 0.800635
O O4 0.270758 0.089458 0.868368
O O5 0.014128 0.834605 0.001792
O O6 0.776983 0.867662 0.842583
O O7 0.761868 0.721071 0.909262
O O8 0.092227 0.777086 0.752533
O O9 0.000000 0.500000 0.500000
O O10 0.443378 0.601569 0.516786
O O11 0.567694 0.159604 0.220865
O O12 0.593093 0.189199 0.460945
O O13 0.315675 0.070681 0.569012
O O14 0.814280 0.074639 0.331067
O O15 0.000000 0.500000 0.000000
#
# Coordination Sequence:
#
# PCOD9240557 Si02
#       7
#     4   4   4   4   4   4   4
#     4   9  20  41  74 108 147 206 253 316 384 464
#     4  11  26  47  81 115 157 207 263 333 400 475
#     4  10  18  42  74 108 145 200 266 307 373 478
#     4  10  21  43  77 108 150 199 264 315 380 479
#     4  11  26  50  77 112 170 199 260 339 407 465
#     4  12  25  48  78 112 152 213 264 324 399 489
#     4  11  25  46  78 117 155 208 268 328 397 477
#
# _framework density 25.770278999999999
#
# number of rings (size 3 to 8) (size 9 to 14) (size 15 to 20)
#    0.000    1.429    4.286    0.429    2.000    3.429 
#    7.714    2.857    6.286    0.000    0.000    0.000 
#    0.000    0.000    0.000    0.000    0.000    0.000 
#
# Total GULP energy -156636.692370 kJ/mol
# GULP energy per Si atom -5594.167585 kJ/mol
# Density = 2.571162 g / cm^3
# Si number density = 25.770279 Si / 1000 Ang^3
#
#
#
# Elastic Constant Matrix: (Units=GPa)
#
#
# Indices 1 2 3 4 5 6 
#
# 1 90.5992 27.0201 61.9650 0.0000 13.5775 0.0000
# 2 27.0201 106.1414 51.8704 0.0000 2.4275 0.0000
# 3 61.9650 51.8704 196.5978 0.0000 4.1462 0.0000
# 4 0.0000 0.0000 0.0000 20.5709 0.0000 -6.8287
# 5 13.5775 2.4275 4.1462 0.0000 56.2029 0.0000
# 6 0.0000 0.0000 0.0000 -6.8287 0.0000 43.5169
#
#
#
# Elastic Compliance Matrix: (Units=1/GPa)
#
#
# Indices 1 2 3 4 5 6 
#
# 1 0.014877 -0.001671 -0.004180 0.000000 -0.003213 0.000000
# 2 -0.001671 0.011007 -0.002380 0.000000 0.000104 0.000000
# 3 -0.004180 -0.002380 0.007019 0.000000 0.000595 0.000000
# 4 0.000000 0.000000 0.000000 0.051284 0.000000 0.008048
# 5 -0.003213 0.000104 0.000595 0.000000 0.018521 0.000000
# 6 0.000000 0.000000 0.000000 0.008048 0.000000 0.024242
#
#
# Mechanical properties :
#
#
# Convention : Reuss Voigt Hill
#
# Bulk Modulus (GPa) = 60.82091 75.00549 67.91320
# Shear Modulus (GPa) = 33.58127 40.89032 37.23580
#
# Velocity S-wave (km/s) = 3.61377 3.98769 3.80532
# Velocity P-wave (km/s) = 6.40818 7.09724 6.76150
#
# Compressibility (1/GPa) = 0.01644171
#
# Stress axis : x y z
#
# Youngs Moduli (GPa) = 67.21971 90.84871 142.46131
#
# Poissons Ratio (x) = 0.15178 0.59554
# Poissons Ratio (y) = 0.11230 0.33903
# Poissons Ratio (z) = 0.28100 0.21620
#
# Static dielectric constant tensor:
#      x y z
#    x 1.904820 0.000000 -0.051950 
#    y 0.000000 1.969260 0.000000 
#    z -0.051950 0.000000 2.031760 
# 
# From -- ./inp_files/37630.got.cif
#   From: 2010.05.17/outbox.cif.g08.bks.cpg/sg14_19_cif.got.tgz:37630.got - 2010.06.03 17:49:19.
