data_PCOD9240684
_publ_section_title
;
Structure prediction by ZEFSAII (Michael W. Deem and Ramdas Pophale) SiO2 
 PCOD9240684
Probable space group: P 21/C
;
_chemical_formula_sum "Si O2"
_cell_formula_units_Z 32
_cell_length_a 17.214996
_cell_length_b 19.771261
_cell_length_c 5.048884
_cell_angle_alpha 90.000000
_cell_angle_beta 113.985238
_cell_angle_gamma 90.000000
_cell_volume 1570.061455
_symmetry_space_group_name_H-M "P 21/C"
_symmetry_group_IT_number 14
_symmetry_cell_setting 'monoclinic'
loop_
_space_group_symop_operation_xyz
x,y,z
-x,1/2+y,1/2-z
-x,-y,-z
x,1/2-y,1/2+z
loop_
_atom_site_type_symbol
_atom_site_label
_atom_site_fract_x
_atom_site_fract_y
_atom_site_fract_z
Si Si1 0.247543 0.405775 0.680380
Si Si2 0.101283 0.968300 0.458365
Si Si3 0.512865 0.292926 0.339811
Si Si4 0.430037 0.590447 0.970131
Si Si5 0.926783 0.558307 0.585665
Si Si6 0.601184 0.954376 0.905089
Si Si7 0.285213 0.963205 0.529143
Si Si8 0.690614 0.793055 0.385592
O O1 0.152144 0.393352 0.451848
O O2 0.330138 0.400845 0.609668
O O3 0.263766 0.360802 0.959146
O O4 0.251897 0.485498 0.757662
O O5 0.085693 0.995384 0.730731
O O6 0.198900 0.945262 0.563657
O O7 0.086356 0.031123 0.231527
O O8 0.023690 0.918996 0.269059
O O9 0.535192 0.231326 0.166724
O O10 0.550443 0.357395 0.237814
O O11 0.410725 0.302776 0.214718
O O12 0.510239 0.583013 0.282018
O O13 0.340800 0.598664 0.997956
O O14 0.416493 0.517035 0.815573
O O15 0.646809 0.990611 0.214092
O O16 0.713328 0.763833 0.134031
#
# Coordination Sequence:
#
# PCOD9240684 Si02
#       8
#     4   4   4   4   4   4   4   4
#     4  10  19  32  50  74 103 136 172 202 261 312
#     4   9  17  30  46  74 103 129 163 193 248 300
#     4  10  22  37  53  69  95 135 176 217 251 291
#     4  10  21  33  47  75 101 137 174 211 255 307
#     4   9  17  29  49  71 101 133 158 199 240 308
#     4  10  19  32  48  74 106 135 168 206 259 312
#     4  10  20  30  51  75 105 141 164 213 256 314
#     4  10  22  35  50  71  97 134 174 217 248 295
#
# _framework density 20.381367999999998
#
# number of rings (size 3 to 8) (size 9 to 14) (size 15 to 20)
#    0.000    2.250    2.500    0.375    3.500    1.000 
#    0.000    0.000    0.000    0.000    0.000    1.750 
#    0.000    0.000    0.000    0.000    0.000    0.000 
#
# Total GULP energy -178340.655544 kJ/mol
# GULP energy per Si atom -5573.145486 kJ/mol
# Density = 2.033498 g / cm^3
# Si number density = 20.381368 Si / 1000 Ang^3
#
#
#
# Elastic Constant Matrix: (Units=GPa)
#
#
# Indices 1 2 3 4 5 6 
#
# 1 108.7565 18.5938 11.5384 0.0000 20.9907 0.0000
# 2 18.5938 37.4043 8.9951 0.0000 13.7405 0.0000
# 3 11.5384 8.9951 69.2108 0.0000 2.1849 0.0000
# 4 0.0000 0.0000 0.0000 22.8031 0.0000 -7.0616
# 5 20.9907 13.7405 2.1849 0.0000 25.2310 0.0000
# 6 0.0000 0.0000 0.0000 -7.0616 0.0000 15.9763
#
#
#
# Elastic Compliance Matrix: (Units=1/GPa)
#
#
# Indices 1 2 3 4 5 6 
#
# 1 0.011279 -0.002355 -0.001322 0.000000 -0.007987 0.000000
# 2 -0.002355 0.034929 -0.003618 0.000000 -0.016749 0.000000
# 3 -0.001322 -0.003618 0.015084 0.000000 0.001764 0.000000
# 4 0.000000 0.000000 0.000000 0.050808 0.000000 0.022457
# 5 -0.007987 -0.016749 0.001764 0.000000 0.055247 0.000000
# 6 0.000000 0.000000 0.000000 0.022457 0.000000 0.072519
#
#
# Mechanical properties :
#
#
# Convention : Reuss Voigt Hill
#
# Bulk Modulus (GPa) = 21.41309 32.62512 27.01911
# Shear Modulus (GPa) = 18.51696 24.55170 21.53433
#
# Velocity S-wave (km/s) = 3.01744 3.47452 3.25402
# Velocity P-wave (km/s) = 4.76119 5.66908 5.23486
#
# Compressibility (1/GPa) = 0.04670040
#
# Stress axis : x y z
#
# Youngs Moduli (GPa) = 88.65850 28.62990 66.29725
#
# Poissons Ratio (x) = 0.06743 0.08766
# Poissons Ratio (y) = 0.20880 0.23988
# Poissons Ratio (z) = 0.11722 0.10359
#
# Static dielectric constant tensor:
#      x y z
#    x 1.838200 0.000000 -0.002030 
#    y 0.000000 1.735490 0.000000 
#    z -0.002030 0.000000 1.813580 
# 
# From -- ./inp_files/4244.got.cif
#   From: 2010.05.17/outbox.cif.g08.bks.cpg/sg14_3_cif.got.tgz:4244.got - 2010.06.03 17:49:19.
