data_PCOD9240325
_publ_section_title
;
Structure prediction by ZEFSAII (Michael W. Deem and Ramdas Pophale) SiO2 
 PCOD9240325
Probable space group: P 21/C
;
_chemical_formula_sum "Si O2"
_cell_formula_units_Z 32
_cell_length_a 22.533600
_cell_length_b 14.989939
_cell_length_c 15.742395
_cell_angle_alpha 90.000000
_cell_angle_beta 162.086666
_cell_angle_gamma 90.000000
_cell_volume 1635.522843
_symmetry_space_group_name_H-M "P 21/C"
_symmetry_group_IT_number 14
_symmetry_cell_setting 'monoclinic'
loop_
_space_group_symop_operation_xyz
x,y,z
-x,1/2+y,1/2-z
-x,-y,-z
x,1/2-y,1/2+z
loop_
_atom_site_type_symbol
_atom_site_label
_atom_site_fract_x
_atom_site_fract_y
_atom_site_fract_z
Si Si1 0.302471 0.095766 0.670270
Si Si2 0.238276 0.954613 0.240712
Si Si3 0.567708 0.675093 0.820231
Si Si4 0.912816 0.855597 0.905450
Si Si5 0.150454 0.579970 0.433221
Si Si6 0.497255 0.409419 0.608583
Si Si7 0.771886 0.264462 0.055420
Si Si8 0.592649 0.981246 0.840255
O O1 0.358971 0.167980 0.675981
O O2 0.076546 0.075545 0.359495
O O3 0.413201 0.004832 0.795827
O O4 0.368178 0.122140 0.854175
O O5 0.430002 0.940144 0.557288
O O6 0.176253 0.057912 0.168911
O O7 0.259285 0.934091 0.170385
O O8 0.065690 0.895939 0.045821
O O9 0.386768 0.738124 0.589710
O O10 0.496332 0.575913 0.749841
O O11 0.743870 0.694228 0.124315
O O12 0.032918 0.796525 0.134474
O O13 0.196546 0.677017 0.458005
O O14 0.221918 0.506810 0.462456
O O15 0.382633 0.424419 0.540676
O O16 0.672889 0.342953 0.867009
#
# Coordination Sequence:
#
# PCOD9240325 Si02
#       8
#     4   4   4   4   4   4   4   4
#     4  10  21  40  62  79 115 160 198 234 284 357
#     4  10  18  36  65  87 111 151 200 246 280 346
#     4   9  20  38  57  83 117 152 187 241 294 344
#     4  10  19  36  65  84 110 160 201 232 296 350
#     4  11  22  35  58  92 121 145 189 251 294 333
#     4  10  21  40  61  80 113 163 198 230 287 358
#     4  11  23  36  57  87 123 151 190 246 298 346
#     4   9  19  37  59  86 114 147 192 237 287 341
#
# _framework density 19.565608999999998
#
# number of rings (size 3 to 8) (size 9 to 14) (size 15 to 20)
#    0.000    2.000    2.500    1.125    1.750    1.500 
#    0.000    2.500    0.000    0.000    0.000    0.000 
#    0.000    0.000    0.000    0.000    0.000    0.000 
#
# Total GULP energy -178663.421452 kJ/mol
# GULP energy per Si atom -5583.231920 kJ/mol
# Density = 1.952108 g / cm^3
# Si number density = 19.565609 Si / 1000 Ang^3
#
#
#
# Elastic Constant Matrix: (Units=GPa)
#
#
# Indices 1 2 3 4 5 6 
#
# 1 125.8916 21.6937 31.4777 0.0000 -20.1435 0.0000
# 2 21.6937 40.2653 4.6234 0.0000 -13.5116 0.0000
# 3 31.4777 4.6234 58.6422 0.0000 -19.5557 0.0000
# 4 0.0000 0.0000 0.0000 9.7925 0.0000 -2.0226
# 5 -20.1435 -13.5116 -19.5557 0.0000 33.9492 0.0000
# 6 0.0000 0.0000 0.0000 -2.0226 0.0000 16.6193
#
#
#
# Elastic Compliance Matrix: (Units=1/GPa)
#
#
# Indices 1 2 3 4 5 6 
#
# 1 0.010090 -0.004365 -0.004524 0.000000 0.001644 0.000000
# 2 -0.004365 0.030726 0.003880 0.000000 0.011874 0.000000
# 3 -0.004524 0.003880 0.023263 0.000000 0.012261 0.000000
# 4 0.000000 0.000000 0.000000 0.104752 0.000000 0.012749
# 5 0.001644 0.011874 0.012261 0.000000 0.042219 0.000000
# 6 0.000000 0.000000 0.000000 0.012749 0.000000 0.061723
#
#
# Mechanical properties :
#
#
# Convention : Reuss Voigt Hill
#
# Bulk Modulus (GPa) = 18.49721 37.82095 28.15908
# Shear Modulus (GPa) = 16.62175 23.20582 19.91379
#
# Velocity S-wave (km/s) = 2.91785 3.44765 3.19375
# Velocity P-wave (km/s) = 4.56358 5.93470 5.29372
#
# Compressibility (1/GPa) = 0.05406221
#
# Stress axis : x y z
#
# Youngs Moduli (GPa) = 99.11215 32.54575 42.98602
#
# Poissons Ratio (x) = 0.14206 0.19445
# Poissons Ratio (y) = 0.43262 -0.16680
# Poissons Ratio (z) = 0.44834 -0.12628
#
# Static dielectric constant tensor:
#      x y z
#    x 1.695340 0.000000 0.003510 
#    y 0.000000 1.684660 0.000000 
#    z 0.003510 0.000000 1.659280 
# 
# From -- ./inp_files/50695.got.cif
#   From: 2010.05.17/outbox.cif.g08.bks.cpg/sg14_26_cif.got.tgz:50695.got - 2010.06.03 17:49:19.
