data_PCOD9240982
_publ_section_title
;
Structure prediction by ZEFSAII (Michael W. Deem and Ramdas Pophale) SiO2 
 PCOD9240982
Probable space group: P 21/C
;
_chemical_formula_sum "Si O2"
_cell_formula_units_Z 30
_cell_length_a 17.701698
_cell_length_b 7.086569
_cell_length_c 9.911569
_cell_angle_alpha 90.000000
_cell_angle_beta 113.873702
_cell_angle_gamma 90.000000
_cell_volume 1136.968630
_symmetry_space_group_name_H-M "P 21/C"
_symmetry_group_IT_number 14
_symmetry_cell_setting 'monoclinic'
loop_
_space_group_symop_operation_xyz
x,y,z
-x,1/2+y,1/2-z
-x,-y,-z
x,1/2-y,1/2+z
loop_
_atom_site_type_symbol
_atom_site_label
_atom_site_fract_x
_atom_site_fract_y
_atom_site_fract_z
Si Si1 0.117606 0.962604 0.312875
Si Si2 0.361042 0.421187 0.802212
Si Si3 0.500000 0.000000 0.500000
Si Si4 0.184098 0.500268 0.137496
Si Si5 0.928475 0.597326 0.723069
Si Si6 0.487318 0.386711 0.668539
Si Si7 0.642247 0.000297 0.129824
Si Si8 0.191626 0.455838 0.595214
O O1 0.172447 0.913640 0.481619
O O2 0.103458 0.188881 0.295968
O O3 0.162616 0.929869 0.205073
O O4 0.024722 0.890209 0.262326
O O5 0.453095 0.381270 0.799125
O O6 0.337060 0.225282 0.850917
O O7 0.289624 0.488711 0.652943
O O8 0.397899 0.564964 0.934299
O O9 0.481180 0.187986 0.588615
O O10 0.099525 0.510214 0.162324
O O11 0.265293 0.572388 0.275061
O O12 0.189333 0.272603 0.113473
O O13 0.873731 0.502939 0.567313
O O14 0.419975 0.518081 0.542569
O O15 0.580022 0.455862 0.709230
#
# Coordination Sequence:
#
# PCOD9240982 Si02
#       8
#     4   4   2   4   4   4   4   4
#     4  10  20  34  54  79 105 136 178 223 272 327
#     4  10  19  34  55  77 106 145 184 227 274 328
#     4  10  22  34  52  84 112 140 184 232 280 332
#     4   9  18  33  55  78 102 139 182 221 265 327
#     4  10  19  35  54  76 105 138 175 220 274 329
#     4  10  19  34  53  77 109 145 182 227 278 328
#     4   9  19  33  53  76 102 142 186 222 267 326
#     4   9  19  33  54  78 103 139 182 220 262 325
#
# _framework density 26.385950999999999
#
# number of rings (size 3 to 8) (size 9 to 14) (size 15 to 20)
#    0.000    2.400    0.000    2.400    0.000    7.467 
#    0.000    2.667    0.000    0.000    0.000    0.000 
#    0.000    0.000    0.000    0.000    0.000    0.000 
#
# Total GULP energy -167092.611667 kJ/mol
# GULP energy per Si atom -5569.753722 kJ/mol
# Density = 2.632590 g / cm^3
# Si number density = 26.385951 Si / 1000 Ang^3
#
#
#
# Elastic Constant Matrix: (Units=GPa)
#
#
# Indices 1 2 3 4 5 6 
#
# 1 102.1511 -5.3883 18.4854 0.0000 14.8200 0.0000
# 2 -5.3883 82.6295 -4.9500 0.0000 -0.3517 0.0000
# 3 18.4854 -4.9500 90.6218 0.0000 20.4587 0.0000
# 4 0.0000 0.0000 0.0000 17.8267 0.0000 10.3863
# 5 14.8200 -0.3517 20.4587 0.0000 48.9044 0.0000
# 6 0.0000 0.0000 0.0000 10.3863 0.0000 27.3302
#
#
#
# Elastic Compliance Matrix: (Units=1/GPa)
#
#
# Indices 1 2 3 4 5 6 
#
# 1 0.010464 0.000580 -0.001533 0.000000 -0.002526 0.000000
# 2 0.000580 0.012176 0.000626 0.000000 -0.000350 0.000000
# 3 -0.001533 0.000626 0.012452 0.000000 -0.004740 0.000000
# 4 0.000000 0.000000 0.000000 0.072048 0.000000 -0.027380
# 5 -0.002526 -0.000350 -0.004740 0.000000 0.023194 0.000000
# 6 0.000000 0.000000 0.000000 -0.027380 0.000000 0.046995
#
#
# Mechanical properties :
#
#
# Convention : Reuss Voigt Hill
#
# Bulk Modulus (GPa) = 29.03800 32.41074 30.72437
# Shear Modulus (GPa) = 26.39057 36.62928 31.50992
#
# Velocity S-wave (km/s) = 3.16599 3.72991 3.45946
# Velocity P-wave (km/s) = 4.93899 5.55515 5.25610
#
# Compressibility (1/GPa) = 0.03443763
#
# Stress axis : x y z
#
# Youngs Moduli (GPa) = 95.56803 82.12859 80.30955
#
# Poissons Ratio (x) = -0.04762 0.12308
# Poissons Ratio (y) = -0.05541 -0.05026
# Poissons Ratio (z) = 0.14647 -0.05140
#
# Static dielectric constant tensor:
#      x y z
#    x 2.078320 0.000000 -0.138260 
#    y 0.000000 2.424050 0.000000 
#    z -0.138260 0.000000 2.716220 
# 
# From -- ./inp_files/31934.got.cif
#   From: 2010.05.17/outbox.cif.g08.bks.cpg/sg14_16_cif.got.tgz:31934.got - 2010.06.03 17:49:19.
