data_PCOD9240042
_publ_section_title
;
Structure prediction by ZEFSAII (Michael W. Deem and Ramdas Pophale) SiO2 
 PCOD9240042
Probable space group: P 21/C
;
_chemical_formula_sum "Si O2"
_cell_formula_units_Z 32
_cell_length_a 14.913818
_cell_length_b 14.169734
_cell_length_c 8.448507
_cell_angle_alpha 90.000000
_cell_angle_beta 120.190611
_cell_angle_gamma 90.000000
_cell_volume 1543.205522
_symmetry_space_group_name_H-M "P 21/C"
_symmetry_group_IT_number 14
_symmetry_cell_setting 'monoclinic'
loop_
_space_group_symop_operation_xyz
x,y,z
-x,1/2+y,1/2-z
-x,-y,-z
x,1/2-y,1/2+z
loop_
_atom_site_type_symbol
_atom_site_label
_atom_site_fract_x
_atom_site_fract_y
_atom_site_fract_z
Si Si1 0.440667 0.454649 0.597071
Si Si2 0.391162 0.677452 0.103090
Si Si3 0.195295 0.450671 0.314998
Si Si4 0.884849 0.959851 0.907631
Si Si5 0.194283 0.257395 0.736357
Si Si6 0.226147 0.525246 0.018398
Si Si7 0.672935 0.828277 0.379766
Si Si8 0.553766 0.141256 0.708646
O O1 0.500000 0.500000 0.500000
O O2 0.512078 0.367644 0.713920
O O3 0.320062 0.434932 0.452097
O O4 0.438237 0.533346 0.732202
O O5 0.379456 0.788300 0.123680
O O6 0.288584 0.621572 0.061179
O O7 0.414823 0.656519 0.942436
O O8 0.157438 0.484458 0.453709
O O9 0.150392 0.347835 0.221475
O O10 0.170761 0.517256 0.141539
O O11 0.870266 0.845107 0.889418
O O12 0.828636 0.001867 0.699015
O O13 0.000000 0.000000 0.000000
O O14 0.306756 0.238465 0.752216
O O15 0.227110 0.294010 0.935883
O O16 0.308099 0.439872 0.114122
O O17 0.562110 0.823620 0.358101
#
# Coordination Sequence:
#
# PCOD9240042 Si02
#       8
#     4   4   4   4   4   4   4   4
#     4  12  22  40  62  99 139 180 228 270 332 406
#     4  12  24  40  58  94 143 185 232 272 325 413
#     4  11  22  41  72  97 140 178 217 290 339 398
#     4  11  25  44  72 102 131 170 229 297 365 413
#     4  10  19  36  62  96 129 160 217 281 350 394
#     4  10  23  42  67  95 136 174 226 281 345 404
#     4  10  18  34  56  96 127 169 218 277 324 383
#     4  12  24  34  61  91 138 192 230 267 324 399
#
# _framework density 20.736056999999999
#
# number of rings (size 3 to 8) (size 9 to 14) (size 15 to 20)
#    0.000    1.000    3.750    4.125    3.500    0.500 
#    0.000    0.000    5.500    0.000    0.000    0.000 
#    0.000    0.000    0.000    0.000    0.000    0.000 
#
# Total GULP energy -178293.233104 kJ/mol
# GULP energy per Si atom -5571.663534 kJ/mol
# Density = 2.068886 g / cm^3
# Si number density = 20.736057 Si / 1000 Ang^3
#
#
#
# Elastic Constant Matrix: (Units=GPa)
#
#
# Indices 1 2 3 4 5 6 
#
# 1 83.6170 6.8300 42.9505 0.0000 -10.5861 0.0000
# 2 6.8300 44.8484 4.2650 0.0000 13.8555 0.0000
# 3 42.9505 4.2650 85.7991 0.0000 -21.9827 0.0000
# 4 0.0000 0.0000 0.0000 56.2509 0.0000 -10.7649
# 5 -10.5861 13.8555 -21.9827 0.0000 30.6095 0.0000
# 6 0.0000 0.0000 0.0000 -10.7649 0.0000 27.1580
#
#
#
# Elastic Compliance Matrix: (Units=1/GPa)
#
#
# Indices 1 2 3 4 5 6 
#
# 1 0.016245 -0.002023 -0.007791 0.000000 0.000939 0.000000
# 2 -0.002023 0.028271 -0.004719 0.000000 -0.016885 0.000000
# 3 -0.007791 -0.004719 0.019175 0.000000 0.013212 0.000000
# 4 0.000000 0.000000 0.000000 0.019237 0.000000 0.007625
# 5 0.000939 -0.016885 0.013212 0.000000 0.050126 0.000000
# 6 0.000000 0.000000 0.000000 0.007625 0.000000 0.039844
#
#
# Mechanical properties :
#
#
# Convention : Reuss Voigt Hill
#
# Bulk Modulus (GPa) = 28.88093 35.81729 32.34911
# Shear Modulus (GPa) = 23.41854 33.48495 28.45174
#
# Velocity S-wave (km/s) = 3.36425 4.02284 3.70819
# Velocity P-wave (km/s) = 5.38971 6.23603 5.82825
#
# Compressibility (1/GPa) = 0.03462493
#
# Stress axis : x y z
#
# Youngs Moduli (GPa) = 61.55578 35.37226 52.15096
#
# Poissons Ratio (x) = 0.07156 0.40632
# Poissons Ratio (y) = 0.12453 0.24609
# Poissons Ratio (z) = 0.47960 0.16691
#
# Static dielectric constant tensor:
#      x y z
#    x 1.838600 0.000000 -0.066620 
#    y 0.000000 1.767240 0.000000 
#    z -0.066620 0.000000 1.797340 
# 
# From -- ./inp_files/16258.got.cif
#   From: 2010.05.17/outbox.cif.g08.bks.cpg/sg14_9_cif.got.tgz:16258.got - 2010.06.03 17:49:19.
