data_PCOD9240071
_publ_section_title
;
Structure prediction by ZEFSAII (Michael W. Deem and Ramdas Pophale) SiO2 
 PCOD9240071
Probable space group: P 21/C
;
_chemical_formula_sum "Si O2"
_cell_formula_units_Z 32
_cell_length_a 9.255918
_cell_length_b 9.112181
_cell_length_c 20.587297
_cell_angle_alpha 90.000000
_cell_angle_beta 94.378886
_cell_angle_gamma 90.000000
_cell_volume 1731.297044
_symmetry_space_group_name_H-M "P 21/C"
_symmetry_group_IT_number 14
_symmetry_cell_setting 'monoclinic'
loop_
_space_group_symop_operation_xyz
x,y,z
-x,1/2+y,1/2-z
-x,-y,-z
x,1/2-y,1/2+z
loop_
_atom_site_type_symbol
_atom_site_label
_atom_site_fract_x
_atom_site_fract_y
_atom_site_fract_z
Si Si1 0.202039 0.159739 0.645852
Si Si2 0.902471 0.964945 0.810450
Si Si3 0.521580 0.876155 0.409630
Si Si4 0.269827 0.886649 0.303230
Si Si5 0.073873 0.500505 0.914386
Si Si6 0.905497 0.272168 0.394569
Si Si7 0.311554 0.640349 0.015400
Si Si8 0.819776 0.094084 0.262450
O O1 0.124828 0.296157 0.675971
O O2 0.339754 0.213032 0.609837
O O3 0.083108 0.078133 0.596815
O O4 0.253406 0.041869 0.702251
O O5 0.046302 0.974856 0.771910
O O6 0.767375 0.028521 0.764445
O O7 0.927095 0.059733 0.876255
O O8 0.420274 0.911303 0.344822
O O9 0.420334 0.806130 0.462158
O O10 0.593091 0.024962 0.440361
O O11 0.152307 0.950974 0.350271
O O12 0.256305 0.712285 0.287270
O O13 0.040936 0.327566 0.922183
O O14 0.181064 0.559373 0.972796
O O15 0.770939 0.249381 0.438692
O O16 0.873641 0.194857 0.324031
#
# Coordination Sequence:
#
# PCOD9240071 Si02
#       8
#     4   4   4   4   4   4   4   4
#     4  11  20  35  57  87 111 154 187 231 289 340
#     4  11  20  35  57  88 117 144 185 237 291 339
#     4  10  22  36  57  82 115 149 192 235 283 335
#     4  10  20  35  57  86 116 146 180 235 293 338
#     4  10  18  34  61  83 110 146 200 236 276 324
#     4  10  19  33  59  87 109 144 189 239 280 331
#     4  10  20  38  59  82 111 154 197 236 274 341
#     4  10  18  34  59  83 115 140 184 238 277 337
#
# _framework density 18.483253000000001
#
# number of rings (size 3 to 8) (size 9 to 14) (size 15 to 20)
#    0.000    1.750    6.250    1.125    0.000    1.000 
#    0.000    1.250    0.000    0.000    0.000    0.000 
#    0.000    0.000    0.000    0.000    0.000    0.000 
#
# Total GULP energy -178142.746441 kJ/mol
# GULP energy per Si atom -5566.960826 kJ/mol
# Density = 1.844118 g / cm^3
# Si number density = 18.483253 Si / 1000 Ang^3
#
#
#
# Elastic Constant Matrix: (Units=GPa)
#
#
# Indices 1 2 3 4 5 6 
#
# 1 94.8919 3.8538 31.4906 0.0000 -2.9682 0.0000
# 2 3.8538 63.5469 15.0020 0.0000 4.2556 0.0000
# 3 31.4906 15.0020 53.5969 0.0000 9.1033 0.0000
# 4 0.0000 0.0000 0.0000 9.6402 0.0000 -1.0469
# 5 -2.9682 4.2556 9.1033 0.0000 38.1773 0.0000
# 6 0.0000 0.0000 0.0000 -1.0469 0.0000 6.7599
#
#
#
# Elastic Compliance Matrix: (Units=1/GPa)
#
#
# Indices 1 2 3 4 5 6 
#
# 1 0.013486 0.001041 -0.008727 0.000000 0.003013 0.000000
# 2 0.001041 0.016953 -0.005262 0.000000 -0.000554 0.000000
# 3 -0.008727 -0.005262 0.026341 0.000000 -0.006373 0.000000
# 4 0.000000 0.000000 0.000000 0.105507 0.000000 0.016340
# 5 0.003013 -0.000554 -0.006373 0.000000 0.028009 0.000000
# 6 0.000000 0.000000 0.000000 0.016340 0.000000 0.150462
#
#
# Mechanical properties :
#
#
# Convention : Reuss Voigt Hill
#
# Bulk Modulus (GPa) = 32.38117 34.74761 33.56439
# Shear Modulus (GPa) = 13.26438 21.69476 17.47957
#
# Velocity S-wave (km/s) = 2.68179 3.42972 3.07856
# Velocity P-wave (km/s) = 5.21024 5.87574 5.55297
#
# Compressibility (1/GPa) = 0.03088214
#
# Stress axis : x y z
#
# Youngs Moduli (GPa) = 74.14873 58.98753 37.96421
#
# Poissons Ratio (x) = -0.06138 0.33131
# Poissons Ratio (y) = -0.07715 0.19978
# Poissons Ratio (z) = 0.64709 0.31042
#
# Static dielectric constant tensor:
#      x y z
#    x 1.657990 0.000000 -0.020380 
#    y 0.000000 1.648780 0.000000 
#    z -0.020380 0.000000 1.683130 
# 
# From -- ./inp_files/64867.got.cif
#   From: 2010.05.17/outbox.cif.g08.bks.cpg/sg14_33_cif.got.tgz:64867.got - 2010.06.03 17:49:19.
