data_PCOD9240138
_publ_section_title
;
Structure prediction by ZEFSAII (Michael W. Deem and Ramdas Pophale) SiO2 
 PCOD9240138
Probable space group: P 21/C
;
_chemical_formula_sum "Si O2"
_cell_formula_units_Z 20
_cell_length_a 25.084448
_cell_length_b 6.514247
_cell_length_c 12.679317
_cell_angle_alpha 90.000000
_cell_angle_beta 157.162214
_cell_angle_gamma 90.000000
_cell_volume 804.145297
_symmetry_space_group_name_H-M "P 21/C"
_symmetry_group_IT_number 14
_symmetry_cell_setting 'monoclinic'
loop_
_space_group_symop_operation_xyz
x,y,z
-x,1/2+y,1/2-z
-x,-y,-z
x,1/2-y,1/2+z
loop_
_atom_site_type_symbol
_atom_site_label
_atom_site_fract_x
_atom_site_fract_y
_atom_site_fract_z
Si Si1 0.859302 0.468124 0.614082
Si Si2 0.306142 0.330474 0.253412
Si Si3 0.392845 0.607066 0.971811
Si Si4 0.635733 0.920477 0.365062
Si Si5 0.175661 0.085748 0.720201
O O1 0.832321 0.705057 0.530356
O O2 0.755976 0.345130 0.350820
O O3 0.813638 0.452356 0.653682
O O4 0.018459 0.418663 0.898293
O O5 0.351780 0.458762 0.235971
O O6 0.277556 0.451886 0.308293
O O7 0.404312 0.131646 0.451872
O O8 0.517939 0.746692 0.163823
O O9 0.389111 0.589241 0.091571
O O10 0.777650 0.812810 0.659449
#
# Coordination Sequence:
#
# PCOD9240138 Si02
#       5
#     4   4   4   4   4
#     4   8  17  31  54  73 103 139 183 214 269 323
#     4   8  17  31  56  72 107 138 176 223 273 310
#     4   9  19  33  54  78 108 146 179 222 271 321
#     4  10  18  35  55  77 109 145 181 222 268 322
#     4   9  16  32  53  76 102 139 179 222 268 315
#
# _framework density 24.871127000000001
#
# number of rings (size 3 to 8) (size 9 to 14) (size 15 to 20)
#    1.200    2.000    0.000    0.600    0.000    0.000 
#    3.600    5.000    0.000    0.000    0.000    0.000 
#    0.000    0.000    0.000    0.000    0.000    0.000 
#
# Total GULP energy -111612.320586 kJ/mol
# GULP energy per Si atom -5580.616029 kJ/mol
# Density = 2.481452 g / cm^3
# Si number density = 24.871127 Si / 1000 Ang^3
#
#
#
# Elastic Constant Matrix: (Units=GPa)
#
#
# Indices 1 2 3 4 5 6 
#
# 1 206.1145 38.4799 18.0541 0.0000 -8.2740 0.0000
# 2 38.4799 53.7398 45.9322 0.0000 -10.0148 0.0000
# 3 18.0541 45.9322 140.2279 0.0000 -6.0925 0.0000
# 4 0.0000 0.0000 0.0000 30.7768 0.0000 1.3529
# 5 -8.2740 -10.0148 -6.0925 0.0000 26.7084 0.0000
# 6 0.0000 0.0000 0.0000 1.3529 0.0000 34.6147
#
#
#
# Elastic Compliance Matrix: (Units=1/GPa)
#
#
# Indices 1 2 3 4 5 6 
#
# 1 0.005670 -0.004737 0.000829 0.000000 0.000169 0.000000
# 2 -0.004737 0.031534 -0.009362 0.000000 0.008221 0.000000
# 3 0.000829 -0.009362 0.010049 0.000000 -0.000961 0.000000
# 4 0.000000 0.000000 0.000000 0.032548 0.000000 -0.001272
# 5 0.000169 0.008221 -0.000961 0.000000 0.040357 0.000000
# 6 0.000000 0.000000 0.000000 -0.001272 0.000000 0.028939
#
#
# Mechanical properties :
#
#
# Convention : Reuss Voigt Hill
#
# Bulk Modulus (GPa) = 48.27804 67.22385 57.75095
# Shear Modulus (GPa) = 27.39086 38.26107 32.82596
#
# Velocity S-wave (km/s) = 3.32220 3.92646 3.63690
# Velocity P-wave (km/s) = 5.84546 6.90244 6.39583
#
# Compressibility (1/GPa) = 0.02071335
#
# Stress axis : x y z
#
# Youngs Moduli (GPa) = 176.35952 31.71174 99.50921
#
# Poissons Ratio (x) = 0.15022 -0.08249
# Poissons Ratio (y) = 0.83543 0.93161
# Poissons Ratio (z) = -0.14620 0.29689
#
# Static dielectric constant tensor:
#      x y z
#    x 1.988970 0.000000 -0.027760 
#    y 0.000000 2.044380 0.000000 
#    z -0.027760 0.000000 1.940890 
# 
# From -- ./inp_files/51797.got.cif
#   From: 2010.05.17/outbox.cif.g08.bks.cpg/sg14_26_cif.got.tgz:51797.got - 2010.06.03 17:49:19.
