data_PCOD9240559
_publ_section_title
;
Structure prediction by ZEFSAII (Michael W. Deem and Ramdas Pophale) SiO2 
 PCOD9240559
Probable space group: P 21/C
;
_chemical_formula_sum "Si O2"
_cell_formula_units_Z 30
_cell_length_a 7.964005
_cell_length_b 11.798503
_cell_length_c 13.758222
_cell_angle_alpha 90.000000
_cell_angle_beta 110.294510
_cell_angle_gamma 90.000000
_cell_volume 1212.516193
_symmetry_space_group_name_H-M "P 21/C"
_symmetry_group_IT_number 14
_symmetry_cell_setting 'monoclinic'
loop_
_space_group_symop_operation_xyz
x,y,z
-x,1/2+y,1/2-z
-x,-y,-z
x,1/2-y,1/2+z
loop_
_atom_site_type_symbol
_atom_site_label
_atom_site_fract_x
_atom_site_fract_y
_atom_site_fract_z
Si Si1 0.798609 0.185985 0.927972
Si Si2 0.457112 0.996407 0.208618
Si Si3 0.500000 0.000000 0.000000
Si Si4 0.215452 0.574271 0.153219
Si Si5 0.168557 0.141068 0.898760
Si Si6 0.160887 0.807747 0.852465
Si Si7 0.086480 0.946764 0.322626
Si Si8 0.756606 0.841075 0.729919
O O1 0.757808 0.319322 0.912044
O O2 0.007001 0.176906 0.939534
O O3 0.689418 0.103290 0.833444
O O4 0.749157 0.146876 0.029548
O O5 0.620956 0.986310 0.316443
O O6 0.386995 0.123204 0.219489
O O7 0.550656 0.989014 0.123704
O O8 0.676099 0.917352 0.009705
O O9 0.205677 0.642390 0.255966
O O10 0.035099 0.500617 0.117101
O O11 0.053931 0.069888 0.795511
O O12 0.254243 0.241595 0.850381
O O13 0.178329 0.672924 0.856369
O O14 0.947696 0.825024 0.819978
O O15 0.229034 0.041379 0.325262
#
# Coordination Sequence:
#
# PCOD9240559 Si02
#       8
#     4   4   2   4   4   4   4   4
#     4  12  24  41  71  97 132 185 226 279 348 412
#     4  12  25  38  65  97 134 177 224 283 348 404
#     4  12  26  38  64 104 138 168 234 292 326 420
#     4  11  23  42  63  99 140 171 226 284 340 409
#     4  11  22  42  64  99 132 178 226 283 335 403
#     4  10  22  39  67  97 127 173 230 277 332 410
#     4  10  18  43  67  88 131 177 219 278 336 402
#     4  10  21  41  65  92 130 180 224 276 343 402
#
# _framework density 24.741938000000001
#
# number of rings (size 3 to 8) (size 9 to 14) (size 15 to 20)
#    0.000    1.067    6.667    1.600    3.733    1.600 
#    0.000    0.000    0.000    1.600    0.000    0.000 
#    0.000    0.000    0.000    0.000    0.000    0.000 
#
# Total GULP energy -167055.385352 kJ/mol
# GULP energy per Si atom -5568.512845 kJ/mol
# Density = 2.468562 g / cm^3
# Si number density = 24.741938 Si / 1000 Ang^3
#
#
#
# Elastic Constant Matrix: (Units=GPa)
#
#
# Indices 1 2 3 4 5 6 
#
# 1 60.6970 -9.5429 1.7142 0.0000 -6.7358 0.0000
# 2 -9.5429 112.8186 9.1516 0.0000 -3.9495 0.0000
# 3 1.7142 9.1516 65.3152 0.0000 -7.8321 0.0000
# 4 0.0000 0.0000 0.0000 29.0837 0.0000 -1.8933
# 5 -6.7358 -3.9495 -7.8321 0.0000 29.7583 0.0000
# 6 0.0000 0.0000 0.0000 -1.8933 0.0000 28.8575
#
#
#
# Elastic Compliance Matrix: (Units=1/GPa)
#
#
# Indices 1 2 3 4 5 6 
#
# 1 0.017184 0.001611 -0.000191 0.000000 0.004053 0.000000
# 2 0.001611 0.009139 -0.001171 0.000000 0.001270 0.000000
# 3 -0.000191 -0.001171 0.015959 0.000000 0.004002 0.000000
# 4 0.000000 0.000000 0.000000 0.034531 0.000000 0.002266
# 5 0.004053 0.001270 0.004002 0.000000 0.035743 0.000000
# 6 0.000000 0.000000 0.000000 0.002266 0.000000 0.034802
#
#
# Mechanical properties :
#
#
# Convention : Reuss Voigt Hill
#
# Bulk Modulus (GPa) = 23.37454 26.83073 25.10263
# Shear Modulus (GPa) = 31.03282 33.37375 32.20328
#
# Velocity S-wave (km/s) = 3.54540 3.67669 3.61164
# Velocity P-wave (km/s) = 5.12129 5.37511 5.24973
#
# Compressibility (1/GPa) = 0.04278160
#
# Stress axis : x y z
#
# Youngs Moduli (GPa) = 58.19459 109.41588 62.65955
#
# Poissons Ratio (x) = -0.17625 0.01195
# Poissons Ratio (y) = -0.09374 0.07335
# Poissons Ratio (z) = 0.01110 0.12808
#
# Static dielectric constant tensor:
#      x y z
#    x 1.949760 0.000000 -0.058490 
#    y 0.000000 1.868680 0.000000 
#    z -0.058490 0.000000 1.978800 
# 
# From -- ./inp_files/40377.got.cif
#   From: 2010.05.17/outbox.cif.g08.bks.cpg/sg14_21_cif.got.tgz:40377.got - 2010.06.03 17:49:19.
