data_PCOD9240450
_publ_section_title
;
Structure prediction by ZEFSAII (Michael W. Deem and Ramdas Pophale) SiO2 
 PCOD9240450
Probable space group: P 21/C
;
_chemical_formula_sum "Si O2"
_cell_formula_units_Z 32
_cell_length_a 12.147201
_cell_length_b 14.805038
_cell_length_c 17.826447
_cell_angle_alpha 90.000000
_cell_angle_beta 27.076246
_cell_angle_gamma 90.000000
_cell_volume 1459.249992
_symmetry_space_group_name_H-M "P 21/C"
_symmetry_group_IT_number 14
_symmetry_cell_setting 'monoclinic'
loop_
_space_group_symop_operation_xyz
x,y,z
-x,1/2+y,1/2-z
-x,-y,-z
x,1/2-y,1/2+z
loop_
_atom_site_type_symbol
_atom_site_label
_atom_site_fract_x
_atom_site_fract_y
_atom_site_fract_z
Si Si1 0.789301 0.150936 0.254400
Si Si2 0.273962 0.617190 0.518861
Si Si3 0.271395 0.110185 0.150801
Si Si4 0.996605 0.078673 0.678831
Si Si5 0.722745 0.557892 0.586098
Si Si6 0.222326 0.690098 0.064869
Si Si7 0.494464 0.005955 0.630077
Si Si8 0.387724 0.831353 0.191294
O O1 0.800942 0.195215 0.329953
O O2 0.645667 0.055896 0.344765
O O3 0.657520 0.224046 0.280761
O O4 0.053083 0.124472 0.064249
O O5 0.520473 0.599733 0.414884
O O6 0.047366 0.626483 0.714370
O O7 0.240052 0.533220 0.485145
O O8 0.312159 0.719860 0.469576
O O9 0.042615 0.171421 0.307839
O O10 0.148418 0.013531 0.215664
O O11 0.403918 0.146705 0.996542
O O12 0.856998 0.127522 0.696206
O O13 0.268446 0.053631 0.494376
O O14 0.686242 0.522714 0.691817
O O15 0.482836 0.613433 0.705171
O O16 0.399013 0.604589 0.950920
#
# Coordination Sequence:
#
# PCOD9240450 Si02
#       8
#     4   4   4   4   4   4   4   4
#     4  12  25  43  71  95 135 182 223 279 332 387
#     4  11  21  39  72  95 129 173 224 289 328 383
#     4  10  18  38  64 101 127 161 223 284 332 371
#     4  10  19  40  65  98 120 169 225 280 314 383
#     4  12  25  47  65  98 141 180 216 269 348 406
#     4  11  23  41  66 103 128 176 232 283 322 389
#     4  11  28  43  63  96 145 176 221 262 343 408
#     4  11  21  38  73  97 125 169 229 273 326 389
#
# _framework density 21.929072000000001
#
# number of rings (size 3 to 8) (size 9 to 14) (size 15 to 20)
#    0.000    1.000    6.250    2.250    3.500    2.500 
#    0.000    0.000    0.000    0.000    0.000    0.000 
#    0.000    0.000    0.000    0.000    0.000    0.000 
#
# Total GULP energy -178638.222599 kJ/mol
# GULP energy per Si atom -5582.444456 kJ/mol
# Density = 2.187916 g / cm^3
# Si number density = 21.929072 Si / 1000 Ang^3
#
#
#
# Elastic Constant Matrix: (Units=GPa)
#
#
# Indices 1 2 3 4 5 6 
#
# 1 14.5729 18.2428 7.4955 0.0000 2.5049 0.0000
# 2 18.2428 116.6609 22.9483 0.0000 1.0293 0.0000
# 3 7.4955 22.9483 49.6186 0.0000 -9.8864 0.0000
# 4 0.0000 0.0000 0.0000 6.0262 0.0000 -4.5940
# 5 2.5049 1.0293 -9.8864 0.0000 19.0973 0.0000
# 6 0.0000 0.0000 0.0000 -4.5940 0.0000 16.0372
#
#
#
# Elastic Compliance Matrix: (Units=1/GPa)
#
#
# Indices 1 2 3 4 5 6 
#
# 1 0.092880 -0.012004 -0.012017 0.000000 -0.017756 0.000000
# 2 -0.012004 0.011147 -0.003510 0.000000 -0.000844 0.000000
# 3 -0.012017 -0.003510 0.026698 0.000000 0.015587 0.000000
# 4 0.000000 0.000000 0.000000 0.212303 0.000000 0.060816
# 5 -0.017756 -0.000844 0.015587 0.000000 0.062807 0.000000
# 6 0.000000 0.000000 0.000000 0.060816 0.000000 0.079776
#
#
# Mechanical properties :
#
#
# Convention : Reuss Voigt Hill
#
# Bulk Modulus (GPa) = 13.21643 30.91395 22.06519
# Shear Modulus (GPa) = 8.83560 17.04321 12.93940
#
# Velocity S-wave (km/s) = 2.00946 2.79085 2.43174
# Velocity P-wave (km/s) = 3.37992 4.95106 4.23892
#
# Compressibility (1/GPa) = 0.07566340
#
# Stress axis : x y z
#
# Youngs Moduli (GPa) = 10.76660 89.71170 37.45590
#
# Poissons Ratio (x) = 1.07686 0.45011
# Poissons Ratio (y) = 0.12924 0.13147
# Poissons Ratio (z) = 0.12938 0.31490
#
# Static dielectric constant tensor:
#      x y z
#    x 1.811030 0.000000 0.012940 
#    y 0.000000 1.930050 0.000000 
#    z 0.012940 0.000000 1.796950 
# 
# From -- ./inp_files/68629.got.cif
#   From: 2010.05.17/outbox.cif.g08.bks.cpg/sg14_35_cif.got.tgz:68629.got - 2010.06.03 17:49:19.
