data_PCOD9240533
_publ_section_title
;
Structure prediction by ZEFSAII (Michael W. Deem and Ramdas Pophale) SiO2 
 PCOD9240533
Probable space group: P 21/C
;
_chemical_formula_sum "Si O2"
_cell_formula_units_Z 20
_cell_length_a 9.523797
_cell_length_b 17.552997
_cell_length_c 9.057216
_cell_angle_alpha 90.000000
_cell_angle_beta 45.138367
_cell_angle_gamma 90.000000
_cell_volume 1073.216672
_symmetry_space_group_name_H-M "P 21/C"
_symmetry_group_IT_number 14
_symmetry_cell_setting 'monoclinic'
loop_
_space_group_symop_operation_xyz
x,y,z
-x,1/2+y,1/2-z
-x,-y,-z
x,1/2-y,1/2+z
loop_
_atom_site_type_symbol
_atom_site_label
_atom_site_fract_x
_atom_site_fract_y
_atom_site_fract_z
Si Si1 0.725478 0.004529 0.779524
Si Si2 0.791007 0.326153 0.187271
Si Si3 0.055948 0.554362 0.592121
Si Si4 0.361968 0.687554 0.377179
Si Si5 0.795059 0.864725 0.507131
O O1 0.762905 0.084941 0.669406
O O2 0.858322 0.008776 0.829141
O O3 0.769193 0.934559 0.640792
O O4 0.500000 0.000000 0.000000
O O5 0.729897 0.265778 0.112023
O O6 0.655233 0.314641 0.433014
O O7 0.018411 0.316497 0.070935
O O8 0.225897 0.616200 0.426336
O O9 0.000000 0.500000 0.500000
O O10 0.869564 0.601086 0.796288
O O11 0.586515 0.677524 0.157689
#
# Coordination Sequence:
#
# PCOD9240533 Si02
#       5
#     4   4   4   4   4
#     4  10  18  41  64  83 112 161 207 237 291 366
#     4  10  22  37  59  85 118 154 202 244 296 359
#     4  10  22  38  59  94 119 151 205 248 292 356
#     4  10  22  40  54  89 122 152 201 244 299 358
#     4  10  20  41  63  80 120 162 195 247 294 356
#
# _framework density 18.635566000000001
#
# number of rings (size 3 to 8) (size 9 to 14) (size 15 to 20)
#    0.000    2.400    4.000    2.400    0.000    7.200 
#    7.200    0.000    0.000    0.000    0.000    0.000 
#    0.000    0.000    0.000    0.000    0.000    0.000 
#
# Total GULP energy -111567.489380 kJ/mol
# GULP energy per Si atom -5578.374469 kJ/mol
# Density = 1.859315 g / cm^3
# Si number density = 18.635566 Si / 1000 Ang^3
#
#
#
# Elastic Constant Matrix: (Units=GPa)
#
#
# Indices 1 2 3 4 5 6 
#
# 1 33.8839 31.5615 17.8324 0.0000 -6.5103 0.0000
# 2 31.5615 55.6458 -3.2282 0.0000 7.5614 0.0000
# 3 17.8324 -3.2282 82.4530 0.0000 -36.6441 0.0000
# 4 0.0000 0.0000 0.0000 13.9904 0.0000 -0.1093
# 5 -6.5103 7.5614 -36.6441 0.0000 29.0676 0.0000
# 6 0.0000 0.0000 0.0000 -0.1093 0.0000 35.3762
#
#
#
# Elastic Compliance Matrix: (Units=1/GPa)
#
#
# Indices 1 2 3 4 5 6 
#
# 1 0.091721 -0.055088 -0.014771 0.000000 0.016253 0.000000
# 2 -0.055088 0.052104 0.005565 0.000000 -0.018877 0.000000
# 3 -0.014771 0.005565 0.030534 0.000000 0.033737 0.000000
# 4 0.000000 0.000000 0.000000 0.071479 0.000000 0.000221
# 5 0.016253 -0.018877 0.033737 0.000000 0.085484 0.000000
# 6 0.000000 0.000000 0.000000 0.000221 0.000000 0.028268
#
#
# Mechanical properties :
#
#
# Convention : Reuss Voigt Hill
#
# Bulk Modulus (GPa) = 21.84801 29.36822 25.60812
# Shear Modulus (GPa) = 9.93173 24.07463 17.00318
#
# Velocity S-wave (km/s) = 2.31106 3.59815 3.02388
# Velocity P-wave (km/s) = 4.34403 5.74941 5.09541
#
# Compressibility (1/GPa) = 0.04577076
#
# Stress axis : x y z
#
# Youngs Moduli (GPa) = 10.90257 19.19233 32.75035
#
# Poissons Ratio (x) = 1.05728 0.48375
# Poissons Ratio (y) = 0.60061 -0.18225
# Poissons Ratio (z) = 0.16104 -0.10680
#
# Static dielectric constant tensor:
#      x y z
#    x 1.646960 0.000000 -0.011580 
#    y 0.000000 1.663540 0.000000 
#    z -0.011580 0.000000 1.681470 
# 
# From -- ./inp_files/8955.got.cif
#   From: 2010.05.17/outbox.cif.g08.bks.cpg/sg14_5_cif.got.tgz:8955.got - 2010.06.03 17:49:19.
