data_PCOD9240544
_publ_section_title
;
Structure prediction by ZEFSAII (Michael W. Deem and Ramdas Pophale) SiO2 
 PCOD9240544
Probable space group: P 21/C
;
_chemical_formula_sum "Si O2"
_cell_formula_units_Z 30
_cell_length_a 28.160949
_cell_length_b 13.653573
_cell_length_c 12.910756
_cell_angle_alpha 90.000000
_cell_angle_beta 160.595431
_cell_angle_gamma 90.000000
_cell_volume 1649.272507
_symmetry_space_group_name_H-M "P 21/C"
_symmetry_group_IT_number 14
_symmetry_cell_setting 'monoclinic'
loop_
_space_group_symop_operation_xyz
x,y,z
-x,1/2+y,1/2-z
-x,-y,-z
x,1/2-y,1/2+z
loop_
_atom_site_type_symbol
_atom_site_label
_atom_site_fract_x
_atom_site_fract_y
_atom_site_fract_z
Si Si1 0.331408 0.689926 0.852437
Si Si2 0.085399 0.092162 0.720908
Si Si3 0.217334 0.601410 0.822751
Si Si4 0.883069 0.899083 0.976473
Si Si5 0.596807 0.519560 0.100113
Si Si6 0.937904 0.221078 0.821710
Si Si7 0.447204 0.137541 0.690468
Si Si8 0.500000 0.000000 0.000000
O O1 0.278658 0.673700 0.861260
O O2 0.368001 0.583453 0.882245
O O3 0.203411 0.735079 0.522187
O O4 0.466574 0.761781 0.125700
O O5 0.036924 0.189731 0.562884
O O6 0.054509 0.103750 0.779702
O O7 0.254018 0.069611 0.060112
O O8 0.000000 0.000000 0.500000
O O9 0.139971 0.511433 0.605302
O O10 0.111308 0.656330 0.682109
O O11 0.350262 0.555715 0.158340
O O12 0.724507 0.851459 0.654310
O O13 0.979217 0.844221 0.091195
O O14 0.500000 0.500000 0.000000
O O15 0.525992 0.587012 0.865912
O O16 0.492170 0.065602 0.875650
#
# Coordination Sequence:
#
# PCOD9240544 Si02
#       8
#     4   4   4   4   4   4   4   2
#     4  12  23  42  68  95 127 172 218 266 332 399
#     4  11  22  44  64  93 134 172 208 277 326 387
#     4  11  22  43  65  93 131 166 217 277 323 391
#     4  10  23  45  62  93 136 164 218 275 327 386
#     4  11  25  43  64  96 133 168 218 272 328 388
#     4  12  24  38  69  98 123 178 217 260 338 403
#     4  10  23  42  67  95 131 171 212 275 327 388
#     4  10  18  42  62  90 130 164 210 276 324 368
#
# _framework density 18.189837000000001
#
# number of rings (size 3 to 8) (size 9 to 14) (size 15 to 20)
#    0.000    1.067    6.667    1.200    3.733    1.067 
#    7.200    0.000    0.000    0.000    0.000    0.000 
#    0.000    0.000    0.000    0.000    0.000    0.000 
#
# Total GULP energy -167079.153494 kJ/mol
# GULP energy per Si atom -5569.305116 kJ/mol
# Density = 1.814844 g / cm^3
# Si number density = 18.189837 Si / 1000 Ang^3
#
#
#
# Elastic Constant Matrix: (Units=GPa)
#
#
# Indices 1 2 3 4 5 6 
#
# 1 122.6281 33.4232 26.0070 0.0000 10.8075 0.0000
# 2 33.4232 88.7567 36.8160 0.0000 11.1080 0.0000
# 3 26.0070 36.8160 59.6942 0.0000 -11.6909 0.0000
# 4 0.0000 0.0000 0.0000 28.7190 0.0000 -2.5315
# 5 10.8075 11.1080 -11.6909 0.0000 25.3805 0.0000
# 6 0.0000 0.0000 0.0000 -2.5315 0.0000 22.5701
#
#
#
# Elastic Compliance Matrix: (Units=1/GPa)
#
#
# Indices 1 2 3 4 5 6 
#
# 1 0.010009 -0.000927 -0.004995 0.000000 -0.006158 0.000000
# 2 -0.000927 0.019496 -0.014525 0.000000 -0.014829 0.000000
# 3 -0.004995 -0.014525 0.032478 0.000000 0.023444 0.000000
# 4 0.000000 0.000000 0.000000 0.035168 0.000000 0.003944
# 5 -0.006158 -0.014829 0.023444 0.000000 0.059311 0.000000
# 6 0.000000 0.000000 0.000000 0.003944 0.000000 0.044749
#
#
# Mechanical properties :
#
#
# Convention : Reuss Voigt Hill
#
# Bulk Modulus (GPa) = 47.41495 51.50793 49.46144
# Shear Modulus (GPa) = 20.06951 26.98944 23.52948
#
# Velocity S-wave (km/s) = 3.32525 3.85615 3.60050
# Velocity P-wave (km/s) = 6.39268 6.94297 6.67350
#
# Compressibility (1/GPa) = 0.02109040
#
# Stress axis : x y z
#
# Youngs Moduli (GPa) = 99.90655 51.29183 30.79038
#
# Poissons Ratio (x) = 0.04753 0.15381
# Poissons Ratio (y) = 0.09257 0.44722
# Poissons Ratio (z) = 0.49906 0.74499
#
# Static dielectric constant tensor:
#      x y z
#    x 1.615140 0.000000 0.001490 
#    y 0.000000 1.611550 0.000000 
#    z 0.001490 0.000000 1.608680 
# 
# From -- ./inp_files/36277.got.cif
#   From: 2010.05.17/outbox.cif.g08.bks.cpg/sg14_19_cif.got.tgz:36277.got - 2010.06.03 17:49:19.
