data_PCOD9240400
_publ_section_title
;
Structure prediction by ZEFSAII (Michael W. Deem and Ramdas Pophale) SiO2 
 PCOD9240400
Probable space group: P 21/C
;
_chemical_formula_sum "Si O2"
_cell_formula_units_Z 24
_cell_length_a 7.375376
_cell_length_b 14.395611
_cell_length_c 15.629133
_cell_angle_alpha 90.000000
_cell_angle_beta 136.555557
_cell_angle_gamma 90.000000
_cell_volume 1141.082816
_symmetry_space_group_name_H-M "P 21/C"
_symmetry_group_IT_number 14
_symmetry_cell_setting 'monoclinic'
loop_
_space_group_symop_operation_xyz
x,y,z
-x,1/2+y,1/2-z
-x,-y,-z
x,1/2-y,1/2+z
loop_
_atom_site_type_symbol
_atom_site_label
_atom_site_fract_x
_atom_site_fract_y
_atom_site_fract_z
Si Si1 0.094514 0.309189 0.695344
Si Si2 0.464569 0.609922 0.491329
Si Si3 0.687763 0.434576 0.311859
Si Si4 0.747100 0.524555 0.144785
Si Si5 0.175506 0.389209 0.227174
Si Si6 0.770803 0.628205 0.434199
O O1 0.834832 0.369718 0.592203
O O2 0.229342 0.366387 0.819645
O O3 0.998960 0.202863 0.663398
O O4 0.259457 0.316602 0.664271
O O5 0.500000 0.500000 0.500000
O O6 0.645244 0.639498 0.630845
O O7 0.564472 0.652846 0.437051
O O8 0.724751 0.470277 0.227921
O O9 0.390121 0.399754 0.225563
O O10 0.715195 0.522483 0.385349
O O11 0.934299 0.369418 0.423736
O O12 0.007076 0.481420 0.187976
O O13 0.500000 0.500000 0.000000
#
# Coordination Sequence:
#
# PCOD9240400 Si02
#       6
#     4   4   4   4   4   4
#     4  11  25  40  63 100 130 165 216 273 319 379
#     4  12  19  41  72  94 119 167 226 268 316 381
#     4  10  19  38  66  92 117 162 214 261 321 375
#     4  11  25  43  62  93 139 174 208 265 331 384
#     4  12  24  40  66  96 132 171 214 270 325 381
#     4  10  18  37  67  93 116 155 219 272 305 370
#
# _framework density 21.032653
#
# number of rings (size 3 to 8) (size 9 to 14) (size 15 to 20)
#    0.000    1.000    6.667    1.000    2.333    2.000 
#    0.000    0.000    0.000    0.000    0.000    0.000 
#    0.000    0.000    0.000    0.000    0.000    0.000 
#
# Total GULP energy -133818.795083 kJ/mol
# GULP energy per Si atom -5575.783128 kJ/mol
# Density = 2.098478 g / cm^3
# Si number density = 21.032653 Si / 1000 Ang^3
#
#
#
# Elastic Constant Matrix: (Units=GPa)
#
#
# Indices 1 2 3 4 5 6 
#
# 1 85.9437 6.6309 0.4582 0.0000 1.4787 0.0000
# 2 6.6309 41.0640 -24.0710 0.0000 9.0610 0.0000
# 3 0.4582 -24.0710 57.2135 0.0000 9.7108 0.0000
# 4 0.0000 0.0000 0.0000 7.3970 0.0000 5.3068
# 5 1.4787 9.0610 9.7108 0.0000 25.0154 0.0000
# 6 0.0000 0.0000 0.0000 5.3068 0.0000 12.4709
#
#
#
# Elastic Compliance Matrix: (Units=1/GPa)
#
#
# Indices 1 2 3 4 5 6 
#
# 1 0.011861 -0.003041 -0.001544 0.000000 0.001000 0.000000
# 2 -0.003041 0.043260 0.022325 0.000000 -0.024156 0.000000
# 3 -0.001544 0.022325 0.030232 0.000000 -0.019731 0.000000
# 4 0.000000 0.000000 0.000000 0.194598 0.000000 -0.082808
# 5 0.001000 -0.024156 -0.019731 0.000000 0.056326 0.000000
# 6 0.000000 0.000000 0.000000 -0.082808 0.000000 0.115425
#
#
# Mechanical properties :
#
#
# Convention : Reuss Voigt Hill
#
# Bulk Modulus (GPa) = 8.27592 16.69527 12.48559
# Shear Modulus (GPa) = 10.95289 22.39019 16.67154
#
# Velocity S-wave (km/s) = 2.28449 3.26628 2.81846
# Velocity P-wave (km/s) = 3.30179 4.70954 4.06704
#
# Compressibility (1/GPa) = 0.12083243
#
# Stress axis : x y z
#
# Youngs Moduli (GPa) = 84.30861 23.11609 33.07728
#
# Poissons Ratio (x) = 0.07030 0.05108
# Poissons Ratio (y) = 0.25639 -0.73844
# Poissons Ratio (z) = 0.13018 -0.51606
#
# Static dielectric constant tensor:
#      x y z
#    x 1.702430 0.000000 -0.186780 
#    y 0.000000 1.903990 0.000000 
#    z -0.186780 0.000000 1.365160 
# 
# From -- ./inp_files/55819.got.cif
#   From: 2010.05.17/outbox.cif.g08.bks.cpg/sg14_28_cif.got.tgz:55819.got - 2010.06.03 17:49:19.
