data_PCOD9240186
_publ_section_title
;
Structure prediction by ZEFSAII (Michael W. Deem and Ramdas Pophale) SiO2 
 PCOD9240186
Probable space group: P 21/C
;
_chemical_formula_sum "Si O2"
_cell_formula_units_Z 32
_cell_length_a 14.454484
_cell_length_b 10.846256
_cell_length_c 12.922615
_cell_angle_alpha 90.000000
_cell_angle_beta 43.963397
_cell_angle_gamma 90.000000
_cell_volume 1406.425186
_symmetry_space_group_name_H-M "P 21/C"
_symmetry_group_IT_number 14
_symmetry_cell_setting 'monoclinic'
loop_
_space_group_symop_operation_xyz
x,y,z
-x,1/2+y,1/2-z
-x,-y,-z
x,1/2-y,1/2+z
loop_
_atom_site_type_symbol
_atom_site_label
_atom_site_fract_x
_atom_site_fract_y
_atom_site_fract_z
Si Si1 0.728709 0.786333 0.596956
Si Si2 0.553383 0.551234 0.726842
Si Si3 0.010839 0.403778 0.147760
Si Si4 0.077255 0.660844 0.014629
Si Si5 0.272594 0.544196 0.575755
Si Si6 0.573211 0.887487 0.535970
Si Si7 0.212157 0.217692 0.221462
Si Si8 0.362308 0.819761 0.213723
O O1 0.668092 0.651760 0.654491
O O2 0.873497 0.804485 0.427777
O O3 0.625695 0.861507 0.611364
O O4 0.749359 0.832971 0.696005
O O5 0.631633 0.445058 0.599765
O O6 0.488704 0.520463 0.890760
O O7 0.448615 0.605409 0.728485
O O8 0.076390 0.540191 0.089505
O O9 0.876305 0.403409 0.322411
O O10 0.956768 0.382762 0.074973
O O11 0.946566 0.738332 0.150157
O O12 0.223749 0.714174 0.881785
O O13 0.252491 0.397590 0.616595
O O14 0.333161 0.605289 0.631043
O O15 0.700316 0.838678 0.370996
O O16 0.451901 0.796365 0.611219
#
# Coordination Sequence:
#
# PCOD9240186 Si02
#       8
#     4   4   4   4   4   4   4   4
#     4  10  20  36  58  84 119 152 194 249 295 354
#     4  11  22  35  53  88 128 152 195 244 302 366
#     4   8  15  30  56  83 107 139 189 245 297 337
#     4   8  15  30  56  85 104 135 192 244 287 342
#     4  10  18  35  60  89 108 153 204 252 293 341
#     4  11  23  34  53  88 115 157 196 234 309 356
#     4  10  19  36  60  82 111 153 196 244 299 353
#     4  10  19  34  59  84 114 148 195 252 295 341
#
# _framework density 22.752721999999999
#
# number of rings (size 3 to 8) (size 9 to 14) (size 15 to 20)
#    0.000    2.250    2.500    4.125    1.750    0.500 
#    2.250    0.000    0.000    6.750    0.000    0.000 
#    0.000    0.000    0.000    0.000    0.000    0.000 
#
# Total GULP energy -178469.772600 kJ/mol
# GULP energy per Si atom -5577.180394 kJ/mol
# Density = 2.270094 g / cm^3
# Si number density = 22.752722 Si / 1000 Ang^3
#
#
#
# Elastic Constant Matrix: (Units=GPa)
#
#
# Indices 1 2 3 4 5 6 
#
# 1 52.2360 19.3306 30.7405 0.0000 -27.9246 0.0000
# 2 19.3306 42.9358 22.4298 0.0000 -19.2761 0.0000
# 3 30.7405 22.4298 154.9102 0.0000 -33.6892 0.0000
# 4 0.0000 0.0000 0.0000 34.3701 0.0000 -7.0059
# 5 -27.9246 -19.2761 -33.6892 0.0000 38.3258 0.0000
# 6 0.0000 0.0000 0.0000 -7.0059 0.0000 20.8440
#
#
#
# Elastic Compliance Matrix: (Units=1/GPa)
#
#
# Indices 1 2 3 4 5 6 
#
# 1 0.032445 -0.004930 -0.001388 0.000000 0.019940 0.000000
# 2 -0.004930 0.031052 -0.001116 0.000000 0.011045 0.000000
# 3 -0.001388 -0.001116 0.008099 0.000000 0.005546 0.000000
# 4 0.000000 0.000000 0.000000 0.031235 0.000000 0.010498
# 5 0.019940 0.011045 0.005546 0.000000 0.051051 0.000000
# 6 0.000000 0.000000 0.000000 0.010498 0.000000 0.051504
#
#
# Mechanical properties :
#
#
# Convention : Reuss Voigt Hill
#
# Bulk Modulus (GPa) = 17.62829 43.89821 30.76325
# Shear Modulus (GPa) = 20.90635 30.54672 25.72654
#
# Velocity S-wave (km/s) = 3.03454 3.66806 3.36624
# Velocity P-wave (km/s) = 4.47689 6.10533 5.35339
#
# Compressibility (1/GPa) = 0.05672699
#
# Stress axis : x y z
#
# Youngs Moduli (GPa) = 30.82156 32.20443 123.47919
#
# Poissons Ratio (x) = 0.15877 0.17140
# Poissons Ratio (y) = 0.15195 0.13777
# Poissons Ratio (z) = 0.04278 0.03593
#
# Static dielectric constant tensor:
#      x y z
#    x 1.854140 0.000000 0.029270 
#    y 0.000000 1.923500 0.000000 
#    z 0.029270 0.000000 1.943240 
# 
# From -- ./inp_files/47128.got.cif
#   From: 2010.05.17/outbox.cif.g08.bks.cpg/sg14_24_cif.got.tgz:47128.got - 2010.06.03 17:49:19.
