data_PCOD9240807
_publ_section_title
;
Structure prediction by ZEFSAII (Michael W. Deem and Ramdas Pophale) SiO2 
 PCOD9240807
Probable space group: P 21/C
;
_chemical_formula_sum "Si O2"
_cell_formula_units_Z 24
_cell_length_a 11.294479
_cell_length_b 23.502044
_cell_length_c 5.175259
_cell_angle_alpha 90.000000
_cell_angle_beta 70.886527
_cell_angle_gamma 90.000000
_cell_volume 1298.006535
_symmetry_space_group_name_H-M "P 21/C"
_symmetry_group_IT_number 14
_symmetry_cell_setting 'monoclinic'
loop_
_space_group_symop_operation_xyz
x,y,z
-x,1/2+y,1/2-z
-x,-y,-z
x,1/2-y,1/2+z
loop_
_atom_site_type_symbol
_atom_site_label
_atom_site_fract_x
_atom_site_fract_y
_atom_site_fract_z
Si Si1 0.176525 0.104914 0.411043
Si Si2 0.126523 0.034886 0.935935
Si Si3 0.546645 0.596594 0.418664
Si Si4 0.447516 0.282885 0.364311
Si Si5 0.145060 0.220710 0.148568
Si Si6 0.388886 0.511737 0.277913
O O1 0.127907 0.085681 0.724344
O O2 0.328392 0.112299 0.334225
O O3 0.124525 0.162057 0.316385
O O4 0.144895 0.057863 0.214540
O O5 0.248316 0.996342 0.780026
O O6 0.000000 0.000000 0.000000
O O7 0.520807 0.651263 0.612003
O O8 0.423662 0.573600 0.363581
O O9 0.592056 0.540442 0.537273
O O10 0.493043 0.256841 0.064926
O O11 0.295913 0.278400 0.493308
O O12 0.099601 0.267806 0.389665
O O13 0.500000 0.500000 0.000000
#
# Coordination Sequence:
#
# PCOD9240807 Si02
#       6
#     4   4   4   4   4   4
#     4  10  19  33  51  73 106 136 164 213 255 300
#     4  11  22  35  51  75 106 138 172 207 256 308
#     4   9  19  31  50  77 103 137 173 211 260 307
#     4   9  18  28  44  70 104 133 161 205 259 306
#     4   9  16  27  45  72  99 127 162 203 255 302
#     4  10  19  33  53  75 106 137 172 214 257 306
#
# _framework density 18.489889999999999
#
# number of rings (size 3 to 8) (size 9 to 14) (size 15 to 20)
#    0.000    2.333    1.667    1.500    2.333    4.000 
#    0.000    0.000    0.000    0.000    0.000    7.000 
#    0.000    0.000    0.000    0.000    0.000    0.000 
#
# Total GULP energy -133605.629694 kJ/mol
# GULP energy per Si atom -5566.901237 kJ/mol
# Density = 1.844781 g / cm^3
# Si number density = 18.489890 Si / 1000 Ang^3
#
#
#
# Elastic Constant Matrix: (Units=GPa)
#
#
# Indices 1 2 3 4 5 6 
#
# 1 61.2572 10.2265 6.5102 0.0000 -9.2526 0.0000
# 2 10.2265 37.5879 -21.1161 0.0000 -7.5589 0.0000
# 3 6.5102 -21.1161 28.3375 0.0000 2.2778 0.0000
# 4 0.0000 0.0000 0.0000 19.9930 0.0000 3.4276
# 5 -9.2526 -7.5589 2.2778 0.0000 21.4371 0.0000
# 6 0.0000 0.0000 0.0000 3.4276 0.0000 11.2823
#
#
#
# Elastic Compliance Matrix: (Units=1/GPa)
#
#
# Indices 1 2 3 4 5 6 
#
# 1 0.020969 -0.012830 -0.014868 0.000000 0.006107 0.000000
# 2 -0.012830 0.057265 0.044824 0.000000 0.009892 0.000000
# 3 -0.014868 0.044824 0.071966 0.000000 0.001741 0.000000
# 4 0.000000 0.000000 0.000000 0.052766 0.000000 -0.016030
# 5 0.006107 0.009892 0.001741 0.000000 0.052587 0.000000
# 6 0.000000 0.000000 0.000000 -0.016030 0.000000 0.093504
#
#
# Mechanical properties :
#
#
# Convention : Reuss Voigt Hill
#
# Bulk Modulus (GPa) = 5.42143 13.15821 9.28982
# Shear Modulus (GPa) = 13.28765 19.31328 16.30046
#
# Velocity S-wave (km/s) = 2.68366 3.23543 2.97238
# Velocity P-wave (km/s) = 3.54135 4.59230 4.10063
#
# Compressibility (1/GPa) = 0.18445308
#
# Stress axis : x y z
#
# Youngs Moduli (GPa) = 47.68944 17.46253 13.89541
#
# Poissons Ratio (x) = 0.22404 0.20660
# Poissons Ratio (y) = 0.61184 -0.62285
# Poissons Ratio (z) = 0.70907 -0.78275
#
# Static dielectric constant tensor:
#      x y z
#    x 1.660820 0.000000 0.029870 
#    y 0.000000 1.732750 0.000000 
#    z 0.029870 0.000000 1.716180 
# 
# From -- ./inp_files/1637.got.cif
#   From: 2010.05.17/outbox.cif.g08.bks.cpg/sg14_1_cif.got.tgz:1637.got - 2010.06.03 17:49:19.
