data_PCOD9240390
_publ_section_title
;
Structure prediction by ZEFSAII (Michael W. Deem and Ramdas Pophale) SiO2 
 PCOD9240390
Probable space group: P 21/C
;
_chemical_formula_sum "Si O2"
_cell_formula_units_Z 28
_cell_length_a 14.221690
_cell_length_b 6.886447
_cell_length_c 19.780324
_cell_angle_alpha 90.000000
_cell_angle_beta 146.248912
_cell_angle_gamma 90.000000
_cell_volume 1076.294520
_symmetry_space_group_name_H-M "P 21/C"
_symmetry_group_IT_number 14
_symmetry_cell_setting 'monoclinic'
loop_
_space_group_symop_operation_xyz
x,y,z
-x,1/2+y,1/2-z
-x,-y,-z
x,1/2-y,1/2+z
loop_
_atom_site_type_symbol
_atom_site_label
_atom_site_fract_x
_atom_site_fract_y
_atom_site_fract_z
Si Si1 0.247259 0.972082 0.744404
Si Si2 0.819751 0.026033 0.757020
Si Si3 0.312864 0.529111 0.682585
Si Si4 0.824145 0.359640 0.119515
Si Si5 0.419765 0.188679 0.121485
Si Si6 0.929222 0.283064 0.043668
Si Si7 0.225515 0.081712 0.878729
O O1 0.087103 0.083481 0.617711
O O2 0.289111 0.085835 0.839509
O O3 0.181704 0.758075 0.729442
O O4 0.416025 0.942894 0.801594
O O5 0.718321 0.948160 0.761546
O O6 0.754179 0.014491 0.640933
O O7 0.991860 0.905944 0.870294
O O8 0.496295 0.620280 0.798793
O O9 0.309736 0.393162 0.616447
O O10 0.177921 0.696808 0.581690
O O11 0.821770 0.394353 0.037461
O O12 0.026192 0.368258 0.256884
O O13 0.753899 0.143179 0.087044
O O14 0.317232 0.203072 0.991230
#
# Coordination Sequence:
#
# PCOD9240390 Si02
#       7
#     4   4   4   4   4   4   4
#     4   9  23  39  69  96 123 168 220 270 328 380
#     4  10  21  39  63  96 128 162 217 270 315 375
#     4  11  25  42  61  94 132 177 214 261 328 389
#     4  10  18  37  63  97 116 159 220 263 315 374
#     4  11  23  44  59  91 136 171 210 269 335 383
#     4  11  21  42  69  95 124 172 223 264 318 392
#     4  10  19  38  65  89 124 164 210 274 324 374
#
# _framework density 26.015184000000001
#
# number of rings (size 3 to 8) (size 9 to 14) (size 15 to 20)
#    0.000    1.714    2.857    0.857    2.000    2.286 
#   10.286    0.000    0.000    6.000    0.000    0.000 
#    0.000    0.000    0.000    0.000    0.000    0.000 
#
# Total GULP energy -156508.538339 kJ/mol
# GULP energy per Si atom -5589.590655 kJ/mol
# Density = 2.595597 g / cm^3
# Si number density = 26.015184 Si / 1000 Ang^3
#
#
#
# Elastic Constant Matrix: (Units=GPa)
#
#
# Indices 1 2 3 4 5 6 
#
# 1 134.4878 20.2744 16.7124 0.0000 -24.5926 0.0000
# 2 20.2744 70.6988 22.5508 0.0000 -6.8224 0.0000
# 3 16.7124 22.5508 43.1988 0.0000 -22.1578 0.0000
# 4 0.0000 0.0000 0.0000 29.4453 0.0000 2.9475
# 5 -24.5926 -6.8224 -22.1578 0.0000 35.3173 0.0000
# 6 0.0000 0.0000 0.0000 2.9475 0.0000 35.0158
#
#
#
# Elastic Compliance Matrix: (Units=1/GPa)
#
#
# Indices 1 2 3 4 5 6 
#
# 1 0.008805 -0.002236 0.001009 0.000000 0.006332 0.000000
# 2 -0.002236 0.017813 -0.011011 0.000000 -0.005024 0.000000
# 3 0.001009 -0.011011 0.040955 0.000000 0.024270 0.000000
# 4 0.000000 0.000000 0.000000 0.034250 0.000000 -0.002883
# 5 0.006332 -0.005024 0.024270 0.000000 0.046981 0.000000
# 6 0.000000 0.000000 0.000000 -0.002883 0.000000 0.028801
#
#
# Mechanical properties :
#
#
# Convention : Reuss Voigt Hill
#
# Bulk Modulus (GPa) = 23.20298 40.82894 32.01596
# Shear Modulus (GPa) = 23.10036 32.54555 27.82296
#
# Velocity S-wave (km/s) = 2.98309 3.54082 3.27385
# Velocity P-wave (km/s) = 4.56109 5.69604 5.15986
#
# Compressibility (1/GPa) = 0.04309792
#
# Stress axis : x y z
#
# Youngs Moduli (GPa) = 113.56858 56.13904 24.41684
#
# Poissons Ratio (x) = 0.12551 -0.02463
# Poissons Ratio (y) = 0.25391 0.26885
# Poissons Ratio (z) = -0.11455 0.61813
#
# Static dielectric constant tensor:
#      x y z
#    x 2.141840 0.000000 0.011350 
#    y 0.000000 2.168700 0.000000 
#    z 0.011350 0.000000 1.983600 
# 
# From -- ./inp_files/68378.got.cif
#   From: 2010.05.17/outbox.cif.g08.bks.cpg/sg14_35_cif.got.tgz:68378.got - 2010.06.03 17:49:19.
