data_PCOD9240626
_publ_section_title
;
Structure prediction by ZEFSAII (Michael W. Deem and Ramdas Pophale) SiO2 
 PCOD9240626
Probable space group: P 21/C
;
_chemical_formula_sum "Si O2"
_cell_formula_units_Z 32
_cell_length_a 17.005728
_cell_length_b 14.903854
_cell_length_c 14.155746
_cell_angle_alpha 90.000000
_cell_angle_beta 162.011385
_cell_angle_gamma 90.000000
_cell_volume 1108.008922
_symmetry_space_group_name_H-M "P 21/C"
_symmetry_group_IT_number 14
_symmetry_cell_setting 'monoclinic'
loop_
_space_group_symop_operation_xyz
x,y,z
-x,1/2+y,1/2-z
-x,-y,-z
x,1/2-y,1/2+z
loop_
_atom_site_type_symbol
_atom_site_label
_atom_site_fract_x
_atom_site_fract_y
_atom_site_fract_z
Si Si1 0.159736 0.723092 0.261298
Si Si2 0.926934 0.108526 0.954402
Si Si3 0.014055 0.160540 0.245841
Si Si4 0.618407 0.816705 0.870260
Si Si5 0.642229 0.469601 0.528393
Si Si6 0.143495 0.968883 0.526037
Si Si7 0.587062 0.215547 0.179821
Si Si8 0.647395 0.624855 0.204432
O O1 0.327041 0.799479 0.504764
O O2 0.332080 0.637675 0.433329
O O3 0.979975 0.674264 0.133696
O O4 0.075807 0.781967 0.074762
O O5 0.010871 0.087926 0.157487
O O6 0.137845 0.083191 0.117761
O O7 0.631736 0.081992 0.609989
O O8 0.240646 0.222723 0.470418
O O9 0.738435 0.205601 0.907177
O O10 0.598490 0.837235 0.958509
O O11 0.737262 0.867587 0.915722
O O12 0.750357 0.505631 0.752050
O O13 0.342906 0.490388 0.178659
O O14 0.847337 0.503269 0.685019
O O15 0.202700 0.863028 0.596022
O O16 0.423365 0.274291 0.918000
#
# Coordination Sequence:
#
# PCOD9240626 Si02
#       8
#     4   4   4   4   4   4   4   4
#     4  10  21  34  51  76 111 142 173 218 263 310
#     4  10  19  31  48  71 104 139 165 204 260 311
#     4  10  19  31  51  77 103 140 176 213 268 320
#     4  10  19  31  51  77 103 140 176 213 268 320
#     4  10  22  36  52  74 102 144 187 213 249 309
#     4  10  22  36  52  74 102 144 187 213 249 309
#     4  10  21  34  51  76 111 142 173 218 263 310
#     4  10  19  31  48  71 104 139 165 204 260 311
#
# _framework density 28.880633
#
# number of rings (size 3 to 8) (size 9 to 14) (size 15 to 20)
#    0.000    2.000    2.500    2.250    3.500    3.000 
#    0.000    0.000    0.000    0.000    0.000    0.000 
#    0.000   62.000    0.000    0.000    0.000    0.000 
#
# Total GULP energy -178354.484238 kJ/mol
# GULP energy per Si atom -5573.577632 kJ/mol
# Density = 2.881490 g / cm^3
# Si number density = 28.880633 Si / 1000 Ang^3
#
#
#
# Elastic Constant Matrix: (Units=GPa)
#
#
# Indices 1 2 3 4 5 6 
#
# 1 142.7256 23.9734 43.7237 0.0000 17.2860 0.0000
# 2 23.9734 83.5867 25.5604 0.0000 8.0221 0.0000
# 3 43.7237 25.5604 97.2266 0.0000 20.1847 0.0000
# 4 0.0000 0.0000 0.0000 34.7305 0.0000 10.7623
# 5 17.2860 8.0221 20.1847 0.0000 79.8082 0.0000
# 6 0.0000 0.0000 0.0000 10.7623 0.0000 38.2830
#
#
#
# Elastic Compliance Matrix: (Units=1/GPa)
#
#
# Indices 1 2 3 4 5 6 
#
# 1 0.008317 -0.001320 -0.003216 0.000000 -0.000855 0.000000
# 2 -0.001320 0.013235 -0.002817 0.000000 -0.000332 0.000000
# 3 -0.003216 -0.002817 0.012948 0.000000 -0.002295 0.000000
# 4 0.000000 0.000000 0.000000 0.031541 0.000000 -0.008867
# 5 -0.000855 -0.000332 -0.002295 0.000000 0.013329 0.000000
# 6 0.000000 0.000000 0.000000 -0.008867 0.000000 0.028614
#
#
# Mechanical properties :
#
#
# Convention : Reuss Voigt Hill
#
# Bulk Modulus (GPa) = 50.51606 56.67266 53.59436
# Shear Modulus (GPa) = 38.67326 45.91643 42.29485
#
# Velocity S-wave (km/s) = 3.66330 3.99164 3.83099
# Velocity P-wave (km/s) = 5.95167 6.39609 6.17788
#
# Compressibility (1/GPa) = 0.01979568
#
# Stress axis : x y z
#
# Youngs Moduli (GPa) = 120.23786 75.55442 77.22957
#
# Poissons Ratio (x) = 0.09973 0.24834
# Poissons Ratio (y) = 0.15871 0.21756
# Poissons Ratio (z) = 0.38663 0.21284
#
# Static dielectric constant tensor:
#      x y z
#    x 2.467440 0.000000 0.009440 
#    y 0.000000 2.411160 0.000000 
#    z 0.009440 0.000000 2.354050 
# 
# From -- ./inp_files/49323.got.cif
#   From: 2010.05.17/outbox.cif.g08.bks.cpg/sg14_25_cif.got.tgz:49323.got - 2010.06.03 17:49:19.
