data_PCOD9240096
_publ_section_title
;
Structure prediction by ZEFSAII (Michael W. Deem and Ramdas Pophale) SiO2 
 PCOD9240096
Probable space group: P 21/C
;
_chemical_formula_sum "Si O2"
_cell_formula_units_Z 32
_cell_length_a 14.371927
_cell_length_b 13.340439
_cell_length_c 13.216139
_cell_angle_alpha 90.000000
_cell_angle_beta 37.629239
_cell_angle_gamma 90.000000
_cell_volume 1547.072024
_symmetry_space_group_name_H-M "P 21/C"
_symmetry_group_IT_number 14
_symmetry_cell_setting 'monoclinic'
loop_
_space_group_symop_operation_xyz
x,y,z
-x,1/2+y,1/2-z
-x,-y,-z
x,1/2-y,1/2+z
loop_
_atom_site_type_symbol
_atom_site_label
_atom_site_fract_x
_atom_site_fract_y
_atom_site_fract_z
Si Si1 0.166106 0.098733 0.286884
Si Si2 0.805171 0.233045 0.337436
Si Si3 0.819810 0.111079 0.645710
Si Si4 0.443446 0.886632 0.559502
Si Si5 0.745987 0.691055 0.716153
Si Si6 0.105740 0.113661 0.117279
Si Si7 0.999870 0.572681 0.597776
Si Si8 0.704452 0.208857 0.132532
O O1 0.212121 0.193232 0.313652
O O2 0.199282 0.115524 0.140134
O O3 0.981769 0.092789 0.452354
O O4 0.235611 0.996455 0.269347
O O5 0.842587 0.317287 0.222899
O O6 0.713759 0.142790 0.361398
O O7 0.703773 0.281886 0.512996
O O8 0.962756 0.189391 0.244580
O O9 0.712238 0.177618 0.667374
O O10 0.571729 0.822386 0.393803
O O11 0.418901 0.852903 0.697024
O O12 0.500000 0.000000 0.500000
O O13 0.795086 0.643665 0.566540
O O14 0.843980 0.633503 0.718951
O O15 0.035358 0.002532 0.158990
O O16 0.000000 0.500000 0.500000
O O17 0.135545 0.653430 0.478593
#
# Coordination Sequence:
#
# PCOD9240096 Si02
#       8
#     4   4   4   4   4   4   4   4
#     4  11  21  35  59  90 118 150 195 249 299 353
#     4  11  21  40  61  85 119 163 200 241 305 363
#     4  10  20  37  57  87 120 151 188 247 303 353
#     4  11  24  41  62  86 123 163 203 247 297 362
#     4  11  21  39  57  89 123 151 198 260 291 346
#     4  11  20  35  63  90 115 152 202 248 303 356
#     4  10  18  34  60  88 115 149 196 253 298 343
#     4  11  21  41  61  88 120 165 199 246 306 363
#
# _framework density 20.684234
#
# number of rings (size 3 to 8) (size 9 to 14) (size 15 to 20)
#    0.000    1.250    3.750    5.250    0.000    1.000 
#    0.000    3.750    0.000    0.000    0.000    0.000 
#    0.000    0.000    0.000    0.000    0.000    0.000 
#
# Total GULP energy -178697.455257 kJ/mol
# GULP energy per Si atom -5584.295477 kJ/mol
# Density = 2.063716 g / cm^3
# Si number density = 20.684234 Si / 1000 Ang^3
#
#
#
# Elastic Constant Matrix: (Units=GPa)
#
#
# Indices 1 2 3 4 5 6 
#
# 1 30.6188 6.3916 13.1710 0.0000 17.0666 0.0000
# 2 6.3916 71.1726 -6.4710 0.0000 8.9446 0.0000
# 3 13.1710 -6.4710 81.8581 0.0000 21.6339 0.0000
# 4 0.0000 0.0000 0.0000 27.8312 0.0000 3.3741
# 5 17.0666 8.9446 21.6339 0.0000 32.4587 0.0000
# 6 0.0000 0.0000 0.0000 3.3741 0.0000 17.2732
#
#
#
# Elastic Compliance Matrix: (Units=1/GPa)
#
#
# Indices 1 2 3 4 5 6 
#
# 1 0.046434 -0.001412 -0.001497 0.000000 -0.023028 0.000000
# 2 -0.001412 0.015100 0.002821 0.000000 -0.005299 0.000000
# 3 -0.001497 0.002821 0.015388 0.000000 -0.010247 0.000000
# 4 0.000000 0.000000 0.000000 0.036802 0.000000 -0.007189
# 5 -0.023028 -0.005299 -0.010247 0.000000 0.051206 0.000000
# 6 0.000000 0.000000 0.000000 -0.007189 0.000000 0.059297
#
#
# Mechanical properties :
#
#
# Convention : Reuss Voigt Hill
#
# Bulk Modulus (GPa) = 13.02996 23.31475 18.17235
# Shear Modulus (GPa) = 20.00122 26.88314 23.44218
#
# Velocity S-wave (km/s) = 3.11300 3.60904 3.37016
# Velocity P-wave (km/s) = 4.38568 5.35379 4.89373
#
# Compressibility (1/GPa) = 0.07674623
#
# Stress axis : x y z
#
# Youngs Moduli (GPa) = 21.53607 66.22683 64.98482
#
# Poissons Ratio (x) = 0.09351 0.09728
# Poissons Ratio (y) = 0.03041 -0.18334
# Poissons Ratio (z) = 0.03224 -0.18684
#
# Static dielectric constant tensor:
#      x y z
#    x 1.764620 0.000000 0.036200 
#    y 0.000000 1.748780 0.000000 
#    z 0.036200 0.000000 1.762370 
# 
# From -- ./inp_files/48989.got.cif
#   From: 2010.05.17/outbox.cif.g08.bks.cpg/sg14_25_cif.got.tgz:48989.got - 2010.06.03 17:49:19.
