data_PCOD9240878
_publ_section_title
;
Structure prediction by ZEFSAII (Michael W. Deem and Ramdas Pophale) SiO2 
 PCOD9240878
Probable space group: P 21/C
;
_chemical_formula_sum "Si O2"
_cell_formula_units_Z 32
_cell_length_a 10.559104
_cell_length_b 12.517535
_cell_length_c 22.925476
_cell_angle_alpha 90.000000
_cell_angle_beta 33.269055
_cell_angle_gamma 90.000000
_cell_volume 1662.253843
_symmetry_space_group_name_H-M "P 21/C"
_symmetry_group_IT_number 14
_symmetry_cell_setting 'monoclinic'
loop_
_space_group_symop_operation_xyz
x,y,z
-x,1/2+y,1/2-z
-x,-y,-z
x,1/2-y,1/2+z
loop_
_atom_site_type_symbol
_atom_site_label
_atom_site_fract_x
_atom_site_fract_y
_atom_site_fract_z
Si Si1 0.413809 0.118710 0.393375
Si Si2 0.649028 0.559561 0.876932
Si Si3 0.634779 0.024632 0.191539
Si Si4 0.834221 0.167546 0.460883
Si Si5 0.844769 0.646092 0.688785
Si Si6 0.053927 0.048652 0.622726
Si Si7 0.609202 0.158693 0.786542
Si Si8 0.658173 0.245393 0.644725
O O1 0.458231 0.067055 0.311449
O O2 0.171848 0.096729 0.518755
O O3 0.470711 0.244457 0.369147
O O4 0.584707 0.052374 0.370298
O O5 0.417210 0.632084 0.965619
O O6 0.820718 0.613820 0.764995
O O7 0.759323 0.548948 0.897421
O O8 0.701387 0.128439 0.128811
O O9 0.825517 0.958665 0.155105
O O10 0.536091 0.938790 0.184041
O O11 0.801572 0.178068 0.542814
O O12 0.934395 0.280697 0.404368
O O13 0.999727 0.073071 0.375293
O O14 0.611450 0.714153 0.762515
O O15 0.830561 0.109361 0.732403
O O16 0.713985 0.212008 0.688267
#
# Coordination Sequence:
#
# PCOD9240878 Si02
#       8
#     4   4   4   4   4   4   4   4
#     4   9  19  36  53  74 106 134 167 214 254 297
#     4   9  20  36  52  76 103 132 175 215 249 295
#     4   9  18  34  51  75 111 135 161 208 257 306
#     4  10  19  33  56  77  97 136 176 209 251 301
#     4   9  18  33  54  76 101 134 170 212 254 298
#     4  11  21  33  54  77 100 136 177 211 247 299
#     4  10  20  32  52  80 106 135 167 206 256 304
#     4   9  19  33  50  78 108 132 166 209 255 307
#
# _framework density 19.250972000000001
#
# number of rings (size 3 to 8) (size 9 to 14) (size 15 to 20)
#    0.000    2.500    0.000    4.500    0.000    7.500 
#    0.000    2.500    0.000    0.000    0.000   16.625 
#    0.000    0.000    0.000    0.000    0.000    0.000 
#
# Total GULP energy -178188.269942 kJ/mol
# GULP energy per Si atom -5568.383436 kJ/mol
# Density = 1.920716 g / cm^3
# Si number density = 19.250972 Si / 1000 Ang^3
#
#
#
# Elastic Constant Matrix: (Units=GPa)
#
#
# Indices 1 2 3 4 5 6 
#
# 1 58.6131 21.2122 9.4622 0.0000 8.8637 0.0000
# 2 21.2122 96.4704 -3.0171 0.0000 -5.1378 0.0000
# 3 9.4622 -3.0171 0.9391 0.0000 8.7604 0.0000
# 4 0.0000 0.0000 0.0000 32.7559 0.0000 4.7184
# 5 8.8637 -5.1378 8.7604 0.0000 10.9654 0.0000
# 6 0.0000 0.0000 0.0000 4.7184 0.0000 11.2661
#
#
#
# Elastic Compliance Matrix: (Units=1/GPa)
#
#
# Indices 1 2 3 4 5 6 
#
# 1 0.022062 -0.006037 0.007585 0.000000 -0.026722 0.000000
# 2 -0.006037 0.012261 -0.000171 0.000000 0.010762 0.000000
# 3 0.007585 -0.000171 -0.162075 0.000000 0.123272 0.000000
# 4 0.000000 0.000000 0.000000 0.032489 0.000000 -0.013607
# 5 -0.026722 0.010762 0.123272 0.000000 0.019355 0.000000
# 6 0.000000 0.000000 0.000000 -0.013607 0.000000 0.094461
#
#
# Mechanical properties :
#
#
# Convention : Reuss Voigt Hill
#
# Bulk Modulus (GPa) = -8.00008 23.48193 7.74092
# Shear Modulus (GPa) = -193.29988 19.55515 -86.87237
#
# Velocity S-wave (km/s) = -10.03137 3.19062 -6.72489
# Velocity P-wave (km/s) = 11.76163 5.07914 7.50128
#
# Compressibility (1/GPa) = -0.12499882
#
# Stress axis : x y z
#
# Youngs Moduli (GPa) = 45.32602 81.55855 -6.16997
#
# Poissons Ratio (x) = 0.49238 0.04680
# Poissons Ratio (y) = 0.27364 -0.00106
# Poissons Ratio (z) = -0.34380 0.01398
#
# Static dielectric constant tensor:
#      x y z
#    x 1.666080 0.000000 -0.013380 
#    y 0.000000 1.755450 0.000000 
#    z -0.013380 0.000000 1.722960 
# 
# From -- ./inp_files/77209.got.cif
#   From: 2010.05.17/outbox.cif.g08.bks.cpg/sg14_39_cif.got.tgz:77209.got - 2010.06.03 17:49:19.
