data_PCOD9240583
_publ_section_title
;
Structure prediction by ZEFSAII (Michael W. Deem and Ramdas Pophale) SiO2 
 PCOD9240583
Probable space group: P 21/C
;
_chemical_formula_sum "Si O2"
_cell_formula_units_Z 32
_cell_length_a 18.148761
_cell_length_b 5.011243
_cell_length_c 23.312417
_cell_angle_alpha 90.000000
_cell_angle_beta 139.092793
_cell_angle_gamma 90.000000
_cell_volume 1388.392367
_symmetry_space_group_name_H-M "P 21/C"
_symmetry_group_IT_number 14
_symmetry_cell_setting 'monoclinic'
loop_
_space_group_symop_operation_xyz
x,y,z
-x,1/2+y,1/2-z
-x,-y,-z
x,1/2-y,1/2+z
loop_
_atom_site_type_symbol
_atom_site_label
_atom_site_fract_x
_atom_site_fract_y
_atom_site_fract_z
Si Si1 0.267739 0.633672 0.389711
Si Si2 0.968930 0.233934 0.201156
Si Si3 0.802381 0.626600 0.222357
Si Si4 0.089232 0.206069 0.610994
Si Si5 0.053282 0.224409 0.959824
Si Si6 0.712630 0.727676 0.443374
Si Si7 0.597821 0.227806 0.429035
Si Si8 0.554956 0.847567 0.255724
O O1 0.253141 0.348707 0.351400
O O2 0.379687 0.688807 0.492325
O O3 0.163905 0.678373 0.374115
O O4 0.247463 0.849797 0.328130
O O5 0.062184 0.136267 0.210971
O O6 0.989529 0.547519 0.221365
O O7 0.803499 0.692787 0.290168
O O8 0.099746 0.182486 0.549148
O O9 0.988909 0.423541 0.558117
O O10 0.049725 0.922246 0.612770
O O11 0.154238 0.255223 0.974871
O O12 0.673133 0.433094 0.436104
O O13 0.672578 0.786965 0.354870
O O14 0.645781 0.933835 0.444639
O O15 0.476232 0.270570 0.327685
O O16 0.474321 0.653209 0.246819
#
# Coordination Sequence:
#
# PCOD9240583 Si02
#       8
#     4   4   4   4   4   4   4   4
#     4  10  19  30  43  68  89 123 158 178 221 285
#     4   8  16  26  36  54  81 109 143 177 199 250
#     4  10  19  32  45  60  92 124 155 188 229 264
#     4  10  21  36  49  67  94 124 160 206 234 260
#     4  10  21  34  51  71  90 120 166 199 235 278
#     4  10  19  31  50  72  95 125 154 190 240 281
#     4  10  19  31  48  72 101 123 152 190 228 284
#     4   8  16  30  46  68  96 122 148 186 234 282
#
# _framework density 23.048241999999998
#
# number of rings (size 3 to 8) (size 9 to 14) (size 15 to 20)
#    0.000    2.500    0.000    2.250    3.500    0.000 
#    4.500    0.000    0.000    0.000    0.000    1.750 
#    0.000    0.000    0.000    0.000    0.000    0.000 
#
# Total GULP energy -178456.785413 kJ/mol
# GULP energy per Si atom -5576.774544 kJ/mol
# Density = 2.299578 g / cm^3
# Si number density = 23.048242 Si / 1000 Ang^3
#
#
#
# Elastic Constant Matrix: (Units=GPa)
#
#
# Indices 1 2 3 4 5 6 
#
# 1 5.3137 1.8751 4.6441 0.0000 -1.9027 0.0000
# 2 1.8751 79.5166 -15.0896 0.0000 5.8020 0.0000
# 3 4.6441 -15.0896 97.5073 0.0000 -17.8286 0.0000
# 4 0.0000 0.0000 0.0000 23.2050 0.0000 -7.7873
# 5 -1.9027 5.8020 -17.8286 0.0000 21.0690 0.0000
# 6 0.0000 0.0000 0.0000 -7.7873 0.0000 5.0139
#
#
#
# Elastic Compliance Matrix: (Units=1/GPa)
#
#
# Indices 1 2 3 4 5 6 
#
# 1 0.202846 -0.007339 -0.008374 0.000000 0.013254 0.000000
# 2 -0.007339 0.013310 0.001914 0.000000 -0.002708 0.000000
# 3 -0.008374 0.001914 0.012678 0.000000 0.009444 0.000000
# 4 0.000000 0.000000 0.000000 0.090009 0.000000 0.139798
# 5 0.013254 -0.002708 0.009444 0.000000 0.057398 0.000000
# 6 0.000000 0.000000 0.000000 0.139798 0.000000 0.416575
#
#
# Mechanical properties :
#
#
# Convention : Reuss Voigt Hill
#
# Bulk Modulus (GPa) = 4.96930 18.35518 11.66224
# Shear Modulus (GPa) = 5.63385 22.58477 14.10931
#
# Velocity S-wave (km/s) = 1.56515 3.13372 2.47688
# Velocity P-wave (km/s) = 2.32958 4.59072 3.64017
#
# Compressibility (1/GPa) = 0.20123568
#
# Stress axis : x y z
#
# Youngs Moduli (GPa) = 4.92985 75.13195 78.87970
#
# Poissons Ratio (x) = 0.55142 0.66051
# Poissons Ratio (y) = 0.03618 -0.15098
# Poissons Ratio (z) = 0.04128 -0.14381
#
# Static dielectric constant tensor:
#      x y z
#    x 1.862040 0.000000 -0.037010 
#    y 0.000000 1.815880 0.000000 
#    z -0.037010 0.000000 1.932070 
# 
# From -- ./inp_files/74484.got.cif
#   From: 2010.05.17/outbox.cif.g08.bks.cpg/sg14_38_cif.got.tgz:74484.got - 2010.06.03 17:49:19.
