data_PCOD9240537
_publ_section_title
;
Structure prediction by ZEFSAII (Michael W. Deem and Ramdas Pophale) SiO2 
 PCOD9240537
Probable space group: P 21/C
;
_chemical_formula_sum "Si O2"
_cell_formula_units_Z 20
_cell_length_a 9.712825
_cell_length_b 13.675041
_cell_length_c 14.552535
_cell_angle_alpha 90.000000
_cell_angle_beta 25.564015
_cell_angle_gamma 90.000000
_cell_volume 834.090240
_symmetry_space_group_name_H-M "P 21/C"
_symmetry_group_IT_number 14
_symmetry_cell_setting 'monoclinic'
loop_
_space_group_symop_operation_xyz
x,y,z
-x,1/2+y,1/2-z
-x,-y,-z
x,1/2-y,1/2+z
loop_
_atom_site_type_symbol
_atom_site_label
_atom_site_fract_x
_atom_site_fract_y
_atom_site_fract_z
Si Si1 0.829203 0.782438 0.785383
Si Si2 0.504156 0.863508 0.370344
Si Si3 0.330532 0.054041 0.269717
Si Si4 0.298093 0.935826 0.779011
Si Si5 0.278666 0.362620 0.466332
O O1 0.786010 0.680043 0.761279
O O2 0.725814 0.867242 0.775692
O O3 0.661625 0.791536 0.984812
O O4 0.195097 0.804866 0.583949
O O5 0.482893 0.979641 0.396699
O O6 0.556944 0.842485 0.230436
O O7 0.494475 0.103039 0.261097
O O8 0.000000 0.000000 0.500000
O O9 0.574577 0.968031 0.093204
O O10 0.098298 0.868736 0.831469
O O11 0.000000 0.000000 0.000000
#
# Coordination Sequence:
#
# PCOD9240537 Si02
#       5
#     4   4   4   4   4
#     4  12  24  40  64  93 126 164 210 255 321 368
#     4  10  24  41  60  92 130 157 203 266 311 362
#     4  10  18  41  66  91 121 165 206 261 303 371
#     4   8  18  40  65  83 122 165 200 248 310 357
#     4  10  23  43  65  91 122 171 212 249 313 377
#
# _framework density 23.978221999999999
#
# number of rings (size 3 to 8) (size 9 to 14) (size 15 to 20)
#    0.000    2.400    4.000    0.600    8.400    2.400 
#    0.000    0.000    0.000    0.000    0.000    0.000 
#    0.000    0.000    0.000    0.000    0.000    0.000 
#
# Total GULP energy -111687.897624 kJ/mol
# GULP energy per Si atom -5584.394881 kJ/mol
# Density = 2.392365 g / cm^3
# Si number density = 23.978222 Si / 1000 Ang^3
#
#
#
# Elastic Constant Matrix: (Units=GPa)
#
#
# Indices 1 2 3 4 5 6 
#
# 1 135.0176 16.6355 28.2876 0.0000 15.3996 0.0000
# 2 16.6355 20.8314 2.2363 0.0000 13.4360 0.0000
# 3 28.2876 2.2363 48.5872 0.0000 -9.9692 0.0000
# 4 0.0000 0.0000 0.0000 -18.8193 0.0000 34.1338
# 5 15.3996 13.4360 -9.9692 0.0000 45.7237 0.0000
# 6 0.0000 0.0000 0.0000 34.1338 0.0000 -9.3955
#
#
#
# Elastic Compliance Matrix: (Units=1/GPa)
#
#
# Indices 1 2 3 4 5 6 
#
# 1 0.009640 -0.005077 -0.006008 0.000000 -0.003065 0.000000
# 2 -0.005077 0.063992 -0.003661 0.000000 -0.017893 0.000000
# 3 -0.006008 -0.003661 0.026049 0.000000 0.008779 0.000000
# 4 0.000000 0.000000 0.000000 0.009507 0.000000 0.034538
# 5 -0.003065 -0.017893 0.008779 0.000000 0.030075 0.000000
# 6 0.000000 0.000000 0.000000 0.034538 0.000000 0.019042
#
#
# Mechanical properties :
#
#
# Convention : Reuss Voigt Hill
#
# Bulk Modulus (GPa) = 14.24693 33.19499 23.72096
# Shear Modulus (GPa) = 23.67512 13.98690 18.83101
#
# Velocity S-wave (km/s) = 3.14564 2.41782 2.80543
# Velocity P-wave (km/s) = 4.37583 4.65492 4.51753
#
# Compressibility (1/GPa) = 0.07019058
#
# Stress axis : x y z
#
# Youngs Moduli (GPa) = 103.73246 15.62694 38.38916
#
# Poissons Ratio (x) = 0.07933 0.23063
# Poissons Ratio (y) = 0.52662 0.14054
# Poissons Ratio (z) = 0.62320 0.05721
#
# Static dielectric constant tensor:
#      x y z
#    x 1.920080 0.000000 -0.006760 
#    y 0.000000 1.973550 0.000000 
#    z -0.006760 0.000000 1.991940 
# 
# From -- ./inp_files/41668.got.cif
#   From: 2010.05.17/outbox.cif.g08.bks.cpg/sg14_21_cif.got.tgz:41668.got - 2010.06.03 17:49:19.
