data_PCOD9240808
_publ_section_title
;
Structure prediction by ZEFSAII (Michael W. Deem and Ramdas Pophale) SiO2 
 PCOD9240808
Probable space group: P 21/C
;
_chemical_formula_sum "Si O2"
_cell_formula_units_Z 32
_cell_length_a 24.940118
_cell_length_b 7.845794
_cell_length_c 22.118284
_cell_angle_alpha 90.000000
_cell_angle_beta 16.338878
_cell_angle_gamma 90.000000
_cell_volume 1217.542786
_symmetry_space_group_name_H-M "P 21/C"
_symmetry_group_IT_number 14
_symmetry_cell_setting 'monoclinic'
loop_
_space_group_symop_operation_xyz
x,y,z
-x,1/2+y,1/2-z
-x,-y,-z
x,1/2-y,1/2+z
loop_
_atom_site_type_symbol
_atom_site_label
_atom_site_fract_x
_atom_site_fract_y
_atom_site_fract_z
Si Si1 0.328183 0.018531 0.463041
Si Si2 0.803760 0.080321 0.111911
Si Si3 0.945404 0.343537 0.345235
Si Si4 0.957967 0.018899 0.703858
Si Si5 0.878439 0.794254 0.578990
Si Si6 0.756536 0.673331 0.828879
Si Si7 0.685911 0.297459 0.854851
Si Si8 0.437910 0.848133 0.899355
O O1 0.103293 0.020491 0.695166
O O2 0.351674 0.163827 0.489645
O O3 0.410887 0.067593 0.308470
O O4 0.397539 0.838169 0.413184
O O5 0.768390 0.105215 0.079111
O O6 0.018002 0.146139 0.898143
O O7 0.808731 0.882599 0.124385
O O8 0.668157 0.190036 0.302199
O O9 0.943021 0.352314 0.276429
O O10 0.002280 0.158926 0.307494
O O11 0.105604 0.066356 0.491238
O O12 0.748031 0.033119 0.903551
O O13 0.764612 0.810731 0.765574
O O14 0.101057 0.765929 0.357471
O O15 0.689577 0.494799 0.871576
O O16 0.538203 0.193558 0.055664
#
# Coordination Sequence:
#
# PCOD9240808 Si02
#       8
#     4   4   4   4   4   4   4   4
#     4  10  19  33  51  74 101 131 163 198 238 287
#     4   8  13  26  46  68  92 122 157 196 236 282
#     4  11  21  33  49  72  99 130 163 201 244 288
#     4  11  21  33  49  72  99 130 163 201 244 288
#     4   8  13  26  46  68  92 122 157 196 236 282
#     4   7  12  24  45  68  93 123 156 191 235 285
#     4   7  12  24  45  68  93 123 156 191 235 285
#     4  10  19  33  51  74 101 131 163 198 238 287
#
# _framework density 26.282444000000002
#
# number of rings (size 3 to 8) (size 9 to 14) (size 15 to 20)
#    0.000    3.000    0.000    6.000    0.000    0.000 
#    0.000   11.250    0.000    1.500    0.000   10.500 
#    0.000    0.000    0.000    0.000    0.000    0.000 
#
# Total GULP energy -178645.502753 kJ/mol
# GULP energy per Si atom -5582.671961 kJ/mol
# Density = 2.622262 g / cm^3
# Si number density = 26.282444 Si / 1000 Ang^3
#
#
#
# Elastic Constant Matrix: (Units=GPa)
#
#
# Indices 1 2 3 4 5 6 
#
# 1 46.6330 19.5999 41.7289 0.0000 7.3933 0.0000
# 2 19.5999 100.4029 4.6440 0.0000 8.5190 0.0000
# 3 41.7289 4.6440 76.9820 0.0000 23.5211 0.0000
# 4 0.0000 0.0000 0.0000 20.6861 0.0000 10.0176
# 5 7.3933 8.5190 23.5211 0.0000 35.1909 0.0000
# 6 0.0000 0.0000 0.0000 10.0176 0.0000 32.9258
#
#
#
# Elastic Compliance Matrix: (Units=1/GPa)
#
#
# Indices 1 2 3 4 5 6 
#
# 1 0.051203 -0.009603 -0.030912 0.000000 0.012229 0.000000
# 2 -0.009603 0.011972 0.005972 0.000000 -0.004872 0.000000
# 3 -0.030912 0.005972 0.034989 0.000000 -0.018337 0.000000
# 4 0.000000 0.000000 0.000000 0.056695 0.000000 -0.017249
# 5 0.012229 -0.004872 -0.018337 0.000000 0.039283 0.000000
# 6 0.000000 0.000000 0.000000 -0.017249 0.000000 0.035619
#
#
# Mechanical properties :
#
#
# Convention : Reuss Voigt Hill
#
# Bulk Modulus (GPa) = 34.39184 39.55150 36.97167
# Shear Modulus (GPa) = 16.20536 28.29688 22.25112
#
# Velocity S-wave (km/s) = 2.48581 3.28479 2.91282
# Velocity P-wave (km/s) = 4.62092 5.42842 5.04086
#
# Compressibility (1/GPa) = 0.02907666
#
# Stress axis : x y z
#
# Youngs Moduli (GPa) = 19.53018 83.53029 28.58058
#
# Poissons Ratio (x) = 0.80216 0.88348
# Poissons Ratio (y) = 0.18755 -0.17068
# Poissons Ratio (z) = 0.60372 -0.49884
#
# Static dielectric constant tensor:
#      x y z
#    x 2.194900 0.000000 0.068720 
#    y 0.000000 2.051430 0.000000 
#    z 0.068720 0.000000 2.138720 
# 
# From -- ./inp_files/75277.got.cif
#   From: 2010.05.17/outbox.cif.g08.bks.cpg/sg14_38_cif.got.tgz:75277.got - 2010.06.03 17:49:19.
