data_PCOD9240291
_publ_section_title
;
Structure prediction by ZEFSAII (Michael W. Deem and Ramdas Pophale) SiO2 
 PCOD9240291
Probable space group: P 21/C
;
_chemical_formula_sum "Si O2"
_cell_formula_units_Z 32
_cell_length_a 8.323466
_cell_length_b 25.360434
_cell_length_c 11.920996
_cell_angle_alpha 90.000000
_cell_angle_beta 33.897421
_cell_angle_gamma 90.000000
_cell_volume 1403.395603
_symmetry_space_group_name_H-M "P 21/C"
_symmetry_group_IT_number 14
_symmetry_cell_setting 'monoclinic'
loop_
_space_group_symop_operation_xyz
x,y,z
-x,1/2+y,1/2-z
-x,-y,-z
x,1/2-y,1/2+z
loop_
_atom_site_type_symbol
_atom_site_label
_atom_site_fract_x
_atom_site_fract_y
_atom_site_fract_z
Si Si1 0.551332 0.352505 0.745173
Si Si2 0.531741 0.251516 0.620232
Si Si3 0.164138 0.411944 0.793506
Si Si4 0.604794 0.475161 0.123574
Si Si5 0.820726 0.838902 0.069433
Si Si6 0.093451 0.199864 0.220574
Si Si7 0.532586 0.071296 0.438479
Si Si8 0.776727 0.555821 0.474836
O O1 0.480155 0.293166 0.750507
O O2 0.894503 0.357611 0.531277
O O3 0.489773 0.371952 0.907259
O O4 0.377400 0.390958 0.763790
O O5 0.862070 0.238917 0.407646
O O6 0.398474 0.279142 0.587894
O O7 0.381413 0.196818 0.738713
O O8 0.047006 0.358486 0.800141
O O9 0.305321 0.443133 0.607642
O O10 0.900622 0.447536 0.989098
O O11 0.645726 0.528697 0.029544
O O12 0.385820 0.485066 0.351977
O O13 0.471755 0.436477 0.104362
O O14 0.927321 0.804249 0.900669
O O15 0.681172 0.888921 0.088078
O O16 0.873603 0.055802 0.225125
#
# Coordination Sequence:
#
# PCOD9240291 Si02
#       8
#     4   4   4   4   4   4   4   4
#     4  10  21  39  55  82 120 148 191 252 296 335
#     4  11  21  38  56  81 113 152 192 235 294 354
#     4   9  20  37  55  81 120 147 187 249 287 346
#     4  10  18  36  61  85 112 158 199 230 305 355
#     4  10  21  37  57  82 110 150 193 239 290 347
#     4  10  22  36  57  81 112 150 191 237 289 348
#     4   9  20  35  58  87 118 151 194 249 287 358
#     4   9  18  36  58  82 114 150 192 240 291 348
#
# _framework density 22.801839000000001
#
# number of rings (size 3 to 8) (size 9 to 14) (size 15 to 20)
#    0.000    2.250    1.250    1.875    1.750    0.500 
#    0.000    4.375    0.000    0.000    0.000    0.000 
#    0.000    0.000    0.000    0.000    0.000    0.000 
#
# Total GULP energy -178733.037080 kJ/mol
# GULP energy per Si atom -5585.407409 kJ/mol
# Density = 2.274994 g / cm^3
# Si number density = 22.801839 Si / 1000 Ang^3
#
#
#
# Elastic Constant Matrix: (Units=GPa)
#
#
# Indices 1 2 3 4 5 6 
#
# 1 79.9255 10.4833 21.5038 0.0000 6.0998 0.0000
# 2 10.4833 52.9750 7.1555 0.0000 0.3653 0.0000
# 3 21.5038 7.1555 60.3427 0.0000 14.2710 0.0000
# 4 0.0000 0.0000 0.0000 22.0938 0.0000 3.8718
# 5 6.0998 0.3653 14.2710 0.0000 17.8138 0.0000
# 6 0.0000 0.0000 0.0000 3.8718 0.0000 32.7174
#
#
#
# Elastic Compliance Matrix: (Units=1/GPa)
#
#
# Indices 1 2 3 4 5 6 
#
# 1 0.014094 -0.002175 -0.004483 0.000000 -0.001190 0.000000
# 2 -0.002175 0.019565 -0.002006 0.000000 0.001951 0.000000
# 3 -0.004483 -0.002006 0.022250 0.000000 -0.016249 0.000000
# 4 0.000000 0.000000 0.000000 0.046220 0.000000 -0.005470
# 5 -0.001190 0.001951 -0.016249 0.000000 0.069521 0.000000
# 6 0.000000 0.000000 0.000000 -0.005470 0.000000 0.031212
#
#
# Mechanical properties :
#
#
# Convention : Reuss Voigt Hill
#
# Bulk Modulus (GPa) = 25.92029 30.16983 28.04506
# Shear Modulus (GPa) = 21.45445 24.79838 23.12642
#
# Velocity S-wave (km/s) = 3.07075 3.30140 3.18816
# Velocity P-wave (km/s) = 4.89541 5.27184 5.08711
#
# Compressibility (1/GPa) = 0.03857981
#
# Stress axis : x y z
#
# Youngs Moduli (GPa) = 70.95231 51.11211 44.94296
#
# Poissons Ratio (x) = 0.11118 0.20149
# Poissons Ratio (y) = 0.15434 0.09017
# Poissons Ratio (z) = 0.31809 0.10254
#
# Static dielectric constant tensor:
#      x y z
#    x 1.861920 0.000000 0.014130 
#    y 0.000000 1.893350 0.000000 
#    z 0.014130 0.000000 1.833250 
# 
# From -- ./inp_files/27088.got.cif
#   From: 2010.05.17/outbox.cif.g08.bks.cpg/sg14_14_cif.got.tgz:27088.got - 2010.06.03 17:49:19.
