data_PCOD9240579
_publ_section_title
;
Structure prediction by ZEFSAII (Michael W. Deem and Ramdas Pophale) SiO2 
 PCOD9240579
Probable space group: P 21/C
;
_chemical_formula_sum "Si O2"
_cell_formula_units_Z 24
_cell_length_a 18.374026
_cell_length_b 5.466426
_cell_length_c 23.040193
_cell_angle_alpha 90.000000
_cell_angle_beta 154.970184
_cell_angle_gamma 90.000000
_cell_volume 979.098769
_symmetry_space_group_name_H-M "P 21/C"
_symmetry_group_IT_number 14
_symmetry_cell_setting 'monoclinic'
loop_
_space_group_symop_operation_xyz
x,y,z
-x,1/2+y,1/2-z
-x,-y,-z
x,1/2-y,1/2+z
loop_
_atom_site_type_symbol
_atom_site_label
_atom_site_fract_x
_atom_site_fract_y
_atom_site_fract_z
Si Si1 0.213457 0.913399 0.447205
Si Si2 0.904318 0.796043 0.048620
Si Si3 0.843971 0.246198 0.375942
Si Si4 0.138986 0.157648 0.283786
Si Si5 0.194842 0.254533 0.193935
Si Si6 0.585582 0.093311 0.829357
O O1 0.197619 0.087033 0.491652
O O2 0.257839 0.068183 0.422176
O O3 0.346183 0.698238 0.559386
O O4 0.015489 0.819776 0.301407
O O5 0.023217 0.715681 0.082496
O O6 0.038082 0.918730 0.188854
O O7 0.759867 0.990593 0.926789
O O8 0.988901 0.263054 0.530680
O O9 0.742844 0.494019 0.286892
O O10 0.741821 0.991118 0.296193
O O11 0.216214 0.265668 0.279377
O O12 0.523667 0.340582 0.751530
#
# Coordination Sequence:
#
# PCOD9240579 Si02
#       6
#     4   4   4   4   4   4
#     4  11  19  31  51  78 108 138 166 209 258 323
#     4  10  19  32  52  74 106 134 170 212 257 310
#     4   9  17  29  46  71  98 140 168 201 248 295
#     4  10  19  29  48  80 110 139 161 200 265 320
#     4   9  17  29  45  68 108 135 167 198 240 316
#     4  11  23  38  51  71 101 137 183 219 253 301
#
# _framework density 24.512339000000001
#
# number of rings (size 3 to 8) (size 9 to 14) (size 15 to 20)
#    0.000    2.000    5.000    0.000    0.000    0.000 
#    0.000    0.000    0.000    0.000    0.000    2.333 
#    0.000    0.333    0.000    0.000    0.000    0.000 
#
# Total GULP energy -133722.728371 kJ/mol
# GULP energy per Si atom -5571.780349 kJ/mol
# Density = 2.445655 g / cm^3
# Si number density = 24.512339 Si / 1000 Ang^3
#
#
#
# Elastic Constant Matrix: (Units=GPa)
#
#
# Indices 1 2 3 4 5 6 
#
# 1 52.6421 1.2020 18.3567 0.0000 -28.0208 0.0000
# 2 1.2020 155.1964 20.0383 0.0000 6.2085 0.0000
# 3 18.3567 20.0383 43.1347 0.0000 -6.2292 0.0000
# 4 0.0000 0.0000 0.0000 33.3879 0.0000 -9.2690
# 5 -28.0208 6.2085 -6.2292 0.0000 23.3112 0.0000
# 6 0.0000 0.0000 0.0000 -9.2690 0.0000 17.3817
#
#
#
# Elastic Compliance Matrix: (Units=1/GPa)
#
#
# Indices 1 2 3 4 5 6 
#
# 1 0.062309 -0.001305 -0.015648 0.000000 0.071063 0.000000
# 2 -0.001305 0.007060 -0.003352 0.000000 -0.004345 0.000000
# 3 -0.015648 -0.003352 0.029969 0.000000 -0.009908 0.000000
# 4 0.000000 0.000000 0.000000 0.035156 0.000000 0.018747
# 5 0.071063 -0.004345 -0.009908 0.000000 0.126827 0.000000
# 6 0.000000 0.000000 0.000000 0.018747 0.000000 0.067529
#
#
# Mechanical properties :
#
#
# Convention : Reuss Voigt Hill
#
# Bulk Modulus (GPa) = 17.02768 36.68523 26.85645
# Shear Modulus (GPa) = 12.85232 28.90788 20.88010
#
# Velocity S-wave (km/s) = 2.29229 3.43785 2.92176
# Velocity P-wave (km/s) = 3.73735 5.54589 4.72888
#
# Compressibility (1/GPa) = 0.05872791
#
# Stress axis : x y z
#
# Youngs Moduli (GPa) = 16.04917 141.64032 33.36823
#
# Poissons Ratio (x) = 0.18484 0.52214
# Poissons Ratio (y) = 0.02094 0.11185
# Poissons Ratio (z) = 0.25113 0.47476
#
# Static dielectric constant tensor:
#      x y z
#    x 2.008410 0.000000 -0.071820 
#    y 0.000000 2.184770 0.000000 
#    z -0.071820 0.000000 1.980340 
# 
# From -- ./inp_files/70016.got.cif
#   From: 2010.05.17/outbox.cif.g08.bks.cpg/sg14_36_cif.got.tgz:70016.got - 2010.06.03 17:49:19.
