data_PCOD9240226
_publ_section_title
;
Structure prediction by ZEFSAII (Michael W. Deem and Ramdas Pophale) SiO2 
 PCOD9240226
Probable space group: P 21/C
;
_chemical_formula_sum "Si O2"
_cell_formula_units_Z 28
_cell_length_a 11.658349
_cell_length_b 7.423957
_cell_length_c 21.080396
_cell_angle_alpha 90.000000
_cell_angle_beta 141.039384
_cell_angle_gamma 90.000000
_cell_volume 1147.239684
_symmetry_space_group_name_H-M "P 21/C"
_symmetry_group_IT_number 14
_symmetry_cell_setting 'monoclinic'
loop_
_space_group_symop_operation_xyz
x,y,z
-x,1/2+y,1/2-z
-x,-y,-z
x,1/2-y,1/2+z
loop_
_atom_site_type_symbol
_atom_site_label
_atom_site_fract_x
_atom_site_fract_y
_atom_site_fract_z
Si Si1 0.923195 0.152827 0.303202
Si Si2 0.620496 0.259318 0.088157
Si Si3 0.716339 0.584386 0.402067
Si Si4 0.284407 0.433113 0.018849
Si Si5 0.532609 0.191104 0.908629
Si Si6 0.917377 0.505829 0.371416
Si Si7 0.829388 0.865107 0.703845
O O1 0.077118 0.032810 0.404692
O O2 0.053455 0.220179 0.301316
O O3 0.733716 0.130210 0.183982
O O4 0.875479 0.300314 0.335156
O O5 0.734033 0.448342 0.139339
O O6 0.627052 0.377232 0.926525
O O7 0.609740 0.170520 0.014180
O O8 0.717099 0.790161 0.424882
O O9 0.563188 0.464616 0.370353
O O10 0.750719 0.575961 0.341990
O O11 0.895931 0.491582 0.510105
O O12 0.421716 0.325562 0.028493
O O13 0.326465 0.242813 0.834495
O O14 0.948592 0.594647 0.316922
#
# Coordination Sequence:
#
# PCOD9240226 Si02
#       7
#     4   4   4   4   4   4   4
#     4  10  18  35  64  87 122 161 196 256 319 357
#     4  10  19  34  60  92 123 156 203 259 310 356
#     4  10  22  41  61  87 123 169 201 250 310 377
#     4  10  20  40  61  89 127 159 201 258 310 362
#     4  11  20  38  64  90 121 161 212 251 307 374
#     4   9  21  40  58  84 131 159 200 262 308 361
#     4  10  18  37  60  86 123 159 199 266 312 349
#
# _framework density 24.406407999999999
#
# number of rings (size 3 to 8) (size 9 to 14) (size 15 to 20)
#    0.000    2.000    2.857    1.714    0.000    0.571 
#   12.857    6.429    0.000    0.000    0.000    0.000 
#    0.000    0.000    0.000    0.000    0.000    0.000 
#
# Total GULP energy -156210.158094 kJ/mol
# GULP energy per Si atom -5578.934218 kJ/mol
# Density = 2.435086 g / cm^3
# Si number density = 24.406408 Si / 1000 Ang^3
#
#
#
# Elastic Constant Matrix: (Units=GPa)
#
#
# Indices 1 2 3 4 5 6 
#
# 1 75.6851 11.3453 -6.6801 0.0000 -21.8772 0.0000
# 2 11.3453 84.0037 -9.2427 0.0000 -5.4837 0.0000
# 3 -6.6801 -9.2427 36.3498 0.0000 4.7343 0.0000
# 4 0.0000 0.0000 0.0000 2.1725 0.0000 0.4896
# 5 -21.8772 -5.4837 4.7343 0.0000 31.3411 0.0000
# 6 0.0000 0.0000 0.0000 0.4896 0.0000 31.7398
#
#
#
# Elastic Compliance Matrix: (Units=1/GPa)
#
#
# Indices 1 2 3 4 5 6 
#
# 1 0.016796 -0.001393 0.001262 0.000000 0.011290 0.000000
# 2 -0.001393 0.012452 0.002808 0.000000 0.000782 0.000000
# 3 0.001262 0.002808 0.028845 0.000000 -0.002985 0.000000
# 4 0.000000 0.000000 0.000000 0.461914 0.000000 -0.007126
# 5 0.011290 0.000782 -0.002985 0.000000 0.040376 0.000000
# 6 0.000000 0.000000 0.000000 -0.007126 0.000000 0.031616
#
#
# Mechanical properties :
#
#
# Convention : Reuss Voigt Hill
#
# Bulk Modulus (GPa) = 15.76043 20.76484 18.26264
# Shear Modulus (GPa) = 8.22648 26.42508 17.32578
#
# Velocity S-wave (km/s) = 1.83792 3.29403 2.66726
# Velocity P-wave (km/s) = 3.31292 4.79520 4.12125
#
# Compressibility (1/GPa) = 0.06345004
#
# Stress axis : x y z
#
# Youngs Moduli (GPa) = 59.53711 80.30582 34.66770
#
# Poissons Ratio (x) = 0.11183 -0.04376
# Poissons Ratio (y) = 0.08291 -0.09736
# Poissons Ratio (z) = -0.07515 -0.22554
#
# Static dielectric constant tensor:
#      x y z
#    x 1.965700 0.000000 0.012390 
#    y 0.000000 1.976900 0.000000 
#    z 0.012390 0.000000 2.025390 
# 
# From -- ./inp_files/66894.got.cif
#   From: 2010.05.17/outbox.cif.g08.bks.cpg/sg14_34_cif.got.tgz:66894.got - 2010.06.03 17:49:19.
