data_PCOD9240961
_publ_section_title
;
Structure prediction by ZEFSAII (Michael W. Deem and Ramdas Pophale) SiO2 
 PCOD9240961
Probable space group: P 21/C
;
_chemical_formula_sum "Si O2"
_cell_formula_units_Z 28
_cell_length_a 16.749951
_cell_length_b 11.132745
_cell_length_c 8.212291
_cell_angle_alpha 90.000000
_cell_angle_beta 57.131515
_cell_angle_gamma 90.000000
_cell_volume 1286.225995
_symmetry_space_group_name_H-M "P 21/C"
_symmetry_group_IT_number 14
_symmetry_cell_setting 'monoclinic'
loop_
_space_group_symop_operation_xyz
x,y,z
-x,1/2+y,1/2-z
-x,-y,-z
x,1/2-y,1/2+z
loop_
_atom_site_type_symbol
_atom_site_label
_atom_site_fract_x
_atom_site_fract_y
_atom_site_fract_z
Si Si1 0.781609 0.017980 0.651549
Si Si2 0.101143 0.121081 0.225540
Si Si3 0.376769 0.179466 0.726244
Si Si4 0.108558 0.800049 0.628469
Si Si5 0.092688 0.561079 0.476140
Si Si6 0.422237 0.418727 0.500511
Si Si7 0.237550 0.163178 0.605683
O O1 0.803109 0.154036 0.578982
O O2 0.863977 0.967683 0.674289
O O3 0.681378 0.976436 0.841303
O O4 0.792343 0.946584 0.470879
O O5 0.148623 0.247748 0.227547
O O6 0.989536 0.140592 0.327774
O O7 0.137139 0.056688 0.017510
O O8 0.431313 0.285741 0.570874
O O9 0.309238 0.120425 0.666511
O O10 0.431046 0.095801 0.794896
O O11 0.304444 0.251629 0.921962
O O12 0.088782 0.658824 0.626707
O O13 0.125407 0.852698 0.790721
O O14 0.000000 0.500000 0.500000
O O15 0.500000 0.500000 0.500000
#
# Coordination Sequence:
#
# PCOD9240961 Si02
#       7
#     4   4   4   4   4   4   4
#     4  11  23  37  63  94 130 168 216 280 328 390
#     4  11  22  36  64  89 129 172 222 265 322 380
#     4   9  18  39  63  98 122 163 218 267 312 400
#     4  11  25  39  58  88 134 173 228 263 334 385
#     4  10  25  42  59  87 132 179 224 269 321 393
#     4  10  21  42  68  96 133 167 217 273 337 397
#     4  10  19  33  63  95 124 161 220 268 318 373
#
# _framework density 21.769113000000001
#
# number of rings (size 3 to 8) (size 9 to 14) (size 15 to 20)
#    0.000    1.714    4.286    1.286   10.000    0.000 
#    0.000    9.286    0.000    0.000    0.000    0.000 
#    0.000    0.000    0.000    0.000    0.000    0.000 
#
# Total GULP energy -155919.253075 kJ/mol
# GULP energy per Si atom -5568.544753 kJ/mol
# Density = 2.171957 g / cm^3
# Si number density = 21.769113 Si / 1000 Ang^3
#
#
#
# Elastic Constant Matrix: (Units=GPa)
#
#
# Indices 1 2 3 4 5 6 
#
# 1 107.2681 51.2095 38.1240 0.0000 48.3931 0.0000
# 2 51.2095 99.5020 28.6256 0.0000 20.8819 0.0000
# 3 38.1240 28.6256 42.0258 0.0000 31.0721 0.0000
# 4 0.0000 0.0000 0.0000 32.4492 0.0000 12.2092
# 5 48.3931 20.8819 31.0721 0.0000 38.0934 0.0000
# 6 0.0000 0.0000 0.0000 12.2092 0.0000 46.1202
#
#
#
# Elastic Compliance Matrix: (Units=1/GPa)
#
#
# Indices 1 2 3 4 5 6 
#
# 1 0.026683 -0.008545 0.008097 0.000000 -0.035818 0.000000
# 2 -0.008545 0.015237 -0.011280 0.000000 0.011704 0.000000
# 3 0.008097 -0.011280 0.068444 0.000000 -0.059931 0.000000
# 4 0.000000 0.000000 0.000000 0.034227 0.000000 -0.009061
# 5 -0.035818 0.011704 -0.059931 0.000000 0.114223 0.000000
# 6 0.000000 0.000000 0.000000 -0.009061 0.000000 0.024081
#
#
# Mechanical properties :
#
#
# Convention : Reuss Voigt Hill
#
# Bulk Modulus (GPa) = 11.50657 53.85714 32.68186
# Shear Modulus (GPa) = 14.91113 32.05501 23.48307
#
# Velocity S-wave (km/s) = 2.62003 3.84148 3.28797
# Velocity P-wave (km/s) = 3.80131 6.66857 5.42770
#
# Compressibility (1/GPa) = 0.08690689
#
# Stress axis : x y z
#
# Youngs Moduli (GPa) = 37.47679 65.63056 14.61055
#
# Poissons Ratio (x) = 0.56083 -0.11830
# Poissons Ratio (y) = 0.32025 0.16481
# Poissons Ratio (z) = -0.30346 0.74033
#
# Static dielectric constant tensor:
#      x y z
#    x 1.770270 0.000000 0.029330 
#    y 0.000000 1.894460 0.000000 
#    z 0.029330 0.000000 1.913440 
# 
# From -- ./inp_files/15519.got.cif
#   From: 2010.05.17/outbox.cif.g08.bks.cpg/sg14_8_cif.got.tgz:15519.got - 2010.06.03 17:49:19.
