data_PCOD9240905
_publ_section_title
;
Structure prediction by ZEFSAII (Michael W. Deem and Ramdas Pophale) SiO2 
 PCOD9240905
Probable space group: P 21/C
;
_chemical_formula_sum "Si O2"
_cell_formula_units_Z 32
_cell_length_a 22.233748
_cell_length_b 11.540907
_cell_length_c 15.795656
_cell_angle_alpha 90.000000
_cell_angle_beta 17.242985
_cell_angle_gamma 90.000000
_cell_volume 1201.446941
_symmetry_space_group_name_H-M "P 21/C"
_symmetry_group_IT_number 14
_symmetry_cell_setting 'monoclinic'
loop_
_space_group_symop_operation_xyz
x,y,z
-x,1/2+y,1/2-z
-x,-y,-z
x,1/2-y,1/2+z
loop_
_atom_site_type_symbol
_atom_site_label
_atom_site_fract_x
_atom_site_fract_y
_atom_site_fract_z
Si Si1 0.687488 0.987599 0.684114
Si Si2 0.471584 0.786569 0.192003
Si Si3 0.511367 0.136497 0.479720
Si Si4 0.952420 0.586721 0.214913
Si Si5 0.059167 0.280079 0.929894
Si Si6 0.470578 0.618255 0.863851
Si Si7 0.040538 0.166070 0.117384
Si Si8 0.174021 0.056183 0.667425
O O1 0.654581 0.104656 0.672241
O O2 0.895199 0.986399 0.458746
O O3 0.712777 0.900483 0.571053
O O4 0.500000 0.000000 0.000000
O O5 0.456900 0.782010 0.312018
O O6 0.406415 0.682599 0.219075
O O7 0.708973 0.816414 0.862600
O O8 0.602598 0.167802 0.447857
O O9 0.500000 0.000000 0.500000
O O10 0.281942 0.180443 0.789109
O O11 0.020604 0.628291 0.030831
O O12 0.707222 0.575426 0.547201
O O13 0.997390 0.676974 0.231375
O O14 0.082900 0.159897 0.844864
O O15 0.957792 0.251490 0.156089
O O16 0.328483 0.513840 0.021242
O O17 0.992667 0.035609 0.144959
#
# Coordination Sequence:
#
# PCOD9240905 Si02
#       8
#     4   4   4   4   4   4   4   4
#     4  10  22  40  59  81 116 159 200 241 290 358
#     4   9  20  35  52  80 115 147 191 241 290 343
#     4  10  19  33  57  86 114 154 200 243 299 361
#     4   9  20  37  56  82 113 148 191 239 287 345
#     4  10  19  35  59  84 112 151 191 239 298 349
#     4   9  18  35  54  77 117 152 185 246 296 345
#     4   9  19  34  53  82 116 145 184 240 291 343
#     4  10  20  35  56  84 114 148 195 243 294 354
#
# _framework density 26.634553
#
# number of rings (size 3 to 8) (size 9 to 14) (size 15 to 20)
#    0.000    2.500    0.000    1.875    0.000    6.000 
#    0.000    9.375    0.000    7.500    0.000    0.000 
#    0.000    0.000    0.000    0.000    0.000    0.000 
#
# Total GULP energy -178608.603263 kJ/mol
# GULP energy per Si atom -5581.518852 kJ/mol
# Density = 2.657393 g / cm^3
# Si number density = 26.634553 Si / 1000 Ang^3
#
#
#
# Elastic Constant Matrix: (Units=GPa)
#
#
# Indices 1 2 3 4 5 6 
#
# 1 200.9589 59.6071 38.3860 0.0000 17.9863 0.0000
# 2 59.6071 57.9238 -4.7204 0.0000 8.5005 0.0000
# 3 38.3860 -4.7204 66.5718 0.0000 -20.7463 0.0000
# 4 0.0000 0.0000 0.0000 29.9567 0.0000 2.0532
# 5 17.9863 8.5005 -20.7463 0.0000 57.9894 0.0000
# 6 0.0000 0.0000 0.0000 2.0532 0.0000 39.5268
#
#
#
# Elastic Compliance Matrix: (Units=1/GPa)
#
#
# Indices 1 2 3 4 5 6 
#
# 1 0.009851 -0.010131 -0.007752 0.000000 -0.004344 0.000000
# 2 -0.010131 0.028078 0.008474 0.000000 0.002058 0.000000
# 3 -0.007752 0.008474 0.023021 0.000000 0.009398 0.000000
# 4 0.000000 0.000000 0.000000 0.033501 0.000000 -0.001740
# 5 -0.004344 0.002058 0.009398 0.000000 0.021652 0.000000
# 6 0.000000 0.000000 0.000000 -0.001740 0.000000 0.025390
#
#
# Mechanical properties :
#
#
# Convention : Reuss Voigt Hill
#
# Bulk Modulus (GPa) = 23.73508 56.88888 40.31198
# Shear Modulus (GPa) = 28.67709 40.97338 34.82524
#
# Velocity S-wave (km/s) = 3.28485 3.92644 3.61989
# Velocity P-wave (km/s) = 4.82884 6.47776 5.71310
#
# Compressibility (1/GPa) = 0.04213173
#
# Stress axis : x y z
#
# Youngs Moduli (GPa) = 101.51518 35.61462 43.43856
#
# Poissons Ratio (x) = 0.36082 0.33674
# Poissons Ratio (y) = 1.02848 -0.36811
# Poissons Ratio (z) = 0.78695 -0.30180
#
# Static dielectric constant tensor:
#      x y z
#    x 2.125980 0.000000 0.087930 
#    y 0.000000 2.152230 0.000000 
#    z 0.087930 0.000000 2.312940 
# 
# From -- ./inp_files/50663.got.cif
#   From: 2010.05.17/outbox.cif.g08.bks.cpg/sg14_26_cif.got.tgz:50663.got - 2010.06.03 17:49:19.
