data_PCOD9240955
_publ_section_title
;
Structure prediction by ZEFSAII (Michael W. Deem and Ramdas Pophale) SiO2 
 PCOD9240955
Probable space group: P 21/C
;
_chemical_formula_sum "Si O2"
_cell_formula_units_Z 32
_cell_length_a 14.578672
_cell_length_b 5.213385
_cell_length_c 16.478616
_cell_angle_alpha 90.000000
_cell_angle_beta 72.017942
_cell_angle_gamma 90.000000
_cell_volume 1191.266659
_symmetry_space_group_name_H-M "P 21/C"
_symmetry_group_IT_number 14
_symmetry_cell_setting 'monoclinic'
loop_
_space_group_symop_operation_xyz
x,y,z
-x,1/2+y,1/2-z
-x,-y,-z
x,1/2-y,1/2+z
loop_
_atom_site_type_symbol
_atom_site_label
_atom_site_fract_x
_atom_site_fract_y
_atom_site_fract_z
Si Si1 0.565744 0.434104 0.603596
Si Si2 0.564270 0.296376 0.787119
Si Si3 0.796216 0.085365 0.048023
Si Si4 0.023473 0.377546 0.192136
Si Si5 0.734390 0.995609 0.790870
Si Si6 0.392304 0.155143 0.587456
Si Si7 0.209834 0.616057 0.104762
Si Si8 0.136080 0.408589 0.878111
O O1 0.537274 0.342710 0.702509
O O2 0.518017 0.716065 0.625367
O O3 0.680307 0.457732 0.571982
O O4 0.501822 0.266260 0.556990
O O5 0.613572 0.528675 0.821371
O O6 0.646924 0.085396 0.759048
O O7 0.814896 0.334286 0.099321
O O8 0.851250 0.832247 0.065099
O O9 0.828221 0.190487 0.952277
O O10 0.135167 0.385640 0.134870
O O11 0.995372 0.097070 0.233493
O O12 0.964213 0.487546 0.130644
O O13 0.675961 0.900850 0.885342
O O14 0.803568 0.825689 0.718375
O O15 0.791507 0.236377 0.809567
O O16 0.320152 0.975079 0.555444
#
# Coordination Sequence:
#
# PCOD9240955 Si02
#       8
#     4   4   4   4   4   4   4   4
#     4  11  21  36  64 101 141 194 242 301 361 423
#     4  10  19  33  61  99 130 181 242 305 339 413
#     4  12  30  45  72 108 159 190 238 302 379 437
#     4  12  26  48  84 113 141 186 252 307 362 438
#     4  10  21  42  70  98 138 187 250 293 351 431
#     4  10  22  39  68  97 139 192 247 297 360 432
#     4  11  27  48  71 106 147 194 237 307 378 437
#     4  12  26  47  73 111 142 194 244 305 358 442
#
# _framework density 26.862161
#
# number of rings (size 3 to 8) (size 9 to 14) (size 15 to 20)
#    0.000    1.000    3.750    2.250    7.000    1.500 
#    0.000    5.625    0.000    0.000    0.000    0.000 
#    0.000    0.000    0.000    0.000    0.000    0.000 
#
# Total GULP energy -178681.132016 kJ/mol
# GULP energy per Si atom -5583.785375 kJ/mol
# Density = 2.680102 g / cm^3
# Si number density = 26.862161 Si / 1000 Ang^3
#
#
#
# Elastic Constant Matrix: (Units=GPa)
#
#
# Indices 1 2 3 4 5 6 
#
# 1 118.5779 14.1319 36.6809 0.0000 6.3640 0.0000
# 2 14.1319 103.3303 18.7749 0.0000 14.0100 0.0000
# 3 36.6809 18.7749 57.4099 0.0000 17.3438 0.0000
# 4 0.0000 0.0000 0.0000 41.2571 0.0000 6.0281
# 5 6.3640 14.0100 17.3438 0.0000 37.8736 0.0000
# 6 0.0000 0.0000 0.0000 6.0281 0.0000 31.7660
#
#
#
# Elastic Compliance Matrix: (Units=1/GPa)
#
#
# Indices 1 2 3 4 5 6 
#
# 1 0.010600 -0.000373 -0.007142 0.000000 0.001627 0.000000
# 2 -0.000373 0.010533 -0.002377 0.000000 -0.002745 0.000000
# 3 -0.007142 -0.002377 0.025685 0.000000 -0.009682 0.000000
# 4 0.000000 0.000000 0.000000 0.024929 0.000000 -0.004731
# 5 0.001627 -0.002745 -0.009682 0.000000 0.031579 0.000000
# 6 0.000000 0.000000 0.000000 -0.004731 0.000000 0.032378
#
#
# Mechanical properties :
#
#
# Convention : Reuss Voigt Hill
#
# Bulk Modulus (GPa) = 36.99207 46.49930 41.74569
# Shear Modulus (GPa) = 30.39530 36.16137 33.27834
#
# Velocity S-wave (km/s) = 3.36747 3.67302 3.52356
# Velocity P-wave (km/s) = 5.37780 5.94441 5.66819
#
# Compressibility (1/GPa) = 0.02703282
#
# Stress axis : x y z
#
# Youngs Moduli (GPa) = 94.34198 94.94178 38.93393
#
# Poissons Ratio (x) = 0.03537 0.27808
# Poissons Ratio (y) = 0.03515 0.09255
# Poissons Ratio (z) = 0.67382 0.22570
#
# Static dielectric constant tensor:
#      x y z
#    x 2.102760 0.000000 -0.024850 
#    y 0.000000 2.233790 0.000000 
#    z -0.024850 0.000000 2.116090 
# 
# From -- ./inp_files/58595.got.cif
#   From: 2010.05.17/outbox.cif.g08.bks.cpg/sg14_30_cif.got.tgz:58595.got - 2010.06.03 17:49:19.
