data_PCOD9240239
_publ_section_title
;
Structure prediction by ZEFSAII (Michael W. Deem and Ramdas Pophale) SiO2 
 PCOD9240239
Probable space group: P 21/C
;
_chemical_formula_sum "Si O2"
_cell_formula_units_Z 26
_cell_length_a 7.781083
_cell_length_b 14.589235
_cell_length_c 12.624584
_cell_angle_alpha 90.000000
_cell_angle_beta 139.452088
_cell_angle_gamma 90.000000
_cell_volume 931.663141
_symmetry_space_group_name_H-M "P 21/C"
_symmetry_group_IT_number 14
_symmetry_cell_setting 'monoclinic'
loop_
_space_group_symop_operation_xyz
x,y,z
-x,1/2+y,1/2-z
-x,-y,-z
x,1/2-y,1/2+z
loop_
_atom_site_type_symbol
_atom_site_label
_atom_site_fract_x
_atom_site_fract_y
_atom_site_fract_z
Si Si1 0.441608 0.097131 0.100870
Si Si2 0.000000 0.000000 0.000000
Si Si3 0.167303 0.346741 0.777765
Si Si4 0.195456 0.295571 0.029640
Si Si5 0.912618 0.989352 0.237735
Si Si6 0.764456 0.321833 0.073194
Si Si7 0.716951 0.316538 0.308193
O O1 0.368328 0.202130 0.088910
O O2 0.310244 0.033590 0.125712
O O3 0.734296 0.060902 0.217404
O O4 0.289906 0.076115 0.919401
O O5 0.094725 0.894961 0.062247
O O6 0.059853 0.451675 0.711203
O O7 0.953349 0.268126 0.649914
O O8 0.188713 0.347043 0.915473
O O9 0.467172 0.321454 0.886020
O O10 0.419395 0.338279 0.208610
O O11 0.895320 0.273552 0.919232
O O12 0.101948 0.920358 0.388764
O O13 0.735296 0.325180 0.188514
#
# Coordination Sequence:
#
# PCOD9240239 Si02
#       7
#     4   2   4   4   4   4   4
#     4  10  20  32  59  77 112 141 190 217 280 319
#     4  10  18  36  52  80 100 150 172 232 262 336
#     4  10  19  30  56  81 116 139 187 224 272 313
#     4   9  16  33  51  83  96 143 178 226 244 329
#     4  11  19  32  54  88 108 144 180 232 270 323
#     4  10  19  34  51  87 107 148 179 230 264 337
#     4   9  17  30  58  73 102 130 191 213 267 304
#
# _framework density 27.907081999999999
#
# number of rings (size 3 to 8) (size 9 to 14) (size 15 to 20)
#    0.000    2.154    4.615    3.231    2.154    0.000 
#    0.000    0.000    6.769   14.769    0.000    0.000 
#    0.000    0.000    0.000    0.000    0.000    0.000 
#
# Total GULP energy -144918.062430 kJ/mol
# GULP energy per Si atom -5573.771632 kJ/mol
# Density = 2.784356 g / cm^3
# Si number density = 27.907082 Si / 1000 Ang^3
#
#
#
# Elastic Constant Matrix: (Units=GPa)
#
#
# Indices 1 2 3 4 5 6 
#
# 1 92.3321 -1.6374 42.7257 0.0000 38.4729 0.0000
# 2 -1.6374 91.0120 22.1413 0.0000 15.8234 0.0000
# 3 42.7257 22.1413 102.6120 0.0000 49.5898 0.0000
# 4 0.0000 0.0000 0.0000 39.5303 0.0000 10.0028
# 5 38.4729 15.8234 49.5898 0.0000 71.9520 0.0000
# 6 0.0000 0.0000 0.0000 10.0028 0.0000 41.0532
#
#
#
# Elastic Compliance Matrix: (Units=1/GPa)
#
#
# Indices 1 2 3 4 5 6 
#
# 1 0.015147 0.002255 -0.003958 0.000000 -0.005867 0.000000
# 2 0.002255 0.012006 -0.002505 0.000000 -0.002120 0.000000
# 3 -0.003958 -0.002505 0.015961 0.000000 -0.008333 0.000000
# 4 0.000000 0.000000 0.000000 0.026959 0.000000 -0.006569
# 5 -0.005867 -0.002120 -0.008333 0.000000 0.023245 0.000000
# 6 0.000000 0.000000 0.000000 -0.006569 0.000000 0.025959
#
#
# Mechanical properties :
#
#
# Convention : Reuss Voigt Hill
#
# Bulk Modulus (GPa) = 28.81995 45.82392 37.32194
# Shear Modulus (GPa) = 35.90416 45.35555 40.62985
#
# Velocity S-wave (km/s) = 3.59076 4.03579 3.81976
# Velocity P-wave (km/s) = 5.24794 6.17840 5.73208
#
# Compressibility (1/GPa) = 0.03469818
#
# Stress axis : x y z
#
# Youngs Moduli (GPa) = 66.02089 83.29052 62.65103
#
# Poissons Ratio (x) = -0.18786 0.24798
# Poissons Ratio (y) = -0.14891 0.15697
# Poissons Ratio (z) = 0.26132 0.20868
#
# Static dielectric constant tensor:
#      x y z
#    x 2.185910 0.000000 0.040920 
#    y 0.000000 2.250530 0.000000 
#    z 0.040920 0.000000 2.042850 
# 
# From -- ./inp_files/29517.got.cif
#   From: 2010.05.17/outbox.cif.g08.bks.cpg/sg14_15_cif.got.tgz:29517.got - 2010.06.03 17:49:19.
