data_PCOD9240718
_publ_section_title
;
Structure prediction by ZEFSAII (Michael W. Deem and Ramdas Pophale) SiO2 
 PCOD9240718
Probable space group: P 21/C
;
_chemical_formula_sum "Si O2"
_cell_formula_units_Z 32
_cell_length_a 17.300223
_cell_length_b 15.226732
_cell_length_c 16.208896
_cell_angle_alpha 90.000000
_cell_angle_beta 161.883565
_cell_angle_gamma 90.000000
_cell_volume 1327.703498
_symmetry_space_group_name_H-M "P 21/C"
_symmetry_group_IT_number 14
_symmetry_cell_setting 'monoclinic'
loop_
_space_group_symop_operation_xyz
x,y,z
-x,1/2+y,1/2-z
-x,-y,-z
x,1/2-y,1/2+z
loop_
_atom_site_type_symbol
_atom_site_label
_atom_site_fract_x
_atom_site_fract_y
_atom_site_fract_z
Si Si1 0.470682 0.812421 0.052121
Si Si2 0.315160 0.754316 0.733927
Si Si3 0.025151 0.492159 0.200770
Si Si4 0.512760 0.009994 0.111077
Si Si5 0.700409 0.424556 0.194995
Si Si6 0.919111 0.982860 0.777154
Si Si7 0.790172 0.787370 0.618770
Si Si8 0.975560 0.701953 0.125172
O O1 0.509384 0.906864 0.135133
O O2 0.749940 0.774282 0.334819
O O3 0.365851 0.827776 0.853738
O O4 0.248138 0.765894 0.876024
O O5 0.383995 0.670383 0.862152
O O6 0.031593 0.743335 0.416870
O O7 0.526160 0.752386 0.877916
O O8 0.010858 0.595745 0.162440
O O9 0.260262 0.451388 0.392707
O O10 0.044447 0.488761 0.319005
O O11 0.764834 0.452314 0.905767
O O12 0.500000 0.000000 0.000000
O O13 0.900635 0.448968 0.468056
O O14 0.788176 0.436386 0.190052
O O15 0.500000 0.500000 0.000000
O O16 0.763099 0.894323 0.598580
O O17 0.875779 0.768850 0.612578
#
# Coordination Sequence:
#
# PCOD9240718 Si02
#       8
#     4   4   4   4   4   4   4   4
#     4  10  20  35  55  78 102 137 174 217 261 315
#     4  11  21  33  54  78 107 141 172 210 263 316
#     4   9  19  32  57  82 101 134 174 223 262 305
#     4  10  20  36  58  79 102 134 178 226 270 309
#     4  10  19  32  52  77 112 145 171 212 256 312
#     4   9  19  32  51  81 108 136 182 215 252 308
#     4  10  19  33  55  80 101 137 179 217 252 304
#     4   9  18  34  55  77 101 131 179 220 252 301
#
# _framework density 24.101766000000001
#
# number of rings (size 3 to 8) (size 9 to 14) (size 15 to 20)
#    0.000    2.250    1.250    1.875    1.750    3.000 
#    0.000    0.000    8.250    0.000    0.000    0.000 
#    0.000    0.000    0.000    0.000    0.000    0.000 
#
# Total GULP energy -178584.612694 kJ/mol
# GULP energy per Si atom -5580.769147 kJ/mol
# Density = 2.404691 g / cm^3
# Si number density = 24.101766 Si / 1000 Ang^3
#
#
#
# Elastic Constant Matrix: (Units=GPa)
#
#
# Indices 1 2 3 4 5 6 
#
# 1 135.4099 -4.2133 40.1930 0.0000 19.5015 0.0000
# 2 -4.2133 58.2704 5.0220 0.0000 1.1296 0.0000
# 3 40.1930 5.0220 92.7169 0.0000 22.8573 0.0000
# 4 0.0000 0.0000 0.0000 15.4706 0.0000 -4.8250
# 5 19.5015 1.1296 22.8573 0.0000 45.0554 0.0000
# 6 0.0000 0.0000 0.0000 -4.8250 0.0000 23.2420
#
#
#
# Elastic Compliance Matrix: (Units=1/GPa)
#
#
# Indices 1 2 3 4 5 6 
#
# 1 0.008699 0.000955 -0.003302 0.000000 -0.002114 0.000000
# 2 0.000955 0.017347 -0.001308 0.000000 -0.000185 0.000000
# 3 -0.003302 -0.001308 0.013632 0.000000 -0.005454 0.000000
# 4 0.000000 0.000000 0.000000 0.069113 0.000000 0.014348
# 5 -0.002114 -0.000185 -0.005454 0.000000 0.025882 0.000000
# 6 0.000000 0.000000 0.000000 0.014348 0.000000 0.046004
#
#
# Mechanical properties :
#
#
# Convention : Reuss Voigt Hill
#
# Bulk Modulus (GPa) = 30.89452 40.93339 35.91396
# Shear Modulus (GPa) = 25.15390 33.11331 29.13360
#
# Velocity S-wave (km/s) = 3.23407 3.71063 3.48052
# Velocity P-wave (km/s) = 5.17608 5.94801 5.57542
#
# Compressibility (1/GPa) = 0.03236820
#
# Stress axis : x y z
#
# Youngs Moduli (GPa) = 114.95348 57.64787 73.35595
#
# Poissons Ratio (x) = -0.05503 0.24219
# Poissons Ratio (y) = -0.10973 0.09594
# Poissons Ratio (z) = 0.37953 0.07540
#
# Static dielectric constant tensor:
#      x y z
#    x 1.968350 0.000000 0.009940 
#    y 0.000000 1.737370 0.000000 
#    z 0.009940 0.000000 2.038930 
# 
# From -- ./inp_files/47675.got.cif
#   From: 2010.05.17/outbox.cif.g08.bks.cpg/sg14_24_cif.got.tgz:47675.got - 2010.06.03 17:49:19.
