data_PCOD9240690
_publ_section_title
;
Structure prediction by ZEFSAII (Michael W. Deem and Ramdas Pophale) SiO2 
 PCOD9240690
Probable space group: P 21/C
;
_chemical_formula_sum "Si O2"
_cell_formula_units_Z 32
_cell_length_a 9.987173
_cell_length_b 5.192681
_cell_length_c 22.413846
_cell_angle_alpha 90.000000
_cell_angle_beta 105.210549
_cell_angle_gamma 90.000000
_cell_volume 1121.666125
_symmetry_space_group_name_H-M "P 21/C"
_symmetry_group_IT_number 14
_symmetry_cell_setting 'monoclinic'
loop_
_space_group_symop_operation_xyz
x,y,z
-x,1/2+y,1/2-z
-x,-y,-z
x,1/2-y,1/2+z
loop_
_atom_site_type_symbol
_atom_site_label
_atom_site_fract_x
_atom_site_fract_y
_atom_site_fract_z
Si Si1 0.226119 0.994305 0.545988
Si Si2 0.800200 0.990681 0.690387
Si Si3 0.295909 0.605950 0.179242
Si Si4 0.289193 0.340910 0.934735
Si Si5 0.963221 0.191250 0.049274
Si Si6 0.887461 0.603570 0.319148
Si Si7 0.382306 0.508910 0.308902
Si Si8 0.554632 0.362145 0.566311
O O1 0.322759 0.923981 0.611743
O O2 0.185522 0.788861 0.490246
O O3 0.281343 0.199450 0.505341
O O4 0.080186 0.085572 0.556158
O O5 0.831630 0.947365 0.623938
O O6 0.918328 0.940452 0.753046
O O7 0.680349 0.778588 0.691863
O O8 0.734940 0.270442 0.693181
O O9 0.185804 0.380445 0.182698
O O10 0.414001 0.561667 0.242590
O O11 0.223908 0.882766 0.177587
O O12 0.314255 0.056911 0.912921
O O13 0.406653 0.562172 0.936947
O O14 0.993267 0.077393 0.117464
O O15 0.000000 0.000000 0.000000
O O16 0.499424 0.579869 0.372313
O O17 0.500000 0.500000 0.500000
#
# Coordination Sequence:
#
# PCOD9240690 Si02
#       8
#     4   4   4   4   4   4   4   4
#     4  10  21  32  50  76 106 137 175 212 255 299
#     4   8  15  29  47  69  95 128 167 206 245 295
#     4   9  16  28  47  72  95 131 170 205 240 298
#     4  10  21  34  55  78 106 134 168 211 259 313
#     4  10  19  32  50  72 102 140 176 213 246 291
#     4   9  16  28  48  67  95 130 175 209 242 289
#     4   8  15  28  49  73  94 125 168 202 242 304
#     4  10  20  36  57  80 102 131 167 213 263 313
#
# _framework density 28.528991000000001
#
# number of rings (size 3 to 8) (size 9 to 14) (size 15 to 20)
#    0.000    2.750    1.250    0.375    1.750    0.000 
#    0.000    0.000    2.750    1.500    0.000    0.000 
#    0.000    0.000    0.000    0.000    0.000    0.000 
#
# Total GULP energy -178563.835803 kJ/mol
# GULP energy per Si atom -5580.119869 kJ/mol
# Density = 2.846406 g / cm^3
# Si number density = 28.528991 Si / 1000 Ang^3
#
#
#
# Elastic Constant Matrix: (Units=GPa)
#
#
# Indices 1 2 3 4 5 6 
#
# 1 55.1619 45.4666 19.3595 0.0000 -4.4054 0.0000
# 2 45.4666 165.2207 11.3278 0.0000 7.9524 0.0000
# 3 19.3595 11.3278 327.0864 0.0000 18.0038 0.0000
# 4 0.0000 0.0000 0.0000 39.3385 0.0000 -3.8332
# 5 -4.4054 7.9524 18.0038 0.0000 16.7597 0.0000
# 6 0.0000 0.0000 0.0000 -3.8332 0.0000 50.7269
#
#
#
# Elastic Compliance Matrix: (Units=1/GPa)
#
#
# Indices 1 2 3 4 5 6 
#
# 1 0.026154 -0.007670 -0.001978 0.000000 0.012639 0.000000
# 2 -0.007670 0.008444 0.000524 0.000000 -0.006586 0.000000
# 3 -0.001978 0.000524 0.003400 0.000000 -0.004420 0.000000
# 4 0.000000 0.000000 0.000000 0.025609 0.000000 0.001935
# 5 0.012639 -0.006586 -0.004420 0.000000 0.070863 0.000000
# 6 0.000000 0.000000 0.000000 0.001935 0.000000 0.019860
#
#
# Mechanical properties :
#
#
# Convention : Reuss Voigt Hill
#
# Bulk Modulus (GPa) = 50.63349 77.75297 64.19323
# Shear Modulus (GPa) = 27.90799 52.78603 40.34701
#
# Velocity S-wave (km/s) = 3.13106 4.30613 3.76473
# Velocity P-wave (km/s) = 5.55500 7.21366 6.43797
#
# Compressibility (1/GPa) = 0.01974977
#
# Stress axis : x y z
#
# Youngs Moduli (GPa) = 38.23511 118.42380 294.15746
#
# Poissons Ratio (x) = 0.90831 0.58186
# Poissons Ratio (y) = 0.29326 -0.15415
# Poissons Ratio (z) = 0.07563 -0.06206
#
# Static dielectric constant tensor:
#      x y z
#    x -1.600990 0.000000 -0.312200 
#    y 0.000000 3.034230 0.000000 
#    z -0.312200 0.000000 2.422850 
# 
# From -- ./inp_files/67856.got.cif
#   From: 2010.05.17/outbox.cif.g08.bks.cpg/sg14_34_cif.got.tgz:67856.got - 2010.06.03 17:49:19.
