data_PCOD9240409
_publ_section_title
;
Structure prediction by ZEFSAII (Michael W. Deem and Ramdas Pophale) SiO2 
 PCOD9240409
Probable space group: P 21/C
;
_chemical_formula_sum "Si O2"
_cell_formula_units_Z 26
_cell_length_a 10.349834
_cell_length_b 14.156906
_cell_length_c 9.139757
_cell_angle_alpha 90.000000
_cell_angle_beta 54.506652
_cell_angle_gamma 90.000000
_cell_volume 1090.331040
_symmetry_space_group_name_H-M "P 21/C"
_symmetry_group_IT_number 14
_symmetry_cell_setting 'monoclinic'
loop_
_space_group_symop_operation_xyz
x,y,z
-x,1/2+y,1/2-z
-x,-y,-z
x,1/2-y,1/2+z
loop_
_atom_site_type_symbol
_atom_site_label
_atom_site_fract_x
_atom_site_fract_y
_atom_site_fract_z
Si Si1 0.243556 0.986640 0.714443
Si Si2 0.281288 0.636772 0.699823
Si Si3 0.251007 0.339540 0.837286
Si Si4 0.000000 0.500000 0.000000
Si Si5 0.189628 0.814256 0.940774
Si Si6 0.856199 0.695203 0.783872
Si Si7 0.555277 0.010859 0.697092
O O1 0.389948 0.013865 0.723010
O O2 0.152282 0.082941 0.739868
O O3 0.312832 0.955769 0.510552
O O4 0.156539 0.902505 0.854266
O O5 0.280800 0.651983 0.526624
O O6 0.423622 0.574837 0.674657
O O7 0.120075 0.580609 0.848412
O O8 0.277860 0.736036 0.787202
O O9 0.279142 0.256432 0.705746
O O10 0.395245 0.403265 0.800286
O O11 0.126268 0.417763 0.864431
O O12 0.170573 0.289942 0.029018
O O13 0.025748 0.773682 0.112807
#
# Coordination Sequence:
#
# PCOD9240409 Si02
#       7
#     4   4   4   2   4   4   4
#     4  10  23  41  63  86 129 157 213 245 307 356
#     4  11  23  38  64  88 127 157 207 245 314 355
#     4  10  21  37  63  84 123 152 205 241 311 353
#     4  10  18  38  56  86 114 158 186 250 292 370
#     4  12  22  39  60  97 120 162 198 260 301 374
#     4  11  21  39  58  95 117 160 195 257 300 367
#     4   9  22  44  61  88 118 174 198 256 299 363
#
# _framework density 23.845969
#
# number of rings (size 3 to 8) (size 9 to 14) (size 15 to 20)
#    0.000    1.538    3.077    1.385    0.000    4.308 
#    5.538    3.077    0.000    0.000    0.000    0.000 
#    0.000    0.000    0.000    0.000    0.000    0.000 
#
# Total GULP energy -144905.597088 kJ/mol
# GULP energy per Si atom -5573.292196 kJ/mol
# Density = 2.379169 g / cm^3
# Si number density = 23.845969 Si / 1000 Ang^3
#
#
#
# Elastic Constant Matrix: (Units=GPa)
#
#
# Indices 1 2 3 4 5 6 
#
# 1 45.0922 -0.8803 17.4093 0.0000 18.4276 0.0000
# 2 -0.8803 56.2513 25.9867 0.0000 24.1974 0.0000
# 3 17.4093 25.9867 50.5822 0.0000 19.1385 0.0000
# 4 0.0000 0.0000 0.0000 12.7066 0.0000 18.6498
# 5 18.4276 24.1974 19.1385 0.0000 37.9472 0.0000
# 6 0.0000 0.0000 0.0000 18.6498 0.0000 31.5556
#
#
#
# Elastic Compliance Matrix: (Units=1/GPa)
#
#
# Indices 1 2 3 4 5 6 
#
# 1 0.035701 0.015160 -0.012184 0.000000 -0.020859 0.000000
# 2 0.015160 0.034077 -0.014481 0.000000 -0.021788 0.000000
# 3 -0.012184 -0.014481 0.031724 0.000000 -0.000849 0.000000
# 4 0.000000 0.000000 0.000000 0.593707 0.000000 -0.350889
# 5 -0.020859 -0.021788 -0.000849 0.000000 0.050803 0.000000
# 6 0.000000 0.000000 0.000000 -0.350889 0.000000 0.239070
#
#
# Mechanical properties :
#
#
# Convention : Reuss Voigt Hill
#
# Bulk Modulus (GPa) = 12.74004 26.32858 19.53431
# Shear Modulus (GPa) = 4.83439 23.73587 14.28513
#
# Velocity S-wave (km/s) = 1.42539 3.15839 2.45022
# Velocity P-wave (km/s) = 2.83958 4.93616 4.02672
#
# Compressibility (1/GPa) = 0.07849267
#
# Stress axis : x y z
#
# Youngs Moduli (GPa) = 28.01045 29.34533 31.52164
#
# Poissons Ratio (x) = -0.44488 0.38405
# Poissons Ratio (y) = -0.42464 0.45647
# Poissons Ratio (z) = 0.34127 0.42495
#
# Static dielectric constant tensor:
#      x y z
#    x 1.962130 0.000000 -0.010760 
#    y 0.000000 1.837540 0.000000 
#    z -0.010760 0.000000 1.889940 
# 
# From -- ./inp_files/12997.got.cif
#   From: 2010.05.17/outbox.cif.g08.bks.cpg/sg14_7_cif.got.tgz:12997.got - 2010.06.03 17:49:19.
