data_PCOD9240284
_publ_section_title
;
Structure prediction by ZEFSAII (Michael W. Deem and Ramdas Pophale) SiO2 
 PCOD9240284
Probable space group: P 21/C
;
_chemical_formula_sum "Si O2"
_cell_formula_units_Z 30
_cell_length_a 11.574499
_cell_length_b 13.480637
_cell_length_c 13.395344
_cell_angle_alpha 90.000000
_cell_angle_beta 141.853941
_cell_angle_gamma 90.000000
_cell_volume 1290.986749
_symmetry_space_group_name_H-M "P 21/C"
_symmetry_group_IT_number 14
_symmetry_cell_setting 'monoclinic'
loop_
_space_group_symop_operation_xyz
x,y,z
-x,1/2+y,1/2-z
-x,-y,-z
x,1/2-y,1/2+z
loop_
_atom_site_type_symbol
_atom_site_label
_atom_site_fract_x
_atom_site_fract_y
_atom_site_fract_z
Si Si1 0.115246 0.177175 0.806378
Si Si2 0.748595 0.963954 0.856528
Si Si3 0.931714 0.310916 0.980221
Si Si4 0.187175 0.545571 0.385724
Si Si5 0.500000 0.000000 0.000000
Si Si6 0.821022 0.635216 0.041455
Si Si7 0.380996 0.536046 0.188498
Si Si8 0.873532 0.367783 0.326848
O O1 0.047881 0.219442 0.656344
O O2 0.936661 0.154924 0.757125
O O3 0.217388 0.070035 0.864270
O O4 0.230616 0.261012 0.942319
O O5 0.555789 0.911873 0.752711
O O6 0.755376 0.033365 0.764563
O O7 0.784935 0.036691 0.977523
O O8 0.925594 0.892526 0.983707
O O9 0.805472 0.400349 0.933271
O O10 0.806409 0.227003 0.842313
O O11 0.075020 0.344633 0.992560
O O12 0.353356 0.592776 0.436098
O O13 0.984816 0.584668 0.219488
O O14 0.431429 0.990307 0.835942
O O15 0.657047 0.560650 0.904493
#
# Coordination Sequence:
#
# PCOD9240284 Si02
#       8
#     4   4   4   4   2   4   4   4
#     4  10  21  35  61  88 117 162 210 254 303 380
#     4   9  20  39  62  84 123 171 200 248 309 381
#     4  11  20  37  64  90 121 159 210 261 312 370
#     4  10  18  36  60  86 121 164 202 251 306 373
#     4  10  20  34  60  90 126 162 196 254 320 360
#     4  11  21  37  64  92 124 165 207 258 325 369
#     4  11  21  37  63  95 126 160 208 264 314 371
#     4   9  20  40  60  81 121 169 208 241 313 379
#
# _framework density 23.238039000000001
#
# number of rings (size 3 to 8) (size 9 to 14) (size 15 to 20)
#    0.000    1.867    2.667    2.000    0.000    0.000 
#    9.600    0.667    2.933    0.000    0.000    0.000 
#    0.000    0.000    0.000    0.000    0.000    0.000 
#
# Total GULP energy -167022.559232 kJ/mol
# GULP energy per Si atom -5567.418641 kJ/mol
# Density = 2.318515 g / cm^3
# Si number density = 23.238039 Si / 1000 Ang^3
#
#
#
# Elastic Constant Matrix: (Units=GPa)
#
#
# Indices 1 2 3 4 5 6 
#
# 1 54.2299 -2.6011 5.3339 0.0000 -14.2424 0.0000
# 2 -2.6011 50.7588 -5.6178 0.0000 -5.5732 0.0000
# 3 5.3339 -5.6178 42.6236 0.0000 -9.4084 0.0000
# 4 0.0000 0.0000 0.0000 14.9504 0.0000 -10.2673
# 5 -14.2424 -5.5732 -9.4084 0.0000 26.7169 0.0000
# 6 0.0000 0.0000 0.0000 -10.2673 0.0000 9.8591
#
#
#
# Elastic Compliance Matrix: (Units=1/GPa)
#
#
# Indices 1 2 3 4 5 6 
#
# 1 0.021737 0.002489 0.000304 0.000000 0.012214 0.000000
# 2 0.002489 0.021060 0.004041 0.000000 0.007143 0.000000
# 3 0.000304 0.004041 0.026215 0.000000 0.010237 0.000000
# 4 0.000000 0.000000 0.000000 0.234856 0.000000 0.244580
# 5 0.012214 0.007143 0.010237 0.000000 0.049036 0.000000
# 6 0.000000 0.000000 0.000000 0.244580 0.000000 0.356135
#
#
# Mechanical properties :
#
#
# Convention : Reuss Voigt Hill
#
# Bulk Modulus (GPa) = 12.09488 15.76022 13.92755
# Shear Modulus (GPa) = 6.91628 20.33844 13.62736
#
# Velocity S-wave (km/s) = 1.72706 2.96162 2.42425
# Velocity P-wave (km/s) = 3.03201 4.30020 3.72054
#
# Compressibility (1/GPa) = 0.08267963
#
# Stress axis : x y z
#
# Youngs Moduli (GPa) = 46.00396 47.48320 38.14560
#
# Poissons Ratio (x) = -0.11817 -0.01159
# Poissons Ratio (y) = -0.11449 -0.15415
# Poissons Ratio (z) = -0.01398 -0.19188
#
# Static dielectric constant tensor:
#      x y z
#    x 1.652210 0.000000 -0.053560 
#    y 0.000000 1.926770 0.000000 
#    z -0.053560 0.000000 1.874860 
# 
# From -- ./inp_files/44944.got.cif
#   From: 2010.05.17/outbox.cif.g08.bks.cpg/sg14_23_cif.got.tgz:44944.got - 2010.06.03 17:49:19.
