data_PCOD9240027
_publ_section_title
;
Structure prediction by ZEFSAII (Michael W. Deem and Ramdas Pophale) SiO2 
 PCOD9240027
Probable space group: P 21/C
;
_chemical_formula_sum "Si O2"
_cell_formula_units_Z 24
_cell_length_a 16.114117
_cell_length_b 18.143807
_cell_length_c 9.695605
_cell_angle_alpha 90.000000
_cell_angle_beta 161.254404
_cell_angle_gamma 90.000000
_cell_volume 910.983874
_symmetry_space_group_name_H-M "P 21/C"
_symmetry_group_IT_number 14
_symmetry_cell_setting 'monoclinic'
loop_
_space_group_symop_operation_xyz
x,y,z
-x,1/2+y,1/2-z
-x,-y,-z
x,1/2-y,1/2+z
loop_
_atom_site_type_symbol
_atom_site_label
_atom_site_fract_x
_atom_site_fract_y
_atom_site_fract_z
Si Si1 0.984842 0.423964 0.336585
Si Si2 0.548321 0.275790 0.518069
Si Si3 0.551083 0.476810 0.823015
Si Si4 0.688878 0.122072 0.005383
Si Si5 0.685097 0.861006 0.851084
Si Si6 0.871214 0.226072 0.791488
O O1 0.049771 0.395706 0.286122
O O2 0.019939 0.348889 0.484379
O O3 0.199473 0.486380 0.706443
O O4 0.699149 0.454980 0.915599
O O5 0.543555 0.344721 0.410939
O O6 0.293531 0.227160 0.102847
O O7 0.760048 0.225368 0.770697
O O8 0.631674 0.285919 0.804822
O O9 0.321197 0.535482 0.478673
O O10 0.438042 0.405006 0.718109
O O11 0.912377 0.184501 0.329791
O O12 0.511486 0.128506 0.588305
#
# Coordination Sequence:
#
# PCOD9240027 Si02
#       6
#     4   4   4   4   4   4
#     4  10  19  30  54  83 100 140 181 221 260 317
#     4   9  18  35  55  75 110 144 173 223 270 318
#     4  10  18  34  56  80 108 138 184 224 260 316
#     4   8  17  31  54  77 102 143 177 214 272 312
#     4  10  18  35  55  79 107 142 180 223 264 317
#     4   9  18  35  52  78 109 139 180 219 269 318
#
# _framework density 26.345141999999999
#
# number of rings (size 3 to 8) (size 9 to 14) (size 15 to 20)
#    1.000    1.667    1.667    2.000    0.000    0.000 
#    6.000    0.833    0.000    4.000    0.000    0.000 
#    0.000    0.000    0.000    0.000    0.000    0.000 
#
# Total GULP energy -133609.851542 kJ/mol
# GULP energy per Si atom -5567.077148 kJ/mol
# Density = 2.628518 g / cm^3
# Si number density = 26.345142 Si / 1000 Ang^3
#
#
#
# Elastic Constant Matrix: (Units=GPa)
#
#
# Indices 1 2 3 4 5 6 
#
# 1 95.8726 11.9345 16.8035 0.0000 12.6646 0.0000
# 2 11.9345 128.2242 14.9949 0.0000 2.9761 0.0000
# 3 16.8035 14.9949 94.2255 0.0000 6.1993 0.0000
# 4 0.0000 0.0000 0.0000 46.6691 0.0000 12.7279
# 5 12.6646 2.9761 6.1993 0.0000 21.5867 0.0000
# 6 0.0000 0.0000 0.0000 12.7279 0.0000 48.7761
#
#
#
# Elastic Compliance Matrix: (Units=1/GPa)
#
#
# Indices 1 2 3 4 5 6 
#
# 1 0.011623 -0.000756 -0.001540 0.000000 -0.006273 0.000000
# 2 -0.000756 0.008008 -0.001117 0.000000 -0.000340 0.000000
# 3 -0.001540 -0.001117 0.011207 0.000000 -0.002161 0.000000
# 4 0.000000 0.000000 0.000000 0.023069 0.000000 -0.006020
# 5 -0.006273 -0.000340 -0.002161 0.000000 0.050672 0.000000
# 6 0.000000 0.000000 0.000000 -0.006020 0.000000 0.022073
#
#
# Mechanical properties :
#
#
# Convention : Reuss Voigt Hill
#
# Bulk Modulus (GPa) = 41.64567 45.08755 43.36661
# Shear Modulus (GPa) = 35.34003 41.71235 38.52619
#
# Velocity S-wave (km/s) = 3.66652 3.98339 3.82824
# Velocity P-wave (km/s) = 5.81090 6.18934 6.00310
#
# Compressibility (1/GPa) = 0.02401210
#
# Stress axis : x y z
#
# Youngs Moduli (GPa) = 86.03547 124.87909 89.22684
#
# Poissons Ratio (x) = 0.09443 0.13739
# Poissons Ratio (y) = 0.06506 0.09968
# Poissons Ratio (z) = 0.13247 0.13951
#
# Static dielectric constant tensor:
#      x y z
#    x 2.005310 0.000000 -0.014140 
#    y 0.000000 2.125920 0.000000 
#    z -0.014140 0.000000 2.146220 
# 
# From -- ./inp_files/34434.got.cif
#   From: 2010.05.17/outbox.cif.g08.bks.cpg/sg14_18_cif.got.tgz:34434.got - 2010.06.03 17:49:19.
