data_PCOD9240280
_publ_section_title
;
Structure prediction by ZEFSAII (Michael W. Deem and Ramdas Pophale) SiO2 
 PCOD9240280
Probable space group: P 21/C
;
_chemical_formula_sum "Si O2"
_cell_formula_units_Z 28
_cell_length_a 11.387517
_cell_length_b 8.406957
_cell_length_c 13.894655
_cell_angle_alpha 90.000000
_cell_angle_beta 52.345636
_cell_angle_gamma 90.000000
_cell_volume 1053.129944
_symmetry_space_group_name_H-M "P 21/C"
_symmetry_group_IT_number 14
_symmetry_cell_setting 'monoclinic'
loop_
_space_group_symop_operation_xyz
x,y,z
-x,1/2+y,1/2-z
-x,-y,-z
x,1/2-y,1/2+z
loop_
_atom_site_type_symbol
_atom_site_label
_atom_site_fract_x
_atom_site_fract_y
_atom_site_fract_z
Si Si1 0.991523 0.937591 0.372315
Si Si2 0.608372 0.257572 0.910534
Si Si3 0.025653 0.069850 0.140228
Si Si4 0.749785 0.577469 0.760431
Si Si5 0.516014 0.249873 0.678328
Si Si6 0.294916 0.538723 0.789420
Si Si7 0.276379 0.264072 0.028643
O O1 0.006062 0.018964 0.260967
O O2 0.031193 0.749956 0.345456
O O3 0.120389 0.007481 0.375420
O O4 0.812667 0.911660 0.475534
O O5 0.696235 0.417534 0.841222
O O6 0.681037 0.099513 0.832507
O O7 0.576658 0.246703 0.038973
O O8 0.450229 0.270491 0.935356
O O9 0.915707 0.952079 0.139336
O O10 0.198814 0.100885 0.033613
O O11 0.620068 0.622939 0.753644
O O12 0.756473 0.710938 0.840736
O O13 0.418877 0.406530 0.746579
O O14 0.653045 0.191867 0.674442
#
# Coordination Sequence:
#
# PCOD9240280 Si02
#       7
#     4   4   4   4   4   4   4
#     4   9  18  33  56  85 117 157 200 244 296 359
#     4  11  20  40  65  90 121 158 203 254 305 354
#     4   9  17  31  55  84 115 154 202 241 293 353
#     4  10  18  36  60  85 117 161 200 242 304 352
#     4  11  25  38  61  93 125 156 205 253 299 362
#     4  12  24  39  63  90 124 161 205 247 306 361
#     4   8  17  29  56  84 116 149 196 245 291 352
#
# _framework density 26.587413999999999
#
# number of rings (size 3 to 8) (size 9 to 14) (size 15 to 20)
#    0.857    1.143    1.429    4.714    0.000    0.000 
#    0.000    0.000    0.000   25.714    0.000    0.000 
#    0.000    0.000    0.000    0.000    0.000    0.000 
#
# Total GULP energy -156383.786306 kJ/mol
# GULP energy per Si atom -5585.135225 kJ/mol
# Density = 2.652690 g / cm^3
# Si number density = 26.587414 Si / 1000 Ang^3
#
#
#
# Elastic Constant Matrix: (Units=GPa)
#
#
# Indices 1 2 3 4 5 6 
#
# 1 167.2891 5.6622 26.0737 0.0000 -12.0687 0.0000
# 2 5.6622 65.6321 4.3382 0.0000 -9.1351 0.0000
# 3 26.0737 4.3382 78.7013 0.0000 -15.0136 0.0000
# 4 0.0000 0.0000 0.0000 14.4014 0.0000 -8.3996
# 5 -12.0687 -9.1351 -15.0136 0.0000 38.3718 0.0000
# 6 0.0000 0.0000 0.0000 -8.3996 0.0000 51.1970
#
#
#
# Elastic Compliance Matrix: (Units=1/GPa)
#
#
# Indices 1 2 3 4 5 6 
#
# 1 0.006364 -0.000257 -0.001863 0.000000 0.001211 0.000000
# 2 -0.000257 0.015771 -0.000090 0.000000 0.003638 0.000000
# 3 -0.001863 -0.000090 0.014278 0.000000 0.004979 0.000000
# 4 0.000000 0.000000 0.000000 0.076785 0.000000 0.012598
# 5 0.001211 0.003638 0.004979 0.000000 0.029256 0.000000
# 6 0.000000 0.000000 0.000000 0.012598 0.000000 0.021599
#
#
# Mechanical properties :
#
#
# Convention : Reuss Voigt Hill
#
# Bulk Modulus (GPa) = 31.25717 42.64119 36.94918
# Shear Modulus (GPa) = 27.91122 39.16393 33.53757
#
# Velocity S-wave (km/s) = 3.24356 3.84216 3.55548
# Velocity P-wave (km/s) = 5.08030 5.97962 5.54822
#
# Compressibility (1/GPa) = 0.03199265
#
# Stress axis : x y z
#
# Youngs Moduli (GPa) = 157.12968 63.40741 70.03601
#
# Poissons Ratio (x) = 0.01631 0.13049
# Poissons Ratio (y) = 0.04043 0.00630
# Poissons Ratio (z) = 0.29276 0.00571
#
# Static dielectric constant tensor:
#      x y z
#    x 2.107580 0.000000 -0.009740 
#    y 0.000000 2.078980 0.000000 
#    z -0.009740 0.000000 2.137510 
# 
# From -- ./inp_files/43307.got.cif
#   From: 2010.05.17/outbox.cif.g08.bks.cpg/sg14_22_cif.got.tgz:43307.got - 2010.06.03 17:49:19.
