data_PCOD9240894
_publ_section_title
;
Structure prediction by ZEFSAII (Michael W. Deem and Ramdas Pophale) SiO2 
 PCOD9240894
Probable space group: P 21/C
;
_chemical_formula_sum "Si O2"
_cell_formula_units_Z 24
_cell_length_a 17.002981
_cell_length_b 8.824928
_cell_length_c 20.039533
_cell_angle_alpha 90.000000
_cell_angle_beta 160.216719
_cell_angle_gamma 90.000000
_cell_volume 1017.736833
_symmetry_space_group_name_H-M "P 21/C"
_symmetry_group_IT_number 14
_symmetry_cell_setting 'monoclinic'
loop_
_space_group_symop_operation_xyz
x,y,z
-x,1/2+y,1/2-z
-x,-y,-z
x,1/2-y,1/2+z
loop_
_atom_site_type_symbol
_atom_site_label
_atom_site_fract_x
_atom_site_fract_y
_atom_site_fract_z
Si Si1 0.743156 0.431521 0.221696
Si Si2 0.488224 0.931366 0.335946
Si Si3 0.876655 0.076031 0.070329
Si Si4 0.173361 0.568598 0.195724
Si Si5 0.853453 0.415795 0.042479
Si Si6 0.460552 0.410605 0.609270
O O1 0.706936 0.492389 0.268545
O O2 0.801143 0.251713 0.276833
O O3 0.931608 0.492857 0.320577
O O4 0.500000 0.500000 0.000000
O O5 0.569753 0.768142 0.426503
O O6 0.715358 0.023792 0.496887
O O7 0.349113 0.911219 0.157155
O O8 0.771287 0.989402 0.049427
O O9 0.940537 0.249712 0.130517
O O10 0.421336 0.518635 0.362358
O O11 0.000000 0.500000 0.000000
O O12 0.062903 0.507942 0.175752
O O13 0.657795 0.414595 0.826143
#
# Coordination Sequence:
#
# PCOD9240894 Si02
#       6
#     4   4   4   4   4   4
#     4  11  23  38  55  82 120 160 200 249 310 377
#     4   9  18  34  55  80 110 149 195 246 302 366
#     4  10  19  33  56  84 112 148 195 250 306 367
#     4   9  18  35  59  86 116 154 200 256 314 371
#     4   9  17  30  54  85 111 142 196 255 305 359
#     4   8  16  30  53  83 111 143 192 252 305 354
#
# _framework density 23.581734000000001
#
# number of rings (size 3 to 8) (size 9 to 14) (size 15 to 20)
#    0.000    2.667    0.000    2.500    0.000    5.333 
#    0.000    5.833    0.000    0.000    0.000    0.000 
#    0.000    0.000    0.000    0.000    0.000    0.000 
#
# Total GULP energy -133729.576648 kJ/mol
# GULP energy per Si atom -5572.065694 kJ/mol
# Density = 2.352806 g / cm^3
# Si number density = 23.581734 Si / 1000 Ang^3
#
#
#
# Elastic Constant Matrix: (Units=GPa)
#
#
# Indices 1 2 3 4 5 6 
#
# 1 166.5072 75.2567 53.1967 0.0000 67.6668 0.0000
# 2 75.2567 133.4055 59.7535 0.0000 50.0672 0.0000
# 3 53.1967 59.7535 132.7336 0.0000 40.7095 0.0000
# 4 0.0000 0.0000 0.0000 20.7585 0.0000 20.2022
# 5 67.6668 50.0672 40.7095 0.0000 74.5043 0.0000
# 6 0.0000 0.0000 0.0000 20.2022 0.0000 32.9633
#
#
#
# Elastic Compliance Matrix: (Units=1/GPa)
#
#
# Indices 1 2 3 4 5 6 
#
# 1 0.010446 -0.002897 -0.000685 0.000000 -0.007167 0.000000
# 2 -0.002897 0.011882 -0.003059 0.000000 -0.003683 0.000000
# 3 -0.000685 -0.003059 0.010048 0.000000 -0.002813 0.000000
# 4 0.000000 0.000000 0.000000 0.119371 0.000000 -0.073159
# 5 -0.007167 -0.003683 -0.002813 0.000000 0.023943 0.000000
# 6 0.000000 0.000000 0.000000 -0.073159 0.000000 0.075174
#
#
# Mechanical properties :
#
#
# Convention : Reuss Voigt Hill
#
# Bulk Modulus (GPa) = 52.36468 89.89557 71.13012
# Shear Modulus (GPa) = 18.48364 41.94119 30.21242
#
# Velocity S-wave (km/s) = 2.80270 4.22186 3.58324
# Velocity P-wave (km/s) = 5.72078 7.87204 6.88100
#
# Compressibility (1/GPa) = 0.01909684
#
# Stress axis : x y z
#
# Youngs Moduli (GPa) = 95.72877 84.16019 99.52286
#
# Poissons Ratio (x) = 0.24377 0.06813
# Poissons Ratio (y) = 0.27728 0.30440
# Poissons Ratio (z) = 0.06553 0.25742
#
# Static dielectric constant tensor:
#      x y z
#    x 2.013920 0.000000 -0.095480 
#    y 0.000000 1.878410 0.000000 
#    z -0.095480 0.000000 1.980100 
# 
# From -- ./inp_files/74144.got.cif
#   From: 2010.05.17/outbox.cif.g08.bks.cpg/sg14_38_cif.got.tgz:74144.got - 2010.06.03 17:49:19.
