data_PCOD9240784
_publ_section_title
;
Structure prediction by ZEFSAII (Michael W. Deem and Ramdas Pophale) SiO2 
 PCOD9240784
Probable space group: P 21/C
;
_chemical_formula_sum "Si O2"
_cell_formula_units_Z 32
_cell_length_a 23.211048
_cell_length_b 7.955317
_cell_length_c 20.434033
_cell_angle_alpha 90.000000
_cell_angle_beta 152.415724
_cell_angle_gamma 90.000000
_cell_volume 1747.176806
_symmetry_space_group_name_H-M "P 21/C"
_symmetry_group_IT_number 14
_symmetry_cell_setting 'monoclinic'
loop_
_space_group_symop_operation_xyz
x,y,z
-x,1/2+y,1/2-z
-x,-y,-z
x,1/2-y,1/2+z
loop_
_atom_site_type_symbol
_atom_site_label
_atom_site_fract_x
_atom_site_fract_y
_atom_site_fract_z
Si Si1 0.881267 0.646297 0.074895
Si Si2 0.869553 0.597161 0.445316
Si Si3 0.112539 0.403480 0.296450
Si Si4 0.358646 0.032832 0.510373
Si Si5 0.372659 0.405600 0.587177
Si Si6 0.352174 0.592764 0.141570
Si Si7 0.633880 0.042845 0.777609
Si Si8 0.886091 0.632457 0.310582
O O1 0.883289 0.767223 0.140322
O O2 0.002783 0.530634 0.199808
O O3 0.883887 0.755805 0.012256
O O4 0.759902 0.528264 0.952010
O O5 0.742628 0.501514 0.337188
O O6 0.865484 0.659130 0.366696
O O7 0.989950 0.477911 0.573310
O O8 0.248889 0.487749 0.433272
O O9 0.095697 0.302043 0.212456
O O10 0.368783 0.213272 0.558315
O O11 0.492445 0.021087 0.609876
O O12 0.236363 0.042521 0.343057
O O13 0.346520 0.897725 0.556592
O O14 0.507880 0.475716 0.704265
O O15 0.360170 0.422240 0.652665
O O16 0.344602 0.771207 0.170394
#
# Coordination Sequence:
#
# PCOD9240784 Si02
#       8
#     4   4   4   4   4   4   4   4
#     4  12  23  36  58  86 114 144 193 240 283 328
#     4  11  23  39  56  80 117 155 187 233 283 339
#     4  11  22  37  58  84 114 145 190 242 279 333
#     4   9  18  35  56  83 112 147 188 236 280 333
#     4   9  18  34  54  83 116 143 180 234 291 324
#     4  10  19  32  59  86 113 143 183 236 288 329
#     4  10  19  32  57  86 113 146 188 234 282 336
#     4  10  22  41  58  78 115 155 189 230 286 336
#
# _framework density 18.315262000000001
#
# number of rings (size 3 to 8) (size 9 to 14) (size 15 to 20)
#    0.000    1.750    3.750    1.500    1.750    1.000 
#    0.000    0.000    0.000    6.750    0.000    0.000 
#    0.000    0.000    0.000    0.000    0.000    0.000 
#
# Total GULP energy -178506.935534 kJ/mol
# GULP energy per Si atom -5578.341735 kJ/mol
# Density = 1.827358 g / cm^3
# Si number density = 18.315262 Si / 1000 Ang^3
#
#
#
# Elastic Constant Matrix: (Units=GPa)
#
#
# Indices 1 2 3 4 5 6 
#
# 1 111.5083 37.1677 51.9230 0.0000 16.1074 0.0000
# 2 37.1677 41.7098 22.2348 0.0000 12.5492 0.0000
# 3 51.9230 22.2348 83.5206 0.0000 30.0786 0.0000
# 4 0.0000 0.0000 0.0000 24.9766 0.0000 -3.1137
# 5 16.1074 12.5492 30.0786 0.0000 34.5059 0.0000
# 6 0.0000 0.0000 0.0000 -3.1137 0.0000 14.6040
#
#
#
# Elastic Compliance Matrix: (Units=1/GPa)
#
#
# Indices 1 2 3 4 5 6 
#
# 1 0.015958 -0.010896 -0.008402 0.000000 0.003837 0.000000
# 2 -0.010896 0.036077 0.000091 0.000000 -0.008114 0.000000
# 3 -0.008402 0.000091 0.022988 0.000000 -0.016150 0.000000
# 4 0.000000 0.000000 0.000000 0.041131 0.000000 0.008769
# 5 0.003837 -0.008114 -0.016150 0.000000 0.044218 0.000000
# 6 0.000000 0.000000 0.000000 0.008769 0.000000 0.070344
#
#
# Mechanical properties :
#
#
# Convention : Reuss Voigt Hill
#
# Bulk Modulus (GPa) = 27.31456 51.04332 39.17894
# Shear Modulus (GPa) = 17.77266 23.17817 20.47542
#
# Velocity S-wave (km/s) = 3.11846 3.56126 3.34719
# Velocity P-wave (km/s) = 5.28321 6.69626 6.03126
#
# Compressibility (1/GPa) = 0.03661052
#
# Stress axis : x y z
#
# Youngs Moduli (GPa) = 62.66618 27.71864 43.50066
#
# Poissons Ratio (x) = 0.30201 0.36549
# Poissons Ratio (y) = 0.68278 -0.00397
# Poissons Ratio (z) = 0.52651 -0.00253
#
# Static dielectric constant tensor:
#      x y z
#    x 1.614700 0.000000 0.037340 
#    y 0.000000 1.642860 0.000000 
#    z 0.037340 0.000000 1.661600 
# 
# From -- ./inp_files/61147.got.cif
#   From: 2010.05.17/outbox.cif.g08.bks.cpg/sg14_31_cif.got.tgz:61147.got - 2010.06.03 17:49:19.
