data_PCOD9240900
_publ_section_title
;
Structure prediction by ZEFSAII (Michael W. Deem and Ramdas Pophale) SiO2 
 PCOD9240900
Probable space group: P 21/C
;
_chemical_formula_sum "Si O2"
_cell_formula_units_Z 28
_cell_length_a 9.332900
_cell_length_b 9.237286
_cell_length_c 31.966735
_cell_angle_alpha 90.000000
_cell_angle_beta 145.976626
_cell_angle_gamma 90.000000
_cell_volume 1541.996853
_symmetry_space_group_name_H-M "P 21/C"
_symmetry_group_IT_number 14
_symmetry_cell_setting 'monoclinic'
loop_
_space_group_symop_operation_xyz
x,y,z
-x,1/2+y,1/2-z
-x,-y,-z
x,1/2-y,1/2+z
loop_
_atom_site_type_symbol
_atom_site_label
_atom_site_fract_x
_atom_site_fract_y
_atom_site_fract_z
Si Si1 0.260413 0.861876 0.961395
Si Si2 0.041162 0.854388 0.466996
Si Si3 0.324702 0.976396 0.889336
Si Si4 0.221579 0.567145 0.644475
Si Si5 0.742708 0.067523 0.748500
Si Si6 0.714062 0.365425 0.889207
Si Si7 0.543110 0.665738 0.358832
O O1 0.313808 0.862641 0.925169
O O2 0.130451 0.716786 0.945822
O O3 0.059427 0.992355 0.922418
O O4 0.508665 0.896400 0.049128
O O5 0.807307 0.755859 0.427817
O O6 0.261387 0.844686 0.555022
O O7 0.933882 0.014417 0.434200
O O8 0.457003 0.911957 0.880416
O O9 0.036147 0.027015 0.810853
O O10 0.295153 0.585705 0.710735
O O11 0.233780 0.718298 0.622984
O O12 0.401242 0.453926 0.663240
O O13 0.659402 0.214944 0.705568
O O14 0.552676 0.939578 0.687919
#
# Coordination Sequence:
#
# PCOD9240900 Si02
#       7
#     4   4   4   4   4   4   4
#     4   9  19  36  57  78 103 137 180 221 260 312
#     4   9  19  35  56  81 103 132 177 226 266 303
#     4  10  20  34  54  78 108 142 176 213 262 319
#     4  10  19  35  59  79 100 138 182 220 258 306
#     4  10  22  36  50  78 113 140 172 216 262 313
#     4  10  19  33  57  81 105 133 175 225 265 306
#     4  10  20  35  55  79 106 139 180 218 259 314
#
# _framework density 18.158273999999999
#
# number of rings (size 3 to 8) (size 9 to 14) (size 15 to 20)
#    0.000    2.286    0.000    2.571    0.000    5.714 
#    0.000    1.429    0.000   25.714    0.000    0.000 
#    0.000    0.000    0.000    0.000    0.000    0.000 
#
# Total GULP energy -156200.984075 kJ/mol
# GULP energy per Si atom -5578.606574 kJ/mol
# Density = 1.811695 g / cm^3
# Si number density = 18.158274 Si / 1000 Ang^3
#
#
#
# Elastic Constant Matrix: (Units=GPa)
#
#
# Indices 1 2 3 4 5 6 
#
# 1 59.1354 9.3968 0.8611 0.0000 -12.8728 0.0000
# 2 9.3968 40.8042 3.7618 0.0000 -9.4705 0.0000
# 3 0.8611 3.7618 81.3605 0.0000 3.7567 0.0000
# 4 0.0000 0.0000 0.0000 13.6049 0.0000 -6.4930
# 5 -12.8728 -9.4705 3.7567 0.0000 16.1625 0.0000
# 6 0.0000 0.0000 0.0000 -6.4930 0.0000 14.6808
#
#
#
# Elastic Compliance Matrix: (Units=1/GPa)
#
#
# Indices 1 2 3 4 5 6 
#
# 1 0.020564 -0.000926 -0.000916 0.000000 0.016049 0.000000
# 2 -0.000926 0.028767 -0.002087 0.000000 0.016603 0.000000
# 3 -0.000916 -0.002087 0.012623 0.000000 -0.004886 0.000000
# 4 0.000000 0.000000 0.000000 0.093169 0.000000 0.041207
# 5 0.016049 0.016603 -0.004886 0.000000 0.085518 0.000000
# 6 0.000000 0.000000 0.000000 0.041207 0.000000 0.086341
#
#
# Mechanical properties :
#
#
# Convention : Reuss Voigt Hill
#
# Bulk Modulus (GPa) = 18.48589 23.25994 20.87291
# Shear Modulus (GPa) = 14.16944 20.04166 17.10555
#
# Velocity S-wave (km/s) = 2.79647 3.32583 3.07257
# Velocity P-wave (km/s) = 4.54197 5.25220 4.90994
#
# Compressibility (1/GPa) = 0.05409531
#
# Stress axis : x y z
#
# Youngs Moduli (GPa) = 48.62765 34.76264 79.22188
#
# Poissons Ratio (x) = 0.03221 0.07256
# Poissons Ratio (y) = 0.04505 0.16533
# Poissons Ratio (z) = 0.04454 0.07255
#
# Static dielectric constant tensor:
#      x y z
#    x 1.613630 0.000000 0.007800 
#    y 0.000000 1.606450 0.000000 
#    z 0.007800 0.000000 1.635900 
# 
# From -- ./inp_files/60305.got.cif
#   From: 2010.05.17/outbox.cif.g08.bks.cpg/sg14_31_cif.got.tgz:60305.got - 2010.06.03 17:49:19.
