data_PCOD9240117
_publ_section_title
;
Structure prediction by ZEFSAII (Michael W. Deem and Ramdas Pophale) SiO2 
 PCOD9240117
Probable space group: P 21/C
;
_chemical_formula_sum "Si O2"
_cell_formula_units_Z 28
_cell_length_a 11.400323
_cell_length_b 12.741362
_cell_length_c 7.462043
_cell_angle_alpha 90.000000
_cell_angle_beta 101.341390
_cell_angle_gamma 90.000000
_cell_volume 1062.738299
_symmetry_space_group_name_H-M "P 21/C"
_symmetry_group_IT_number 14
_symmetry_cell_setting 'monoclinic'
loop_
_space_group_symop_operation_xyz
x,y,z
-x,1/2+y,1/2-z
-x,-y,-z
x,1/2-y,1/2+z
loop_
_atom_site_type_symbol
_atom_site_label
_atom_site_fract_x
_atom_site_fract_y
_atom_site_fract_z
Si Si1 0.739314 0.039342 0.670076
Si Si2 0.952290 0.374985 0.665249
Si Si3 0.588130 0.372860 0.690043
Si Si4 0.504418 0.173419 0.521321
Si Si5 0.301431 0.086328 0.694549
Si Si6 0.825931 0.243172 0.845814
Si Si7 0.842021 0.911633 0.023264
O O1 0.610526 0.096886 0.623573
O O2 0.826756 0.138812 0.721276
O O3 0.760762 0.974376 0.493218
O O4 0.758147 0.968904 0.851522
O O5 0.938214 0.320968 0.850906
O O6 0.839823 0.315856 0.539241
O O7 0.921552 0.496872 0.643900
O O8 0.066557 0.351963 0.579165
O O9 0.542063 0.295394 0.524046
O O10 0.629512 0.491409 0.679926
O O11 0.703781 0.309600 0.803804
O O12 0.489210 0.368424 0.816576
O O13 0.393253 0.159471 0.617654
O O14 0.225001 0.139663 0.828882
#
# Coordination Sequence:
#
# PCOD9240117 Si02
#       7
#     4   4   4   4   4   4   4
#     4   9  20  37  61  90 114 149 199 245 291 354
#     4  10  20  37  56  90 113 150 198 246 290 351
#     4  10  19  36  61  90 116 149 201 254 284 354
#     4  10  22  36  61  92 114 153 202 238 305 354
#     4  11  21  40  62  86 123 160 193 247 299 349
#     4  10  18  34  63  87 113 149 199 251 296 331
#     4  10  22  38  59  85 120 151 197 239 297 352
#
# _framework density 26.347031999999999
#
# number of rings (size 3 to 8) (size 9 to 14) (size 15 to 20)
#    0.000    2.000    1.429    4.286    4.000    0.571 
#    5.143    3.571    0.000    0.000    0.000    0.000 
#    0.000    0.000    0.000    0.000    0.000    0.000 
#
# Total GULP energy -156423.359757 kJ/mol
# GULP energy per Si atom -5586.548563 kJ/mol
# Density = 2.628707 g / cm^3
# Si number density = 26.347032 Si / 1000 Ang^3
#
#
#
# Elastic Constant Matrix: (Units=GPa)
#
#
# Indices 1 2 3 4 5 6 
#
# 1 94.9011 11.9017 36.0487 0.0000 -49.0588 0.0000
# 2 11.9017 55.2169 8.3047 0.0000 7.2537 0.0000
# 3 36.0487 8.3047 78.5094 0.0000 -30.1649 0.0000
# 4 0.0000 0.0000 0.0000 31.0947 0.0000 -7.1715
# 5 -49.0588 7.2537 -30.1649 0.0000 47.4805 0.0000
# 6 0.0000 0.0000 0.0000 -7.1715 0.0000 26.3562
#
#
#
# Elastic Compliance Matrix: (Units=1/GPa)
#
#
# Indices 1 2 3 4 5 6 
#
# 1 0.026840 -0.009593 -0.000120 0.000000 0.029122 0.000000
# 2 -0.009593 0.022922 -0.004199 0.000000 -0.016081 0.000000
# 3 -0.000120 -0.004199 0.017774 0.000000 0.011809 0.000000
# 4 0.000000 0.000000 0.000000 0.034313 0.000000 0.009337
# 5 0.029122 -0.016081 0.011809 0.000000 0.061110 0.000000
# 6 0.000000 0.000000 0.000000 0.009337 0.000000 0.040482
#
#
# Mechanical properties :
#
#
# Convention : Reuss Voigt Hill
#
# Bulk Modulus (GPa) = 25.18068 37.90419 31.54243
# Shear Modulus (GPa) = 20.44960 32.47778 26.46369
#
# Velocity S-wave (km/s) = 2.78899 3.51478 3.17271
# Velocity P-wave (km/s) = 4.46647 5.55782 5.04176
#
# Compressibility (1/GPa) = 0.03971299
#
# Stress axis : x y z
#
# Youngs Moduli (GPa) = 37.25719 43.62598 56.26189
#
# Poissons Ratio (x) = 0.41850 0.00677
# Poissons Ratio (y) = 0.35740 0.23622
# Poissons Ratio (z) = 0.00448 0.18317
#
# Static dielectric constant tensor:
#      x y z
#    x 2.129550 0.000000 0.005090 
#    y 0.000000 2.120900 0.000000 
#    z 0.005090 0.000000 2.350380 
# 
# From -- ./inp_files/12895.got.cif
#   From: 2010.05.17/outbox.cif.g08.bks.cpg/sg14_7_cif.got.tgz:12895.got - 2010.06.03 17:49:19.
