data_PCOD9240092
_publ_section_title
;
Structure prediction by ZEFSAII (Michael W. Deem and Ramdas Pophale) SiO2 
 PCOD9240092
Probable space group: P 21/C
;
_chemical_formula_sum "Si O2"
_cell_formula_units_Z 28
_cell_length_a 9.653788
_cell_length_b 9.190116
_cell_length_c 28.324000
_cell_angle_alpha 90.000000
_cell_angle_beta 34.316581
_cell_angle_gamma 90.000000
_cell_volume 1416.679201
_symmetry_space_group_name_H-M "P 21/C"
_symmetry_group_IT_number 14
_symmetry_cell_setting 'monoclinic'
loop_
_space_group_symop_operation_xyz
x,y,z
-x,1/2+y,1/2-z
-x,-y,-z
x,1/2-y,1/2+z
loop_
_atom_site_type_symbol
_atom_site_label
_atom_site_fract_x
_atom_site_fract_y
_atom_site_fract_z
Si Si1 0.995294 0.652320 0.899172
Si Si2 0.300407 0.515910 0.420985
Si Si3 0.736532 0.934328 0.618780
Si Si4 0.467410 0.210832 0.412509
Si Si5 0.699662 0.068915 0.185050
Si Si6 0.254008 0.916344 0.586477
Si Si7 0.915407 0.184510 0.939952
O O1 0.091637 0.571741 0.919493
O O2 0.180855 0.778522 0.834337
O O3 0.953408 0.534653 0.869629
O O4 0.739001 0.720909 0.988343
O O5 0.444849 0.368224 0.393706
O O6 0.381485 0.572703 0.347092
O O7 0.298337 0.625164 0.465620
O O8 0.000000 0.500000 0.500000
O O9 0.610940 0.908104 0.604237
O O10 0.527157 0.955438 0.717048
O O11 0.902400 0.792998 0.583162
O O12 0.704125 0.147033 0.373015
O O13 0.909682 0.944899 0.128040
O O14 0.200502 0.778513 0.568784
O O15 0.500000 0.000000 0.500000
#
# Coordination Sequence:
#
# PCOD9240092 Si02
#       7
#     4   4   4   4   4   4   4
#     4  10  20  36  57  84 117 145 189 236 282 339
#     4  10  18  34  60  86 110 142 191 239 278 331
#     4  11  21  33  60  86 114 147 188 236 287 335
#     4  11  19  38  58  84 113 151 192 233 281 343
#     4  11  20  35  58  89 113 148 189 238 289 335
#     4   9  22  37  57  84 115 148 190 238 283 337
#     4  10  19  39  59  82 116 149 188 237 286 336
#
# _framework density 19.764530000000001
#
# number of rings (size 3 to 8) (size 9 to 14) (size 15 to 20)
#    0.000    1.714    5.714    1.286    0.000    2.857 
#    0.000    1.429    0.000    0.000    0.000    0.000 
#    0.000    0.000    0.000    0.000    0.000    0.000 
#
# Total GULP energy -156065.634815 kJ/mol
# GULP energy per Si atom -5573.772672 kJ/mol
# Density = 1.971954 g / cm^3
# Si number density = 19.764530 Si / 1000 Ang^3
#
#
#
# Elastic Constant Matrix: (Units=GPa)
#
#
# Indices 1 2 3 4 5 6 
#
# 1 128.4485 39.0714 2.7279 0.0000 6.5841 0.0000
# 2 39.0714 93.1436 5.5344 0.0000 -8.7725 0.0000
# 3 2.7279 5.5344 66.3772 0.0000 13.3491 0.0000
# 4 0.0000 0.0000 0.0000 12.3262 0.0000 -2.3381
# 5 6.5841 -8.7725 13.3491 0.0000 9.3076 0.0000
# 6 0.0000 0.0000 0.0000 -2.3381 0.0000 30.4691
#
#
#
# Elastic Compliance Matrix: (Units=1/GPa)
#
#
# Indices 1 2 3 4 5 6 
#
# 1 0.010701 -0.006571 0.004042 0.000000 -0.019560 0.000000
# 2 -0.006571 0.016868 -0.007404 0.000000 0.031165 0.000000
# 3 0.004042 -0.007404 0.024587 0.000000 -0.045100 0.000000
# 4 0.000000 0.000000 0.000000 0.082327 0.000000 0.006317
# 5 -0.019560 0.031165 -0.045100 0.000000 0.215332 0.000000
# 6 0.000000 0.000000 0.000000 0.006317 0.000000 0.033305
#
#
# Mechanical properties :
#
#
# Convention : Reuss Voigt Hill
#
# Bulk Modulus (GPa) = 30.97066 42.51519 36.74292
# Shear Modulus (GPa) = 12.08465 26.46295 19.27380
#
# Velocity S-wave (km/s) = 2.47540 3.66308 3.12616
# Velocity P-wave (km/s) = 4.88610 6.28080 5.62683
#
# Compressibility (1/GPa) = 0.03228863
#
# Stress axis : x y z
#
# Youngs Moduli (GPa) = 93.45122 59.28512 40.67243
#
# Poissons Ratio (x) = 0.38956 -0.16439
# Poissons Ratio (y) = 0.61407 0.30114
# Poissons Ratio (z) = -0.37771 0.43894
#
# Static dielectric constant tensor:
#      x y z
#    x 1.760530 0.000000 -0.006610 
#    y 0.000000 1.737760 0.000000 
#    z -0.006610 0.000000 1.706010 
# 
# From -- ./inp_files/54855.got.cif
#   From: 2010.05.17/outbox.cif.g08.bks.cpg/sg14_28_cif.got.tgz:54855.got - 2010.06.03 17:49:19.
