data_PCOD9240862
_publ_section_title
;
Structure prediction by ZEFSAII (Michael W. Deem and Ramdas Pophale) SiO2 
 PCOD9240862
Probable space group: P 21/C
;
_chemical_formula_sum "Si O2"
_cell_formula_units_Z 20
_cell_length_a 19.443075
_cell_length_b 7.457795
_cell_length_c 5.486815
_cell_angle_alpha 90.000000
_cell_angle_beta 100.256790
_cell_angle_gamma 90.000000
_cell_volume 782.887683
_symmetry_space_group_name_H-M "P 21/C"
_symmetry_group_IT_number 14
_symmetry_cell_setting 'monoclinic'
loop_
_space_group_symop_operation_xyz
x,y,z
-x,1/2+y,1/2-z
-x,-y,-z
x,1/2-y,1/2+z
loop_
_atom_site_type_symbol
_atom_site_label
_atom_site_fract_x
_atom_site_fract_y
_atom_site_fract_z
Si Si1 0.192407 0.201842 0.722300
Si Si2 0.035307 0.172051 0.137928
Si Si3 0.703327 0.343819 0.247639
Si Si4 0.436071 0.865724 0.485245
Si Si5 0.854913 0.289767 0.818242
O O1 0.230629 0.255126 0.498473
O O2 0.120750 0.319216 0.684228
O O3 0.170828 0.993905 0.700881
O O4 0.020073 0.315541 0.914233
O O5 0.000000 0.000000 0.000000
O O6 0.692329 0.310478 0.528741
O O7 0.639524 0.463719 0.110688
O O8 0.787593 0.345938 0.278670
O O9 0.439144 0.773318 0.755698
O O10 0.500000 0.000000 0.500000
O O11 0.893266 0.247368 0.593389
#
# Coordination Sequence:
#
# PCOD9240862 Si02
#       5
#     4   4   4   4   4
#     4  10  21  38  57  85 116 144 184 232 278 329
#     4  10  21  40  60  83 115 148 184 229 277 331
#     4   8  16  30  52  75 103 140 182 220 266 324
#     4  10  19  33  55  80 111 146 187 230 276 331
#     4  10  19  35  60  83 108 148 188 227 275 333
#
# _framework density 25.546446
#
# number of rings (size 3 to 8) (size 9 to 14) (size 15 to 20)
#    0.000    2.400    0.000    2.400    0.000    0.000 
#    0.000   24.000    0.000   64.800    0.000    0.000 
#    0.000    0.000    0.000    0.000    0.000    0.000 
#
# Total GULP energy -111487.169120 kJ/mol
# GULP energy per Si atom -5574.358456 kJ/mol
# Density = 2.548830 g / cm^3
# Si number density = 25.546446 Si / 1000 Ang^3
#
#
#
# Elastic Constant Matrix: (Units=GPa)
#
#
# Indices 1 2 3 4 5 6 
#
# 1 110.8169 25.2719 31.4275 0.0000 8.2004 0.0000
# 2 25.2719 88.1192 41.1968 0.0000 -9.6579 0.0000
# 3 31.4275 41.1968 240.2281 0.0000 -31.5303 0.0000
# 4 0.0000 0.0000 0.0000 40.6294 0.0000 -0.4662
# 5 8.2004 -9.6579 -31.5303 0.0000 49.2969 0.0000
# 6 0.0000 0.0000 0.0000 -0.4662 0.0000 33.2025
#
#
#
# Elastic Compliance Matrix: (Units=1/GPa)
#
#
# Indices 1 2 3 4 5 6 
#
# 1 0.010220 -0.002666 -0.001279 0.000000 -0.003040 0.000000
# 2 -0.002666 0.013094 -0.001639 0.000000 0.001960 0.000000
# 3 -0.001279 -0.001639 0.005018 0.000000 0.003101 0.000000
# 4 0.000000 0.000000 0.000000 0.024617 0.000000 0.000346
# 5 -0.003040 0.001960 0.003101 0.000000 0.023159 0.000000
# 6 0.000000 0.000000 0.000000 0.000346 0.000000 0.030123
#
#
# Mechanical properties :
#
#
# Convention : Reuss Voigt Hill
#
# Bulk Modulus (GPa) = 58.26467 70.55073 64.40770
# Shear Modulus (GPa) = 40.61071 47.37695 43.99383
#
# Velocity S-wave (km/s) = 3.99141 4.31111 4.15434
# Velocity P-wave (km/s) = 6.64068 7.24276 6.94824
#
# Compressibility (1/GPa) = 0.01716306
#
# Stress axis : x y z
#
# Youngs Moduli (GPa) = 97.85142 76.36953 199.27539
#
# Poissons Ratio (x) = 0.20362 0.25483
# Poissons Ratio (y) = 0.26090 0.32670
# Poissons Ratio (z) = 0.12513 0.12520
#
# Static dielectric constant tensor:
#      x y z
#    x 2.183610 0.000000 -0.060660 
#    y 0.000000 2.158510 0.000000 
#    z -0.060660 0.000000 2.105980 
# 
# From -- ./inp_files/4323.got.cif
#   From: 2010.05.17/outbox.cif.g08.bks.cpg/sg14_3_cif.got.tgz:4323.got - 2010.06.03 17:49:19.
