data_PCOD9240156
_publ_section_title
;
Structure prediction by ZEFSAII (Michael W. Deem and Ramdas Pophale) SiO2 
 PCOD9240156
Probable space group: P 21/C
;
_chemical_formula_sum "Si O2"
_cell_formula_units_Z 32
_cell_length_a 11.679862
_cell_length_b 10.214633
_cell_length_c 20.693278
_cell_angle_alpha 90.000000
_cell_angle_beta 46.363026
_cell_angle_gamma 90.000000
_cell_volume 1786.752335
_symmetry_space_group_name_H-M "P 21/C"
_symmetry_group_IT_number 14
_symmetry_cell_setting 'monoclinic'
loop_
_space_group_symop_operation_xyz
x,y,z
-x,1/2+y,1/2-z
-x,-y,-z
x,1/2-y,1/2+z
loop_
_atom_site_type_symbol
_atom_site_label
_atom_site_fract_x
_atom_site_fract_y
_atom_site_fract_z
Si Si1 0.881266 0.440042 0.466860
Si Si2 0.094824 0.543934 0.199544
Si Si3 0.829818 0.155429 0.848388
Si Si4 0.683391 0.342831 0.275558
Si Si5 0.215402 0.950835 0.786590
Si Si6 0.659979 0.891849 0.146336
Si Si7 0.999304 0.033593 0.604309
Si Si8 0.936939 0.710212 0.037168
O O1 0.804554 0.369186 0.434152
O O2 0.760050 0.529234 0.553162
O O3 0.036476 0.518483 0.380842
O O4 0.951625 0.332152 0.488384
O O5 0.085649 0.702476 0.196135
O O6 0.217663 0.513346 0.209335
O O7 0.939819 0.466085 0.283914
O O8 0.115772 0.488669 0.119336
O O9 0.686572 0.157057 0.852817
O O10 0.739717 0.200508 0.229564
O O11 0.515943 0.374429 0.310160
O O12 0.822362 0.439530 0.198709
O O13 0.326835 0.031455 0.791087
O O14 0.757926 0.757892 0.118010
O O15 0.989865 0.904792 0.564405
O O16 0.047530 0.154397 0.540627
#
# Coordination Sequence:
#
# PCOD9240156 Si02
#       8
#     4   4   4   4   4   4   4   4
#     4  10  18  35  58  80 104 144 189 223 265 323
#     4   9  17  33  57  82 106 138 184 236 270 309
#     4   9  18  33  55  81 110 143 184 228 276 317
#     4  10  21  34  53  81 114 140 173 229 277 324
#     4   9  19  36  56  78 106 143 184 225 269 320
#     4  11  22  33  55  79 112 147 177 217 278 339
#     4  10  19  34  57  83 106 135 184 230 267 310
#     4  10  20  34  56  80 106 140 182 224 265 321
#
# _framework density 17.909589
#
# number of rings (size 3 to 8) (size 9 to 14) (size 15 to 20)
#    0.000    2.250    1.250    3.000    1.750    1.500 
#    0.000    0.000    0.000    6.000    0.000    0.000 
#    0.000    0.000    0.000    0.000    0.000    0.000 
#
# Total GULP energy -178197.588853 kJ/mol
# GULP energy per Si atom -5568.674652 kJ/mol
# Density = 1.786883 g / cm^3
# Si number density = 17.909589 Si / 1000 Ang^3
#
#
#
# Elastic Constant Matrix: (Units=GPa)
#
#
# Indices 1 2 3 4 5 6 
#
# 1 137.8016 45.7474 42.9003 0.0000 26.7501 0.0000
# 2 45.7474 70.0222 29.2924 0.0000 10.6071 0.0000
# 3 42.9003 29.2924 41.9666 0.0000 23.4509 0.0000
# 4 0.0000 0.0000 0.0000 10.9548 0.0000 4.0972
# 5 26.7501 10.6071 23.4509 0.0000 32.2217 0.0000
# 6 0.0000 0.0000 0.0000 4.0972 0.0000 15.1752
#
#
#
# Elastic Compliance Matrix: (Units=1/GPa)
#
#
# Indices 1 2 3 4 5 6 
#
# 1 0.011395 -0.003964 -0.007290 0.000000 -0.002850 0.000000
# 2 -0.003964 0.022282 -0.015575 0.000000 0.007291 0.000000
# 3 -0.007290 -0.015575 0.060516 0.000000 -0.032865 0.000000
# 4 0.000000 0.000000 0.000000 0.101538 0.000000 -0.027415
# 5 -0.002850 0.007291 -0.032865 0.000000 0.054920 0.000000
# 6 0.000000 0.000000 0.000000 -0.027415 0.000000 0.073299
#
#
# Mechanical properties :
#
#
# Convention : Reuss Voigt Hill
#
# Bulk Modulus (GPa) = 24.66886 53.96341 39.31613
# Shear Modulus (GPa) = 12.78387 20.46036 16.62212
#
# Velocity S-wave (km/s) = 2.67460 3.38364 3.04980
# Velocity P-wave (km/s) = 4.83136 6.74254 5.86531
#
# Compressibility (1/GPa) = 0.04053694
#
# Stress axis : x y z
#
# Youngs Moduli (GPa) = 87.75520 44.87976 16.52451
#
# Poissons Ratio (x) = 0.17789 0.12046
# Poissons Ratio (y) = 0.34783 0.25737
# Poissons Ratio (z) = 0.63970 0.69900
#
# Static dielectric constant tensor:
#      x y z
#    x 1.627500 0.000000 0.050300 
#    y 0.000000 1.627700 0.000000 
#    z 0.050300 0.000000 1.622210 
# 
# From -- ./inp_files/67178.got.cif
#   From: 2010.05.17/outbox.cif.g08.bks.cpg/sg14_34_cif.got.tgz:67178.got - 2010.06.03 17:49:19.
