data_PCOD9240030
_publ_section_title
;
Structure prediction by ZEFSAII (Michael W. Deem and Ramdas Pophale) SiO2 
 PCOD9240030
Probable space group: P 21/C
;
_chemical_formula_sum "Si O2"
_cell_formula_units_Z 20
_cell_length_a 22.719959
_cell_length_b 7.337974
_cell_length_c 13.619446
_cell_angle_alpha 90.000000
_cell_angle_beta 20.794559
_cell_angle_gamma 90.000000
_cell_volume 806.108973
_symmetry_space_group_name_H-M "P 21/C"
_symmetry_group_IT_number 14
_symmetry_cell_setting 'monoclinic'
loop_
_space_group_symop_operation_xyz
x,y,z
-x,1/2+y,1/2-z
-x,-y,-z
x,1/2-y,1/2+z
loop_
_atom_site_type_symbol
_atom_site_label
_atom_site_fract_x
_atom_site_fract_y
_atom_site_fract_z
Si Si1 0.147814 0.374178 0.809953
Si Si2 0.564037 0.793861 0.903395
Si Si3 0.090609 0.699471 0.661272
Si Si4 0.902797 0.888019 0.280570
Si Si5 0.406799 0.978149 0.772033
O O1 0.121780 0.182718 0.792052
O O2 0.322827 0.463454 0.505760
O O3 0.000000 0.500000 0.000000
O O4 0.086320 0.361235 0.016536
O O5 0.748687 0.796997 0.575511
O O6 0.496537 0.649252 0.926866
O O7 0.525536 0.695509 0.067288
O O8 0.500000 0.000000 0.000000
O O9 0.242517 0.582128 0.465678
O O10 0.065920 0.684222 0.583003
O O11 0.113620 0.899774 0.669950
#
# Coordination Sequence:
#
# PCOD9240030 Si02
#       5
#     4   4   4   4   4
#     4   9  19  35  55  82 117 146 188 244 289 342
#     4  10  18  34  56  82 110 152 188 230 290 350
#     4  11  20  36  58  87 118 148 197 247 286 348
#     4  11  21  34  60  87 113 156 195 237 299 344
#     4   9  19  34  57  80 114 148 189 235 286 341
#
# _framework density 24.810541000000001
#
# number of rings (size 3 to 8) (size 9 to 14) (size 15 to 20)
#    0.000    2.000    2.000    4.200    0.000    0.000 
#    0.000    0.000    8.800    2.400    0.000    0.000 
#    0.000    0.000    0.000    0.000    0.000    0.000 
#
# Total GULP energy -111434.183593 kJ/mol
# GULP energy per Si atom -5571.709180 kJ/mol
# Density = 2.475407 g / cm^3
# Si number density = 24.810541 Si / 1000 Ang^3
#
#
#
# Elastic Constant Matrix: (Units=GPa)
#
#
# Indices 1 2 3 4 5 6 
#
# 1 41.5712 -11.7752 -7.0806 0.0000 8.0575 0.0000
# 2 -11.7752 178.3001 2.9839 0.0000 1.2709 0.0000
# 3 -7.0806 2.9839 108.1738 0.0000 17.7071 0.0000
# 4 0.0000 0.0000 0.0000 36.6983 0.0000 3.5720
# 5 8.0575 1.2709 17.7071 0.0000 16.8000 0.0000
# 6 0.0000 0.0000 0.0000 3.5720 0.0000 18.4595
#
#
#
# Elastic Compliance Matrix: (Units=1/GPa)
#
#
# Indices 1 2 3 4 5 6 
#
# 1 0.029260 0.001987 0.005054 0.000000 -0.019511 0.000000
# 2 0.001987 0.005747 0.000240 0.000000 -0.001641 0.000000
# 3 0.005054 0.000240 0.012047 0.000000 -0.015139 0.000000
# 4 0.000000 0.000000 0.000000 0.027772 0.000000 -0.005374
# 5 -0.019511 -0.001641 -0.015139 0.000000 0.084962 0.000000
# 6 0.000000 0.000000 0.000000 -0.005374 0.000000 0.055212
#
#
# Mechanical properties :
#
#
# Convention : Reuss Voigt Hill
#
# Bulk Modulus (GPa) = 16.22925 32.92237 24.57581
# Shear Modulus (GPa) = 22.62667 37.31938 29.97302
#
# Velocity S-wave (km/s) = 3.02317 3.88258 3.47951
# Velocity P-wave (km/s) = 4.32915 5.77906 5.10583
#
# Compressibility (1/GPa) = 0.06161712
#
# Stress axis : x y z
#
# Youngs Moduli (GPa) = 34.17578 173.99126 83.00980
#
# Poissons Ratio (x) = -0.34570 -0.41955
# Poissons Ratio (y) = -0.06790 -0.01993
# Poissons Ratio (z) = -0.17273 -0.04177
#
# Static dielectric constant tensor:
#      x y z
#    x 2.035750 0.000000 0.039890 
#    y 0.000000 2.104430 0.000000 
#    z 0.039890 0.000000 2.029470 
# 
# From -- ./inp_files/51810.got.cif
#   From: 2010.05.17/outbox.cif.g08.bks.cpg/sg14_26_cif.got.tgz:51810.got - 2010.06.03 17:49:19.
