data_PCOD9240858
_publ_section_title
;
Structure prediction by ZEFSAII (Michael W. Deem and Ramdas Pophale) SiO2 
 PCOD9240858
Probable space group: P 21/C
;
_chemical_formula_sum "Si O2"
_cell_formula_units_Z 32
_cell_length_a 10.453757
_cell_length_b 16.389813
_cell_length_c 18.781285
_cell_angle_alpha 90.000000
_cell_angle_beta 24.415022
_cell_angle_gamma 90.000000
_cell_volume 1330.094447
_symmetry_space_group_name_H-M "P 21/C"
_symmetry_group_IT_number 14
_symmetry_cell_setting 'monoclinic'
loop_
_space_group_symop_operation_xyz
x,y,z
-x,1/2+y,1/2-z
-x,-y,-z
x,1/2-y,1/2+z
loop_
_atom_site_type_symbol
_atom_site_label
_atom_site_fract_x
_atom_site_fract_y
_atom_site_fract_z
Si Si1 0.474053 0.354965 0.145292
Si Si2 0.103539 0.626896 0.808649
Si Si3 0.550375 0.024461 0.101601
Si Si4 0.949616 0.780043 0.662104
Si Si5 0.787012 0.916740 0.602273
Si Si6 0.194628 0.533723 0.309169
Si Si7 0.391234 0.661696 0.528107
Si Si8 0.513311 0.406630 0.967786
O O1 0.266881 0.279302 0.274415
O O2 0.322226 0.440953 0.237413
O O3 0.521094 0.354596 0.035378
O O4 0.820656 0.340223 0.996260
O O5 0.297799 0.543275 0.712848
O O6 0.317029 0.680514 0.647928
O O7 0.796195 0.614719 0.917707
O O8 0.987133 0.641871 0.948258
O O9 0.375032 0.092395 0.238307
O O10 0.671054 0.069339 0.969331
O O11 0.829242 0.981856 0.004620
O O12 0.169283 0.714441 0.590323
O O13 0.743250 0.821111 0.827890
O O14 0.462598 0.929336 0.722799
O O15 0.000000 0.000000 0.500000
O O16 0.213177 0.589081 0.228218
O O17 0.500000 0.500000 0.000000
#
# Coordination Sequence:
#
# PCOD9240858 Si02
#       8
#     4   4   4   4   4   4   4   4
#     4  10  19  34  49  80 113 142 182 224 279 320
#     4  10  20  35  54  83 111 141 175 225 283 326
#     4  11  21  34  57  88 111 140 184 228 286 329
#     4  10  22  33  51  80 110 152 181 230 266 317
#     4   9  21  36  55  83 110 143 169 219 286 333
#     4  10  19  33  55  79 110 141 180 226 283 332
#     4  11  21  36  56  82 112 142 191 227 267 330
#     4   9  17  29  49  75 108 139 170 220 277 323
#
# _framework density 24.058441999999999
#
# number of rings (size 3 to 8) (size 9 to 14) (size 15 to 20)
#    0.000    2.000    2.500    1.500    8.750    0.000 
#    0.000    0.000    0.000    1.500    0.000    0.000 
#    0.000    0.000    0.000    0.000    0.000    0.000 
#
# Total GULP energy -178291.600963 kJ/mol
# GULP energy per Si atom -5571.612530 kJ/mol
# Density = 2.400368 g / cm^3
# Si number density = 24.058442 Si / 1000 Ang^3
#
#
#
# Elastic Constant Matrix: (Units=GPa)
#
#
# Indices 1 2 3 4 5 6 
#
# 1 58.4490 -12.8224 27.6090 0.0000 11.1704 0.0000
# 2 -12.8224 19.9871 -4.3671 0.0000 -4.4725 0.0000
# 3 27.6090 -4.3671 104.1815 0.0000 10.5659 0.0000
# 4 0.0000 0.0000 0.0000 38.4845 0.0000 -5.3227
# 5 11.1704 -4.4725 10.5659 0.0000 40.5279 0.0000
# 6 0.0000 0.0000 0.0000 -5.3227 0.0000 14.4826
#
#
#
# Elastic Compliance Matrix: (Units=1/GPa)
#
#
# Indices 1 2 3 4 5 6 
#
# 1 0.023078 0.012865 -0.005213 0.000000 -0.003582 0.000000
# 2 0.012865 0.058738 -0.001279 0.000000 0.003270 0.000000
# 3 -0.005213 -0.001279 0.011088 0.000000 -0.001595 0.000000
# 4 0.000000 0.000000 0.000000 0.027376 0.000000 0.010061
# 5 -0.003582 0.003270 -0.001595 0.000000 0.026438 0.000000
# 6 0.000000 0.000000 0.000000 0.010061 0.000000 0.072746
#
#
# Mechanical properties :
#
#
# Convention : Reuss Voigt Hill
#
# Bulk Modulus (GPa) = 9.46523 22.60630 16.03577
# Shear Modulus (GPa) = 20.66664 30.17888 25.42276
#
# Velocity S-wave (km/s) = 2.93408 3.54559 3.25423
# Velocity P-wave (km/s) = 3.92699 5.11649 4.56068
#
# Compressibility (1/GPa) = 0.10564978
#
# Stress axis : x y z
#
# Youngs Moduli (GPa) = 43.33062 17.02487 90.18439
#
# Poissons Ratio (x) = -0.21902 0.47017
# Poissons Ratio (y) = -0.55744 0.11532
# Poissons Ratio (z) = 0.22590 0.02177
#
# Static dielectric constant tensor:
#      x y z
#    x 1.891340 0.000000 -0.079550 
#    y 0.000000 1.922380 0.000000 
#    z -0.079550 0.000000 1.838020 
# 
# From -- ./inp_files/67567.got.cif
#   From: 2010.05.17/outbox.cif.g08.bks.cpg/sg14_34_cif.got.tgz:67567.got - 2010.06.03 17:49:19.
