data_PCOD9240105
_publ_section_title
;
Structure prediction by ZEFSAII (Michael W. Deem and Ramdas Pophale) SiO2 
 PCOD9240105
Probable space group: P 21/C
;
_chemical_formula_sum "Si O2"
_cell_formula_units_Z 28
_cell_length_a 7.513692
_cell_length_b 14.101846
_cell_length_c 13.137218
_cell_angle_alpha 90.000000
_cell_angle_beta 55.827595
_cell_angle_gamma 90.000000
_cell_volume 1151.655694
_symmetry_space_group_name_H-M "P 21/C"
_symmetry_group_IT_number 14
_symmetry_cell_setting 'monoclinic'
loop_
_space_group_symop_operation_xyz
x,y,z
-x,1/2+y,1/2-z
-x,-y,-z
x,1/2-y,1/2+z
loop_
_atom_site_type_symbol
_atom_site_label
_atom_site_fract_x
_atom_site_fract_y
_atom_site_fract_z
Si Si1 0.582423 0.337893 0.418778
Si Si2 0.815959 0.981836 0.305745
Si Si3 0.788328 0.309313 0.066811
Si Si4 0.250691 0.981393 0.278273
Si Si5 0.437482 0.168516 0.190899
Si Si6 0.942226 0.805234 0.163480
Si Si7 0.494272 0.864114 0.541635
O O1 0.572408 0.422437 0.342640
O O2 0.520405 0.366842 0.553613
O O3 0.457138 0.241103 0.434586
O O4 0.838456 0.312187 0.341017
O O5 0.846399 0.911112 0.200667
O O6 0.697034 0.921324 0.433288
O O7 0.050362 0.009564 0.271050
O O8 0.661968 0.070857 0.340912
O O9 0.831823 0.404864 0.113759
O O10 0.626321 0.235490 0.172771
O O11 0.653309 0.343690 0.011533
O O12 0.983806 0.245182 0.964214
O O13 0.351832 0.079655 0.281884
O O14 0.236388 0.236743 0.233941
#
# Coordination Sequence:
#
# PCOD9240105 Si02
#       7
#     4   4   4   4   4   4   4
#     4   9  19  35  59  85 115 151 203 238 283 351
#     4  10  18  34  61  89 110 150 200 237 282 349
#     4  10  22  39  56  87 124 155 191 244 313 343
#     4  11  22  36  59  90 114 155 203 241 286 364
#     4  10  19  39  60  79 118 159 191 242 302 345
#     4   9  17  35  60  81 115 154 183 236 292 346
#     4   9  18  36  58  85 118 150 193 241 288 350
#
# _framework density 24.312823999999999
#
# number of rings (size 3 to 8) (size 9 to 14) (size 15 to 20)
#    0.000    2.571    2.857    2.143    0.000    2.286 
#    7.714    0.000    0.000    4.286    0.000    0.000 
#    0.000    0.000    0.000    0.000    0.000    0.000 
#
# Total GULP energy -156403.498798 kJ/mol
# GULP energy per Si atom -5585.839243 kJ/mol
# Density = 2.425749 g / cm^3
# Si number density = 24.312824 Si / 1000 Ang^3
#
#
#
# Elastic Constant Matrix: (Units=GPa)
#
#
# Indices 1 2 3 4 5 6 
#
# 1 66.3264 27.7477 20.5778 0.0000 -7.1467 0.0000
# 2 27.7477 149.5013 18.0133 0.0000 -14.4814 0.0000
# 3 20.5778 18.0133 70.5460 0.0000 -14.8529 0.0000
# 4 0.0000 0.0000 0.0000 54.6604 0.0000 1.1405
# 5 -7.1467 -14.4814 -14.8529 0.0000 26.0465 0.0000
# 6 0.0000 0.0000 0.0000 1.1405 0.0000 1.8405
#
#
#
# Elastic Compliance Matrix: (Units=1/GPa)
#
#
# Indices 1 2 3 4 5 6 
#
# 1 0.017614 -0.002666 -0.004264 0.000000 0.000919 0.000000
# 2 -0.002666 0.007551 -0.000478 0.000000 0.003194 0.000000
# 3 -0.004264 -0.000478 0.017318 0.000000 0.008440 0.000000
# 4 0.000000 0.000000 0.000000 0.018534 0.000000 -0.011486
# 5 0.000919 0.003194 0.008440 0.000000 0.045234 0.000000
# 6 0.000000 0.000000 0.000000 -0.011486 0.000000 0.550453
#
#
# Mechanical properties :
#
#
# Convention : Reuss Voigt Hill
#
# Bulk Modulus (GPa) = 36.14388 46.56124 41.35256
# Shear Modulus (GPa) = 7.34493 31.17848 19.26170
#
# Velocity S-wave (km/s) = 1.73999 3.58493 2.81774
# Velocity P-wave (km/s) = 4.35146 6.02728 5.25658
#
# Compressibility (1/GPa) = 0.02766720
#
# Stress axis : x y z
#
# Youngs Moduli (GPa) = 56.77208 132.43702 57.74431
#
# Poissons Ratio (x) = 0.35314 0.24620
# Poissons Ratio (y) = 0.15138 0.02759
# Poissons Ratio (z) = 0.24205 0.06327
#
# Static dielectric constant tensor:
#      x y z
#    x 1.889470 0.000000 0.047680 
#    y 0.000000 1.973240 0.000000 
#    z 0.047680 0.000000 2.006040 
# 
# From -- ./inp_files/41143.got.cif
#   From: 2010.05.17/outbox.cif.g08.bks.cpg/sg14_21_cif.got.tgz:41143.got - 2010.06.03 17:49:19.
