data_PCOD9240518
_publ_section_title
;
Structure prediction by ZEFSAII (Michael W. Deem and Ramdas Pophale) SiO2 
 PCOD9240518
Probable space group: P 21/C
;
_chemical_formula_sum "Si O2"
_cell_formula_units_Z 30
_cell_length_a 11.850905
_cell_length_b 11.939450
_cell_length_c 9.603648
_cell_angle_alpha 90.000000
_cell_angle_beta 123.342961
_cell_angle_gamma 90.000000
_cell_volume 1135.178570
_symmetry_space_group_name_H-M "P 21/C"
_symmetry_group_IT_number 14
_symmetry_cell_setting 'monoclinic'
loop_
_space_group_symop_operation_xyz
x,y,z
-x,1/2+y,1/2-z
-x,-y,-z
x,1/2-y,1/2+z
loop_
_atom_site_type_symbol
_atom_site_label
_atom_site_fract_x
_atom_site_fract_y
_atom_site_fract_z
Si Si1 0.058984 0.616853 0.346449
Si Si2 0.000000 0.000000 0.500000
Si Si3 0.498392 0.250188 0.265702
Si Si4 0.619563 0.399989 0.658417
Si Si5 0.760408 0.200811 0.630502
Si Si6 0.738032 0.613620 0.876793
Si Si7 0.651423 0.465901 0.366594
Si Si8 0.225234 0.061019 0.287606
O O1 0.108442 0.744768 0.354030
O O2 0.190285 0.564613 0.508712
O O3 0.924482 0.605777 0.346751
O O4 0.034228 0.548599 0.185079
O O5 0.884135 0.901794 0.410073
O O6 0.490959 0.160239 0.138032
O O7 0.620730 0.210456 0.447962
O O8 0.361649 0.291463 0.243531
O O9 0.560026 0.366137 0.242447
O O10 0.729257 0.298530 0.723255
O O11 0.673202 0.493170 0.798102
O O12 0.392546 0.545355 0.501404
O O13 0.784455 0.072286 0.680884
O O14 0.740739 0.623567 0.045504
O O15 0.662342 0.561068 0.257119
#
# Coordination Sequence:
#
# PCOD9240518 Si02
#       8
#     4   2   4   4   4   4   4   4
#     4   9  20  36  64  99 135 168 238 276 339 406
#     4  10  18  40  64  98 126 172 224 280 338 412
#     4  10  21  38  65 102 127 171 233 287 333 421
#     4  10  19  40  63  95 126 175 226 271 343 415
#     4  10  20  38  67  97 133 178 235 279 348 417
#     4  11  22  38  72  97 135 176 236 285 346 418
#     4  10  21  37  62  99 136 173 230 282 345 407
#     4  11  21  37  69 100 133 188 229 285 345 429
#
# _framework density 26.427561000000001
#
# number of rings (size 3 to 8) (size 9 to 14) (size 15 to 20)
#    0.000    2.133    5.333    0.400    0.000    2.667 
#    0.000    0.000   14.667    0.000    0.000    0.000 
#    0.000    0.000    0.000    0.000    0.000    0.000 
#
# Total GULP energy -167017.445800 kJ/mol
# GULP energy per Si atom -5567.248193 kJ/mol
# Density = 2.636741 g / cm^3
# Si number density = 26.427561 Si / 1000 Ang^3
#
#
#
# Elastic Constant Matrix: (Units=GPa)
#
#
# Indices 1 2 3 4 5 6 
#
# 1 146.8752 27.0678 21.6721 0.0000 -2.1659 0.0000
# 2 27.0678 94.9619 9.1731 0.0000 15.3675 0.0000
# 3 21.6721 9.1731 73.8854 0.0000 0.7762 0.0000
# 4 0.0000 0.0000 0.0000 22.6171 0.0000 -6.3607
# 5 -2.1659 15.3675 0.7762 0.0000 37.5856 0.0000
# 6 0.0000 0.0000 0.0000 -6.3607 0.0000 40.3273
#
#
#
# Elastic Compliance Matrix: (Units=1/GPa)
#
#
# Indices 1 2 3 4 5 6 
#
# 1 0.007517 -0.002175 -0.001949 0.000000 0.001363 0.000000
# 2 -0.002175 0.012043 -0.000804 0.000000 -0.005033 0.000000
# 3 -0.001949 -0.000804 0.014207 0.000000 -0.000077 0.000000
# 4 0.000000 0.000000 0.000000 0.046267 0.000000 0.007298
# 5 0.001363 -0.005033 -0.000077 0.000000 0.028744 0.000000
# 6 0.000000 0.000000 0.000000 0.007298 0.000000 0.025948
#
#
# Mechanical properties :
#
#
# Convention : Reuss Voigt Hill
#
# Bulk Modulus (GPa) = 41.82405 47.94984 44.88695
# Shear Modulus (GPa) = 32.77582 37.29330 35.03456
#
# Velocity S-wave (km/s) = 3.52549 3.76061 3.64494
# Velocity P-wave (km/s) = 5.69494 6.08601 5.89372
#
# Compressibility (1/GPa) = 0.02390969
#
# Stress axis : x y z
#
# Youngs Moduli (GPa) = 133.03152 83.03889 70.38845
#
# Poissons Ratio (x) = 0.18060 0.13720
# Poissons Ratio (y) = 0.28933 0.05661
# Poissons Ratio (z) = 0.25930 0.06679
#
# Static dielectric constant tensor:
#      x y z
#    x 2.290550 0.000000 -0.022100 
#    y 0.000000 2.121630 0.000000 
#    z -0.022100 0.000000 2.088340 
# 
# From -- ./inp_files/30043.got.cif
#   From: 2010.05.17/outbox.cif.g08.bks.cpg/sg14_16_cif.got.tgz:30043.got - 2010.06.03 17:49:19.
