data_PCOD9240965
_publ_section_title
;
Structure prediction by ZEFSAII (Michael W. Deem and Ramdas Pophale) SiO2 
 PCOD9240965
Probable space group: P 21/C
;
_chemical_formula_sum "Si O2"
_cell_formula_units_Z 24
_cell_length_a 19.495480
_cell_length_b 5.542510
_cell_length_c 30.968254
_cell_angle_alpha 90.000000
_cell_angle_beta 17.240170
_cell_angle_gamma 90.000000
_cell_volume 991.751106
_symmetry_space_group_name_H-M "P 21/C"
_symmetry_group_IT_number 14
_symmetry_cell_setting 'monoclinic'
loop_
_space_group_symop_operation_xyz
x,y,z
-x,1/2+y,1/2-z
-x,-y,-z
x,1/2-y,1/2+z
loop_
_atom_site_type_symbol
_atom_site_label
_atom_site_fract_x
_atom_site_fract_y
_atom_site_fract_z
Si Si1 0.586845 0.371818 0.598326
Si Si2 0.716030 0.029778 0.268139
Si Si3 0.155246 0.702571 0.884443
Si Si4 0.354126 0.085767 0.022545
Si Si5 0.633426 0.071420 0.163751
Si Si6 0.680948 0.801798 0.373439
O O1 0.395430 0.570373 0.727048
O O2 0.732926 0.459776 0.468872
O O3 0.713679 0.343183 0.567810
O O4 0.426634 0.152429 0.677216
O O5 0.899497 0.173427 0.128532
O O6 0.517946 0.204437 0.405965
O O7 0.815267 0.909287 0.251852
O O8 0.202983 0.889666 0.893786
O O9 0.000000 0.500000 0.000000
O O10 0.524206 0.898881 0.944009
O O11 0.202409 0.190199 0.153445
O O12 0.446958 0.291581 0.285011
O O13 0.500000 0.000000 0.500000
#
# Coordination Sequence:
#
# PCOD9240965 Si02
#       6
#     4   4   4   4   4   4
#     4   9  17  29  46  64  95 136 167 212 261 311
#     4   9  15  27  41  62  93 133 162 203 259 300
#     4  10  20  31  45  68  98 141 180 220 262 313
#     4   8  14  23  40  65  91 126 150 199 259 308
#     4  10  19  34  50  69  95 140 183 215 262 310
#     4   8  13  22  39  63  93 126 145 197 260 314
#
# _framework density 24.199618000000001
#
# number of rings (size 3 to 8) (size 9 to 14) (size 15 to 20)
#    0.000    3.000    1.667    0.000    0.000    0.667 
#    0.000    0.000    0.000    0.000    0.000    0.000 
#    0.000    0.000  889.667    0.000    0.000    0.000 
#
# Total GULP energy -133611.500242 kJ/mol
# GULP energy per Si atom -5567.145843 kJ/mol
# Density = 2.414454 g / cm^3
# Si number density = 24.199618 Si / 1000 Ang^3
#
#
#
# Elastic Constant Matrix: (Units=GPa)
#
#
# Indices 1 2 3 4 5 6 
#
# 1 169.7160 33.6317 65.0718 -0.0001 62.9452 -0.0001
# 2 33.6317 60.4581 26.2070 0.0000 15.9104 0.0000
# 3 65.0718 26.2070 95.6148 0.0000 43.3130 -0.0001
# 4 -0.0001 0.0000 0.0000 47.3078 0.0001 31.7136
# 5 62.9452 15.9104 43.3130 0.0001 54.4459 0.0001
# 6 -0.0001 0.0000 -0.0001 31.7136 0.0001 51.0531
#
#
#
# Elastic Compliance Matrix: (Units=1/GPa)
#
#
# Indices 1 2 3 4 5 6 
#
# 1 0.011040 -0.002491 -0.002155 0.000000 -0.010321 0.000000
# 2 -0.002491 0.019499 -0.003709 0.000000 0.000133 0.000000
# 3 -0.002155 -0.003709 0.017701 0.000000 -0.010506 0.000000
# 4 0.000000 0.000000 0.000000 0.036222 0.000000 -0.022501
# 5 -0.010321 0.000133 -0.010506 0.000000 0.038618 0.000000
# 6 0.000000 0.000000 0.000000 -0.022501 0.000000 0.033565
#
#
# Mechanical properties :
#
#
# Convention : Reuss Voigt Hill
#
# Bulk Modulus (GPa) = 31.71659 63.95665 47.83662
# Shear Modulus (GPa) = 27.19373 43.95326 35.57350
#
# Velocity S-wave (km/s) = 3.35584 4.26641 3.83822
# Velocity P-wave (km/s) = 5.30568 7.12431 6.28116
#
# Compressibility (1/GPa) = 0.03152924
#
# Stress axis : x y z
#
# Youngs Moduli (GPa) = 90.57863 51.28457 56.49286
#
# Poissons Ratio (x) = 0.12775 0.12176
# Poissons Ratio (y) = 0.22563 0.20955
# Poissons Ratio (z) = 0.19523 0.19023
#
# Static dielectric constant tensor:
#      x y z
#    x 2.133330 0.000000 0.124800 
#    y 0.000000 2.157270 0.000000 
#    z 0.124800 0.000000 2.055700 
# 
# From -- ./inp_files/45732.got.cif
#   From: 2010.05.17/outbox.cif.g08.bks.cpg/sg14_23_cif.got.tgz:45732.got - 2010.06.03 17:49:19.
