data_PCOD9240134
_publ_section_title
;
Structure prediction by ZEFSAII (Michael W. Deem and Ramdas Pophale) SiO2 
 PCOD9240134
Probable space group: P 21/C
;
_chemical_formula_sum "Si O2"
_cell_formula_units_Z 24
_cell_length_a 8.889267
_cell_length_b 12.735092
_cell_length_c 10.638527
_cell_angle_alpha 90.000000
_cell_angle_beta 100.009657
_cell_angle_gamma 90.000000
_cell_volume 1186.009270
_symmetry_space_group_name_H-M "P 21/C"
_symmetry_group_IT_number 14
_symmetry_cell_setting 'monoclinic'
loop_
_space_group_symop_operation_xyz
x,y,z
-x,1/2+y,1/2-z
-x,-y,-z
x,1/2-y,1/2+z
loop_
_atom_site_type_symbol
_atom_site_label
_atom_site_fract_x
_atom_site_fract_y
_atom_site_fract_z
Si Si1 0.231350 0.548385 0.471964
Si Si2 0.692759 0.945246 0.655888
Si Si3 0.557407 0.359189 0.687901
Si Si4 0.092639 0.362634 0.603424
Si Si5 0.327582 0.195666 0.589838
Si Si6 0.389501 0.857684 0.238337
O O1 0.342831 0.557133 0.370434
O O2 0.160611 0.436789 0.501753
O O3 0.327377 0.589299 0.604891
O O4 0.087702 0.625230 0.429222
O O5 0.549826 0.904791 0.719320
O O6 0.840783 0.911131 0.757530
O O7 0.687047 0.887349 0.522953
O O8 0.674046 0.070696 0.656700
O O9 0.442051 0.294823 0.577249
O O10 0.658085 0.263643 0.757327
O O11 0.167568 0.248346 0.601191
O O12 0.426741 0.147552 0.718394
#
# Coordination Sequence:
#
# PCOD9240134 Si02
#       6
#     4   4   4   4   4   4
#     4  10  19  38  52  80 109 134 181 216 269 316
#     4  10  18  35  53  78 111 134 180 218 264 316
#     4   9  20  30  55  79 100 141 171 221 261 306
#     4   9  21  34  57  78 104 144 172 224 264 308
#     4   9  19  34  53  82 100 138 179 214 263 314
#     4   9  20  32  55  77 105 141 173 223 262 306
#
# _framework density 20.235931000000001
#
# number of rings (size 3 to 8) (size 9 to 14) (size 15 to 20)
#    1.000    1.667    0.000    1.500    0.000    8.667 
#    0.000    0.000    0.000    1.000    0.000    0.000 
#    0.000    0.000    0.000    0.000    0.000    0.000 
#
# Total GULP energy -133658.408749 kJ/mol
# GULP energy per Si atom -5569.100365 kJ/mol
# Density = 2.018987 g / cm^3
# Si number density = 20.235931 Si / 1000 Ang^3
#
#
#
# Elastic Constant Matrix: (Units=GPa)
#
#
# Indices 1 2 3 4 5 6 
#
# 1 72.4892 21.3981 34.6116 0.0000 21.8050 0.0000
# 2 21.3981 34.7170 17.3750 0.0000 12.0710 0.0000
# 3 34.6116 17.3750 45.9555 0.0000 13.0771 0.0000
# 4 0.0000 0.0000 0.0000 23.2500 0.0000 5.0375
# 5 21.8050 12.0710 13.0771 0.0000 13.9082 0.0000
# 6 0.0000 0.0000 0.0000 5.0375 0.0000 23.1380
#
#
#
# Elastic Compliance Matrix: (Units=1/GPa)
#
#
# Indices 1 2 3 4 5 6 
#
# 1 0.030874 0.000070 -0.012954 0.000000 -0.036284 0.000000
# 2 0.000070 0.043174 -0.007758 0.000000 -0.030286 0.000000
# 3 -0.012954 -0.007758 0.036528 0.000000 -0.007303 0.000000
# 4 0.000000 0.000000 0.000000 0.045140 0.000000 -0.009828
# 5 -0.036284 -0.030286 -0.007303 0.000000 0.161937 0.000000
# 6 0.000000 0.000000 0.000000 -0.009828 0.000000 0.045359
#
#
# Mechanical properties :
#
#
# Convention : Reuss Voigt Hill
#
# Bulk Modulus (GPa) = 14.43172 33.32569 23.87870
# Shear Modulus (GPa) = 11.69878 17.37772 14.53825
#
# Velocity S-wave (km/s) = 2.40702 2.93363 2.68328
# Velocity P-wave (km/s) = 3.85645 5.28954 4.62879
#
# Compressibility (1/GPa) = 0.06929181
#
# Stress axis : x y z
#
# Youngs Moduli (GPa) = 32.38933 23.16182 27.37626
#
# Poissons Ratio (x) = -0.00161 0.35464
# Poissons Ratio (y) = -0.00226 0.21238
# Poissons Ratio (z) = 0.41959 0.17968
#
# Static dielectric constant tensor:
#      x y z
#    x 1.700560 0.000000 0.014010 
#    y 0.000000 1.804860 0.000000 
#    z 0.014010 0.000000 1.726730 
# 
# From -- ./inp_files/25010.got.cif
#   From: 2010.05.17/outbox.cif.g08.bks.cpg/sg14_13_cif.got.tgz:25010.got - 2010.06.03 17:49:19.
