data_PCOD9240336
_publ_section_title
;
Structure prediction by ZEFSAII (Michael W. Deem and Ramdas Pophale) SiO2 
 PCOD9240336
Probable space group: P 21/C
;
_chemical_formula_sum "Si O2"
_cell_formula_units_Z 30
_cell_length_a 8.222768
_cell_length_b 24.777247
_cell_length_c 9.259877
_cell_angle_alpha 90.000000
_cell_angle_beta 33.689007
_cell_angle_gamma 90.000000
_cell_volume 1046.459841
_symmetry_space_group_name_H-M "P 21/C"
_symmetry_group_IT_number 14
_symmetry_cell_setting 'monoclinic'
loop_
_space_group_symop_operation_xyz
x,y,z
-x,1/2+y,1/2-z
-x,-y,-z
x,1/2-y,1/2+z
loop_
_atom_site_type_symbol
_atom_site_label
_atom_site_fract_x
_atom_site_fract_y
_atom_site_fract_z
Si Si1 0.293694 0.574300 0.204317
Si Si2 0.261717 0.654821 0.690419
Si Si3 0.959780 0.011538 0.833884
Si Si4 0.713565 0.261808 0.659451
Si Si5 0.373014 0.193839 0.660097
Si Si6 0.652415 0.600954 0.188717
Si Si7 0.712452 0.897685 0.072261
Si Si8 0.500000 0.000000 0.000000
O O1 0.092619 0.550040 0.491273
O O2 0.589648 0.582658 0.070473
O O3 0.249556 0.524505 0.126520
O O4 0.057468 0.616100 0.314565
O O5 0.242555 0.716589 0.748593
O O6 0.962356 0.714471 0.608019
O O7 0.382308 0.639588 0.442977
O O8 0.525927 0.631088 0.590280
O O9 0.827956 0.031095 0.783374
O O10 0.701998 0.962086 0.042098
O O11 0.542384 0.230435 0.656182
O O12 0.507002 0.302172 0.901930
O O13 0.047741 0.132493 0.530405
O O14 0.392488 0.131561 0.704104
O O15 0.646531 0.548114 0.290903
#
# Coordination Sequence:
#
# PCOD9240336 Si02
#       8
#     4   4   4   4   4   4   4   2
#     4   8  17  35  62  91 137 166 221 266 329 385
#     4  11  24  42  66  92 134 170 230 270 341 417
#     4   8  15  35  62  94 135 174 219 271 326 401
#     4  11  25  45  68 103 133 183 225 298 351 430
#     4  11  24  44  72  97 139 174 233 287 363 410
#     4  11  22  39  63  98 129 180 214 279 328 404
#     4   9  19  39  63  95 127 178 221 276 336 413
#     4  10  18  36  66  94 134 176 224 266 334 400
#
# _framework density 28.668085000000001
#
# number of rings (size 3 to 8) (size 9 to 14) (size 15 to 20)
#    0.800    1.333    1.333    1.600    0.000    6.933 
#    0.000    2.667    0.000    6.400    0.000    0.000 
#    0.000    0.000    0.000    0.000    0.000    0.000 
#
# Total GULP energy -167371.654130 kJ/mol
# GULP energy per Si atom -5579.055138 kJ/mol
# Density = 2.860283 g / cm^3
# Si number density = 28.668085 Si / 1000 Ang^3
#
#
#
# Elastic Constant Matrix: (Units=GPa)
#
#
# Indices 1 2 3 4 5 6 
#
# 1 131.5799 9.7903 20.1250 0.0000 -3.5907 0.0000
# 2 9.7903 73.1235 27.9370 0.0000 -0.6247 0.0000
# 3 20.1250 27.9370 159.7350 0.0000 -3.7160 0.0000
# 4 0.0000 0.0000 0.0000 34.9041 0.0000 6.1496
# 5 -3.5907 -0.6247 -3.7160 0.0000 51.7918 0.0000
# 6 0.0000 0.0000 0.0000 6.1496 0.0000 45.8314
#
#
#
# Elastic Compliance Matrix: (Units=1/GPa)
#
#
# Indices 1 2 3 4 5 6 
#
# 1 0.007795 -0.000717 -0.000846 0.000000 0.000471 0.000000
# 2 -0.000717 0.014721 -0.002485 0.000000 -0.000050 0.000000
# 3 -0.000846 -0.002485 0.006811 0.000000 0.000400 0.000000
# 4 0.000000 0.000000 0.000000 0.029344 0.000000 -0.003937
# 5 0.000471 -0.000050 0.000400 0.000000 0.019369 0.000000
# 6 0.000000 0.000000 0.000000 -0.003937 0.000000 0.022347
#
#
# Mechanical properties :
#
#
# Convention : Reuss Voigt Hill
#
# Bulk Modulus (GPa) = 47.10030 53.34921 50.22475
# Shear Modulus (GPa) = 43.26766 46.94452 45.10609
#
# Velocity S-wave (km/s) = 3.88914 4.05102 3.97090
# Velocity P-wave (km/s) = 6.05247 6.36637 6.21140
#
# Compressibility (1/GPa) = 0.02123129
#
# Stress axis : x y z
#
# Youngs Moduli (GPa) = 128.27924 67.93211 146.82249
#
# Poissons Ratio (x) = 0.04867 0.12419
# Poissons Ratio (y) = 0.09191 0.36492
# Poissons Ratio (z) = 0.10851 0.16884
#
# Static dielectric constant tensor:
#      x y z
#    x 1.471860 0.000000 -0.425390 
#    y 0.000000 2.397170 0.000000 
#    z -0.425390 0.000000 3.061960 
# 
# From -- ./inp_files/10951.got.cif
#   From: 2010.05.17/outbox.cif.g08.bks.cpg/sg14_6_cif.got.tgz:10951.got - 2010.06.03 17:49:19.
