data_PCOD9240019
_publ_section_title
;
Structure prediction by ZEFSAII (Michael W. Deem and Ramdas Pophale) SiO2 
 PCOD9240019
Probable space group: P 21/C
;
_chemical_formula_sum "Si O2"
_cell_formula_units_Z 32
_cell_length_a 11.973760
_cell_length_b 10.410684
_cell_length_c 17.257655
_cell_angle_alpha 90.000000
_cell_angle_beta 139.514926
_cell_angle_gamma 90.000000
_cell_volume 1396.701214
_symmetry_space_group_name_H-M "P 21/C"
_symmetry_group_IT_number 14
_symmetry_cell_setting 'monoclinic'
loop_
_space_group_symop_operation_xyz
x,y,z
-x,1/2+y,1/2-z
-x,-y,-z
x,1/2-y,1/2+z
loop_
_atom_site_type_symbol
_atom_site_label
_atom_site_fract_x
_atom_site_fract_y
_atom_site_fract_z
Si Si1 0.151203 0.137274 0.930538
Si Si2 0.997699 0.089415 0.686313
Si Si3 0.674464 0.324963 0.084310
Si Si4 0.213014 0.739348 0.198257
Si Si5 0.794582 0.008948 0.894203
Si Si6 0.275461 0.107348 0.523105
Si Si7 0.177664 0.043771 0.633132
Si Si8 0.600577 0.936320 0.648515
O O1 0.089716 0.076187 0.817615
O O2 0.981835 0.209935 0.880400
O O3 0.278982 0.255381 0.985418
O O4 0.239203 0.040518 0.037421
O O5 0.842745 0.190520 0.619467
O O6 0.131060 0.116871 0.687628
O O7 0.892646 0.965871 0.599558
O O8 0.690519 0.242418 0.169032
O O9 0.687617 0.470384 0.130184
O O10 0.496878 0.319856 0.944253
O O11 0.263044 0.848043 0.161820
O O12 0.250899 0.597797 0.187499
O O13 0.720449 0.920461 0.785724
O O14 0.000000 0.000000 0.000000
O O15 0.268067 0.120752 0.612340
O O16 0.437935 0.019802 0.591658
O O17 0.000000 0.000000 0.500000
#
# Coordination Sequence:
#
# PCOD9240019 Si02
#       8
#     4   4   4   4   4   4   4   4
#     4  10  18  35  55  85 119 144 195 252 286 335
#     4   9  18  33  56  86 109 150 194 242 284 333
#     4   8  16  31  58  81 111 147 196 245 280 335
#     4   9  16  33  56  83 118 150 196 242 284 342
#     4   9  19  34  58  88 113 146 196 256 295 338
#     4  10  20  36  58  84 118 159 193 233 299 363
#     4  10  18  34  55  84 120 160 195 231 288 362
#     4   9  17  35  55  84 115 153 195 236 302 351
#
# _framework density 22.911127
#
# number of rings (size 3 to 8) (size 9 to 14) (size 15 to 20)
#    0.000    2.750    2.500    0.750    0.000    0.000 
#    9.000    6.250    0.000    0.750    0.000    0.000 
#    0.000    0.000    0.000    0.000    0.000    0.000 
#
# Total GULP energy -178279.887051 kJ/mol
# GULP energy per Si atom -5571.246470 kJ/mol
# Density = 2.285898 g / cm^3
# Si number density = 22.911127 Si / 1000 Ang^3
#
#
#
# Elastic Constant Matrix: (Units=GPa)
#
#
# Indices 1 2 3 4 5 6 
#
# 1 69.1580 15.5693 34.4928 0.0000 -25.5392 0.0000
# 2 15.5693 47.2091 45.6696 0.0000 -3.5060 0.0000
# 3 34.4928 45.6696 180.4430 0.0000 -24.0671 0.0000
# 4 0.0000 0.0000 0.0000 23.0938 0.0000 -3.1191
# 5 -25.5392 -3.5060 -24.0671 0.0000 28.4490 0.0000
# 6 0.0000 0.0000 0.0000 -3.1191 0.0000 8.2575
#
#
#
# Elastic Compliance Matrix: (Units=1/GPa)
#
#
# Indices 1 2 3 4 5 6 
#
# 1 0.023303 -0.005917 -0.000298 0.000000 0.019939 0.000000
# 2 -0.005917 0.029762 -0.007463 0.000000 -0.007957 0.000000
# 3 -0.000298 -0.007463 0.008262 0.000000 0.005802 0.000000
# 4 0.000000 0.000000 0.000000 0.045629 0.000000 0.017235
# 5 0.019939 -0.007957 0.005802 0.000000 0.056978 0.000000
# 6 0.000000 0.000000 0.000000 0.017235 0.000000 0.127612
#
#
# Mechanical properties :
#
#
# Convention : Reuss Voigt Hill
#
# Bulk Modulus (GPa) = 29.43556 54.25262 41.84409
# Shear Modulus (GPa) = 15.14117 25.36530 20.25323
#
# Velocity S-wave (km/s) = 2.57352 3.33095 2.97642
# Velocity P-wave (km/s) = 4.65900 6.20682 5.48775
#
# Compressibility (1/GPa) = 0.03397251
#
# Stress axis : x y z
#
# Youngs Moduli (GPa) = 42.91248 33.59941 121.04215
#
# Poissons Ratio (x) = 0.19879 0.03603
# Poissons Ratio (y) = 0.25389 0.90335
# Poissons Ratio (z) = 0.01277 0.25076
#
# Static dielectric constant tensor:
#      x y z
#    x 1.992320 0.000000 0.028220 
#    y 0.000000 1.890360 0.000000 
#    z 0.028220 0.000000 1.808260 
# 
# From -- ./inp_files/47180.got.cif
#   From: 2010.05.17/outbox.cif.g08.bks.cpg/sg14_24_cif.got.tgz:47180.got - 2010.06.03 17:49:19.
