data_PCOD9240836
_publ_section_title
;
Structure prediction by ZEFSAII (Michael W. Deem and Ramdas Pophale) SiO2 
 PCOD9240836
Probable space group: P 21/C
;
_chemical_formula_sum "Si O2"
_cell_formula_units_Z 28
_cell_length_a 8.195926
_cell_length_b 9.033699
_cell_length_c 13.990545
_cell_angle_alpha 90.000000
_cell_angle_beta 90.019235
_cell_angle_gamma 90.000000
_cell_volume 1035.853297
_symmetry_space_group_name_H-M "P 21/C"
_symmetry_group_IT_number 14
_symmetry_cell_setting 'monoclinic'
loop_
_space_group_symop_operation_xyz
x,y,z
-x,1/2+y,1/2-z
-x,-y,-z
x,1/2-y,1/2+z
loop_
_atom_site_type_symbol
_atom_site_label
_atom_site_fract_x
_atom_site_fract_y
_atom_site_fract_z
Si Si1 0.179519 0.849794 0.319554
Si Si2 0.471628 0.266878 0.498672
Si Si3 0.349598 0.051821 0.653237
Si Si4 0.490032 0.176324 0.207014
Si Si5 0.953824 0.420821 0.772184
Si Si6 0.839214 0.899826 0.086752
Si Si7 0.832227 0.205598 0.978744
O O1 0.353581 0.786393 0.290549
O O2 0.055442 0.746037 0.261467
O O3 0.155959 0.811198 0.429427
O O4 0.130721 0.013987 0.292156
O O5 0.419468 0.114792 0.553332
O O6 0.488612 0.373424 0.594274
O O7 0.327907 0.313430 0.429297
O O8 0.645945 0.264347 0.446242
O O9 0.340205 0.209428 0.710419
O O10 0.174853 0.971599 0.646513
O O11 0.469350 0.945161 0.714300
O O12 0.871252 0.504249 0.680930
O O13 0.830750 0.030436 0.006651
O O14 0.992613 0.790169 0.071998
#
# Coordination Sequence:
#
# PCOD9240836 Si02
#       7
#     4   4   4   4   4   4   4
#     4   9  18  35  52  80 109 135 183 229 267 326
#     4   9  18  34  56  77 111 145 174 229 282 312
#     4   9  18  34  54  81 108 139 186 224 268 324
#     4   8  18  33  53  81 103 139 184 226 265 323
#     4  10  20  34  55  83 107 140 179 232 273 325
#     4  10  19  33  53  81 114 135 185 225 276 324
#     4   9  18  33  50  81 107 142 179 228 270 326
#
# _framework density 27.030856
#
# number of rings (size 3 to 8) (size 9 to 14) (size 15 to 20)
#    0.857    2.000    0.000    2.143    0.000    1.143 
#    7.714    0.000    0.000    8.571    0.000    0.000 
#    0.000    0.000    0.000    0.000    0.000    0.000 
#
# Total GULP energy -156425.559087 kJ/mol
# GULP energy per Si atom -5586.627110 kJ/mol
# Density = 2.696933 g / cm^3
# Si number density = 27.030856 Si / 1000 Ang^3
#
#
#
# Elastic Constant Matrix: (Units=GPa)
#
#
# Indices 1 2 3 4 5 6 
#
# 1 138.3779 17.5852 24.5586 0.0000 14.6210 0.0000
# 2 17.5852 66.1569 12.5017 0.0000 3.9737 0.0000
# 3 24.5586 12.5017 77.1316 0.0000 15.2627 0.0000
# 4 0.0000 0.0000 0.0000 30.4286 0.0000 0.8174
# 5 14.6210 3.9737 15.2627 0.0000 25.2750 0.0000
# 6 0.0000 0.0000 0.0000 0.8174 0.0000 47.3212
#
#
#
# Elastic Compliance Matrix: (Units=1/GPa)
#
#
# Indices 1 2 3 4 5 6 
#
# 1 0.008087 -0.001635 -0.001630 0.000000 -0.003437 0.000000
# 2 -0.001635 0.015948 -0.001994 0.000000 -0.000358 0.000000
# 3 -0.001630 -0.001994 0.015398 0.000000 -0.008042 0.000000
# 4 0.000000 0.000000 0.000000 0.032879 0.000000 -0.000568
# 5 -0.003437 -0.000358 -0.008042 0.000000 0.046466 0.000000
# 6 0.000000 0.000000 0.000000 -0.000568 0.000000 0.021142
#
#
# Mechanical properties :
#
#
# Convention : Reuss Voigt Hill
#
# Bulk Modulus (GPa) = 34.58223 43.43973 39.01098
# Shear Modulus (GPa) = 31.23521 35.73970 33.48745
#
# Velocity S-wave (km/s) = 3.40301 3.64013 3.52356
# Velocity P-wave (km/s) = 5.31620 5.81143 5.56932
#
# Compressibility (1/GPa) = 0.02891659
#
# Stress axis : x y z
#
# Youngs Moduli (GPa) = 123.65909 62.70216 64.94235
#
# Poissons Ratio (x) = 0.10253 0.10584
# Poissons Ratio (y) = 0.20220 0.12947
# Poissons Ratio (z) = 0.20153 0.12500
#
# Static dielectric constant tensor:
#      x y z
#    x 2.098180 0.000000 -0.050600 
#    y 0.000000 2.114610 0.000000 
#    z -0.050600 0.000000 2.161120 
# 
# From -- ./inp_files/55205.got.cif
#   From: 2010.05.17/outbox.cif.g08.bks.cpg/sg14_28_cif.got.tgz:55205.got - 2010.06.03 17:49:19.
