data_PCOD9240209
_publ_section_title
;
Structure prediction by ZEFSAII (Michael W. Deem and Ramdas Pophale) SiO2 
 PCOD9240209
Probable space group: P 21/C
;
_chemical_formula_sum "Si O2"
_cell_formula_units_Z 32
_cell_length_a 7.619482
_cell_length_b 12.701364
_cell_length_c 15.177055
_cell_angle_alpha 90.000000
_cell_angle_beta 67.643404
_cell_angle_gamma 90.000000
_cell_volume 1358.398879
_symmetry_space_group_name_H-M "P 21/C"
_symmetry_group_IT_number 14
_symmetry_cell_setting 'monoclinic'
loop_
_space_group_symop_operation_xyz
x,y,z
-x,1/2+y,1/2-z
-x,-y,-z
x,1/2-y,1/2+z
loop_
_atom_site_type_symbol
_atom_site_label
_atom_site_fract_x
_atom_site_fract_y
_atom_site_fract_z
Si Si1 0.199260 0.179450 0.294291
Si Si2 0.926620 0.644855 0.358966
Si Si3 0.559455 0.249332 0.788826
Si Si4 0.273089 0.957316 0.687827
Si Si5 0.229480 0.734055 0.428646
Si Si6 0.537312 0.476675 0.285789
Si Si7 0.217610 0.982716 0.993083
Si Si8 0.126082 0.929700 0.539643
O O1 0.150648 0.216481 0.205335
O O2 0.332680 0.253033 0.326936
O O3 0.312229 0.069407 0.257550
O O4 0.012230 0.150785 0.382633
O O5 0.772570 0.565699 0.429595
O O6 0.085123 0.569123 0.281779
O O7 0.031367 0.713119 0.413783
O O8 0.630124 0.341117 0.838389
O O9 0.621561 0.284696 0.678536
O O10 0.638314 0.133618 0.786759
O O11 0.415078 0.026126 0.718596
O O12 0.226111 0.993774 0.598696
O O13 0.239782 0.642922 0.500214
O O14 0.253781 0.851108 0.458822
O O15 0.379566 0.492666 0.391166
O O16 0.000000 0.000000 0.000000
O O17 0.000000 0.000000 0.500000
#
# Coordination Sequence:
#
# PCOD9240209 Si02
#       8
#     4   4   4   4   4   4   4   4
#     4  10  22  39  56  90 120 150 204 247 296 365
#     4   9  19  36  62  85 118 152 194 253 303 354
#     4  10  21  39  59  86 119 164 188 247 316 345
#     4   9  20  42  58  85 124 155 198 247 298 362
#     4  10  20  40  59  83 122 152 200 254 294 357
#     4  11  20  38  64  85 125 159 194 250 305 363
#     4  10  18  35  62  89 116 154 201 251 309 350
#     4  11  24  40  63  85 116 166 208 239 289 371
#
# _framework density 23.557144000000001
#
# number of rings (size 3 to 8) (size 9 to 14) (size 15 to 20)
#    0.000    2.000    5.000    0.750    3.500    2.500 
#    2.250   10.625    0.000    0.000    0.000    0.000 
#    0.000    0.000    0.000    0.000    0.000    0.000 
#
# Total GULP energy -178654.455530 kJ/mol
# GULP energy per Si atom -5582.951735 kJ/mol
# Density = 2.350353 g / cm^3
# Si number density = 23.557144 Si / 1000 Ang^3
#
#
#
# Elastic Constant Matrix: (Units=GPa)
#
#
# Indices 1 2 3 4 5 6 
#
# 1 49.1344 -12.9501 17.7987 0.0000 7.8570 0.0000
# 2 -12.9501 55.5804 -2.5584 0.0000 1.7552 0.0000
# 3 17.7987 -2.5584 68.5709 0.0000 19.7280 0.0000
# 4 0.0000 0.0000 0.0000 22.5484 0.0000 -2.9700
# 5 7.8570 1.7552 19.7280 0.0000 36.1303 0.0000
# 6 0.0000 0.0000 0.0000 -2.9700 0.0000 15.0907
#
#
#
# Elastic Compliance Matrix: (Units=1/GPa)
#
#
# Indices 1 2 3 4 5 6 
#
# 1 0.024133 0.005461 -0.005308 0.000000 -0.002615 0.000000
# 2 0.005461 0.019325 -0.000100 0.000000 -0.002072 0.000000
# 3 -0.005308 -0.000100 0.018536 0.000000 -0.008962 0.000000
# 4 0.000000 0.000000 0.000000 0.045529 0.000000 0.008961
# 5 -0.002615 -0.002072 -0.008962 0.000000 0.033240 0.000000
# 6 0.000000 0.000000 0.000000 0.008961 0.000000 0.068029
#
#
# Mechanical properties :
#
#
# Convention : Reuss Voigt Hill
#
# Bulk Modulus (GPa) = 16.10335 19.76290 17.93312
# Shear Modulus (GPa) = 21.79726 26.15360 23.97543
#
# Velocity S-wave (km/s) = 3.04516 3.33561 3.19369
# Velocity P-wave (km/s) = 4.38346 4.82106 4.60746
#
# Compressibility (1/GPa) = 0.06209887
#
# Stress axis : x y z
#
# Youngs Moduli (GPa) = 41.43770 51.74603 53.94968
#
# Poissons Ratio (x) = -0.28259 0.28636
# Poissons Ratio (y) = -0.22629 0.00542
# Poissons Ratio (z) = 0.21995 0.00520
#
# Static dielectric constant tensor:
#      x y z
#    x 1.952850 0.000000 0.037580 
#    y 0.000000 1.898880 0.000000 
#    z 0.037580 0.000000 1.898990 
# 
# From -- ./inp_files/40901.got.cif
#   From: 2010.05.17/outbox.cif.g08.bks.cpg/sg14_21_cif.got.tgz:40901.got - 2010.06.03 17:49:19.
