data_PCOD9240805
_publ_section_title
;
Structure prediction by ZEFSAII (Michael W. Deem and Ramdas Pophale) SiO2 
 PCOD9240805
Probable space group: P 21/C
;
_chemical_formula_sum "Si O2"
_cell_formula_units_Z 32
_cell_length_a 11.488081
_cell_length_b 27.043068
_cell_length_c 5.376101
_cell_angle_alpha 90.000000
_cell_angle_beta 117.998253
_cell_angle_gamma 90.000000
_cell_volume 1474.731090
_symmetry_space_group_name_H-M "P 21/C"
_symmetry_group_IT_number 14
_symmetry_cell_setting 'monoclinic'
loop_
_space_group_symop_operation_xyz
x,y,z
-x,1/2+y,1/2-z
-x,-y,-z
x,1/2-y,1/2+z
loop_
_atom_site_type_symbol
_atom_site_label
_atom_site_fract_x
_atom_site_fract_y
_atom_site_fract_z
Si Si1 0.533205 0.626869 0.016041
Si Si2 0.129349 0.041145 0.913691
Si Si3 0.297343 0.443444 0.087328
Si Si4 0.385427 0.950212 0.675856
Si Si5 0.122817 0.566432 0.586126
Si Si6 0.288251 0.626187 0.451702
Si Si7 0.320702 0.773535 0.777484
Si Si8 0.380113 0.266342 0.841186
O O1 0.393176 0.643624 0.763003
O O2 0.598098 0.675746 0.190261
O O3 0.618908 0.605636 0.874770
O O4 0.503729 0.581408 0.173779
O O5 0.214169 0.050934 0.248861
O O6 0.097831 0.982325 0.892497
O O7 0.205311 0.054708 0.738116
O O8 0.992930 0.069224 0.829609
O O9 0.394942 0.490859 0.203465
O O10 0.259689 0.942042 0.368711
O O11 0.343617 0.924534 0.890278
O O12 0.150133 0.613164 0.438847
O O13 0.293817 0.668205 0.250294
O O14 0.265260 0.748286 0.477356
O O15 0.477482 0.760655 0.961576
O O16 0.313063 0.259580 0.040973
#
# Coordination Sequence:
#
# PCOD9240805 Si02
#       8
#     4   4   4   4   4   4   4   4
#     4  11  23  34  54  84 120 151 181 224 290 351
#     4  10  22  41  57  79 114 150 203 231 270 316
#     4  11  24  38  55  81 117 160 188 230 268 335
#     4  10  21  35  53  84 117 152 188 225 284 342
#     4   9  21  36  59  82 107 152 191 245 273 324
#     4  11  20  33  58  83 115 146 186 228 294 344
#     4  10  19  33  50  77 113 138 176 229 280 339
#     4  10  19  34  53  77 108 142 182 229 273 331
#
# _framework density 21.698871
#
# number of rings (size 3 to 8) (size 9 to 14) (size 15 to 20)
#    0.000    1.750    3.750    1.875    5.250    2.000 
#    0.000    0.000    0.000    0.000    0.000    5.250 
#    0.000    0.000    0.000    0.000    0.000    0.000 
#
# Total GULP energy -178730.503404 kJ/mol
# GULP energy per Si atom -5585.328231 kJ/mol
# Density = 2.164948 g / cm^3
# Si number density = 21.698871 Si / 1000 Ang^3
#
#
#
# Elastic Constant Matrix: (Units=GPa)
#
#
# Indices 1 2 3 4 5 6 
#
# 1 82.7997 39.1902 32.1890 0.0000 -31.6486 0.0000
# 2 39.1902 87.9107 5.4925 0.0000 -13.4142 0.0000
# 3 32.1890 5.4925 84.9259 0.0000 -33.9267 0.0000
# 4 0.0000 0.0000 0.0000 21.3932 0.0000 -16.4371
# 5 -31.6486 -13.4142 -33.9267 0.0000 34.1305 0.0000
# 6 0.0000 0.0000 0.0000 -16.4371 0.0000 20.1310
#
#
#
# Elastic Compliance Matrix: (Units=1/GPa)
#
#
# Indices 1 2 3 4 5 6 
#
# 1 0.022431 -0.007399 -0.001453 0.000000 0.016448 0.000000
# 2 -0.007399 0.014720 0.002360 0.000000 0.001270 0.000000
# 3 -0.001453 0.002360 0.019913 0.000000 0.019374 0.000000
# 4 0.000000 0.000000 0.000000 0.125437 0.000000 0.102421
# 5 0.016448 0.001270 0.019374 0.000000 0.064309 0.000000
# 6 0.000000 0.000000 0.000000 0.102421 0.000000 0.133302
#
#
# Mechanical properties :
#
#
# Convention : Reuss Voigt Hill
#
# Bulk Modulus (GPa) = 22.68622 45.48664 34.08643
# Shear Modulus (GPa) = 12.26123 27.04857 19.65490
#
# Velocity S-wave (km/s) = 2.37968 3.53447 3.01292
# Velocity P-wave (km/s) = 4.24597 6.13717 5.27698
#
# Compressibility (1/GPa) = 0.04407961
#
# Stress axis : x y z
#
# Youngs Moduli (GPa) = 44.58099 67.93461 50.21930
#
# Poissons Ratio (x) = 0.50266 0.07295
# Poissons Ratio (y) = 0.32986 -0.11851
# Poissons Ratio (z) = 0.06476 -0.16031
#
# Static dielectric constant tensor:
#      x y z
#    x 1.819360 0.000000 -0.036480 
#    y 0.000000 1.801400 0.000000 
#    z -0.036480 0.000000 1.871820 
# 
# From -- ./inp_files/3172.got.cif
#   From: 2010.05.17/outbox.cif.g08.bks.cpg/sg14_2_cif.got.tgz:3172.got - 2010.06.03 17:49:19.
