data_PCOD9240052
_publ_section_title
;
Structure prediction by ZEFSAII (Michael W. Deem and Ramdas Pophale) SiO2 
 PCOD9240052
Probable space group: P 21/C
;
_chemical_formula_sum "Si O2"
_cell_formula_units_Z 32
_cell_length_a 8.229443
_cell_length_b 6.909085
_cell_length_c 20.081610
_cell_angle_alpha 90.000000
_cell_angle_beta 103.517052
_cell_angle_gamma 90.000000
_cell_volume 1110.171235
_symmetry_space_group_name_H-M "P 21/C"
_symmetry_group_IT_number 14
_symmetry_cell_setting 'monoclinic'
loop_
_space_group_symop_operation_xyz
x,y,z
-x,1/2+y,1/2-z
-x,-y,-z
x,1/2-y,1/2+z
loop_
_atom_site_type_symbol
_atom_site_label
_atom_site_fract_x
_atom_site_fract_y
_atom_site_fract_z
Si Si1 0.913761 0.303992 0.889124
Si Si2 0.884445 0.640098 0.342336
Si Si3 0.501819 0.781321 0.278278
Si Si4 0.410054 0.108697 0.857203
Si Si5 0.825278 0.277477 0.528318
Si Si6 0.854855 0.066329 0.242967
Si Si7 0.275808 0.266959 0.469590
Si Si8 0.467862 0.831129 0.407001
O O1 0.895584 0.451939 0.825071
O O2 0.103405 0.319631 0.930674
O O3 0.879068 0.091172 0.855280
O O4 0.824643 0.299237 0.952801
O O5 0.693669 0.707678 0.309413
O O6 0.992509 0.715723 0.417101
O O7 0.000566 0.665417 0.286975
O O8 0.321165 0.679378 0.267332
O O9 0.477456 0.934538 0.336497
O O10 0.499893 0.844401 0.202122
O O11 0.215325 0.094732 0.815506
O O12 0.472713 0.900021 0.888078
O O13 0.409474 0.239576 0.922012
O O14 0.763864 0.504396 0.520471
O O15 0.697708 0.166502 0.565058
O O16 0.363685 0.155032 0.536741
#
# Coordination Sequence:
#
# PCOD9240052 Si02
#       8
#     4   4   4   4   4   4   4   4
#     4  11  22  35  62  90 124 158 198 255 313 364
#     4  11  21  40  59  90 119 157 203 251 314 358
#     4  11  23  36  61  85 125 167 193 248 313 366
#     4  10  20  38  58  89 123 157 199 249 306 362
#     4  10  18  34  57  87 123 146 196 262 303 349
#     4  11  24  39  55  93 128 156 203 251 304 376
#     4  10  18  34  59  88 117 149 204 261 299 347
#     4  10  20  36  58  93 122 153 202 259 304 358
#
# _framework density 28.824383999999998
#
# number of rings (size 3 to 8) (size 9 to 14) (size 15 to 20)
#    0.000    1.500    5.000    5.250    7.000    0.000 
#    0.000    0.000    0.000    3.750    0.000    0.000 
#    0.000    0.000    0.000    0.000    0.000    0.000 
#
# Total GULP energy -178951.776696 kJ/mol
# GULP energy per Si atom -5592.243022 kJ/mol
# Density = 2.875878 g / cm^3
# Si number density = 28.824384 Si / 1000 Ang^3
#
#
#
# Elastic Constant Matrix: (Units=GPa)
#
#
# Indices 1 2 3 4 5 6 
#
# 1 185.8690 39.9589 53.4205 0.0000 -19.0282 0.0000
# 2 39.9589 78.3650 36.3532 0.0000 -2.9497 0.0000
# 3 53.4205 36.3532 162.9779 0.0000 -21.2269 0.0000
# 4 0.0000 0.0000 0.0000 22.1240 0.0000 3.3969
# 5 -19.0282 -2.9497 -21.2269 0.0000 78.3461 0.0000
# 6 0.0000 0.0000 0.0000 3.3969 0.0000 42.4350
#
#
#
# Elastic Compliance Matrix: (Units=1/GPa)
#
#
# Indices 1 2 3 4 5 6 
#
# 1 0.006452 -0.002603 -0.001392 0.000000 0.001092 0.000000
# 2 -0.002603 0.015292 -0.002659 0.000000 -0.000777 0.000000
# 3 -0.001392 -0.002659 0.007389 0.000000 0.001564 0.000000
# 4 0.000000 0.000000 0.000000 0.045762 0.000000 -0.003663
# 5 0.001092 -0.000777 0.001564 0.000000 0.013423 0.000000
# 6 0.000000 0.000000 0.000000 -0.003663 0.000000 0.023859
#
#
# Mechanical properties :
#
#
# Convention : Reuss Voigt Hill
#
# Bulk Modulus (GPa) = 63.19116 76.29747 69.74431
# Shear Modulus (GPa) = 38.23809 48.41297 43.32553
#
# Velocity S-wave (km/s) = 3.64619 4.10272 3.88117
# Velocity P-wave (km/s) = 6.30053 6.99788 6.65834
#
# Compressibility (1/GPa) = 0.01582500
#
# Stress axis : x y z
#
# Youngs Moduli (GPa) = 155.00209 65.39230 135.33972
#
# Poissons Ratio (x) = 0.17021 0.18838
# Poissons Ratio (y) = 0.40346 0.35988
# Poissons Ratio (z) = 0.21574 0.17388
#
# Static dielectric constant tensor:
#      x y z
#    x 2.157430 0.000000 -0.090030 
#    y 0.000000 2.627160 0.000000 
#    z -0.090030 0.000000 2.353180 
# 
# From -- ./inp_files/55451.got.cif
#   From: 2010.05.17/outbox.cif.g08.bks.cpg/sg14_28_cif.got.tgz:55451.got - 2010.06.03 17:49:19.
