data_PCOD9240323
_publ_section_title
;
Structure prediction by ZEFSAII (Michael W. Deem and Ramdas Pophale) SiO2 
 PCOD9240323
Probable space group: P 21/C
;
_chemical_formula_sum "Si O2"
_cell_formula_units_Z 28
_cell_length_a 6.891020
_cell_length_b 12.239374
_cell_length_c 13.355684
_cell_angle_alpha 90.000000
_cell_angle_beta 106.170301
_cell_angle_gamma 90.000000
_cell_volume 1081.877934
_symmetry_space_group_name_H-M "P 21/C"
_symmetry_group_IT_number 14
_symmetry_cell_setting 'monoclinic'
loop_
_space_group_symop_operation_xyz
x,y,z
-x,1/2+y,1/2-z
-x,-y,-z
x,1/2-y,1/2+z
loop_
_atom_site_type_symbol
_atom_site_label
_atom_site_fract_x
_atom_site_fract_y
_atom_site_fract_z
Si Si1 0.993506 0.527698 0.784010
Si Si2 0.964381 0.813505 0.443946
Si Si3 0.506495 0.972302 0.215990
Si Si4 0.535620 0.813505 0.056054
Si Si5 0.750000 0.834877 0.750000
Si Si6 0.028019 0.109906 0.938740
Si Si7 0.471979 0.390094 0.061260
O O1 0.065706 0.589702 0.894561
O O2 0.750001 0.517042 0.750000
O O3 0.036777 0.588291 0.684837
O O4 0.098201 0.411657 0.788694
O O5 0.875884 0.738713 0.342490
O O6 0.062290 0.723895 0.531239
O O7 0.769074 0.866211 0.468891
O O8 0.434295 0.910298 0.105438
O O9 0.401801 0.088343 0.211306
O O10 0.463225 0.911709 0.315163
O O11 0.624117 0.738714 0.157511
O O12 0.730928 0.866211 0.031110
O O13 0.437712 0.723895 0.968762
O O14 0.000000 0.000000 0.000000
O O15 0.500000 0.500000 0.000000
#
# Coordination Sequence:
#
# PCOD9240323 Si02
#       7
#     4   4   4   4   4   4   4
#     4  10  22  41  61  91 122 159 201 247 301 356
#     4  10  21  38  60  88 125 158 194 254 299 346
#     4  10  22  41  61  91 122 159 201 247 301 356
#     4  10  21  38  60  88 125 158 194 254 299 346
#     4  12  20  40  66  84 124 162 198 244 300 358
#     4  10  18  36  65  85 120 162 195 247 304 347
#     4  10  18  36  65  85 120 162 195 247 304 347
#
# _framework density 25.880922000000002
#
# number of rings (size 3 to 8) (size 9 to 14) (size 15 to 20)
#    0.000    1.714    7.143    0.000    0.000    0.000 
#    2.571   14.286    0.000    0.000    0.000    0.000 
#    0.000    0.000    0.000    0.000    0.000    0.000 
#
# Total GULP energy -156875.045717 kJ/mol
# GULP energy per Si atom -5602.680204 kJ/mol
# Density = 2.582202 g / cm^3
# Si number density = 25.880922 Si / 1000 Ang^3
#
#
#
# Elastic Constant Matrix: (Units=GPa)
#
#
# Indices 1 2 3 4 5 6 
#
# 1 79.2763 48.5514 24.8978 0.0000 -9.4769 0.0000
# 2 48.5514 161.6131 48.3722 0.0000 -25.3834 0.0000
# 3 24.8978 48.3722 106.5654 0.0000 -23.8645 0.0000
# 4 0.0000 0.0000 0.0000 65.2103 0.0000 -13.2675
# 5 -9.4769 -25.3834 -23.8645 0.0000 42.6364 0.0000
# 6 0.0000 0.0000 0.0000 -13.2675 0.0000 62.5707
#
#
#
# Elastic Compliance Matrix: (Units=1/GPa)
#
#
# Indices 1 2 3 4 5 6 
#
# 1 0.015742 -0.004198 -0.001770 0.000000 0.000009 0.000000
# 2 -0.004198 0.008583 -0.002264 0.000000 0.002910 0.000000
# 3 -0.001770 -0.002264 0.011931 0.000000 0.004937 0.000000
# 4 0.000000 0.000000 0.000000 0.016026 0.000000 0.003398
# 5 0.000009 0.002910 0.004937 0.000000 0.027952 0.000000
# 6 0.000000 0.000000 0.000000 0.003398 0.000000 0.016702
#
#
# Mechanical properties :
#
#
# Convention : Reuss Voigt Hill
#
# Bulk Modulus (GPa) = 50.52566 65.67752 58.10159
# Shear Modulus (GPa) = 41.66734 49.12572 45.39653
#
# Velocity S-wave (km/s) = 4.01679 4.36150 4.19269
# Velocity P-wave (km/s) = 6.40917 7.12709 6.77765
#
# Compressibility (1/GPa) = 0.01979193
#
# Stress axis : x y z
#
# Youngs Moduli (GPa) = 63.52369 116.50487 83.81801
#
# Poissons Ratio (x) = 0.48908 0.14840
# Poissons Ratio (y) = 0.26667 0.18974
# Poissons Ratio (z) = 0.11247 0.26373
#
# Static dielectric constant tensor:
#      x y z
#    x 2.138000 0.000000 -0.062290 
#    y 0.000000 2.004840 0.000000 
#    z -0.062290 0.000000 2.033250 
# 
# From -- ./inp_files/39671.got.cif
#   From: 2010.05.17/outbox.cif.g08.bks.cpg/sg14_20_cif.got.tgz:39671.got - 2010.06.03 17:49:19.
