data_PCOD9240806
_publ_section_title
;
Structure prediction by ZEFSAII (Michael W. Deem and Ramdas Pophale) SiO2 
 PCOD9240806
Probable space group: P 21/C
;
_chemical_formula_sum "Si O2"
_cell_formula_units_Z 20
_cell_length_a 28.053013
_cell_length_b 5.474750
_cell_length_c 5.013994
_cell_angle_alpha 90.000000
_cell_angle_beta 90.235234
_cell_angle_gamma 90.000000
_cell_volume 770.058918
_symmetry_space_group_name_H-M "P 21/C"
_symmetry_group_IT_number 14
_symmetry_cell_setting 'monoclinic'
loop_
_space_group_symop_operation_xyz
x,y,z
-x,1/2+y,1/2-z
-x,-y,-z
x,1/2-y,1/2+z
loop_
_atom_site_type_symbol
_atom_site_label
_atom_site_fract_x
_atom_site_fract_y
_atom_site_fract_z
Si Si1 0.253168 0.598534 0.066371
Si Si2 0.552002 0.403913 0.931088
Si Si3 0.850455 0.904971 0.580764
Si Si4 0.350481 0.925237 0.418036
Si Si5 0.051688 0.097447 0.575688
O O1 0.256632 0.661890 0.376451
O O2 0.200672 0.509523 0.994563
O O3 0.299965 0.447332 0.977480
O O4 0.554946 0.335291 0.622118
O O5 0.599157 0.553503 0.019443
O O6 0.500000 0.500000 0.000000
O O7 0.852036 0.833602 0.888851
O O8 0.899616 0.041482 0.504284
O O9 0.350583 0.801340 0.129814
O O10 0.053893 0.336768 0.385092
O O11 0.000000 0.000000 0.500000
#
# Coordination Sequence:
#
# PCOD9240806 Si02
#       5
#     4   4   4   4   4
#     4  10  19  33  54  76  95 128 174 205 231 290
#     4  10  19  33  51  72  99 130 163 203 247 292
#     4  10  21  36  51  74 107 134 155 200 261 294
#     4   8  16  30  48  69  96 127 160 200 244 284
#     4  10  21  36  54  75 102 133 166 202 245 292
#
# _framework density 25.972038999999999
#
# number of rings (size 3 to 8) (size 9 to 14) (size 15 to 20)
#    0.000    2.400    0.000    2.400    0.000    1.600 
#    0.000    2.000    0.000    0.000    0.000    0.000 
#    0.000    0.000    0.000    0.000    0.000    0.000 
#
# Total GULP energy -111635.784126 kJ/mol
# GULP energy per Si atom -5581.789206 kJ/mol
# Density = 2.591293 g / cm^3
# Si number density = 25.972039 Si / 1000 Ang^3
#
#
#
# Elastic Constant Matrix: (Units=GPa)
#
#
# Indices 1 2 3 4 5 6 
#
# 1 319.5760 26.8676 16.2507 0.0000 5.9240 0.0000
# 2 26.8676 22.6515 16.6329 0.0000 -1.3758 0.0000
# 3 16.2507 16.6329 96.8328 0.0000 11.2842 0.0000
# 4 0.0000 0.0000 0.0000 29.1087 0.0000 -0.0947
# 5 5.9240 -1.3758 11.2842 0.0000 54.5009 0.0000
# 6 0.0000 0.0000 0.0000 -0.0947 0.0000 21.2095
#
#
#
# Elastic Compliance Matrix: (Units=1/GPa)
#
#
# Indices 1 2 3 4 5 6 
#
# 1 0.003492 -0.004337 0.000221 0.000000 -0.000535 0.000000
# 2 -0.004337 0.056439 -0.009415 0.000000 0.003845 0.000000
# 3 0.000221 -0.009415 0.012233 0.000000 -0.002794 0.000000
# 4 0.000000 0.000000 0.000000 0.034354 0.000000 0.000153
# 5 -0.000535 0.003845 -0.002794 0.000000 0.019082 0.000000
# 6 0.000000 0.000000 0.000000 0.000153 0.000000 0.047149
#
#
# Mechanical properties :
#
#
# Convention : Reuss Voigt Hill
#
# Bulk Modulus (GPa) = 22.17187 62.06250 42.11719
# Shear Modulus (GPa) = 23.27253 46.25111 34.76182
#
# Velocity S-wave (km/s) = 2.99668 4.22454 3.66243
# Velocity P-wave (km/s) = 4.53087 6.90966 5.84261
#
# Compressibility (1/GPa) = 0.04510219
#
# Stress axis : x y z
#
# Youngs Moduli (GPa) = 286.32998 17.71836 81.74789
#
# Poissons Ratio (x) = 0.07685 -0.01809
# Poissons Ratio (y) = 1.24195 0.76962
# Poissons Ratio (z) = -0.06336 0.16681
#
# Static dielectric constant tensor:
#      x y z
#    x 2.199910 0.000000 -0.024300 
#    y 0.000000 2.108750 0.000000 
#    z -0.024300 0.000000 1.924030 
# 
# From -- ./inp_files/4310.got.cif
#   From: 2010.05.17/outbox.cif.g08.bks.cpg/sg14_3_cif.got.tgz:4310.got - 2010.06.03 17:49:19.
