data_PCOD9240525
_publ_section_title
;
Structure prediction by ZEFSAII (Michael W. Deem and Ramdas Pophale) SiO2 
 PCOD9240525
Probable space group: P 21/C
;
_chemical_formula_sum "Si O2"
_cell_formula_units_Z 30
_cell_length_a 9.069041
_cell_length_b 9.355097
_cell_length_c 27.789950
_cell_angle_alpha 90.000000
_cell_angle_beta 141.373228
_cell_angle_gamma 90.000000
_cell_volume 1471.811834
_symmetry_space_group_name_H-M "P 21/C"
_symmetry_group_IT_number 14
_symmetry_cell_setting 'monoclinic'
loop_
_space_group_symop_operation_xyz
x,y,z
-x,1/2+y,1/2-z
-x,-y,-z
x,1/2-y,1/2+z
loop_
_atom_site_type_symbol
_atom_site_label
_atom_site_fract_x
_atom_site_fract_y
_atom_site_fract_z
Si Si1 0.724274 0.060557 0.150413
Si Si2 0.920209 0.752312 0.215285
Si Si3 0.764894 0.583611 0.424859
Si Si4 0.476137 0.188421 0.309339
Si Si5 0.500000 0.500000 0.500000
Si Si6 0.001460 0.352357 0.972822
Si Si7 0.107076 0.257481 0.399002
Si Si8 0.636464 0.054291 0.793061
O O1 0.458512 0.030782 0.101035
O O2 0.827684 0.198873 0.202213
O O3 0.881563 0.922554 0.203372
O O4 0.702175 0.068122 0.087767
O O5 0.729816 0.693062 0.204310
O O6 0.877731 0.694611 0.150582
O O7 0.706347 0.550666 0.354839
O O8 0.000000 0.500000 0.500000
O O9 0.829055 0.744644 0.455136
O O10 0.730053 0.201707 0.400171
O O11 0.460879 0.326302 0.270248
O O12 0.461897 0.043530 0.274628
O O13 0.331475 0.358428 0.464164
O O14 0.083147 0.349526 0.937851
O O15 0.000000 0.500000 0.000000
O O16 0.869442 0.355062 0.338739
#
# Coordination Sequence:
#
# PCOD9240525 Si02
#       8
#     4   4   4   4   2   4   4   4
#     4  11  23  40  71  98 136 178 228 287 345 423
#     4  11  24  42  67  99 136 174 221 288 349 415
#     4  12  21  44  68  96 131 183 232 280 341 417
#     4  11  24  44  65 101 132 175 228 281 348 416
#     4  10  18  40  68  94 128 184 230 270 342 430
#     4  11  25  42  68  99 139 175 234 292 343 408
#     4  10  22  42  68  97 137 180 233 278 350 424
#     4  11  24  41  69  96 129 177 226 280 336 416
#
# _framework density 20.383037999999999
#
# number of rings (size 3 to 8) (size 9 to 14) (size 15 to 20)
#    0.000    1.067    5.333    1.600    5.600    2.133 
#    0.000    0.667    0.000    0.000    0.000    0.000 
#    0.000    0.000    0.000    0.000    0.000    0.000 
#
# Total GULP energy -167020.440778 kJ/mol
# GULP energy per Si atom -5567.348026 kJ/mol
# Density = 2.033665 g / cm^3
# Si number density = 20.383038 Si / 1000 Ang^3
#
#
#
# Elastic Constant Matrix: (Units=GPa)
#
#
# Indices 1 2 3 4 5 6 
#
# 1 73.4565 24.1775 12.0129 0.0000 -22.0093 0.0000
# 2 24.1775 92.8941 33.7313 0.0000 -19.2264 0.0000
# 3 12.0129 33.7313 70.3685 0.0000 -7.4313 0.0000
# 4 0.0000 0.0000 0.0000 32.0819 0.0000 -6.0883
# 5 -22.0093 -19.2264 -7.4313 0.0000 23.8886 0.0000
# 6 0.0000 0.0000 0.0000 -6.0883 0.0000 30.2086
#
#
#
# Elastic Compliance Matrix: (Units=1/GPa)
#
#
# Indices 1 2 3 4 5 6 
#
# 1 0.019048 -0.001255 -0.000934 0.000000 0.016248 0.000000
# 2 -0.001255 0.015210 -0.006107 0.000000 0.009185 0.000000
# 3 -0.000934 -0.006107 0.017255 0.000000 -0.000408 0.000000
# 4 0.000000 0.000000 0.000000 0.032410 0.000000 0.006532
# 5 0.016248 0.009185 -0.000408 0.000000 0.064097 0.000000
# 6 0.000000 0.000000 0.000000 0.006532 0.000000 0.034420
#
#
# Mechanical properties :
#
#
# Convention : Reuss Voigt Hill
#
# Bulk Modulus (GPa) = 28.63667 41.84028 35.23848
# Shear Modulus (GPa) = 23.73363 28.35565 26.04464
#
# Velocity S-wave (km/s) = 3.41600 3.73384 3.57846
# Velocity P-wave (km/s) = 5.44413 6.25782 5.86511
#
# Compressibility (1/GPa) = 0.03492026
#
# Stress axis : x y z
#
# Youngs Moduli (GPa) = 52.49925 65.74516 57.95580
#
# Poissons Ratio (x) = 0.08254 0.05413
# Poissons Ratio (y) = 0.06591 0.35392
# Poissons Ratio (z) = 0.04904 0.40149
#
# Static dielectric constant tensor:
#      x y z
#    x 1.783260 0.000000 -0.022660 
#    y 0.000000 1.718660 0.000000 
#    z -0.022660 0.000000 1.720930 
# 
# From -- ./inp_files/79514.got.cif
#   From: 2010.05.17/outbox.cif.g08.bks.cpg/sg14_40_cif.got.tgz:79514.got - 2010.06.03 17:49:19.
