data_PCOD9240722
_publ_section_title
;
Structure prediction by ZEFSAII (Michael W. Deem and Ramdas Pophale) SiO2 
 PCOD9240722
Probable space group: P 21/C
;
_chemical_formula_sum "Si O2"
_cell_formula_units_Z 32
_cell_length_a 8.270758
_cell_length_b 11.802856
_cell_length_c 21.668486
_cell_angle_alpha 90.000000
_cell_angle_beta 56.334801
_cell_angle_gamma 90.000000
_cell_volume 1760.500595
_symmetry_space_group_name_H-M "P 21/C"
_symmetry_group_IT_number 14
_symmetry_cell_setting 'monoclinic'
loop_
_space_group_symop_operation_xyz
x,y,z
-x,1/2+y,1/2-z
-x,-y,-z
x,1/2-y,1/2+z
loop_
_atom_site_type_symbol
_atom_site_label
_atom_site_fract_x
_atom_site_fract_y
_atom_site_fract_z
Si Si1 0.682586 0.441663 0.044545
Si Si2 0.143704 0.594016 0.794235
Si Si3 0.254845 0.298526 0.279756
Si Si4 0.308780 0.743105 0.864640
Si Si5 0.751221 0.019964 0.392461
Si Si6 0.671545 0.590404 0.164729
Si Si7 0.109021 0.787658 0.719290
Si Si8 0.235052 0.936865 0.796731
O O1 0.712424 0.315039 0.064490
O O2 0.454804 0.463828 0.078387
O O3 0.735465 0.528679 0.088521
O O4 0.785209 0.466449 0.958326
O O5 0.168275 0.672809 0.848903
O O6 0.259080 0.482439 0.790260
O O7 0.210066 0.673941 0.724320
O O8 0.924000 0.556488 0.829627
O O9 0.470870 0.286027 0.204565
O O10 0.257059 0.217163 0.339144
O O11 0.211505 0.428992 0.304189
O O12 0.093206 0.249561 0.267978
O O13 0.260114 0.872163 0.856785
O O14 0.771191 0.142343 0.356594
O O15 0.439222 0.585766 0.218230
O O16 0.085041 0.872248 0.783171
#
# Coordination Sequence:
#
# PCOD9240722 Si02
#       8
#     4   4   4   4   4   4   4   4
#     4  10  20  36  55  78 119 139 187 225 278 337
#     4  10  19  33  50  79 107 137 182 223 276 319
#     4  11  19  31  53  78 110 141 186 224 282 316
#     4   9  19  33  52  77 107 147 173 231 269 326
#     4  11  21  34  54  88 107 151 176 230 285 321
#     4  10  19  32  52  79 106 143 176 227 272 320
#     4  11  20  31  52  78 112 134 183 227 272 330
#     4  10  19  33  51  78 112 137 184 223 277 321
#
# _framework density 18.176649000000001
#
# number of rings (size 3 to 8) (size 9 to 14) (size 15 to 20)
#    0.000    1.750    5.000    1.500    0.000    2.000 
#    0.000    0.000    0.000    0.750    3.250    5.250 
#    0.000    0.000    0.000    0.000    0.000    0.000 
#
# Total GULP energy -178281.868948 kJ/mol
# GULP energy per Si atom -5571.308405 kJ/mol
# Density = 1.813528 g / cm^3
# Si number density = 18.176649 Si / 1000 Ang^3
#
#
#
# Elastic Constant Matrix: (Units=GPa)
#
#
# Indices 1 2 3 4 5 6 
#
# 1 63.5433 45.0137 8.8411 0.0000 14.6194 0.0000
# 2 45.0137 135.9415 28.2408 0.0000 19.2206 0.0000
# 3 8.8411 28.2408 49.3352 0.0000 23.3661 0.0000
# 4 0.0000 0.0000 0.0000 20.0829 0.0000 8.7601
# 5 14.6194 19.2206 23.3661 0.0000 23.4784 0.0000
# 6 0.0000 0.0000 0.0000 8.7601 0.0000 32.6655
#
#
#
# Elastic Compliance Matrix: (Units=1/GPa)
#
#
# Indices 1 2 3 4 5 6 
#
# 1 0.023420 -0.007013 0.007576 0.000000 -0.016382 0.000000
# 2 -0.007013 0.010645 -0.005254 0.000000 0.000881 0.000000
# 3 0.007576 -0.005254 0.041836 0.000000 -0.042052 0.000000
# 4 0.000000 0.000000 0.000000 0.056390 0.000000 -0.015122
# 5 -0.016382 0.000881 -0.042052 0.000000 0.093922 0.000000
# 6 0.000000 0.000000 0.000000 -0.015122 0.000000 0.034669
#
#
# Mechanical properties :
#
#
# Convention : Reuss Voigt Hill
#
# Bulk Modulus (GPa) = 15.03318 45.89013 30.46166
# Shear Modulus (GPa) = 17.09774 26.36033 21.72903
#
# Velocity S-wave (km/s) = 3.07032 3.81232 3.46126
# Velocity P-wave (km/s) = 4.56702 6.68431 5.72441
#
# Compressibility (1/GPa) = 0.06651951
#
# Stress axis : x y z
#
# Youngs Moduli (GPa) = 42.69895 93.94015 23.90290
#
# Poissons Ratio (x) = 0.65876 -0.18109
# Poissons Ratio (y) = 0.29943 0.12559
# Poissons Ratio (z) = -0.32348 0.49356
#
# Static dielectric constant tensor:
#      x y z
#    x 1.681710 0.000000 0.020850 
#    y 0.000000 1.665710 0.000000 
#    z 0.020850 0.000000 1.625070 
# 
# From -- ./inp_files/65425.got.cif
#   From: 2010.05.17/outbox.cif.g08.bks.cpg/sg14_33_cif.got.tgz:65425.got - 2010.06.03 17:49:19.
