data_PCOD9240028
_publ_section_title
;
Structure prediction by ZEFSAII (Michael W. Deem and Ramdas Pophale) SiO2 
 PCOD9240028
Probable space group: P 21/C
;
_chemical_formula_sum "Si O2"
_cell_formula_units_Z 28
_cell_length_a 7.746221
_cell_length_b 11.866437
_cell_length_c 14.236340
_cell_angle_alpha 90.000000
_cell_angle_beta 71.367112
_cell_angle_gamma 90.000000
_cell_volume 1240.014684
_symmetry_space_group_name_H-M "P 21/C"
_symmetry_group_IT_number 14
_symmetry_cell_setting 'monoclinic'
loop_
_space_group_symop_operation_xyz
x,y,z
-x,1/2+y,1/2-z
-x,-y,-z
x,1/2-y,1/2+z
loop_
_atom_site_type_symbol
_atom_site_label
_atom_site_fract_x
_atom_site_fract_y
_atom_site_fract_z
Si Si1 0.394706 0.909247 0.456284
Si Si2 0.978260 0.730365 0.413025
Si Si3 0.253640 0.809673 0.028211
Si Si4 0.075230 0.491621 0.113904
Si Si5 0.214422 0.463216 0.468916
Si Si6 0.321685 0.086910 0.743570
Si Si7 0.934558 0.795561 0.708792
O O1 0.408882 0.784712 0.499557
O O2 0.479702 0.909785 0.338294
O O3 0.500000 0.000000 0.500000
O O4 0.190344 0.949876 0.511008
O O5 0.956279 0.863163 0.406083
O O6 0.809492 0.663923 0.489727
O O7 0.156244 0.708155 0.444002
O O8 0.989596 0.684481 0.306292
O O9 0.299697 0.941538 0.021870
O O10 0.099370 0.773553 0.129910
O O11 0.196003 0.479778 0.189355
O O12 0.918811 0.582417 0.163621
O O13 0.304175 0.462512 0.350776
O O14 0.000000 0.500000 0.500000
O O15 0.238160 0.213301 0.763561
#
# Coordination Sequence:
#
# PCOD9240028 Si02
#       7
#     4   4   4   4   4   4   4
#     4   9  20  37  57  80 115 151 187 230 294 355
#     4  10  20  32  58  88 112 143 197 249 283 333
#     4  10  20  37  57  85 112 151 193 240 285 349
#     4   9  19  34  56  85 114 147 192 238 290 345
#     4  10  18  34  56  80 112 144 195 237 282 335
#     4  10  18  36  56  83 110 157 185 233 297 344
#     4  10  19  32  59  81 111 147 190 238 288 339
#
# _framework density 22.580375
#
# number of rings (size 3 to 8) (size 9 to 14) (size 15 to 20)
#    0.000    2.286    2.857    1.714    2.000    2.286 
#    2.571    0.000    6.286    7.714    0.000    0.000 
#    0.000    0.000    0.000    0.000    0.000    0.000 
#
# Total GULP energy -156177.668420 kJ/mol
# GULP energy per Si atom -5577.773872 kJ/mol
# Density = 2.252898 g / cm^3
# Si number density = 22.580375 Si / 1000 Ang^3
#
#
#
# Elastic Constant Matrix: (Units=GPa)
#
#
# Indices 1 2 3 4 5 6 
#
# 1 16.5927 18.5893 15.3353 0.0000 -1.6799 0.0000
# 2 18.5893 149.4132 47.2254 0.0000 -18.3014 0.0000
# 3 15.3353 47.2254 158.6385 0.0000 -9.4050 0.0000
# 4 0.0000 0.0000 0.0000 31.1388 0.0000 -4.6881
# 5 -1.6799 -18.3014 -9.4050 0.0000 25.6484 0.0000
# 6 0.0000 0.0000 0.0000 -4.6881 0.0000 31.6937
#
#
#
# Elastic Compliance Matrix: (Units=1/GPa)
#
#
# Indices 1 2 3 4 5 6 
#
# 1 0.073382 -0.007904 -0.004897 0.000000 -0.002629 0.000000
# 2 -0.007904 0.008802 -0.001548 0.000000 0.005195 0.000000
# 3 -0.004897 -0.001548 0.007312 0.000000 0.001256 0.000000
# 4 0.000000 0.000000 0.000000 0.032846 0.000000 0.004858
# 5 -0.002629 0.005195 0.001256 0.000000 0.042984 0.000000
# 6 0.000000 0.000000 0.000000 0.004858 0.000000 0.032271
#
#
# Mechanical properties :
#
#
# Convention : Reuss Voigt Hill
#
# Bulk Modulus (GPa) = 16.44777 54.10492 35.27635
# Shear Modulus (GPa) = 20.27893 33.92912 27.10403
#
# Velocity S-wave (km/s) = 3.00005 3.88054 3.46834
# Velocity P-wave (km/s) = 4.39321 6.64011 5.62989
#
# Compressibility (1/GPa) = 0.06079851
#
# Stress axis : x y z
#
# Youngs Moduli (GPa) = 13.62728 113.61121 136.75538
#
# Poissons Ratio (x) = 0.89801 0.66963
# Poissons Ratio (y) = 0.10771 0.21172
# Poissons Ratio (z) = 0.06673 0.17589
#
# Static dielectric constant tensor:
#      x y z
#    x 1.931730 0.000000 0.005920 
#    y 0.000000 1.963700 0.000000 
#    z 0.005920 0.000000 1.820030 
# 
# From -- ./inp_files/40221.got.cif
#   From: 2010.05.17/outbox.cif.g08.bks.cpg/sg14_21_cif.got.tgz:40221.got - 2010.06.03 17:49:19.
