data_PCOD9240256
_publ_section_title
;
Structure prediction by ZEFSAII (Michael W. Deem and Ramdas Pophale) SiO2 
 PCOD9240256
Probable space group: P 21/C
;
_chemical_formula_sum "Si O2"
_cell_formula_units_Z 32
_cell_length_a 18.156534
_cell_length_b 9.532971
_cell_length_c 16.180271
_cell_angle_alpha 90.000000
_cell_angle_beta 151.063667
_cell_angle_gamma 90.000000
_cell_volume 1355.022436
_symmetry_space_group_name_H-M "P 21/C"
_symmetry_group_IT_number 14
_symmetry_cell_setting 'monoclinic'
loop_
_space_group_symop_operation_xyz
x,y,z
-x,1/2+y,1/2-z
-x,-y,-z
x,1/2-y,1/2+z
loop_
_atom_site_type_symbol
_atom_site_label
_atom_site_fract_x
_atom_site_fract_y
_atom_site_fract_z
Si Si1 0.905749 0.148256 0.809906
Si Si2 0.559252 0.848036 0.668189
Si Si3 0.325198 0.415244 0.905251
Si Si4 0.823649 0.506073 0.471305
Si Si5 0.161547 0.144311 0.750507
Si Si6 0.728461 0.922433 0.327675
Si Si7 0.958779 0.103137 0.265280
Si Si8 0.188671 0.720497 0.118956
O O1 0.901571 0.237281 0.721370
O O2 0.830544 0.250614 0.802891
O O3 0.082239 0.110004 0.995592
O O4 0.831782 0.998971 0.750959
O O5 0.608818 0.882013 0.621299
O O6 0.582526 0.679123 0.697027
O O7 0.422283 0.959128 0.543582
O O8 0.680862 0.901739 0.855012
O O9 0.278932 0.263614 0.896537
O O10 0.937190 0.454797 0.652947
O O11 0.757627 0.367389 0.364719
O O12 0.202102 0.111843 0.694984
O O13 0.985416 0.195439 0.580854
O O14 0.149554 0.000801 0.788992
O O15 0.868734 0.901045 0.530147
O O16 0.706362 0.090264 0.302028
#
# Coordination Sequence:
#
# PCOD9240256 Si02
#       8
#     4   4   4   4   4   4   4   4
#     4  12  20  38  59  87 113 158 207 254 299 372
#     4  10  21  40  59  90 119 155 201 253 306 368
#     4  10  21  37  65  85 115 161 206 245 304 375
#     4  12  24  35  59  89 122 152 208 266 307 362
#     4  10  18  36  57  89 118 156 198 246 303 369
#     4  10  19  35  59  85 125 154 192 249 307 365
#     4  11  23  35  57  91 123 158 201 259 317 359
#     4  11  19  34  58  89 116 155 199 256 305 355
#
# _framework density 23.615846000000001
#
# number of rings (size 3 to 8) (size 9 to 14) (size 15 to 20)
#    0.000    1.250    6.250    1.875    3.500    0.000 
#    0.000    3.125    0.000    0.000    0.000    0.000 
#    0.000    0.000    0.000    0.000    0.000    0.000 
#
# Total GULP energy -178270.408175 kJ/mol
# GULP energy per Si atom -5570.950255 kJ/mol
# Density = 2.356210 g / cm^3
# Si number density = 23.615846 Si / 1000 Ang^3
#
#
#
# Elastic Constant Matrix: (Units=GPa)
#
#
# Indices 1 2 3 4 5 6 
#
# 1 7.1159 3.0644 3.2118 0.0000 -5.9619 0.0000
# 2 3.0644 159.5851 4.8785 0.0000 2.4619 0.0000
# 3 3.2118 4.8785 37.4295 0.0000 -5.7921 0.0000
# 4 0.0000 0.0000 0.0000 36.3770 0.0000 2.6508
# 5 -5.9619 2.4619 -5.7921 0.0000 10.8299 0.0000
# 6 0.0000 0.0000 0.0000 2.6508 0.0000 20.4933
#
#
#
# Elastic Compliance Matrix: (Units=1/GPa)
#
#
# Indices 1 2 3 4 5 6 
#
# 1 0.269519 -0.007537 0.001178 0.000000 0.150715 0.000000
# 2 -0.007537 0.006544 -0.001176 0.000000 -0.006265 0.000000
# 3 0.001178 -0.001176 0.029339 0.000000 0.016607 0.000000
# 4 0.000000 0.000000 0.000000 0.027751 0.000000 -0.003590
# 5 0.150715 -0.006265 0.016607 0.000000 0.185613 0.000000
# 6 0.000000 0.000000 0.000000 -0.003590 0.000000 0.049261
#
#
# Mechanical properties :
#
#
# Convention : Reuss Voigt Hill
#
# Bulk Modulus (GPa) = 3.44431 25.15997 14.30214
# Shear Modulus (GPa) = 7.35432 26.40510 16.87971
#
# Velocity S-wave (km/s) = 1.76661 3.34744 2.67640
# Velocity P-wave (km/s) = 2.37126 5.06137 3.95223
#
# Compressibility (1/GPa) = 0.29033350
#
# Stress axis : x y z
#
# Youngs Moduli (GPa) = 3.71031 152.82191 34.08439
#
# Poissons Ratio (x) = 1.15174 -0.04016
# Poissons Ratio (y) = 0.02796 0.04007
# Poissons Ratio (z) = -0.00437 0.17967
#
# Static dielectric constant tensor:
#      x y z
#    x 1.918010 0.000000 -0.007570 
#    y 0.000000 1.960990 0.000000 
#    z -0.007570 0.000000 1.952980 
# 
# From -- ./inp_files/61163.got.cif
#   From: 2010.05.17/outbox.cif.g08.bks.cpg/sg14_31_cif.got.tgz:61163.got - 2010.06.03 17:49:19.
