data_PCOD9240964
_publ_section_title
;
Structure prediction by ZEFSAII (Michael W. Deem and Ramdas Pophale) SiO2 
 PCOD9240964
Probable space group: P 21/C
;
_chemical_formula_sum "Si O2"
_cell_formula_units_Z 28
_cell_length_a 14.731923
_cell_length_b 5.082233
_cell_length_c 25.983366
_cell_angle_alpha 90.000000
_cell_angle_beta 135.664558
_cell_angle_gamma 90.000000
_cell_volume 1359.559691
_symmetry_space_group_name_H-M "P 21/C"
_symmetry_group_IT_number 14
_symmetry_cell_setting 'monoclinic'
loop_
_space_group_symop_operation_xyz
x,y,z
-x,1/2+y,1/2-z
-x,-y,-z
x,1/2-y,1/2+z
loop_
_atom_site_type_symbol
_atom_site_label
_atom_site_fract_x
_atom_site_fract_y
_atom_site_fract_z
Si Si1 0.571605 0.778958 0.715662
Si Si2 0.101156 0.781797 0.093887
Si Si3 0.168059 0.956605 0.517844
Si Si4 0.968482 0.330848 0.270012
Si Si5 0.597274 0.721092 0.347196
Si Si6 0.968799 0.155520 0.110823
Si Si7 0.800927 0.025737 0.267644
O O1 0.453784 0.570613 0.662773
O O2 0.620729 0.760487 0.794978
O O3 0.682552 0.674557 0.722625
O O4 0.517863 0.071366 0.686748
O O5 0.167934 0.740802 0.066557
O O6 0.196248 0.685502 0.177557
O O7 0.048469 0.059905 0.092280
O O8 0.969264 0.610683 0.038907
O O9 0.161421 0.787457 0.462952
O O10 0.279430 0.169018 0.572281
O O11 0.965703 0.589418 0.233404
O O12 0.041605 0.420349 0.352434
O O13 0.827455 0.226456 0.232004
O O14 0.066226 0.358775 0.176670
#
# Coordination Sequence:
#
# PCOD9240964 Si02
#       7
#     4   4   4   4   4   4   4
#     4  10  22  36  52  80 111 162 201 233 270 318
#     4   9  19  31  52  81 120 154 191 231 283 344
#     4  10  19  34  49  83 118 163 191 233 278 336
#     4  11  22  39  59  88 117 140 181 245 310 357
#     4  10  22  35  53  76 118 160 202 234 259 321
#     4  10  21  33  58  87 115 149 188 236 293 356
#     4  10  20  36  58  84 116 150 192 237 291 352
#
# _framework density 20.594905000000001
#
# number of rings (size 3 to 8) (size 9 to 14) (size 15 to 20)
#    0.000    2.000    2.857    0.429    6.000    1.143 
#    0.000    0.000    0.000    0.000    0.000    6.000 
#    0.000    0.000    0.000    0.000    0.000    0.000 
#
# Total GULP energy -156331.435899 kJ/mol
# GULP energy per Si atom -5583.265568 kJ/mol
# Density = 2.054803 g / cm^3
# Si number density = 20.594905 Si / 1000 Ang^3
#
#
#
# Elastic Constant Matrix: (Units=GPa)
#
#
# Indices 1 2 3 4 5 6 
#
# 1 62.3908 15.5391 27.9296 0.0000 -9.6060 0.0000
# 2 15.5391 81.9620 16.3158 0.0000 -6.0823 0.0000
# 3 27.9296 16.3158 44.1531 0.0000 5.9941 0.0000
# 4 0.0000 0.0000 0.0000 27.6805 0.0000 -5.5505
# 5 -9.6060 -6.0823 5.9941 0.0000 15.8740 0.0000
# 6 0.0000 0.0000 0.0000 -5.5505 0.0000 33.0151
#
#
#
# Elastic Compliance Matrix: (Units=1/GPa)
#
#
# Indices 1 2 3 4 5 6 
#
# 1 0.030544 0.000926 -0.023421 0.000000 0.027682 0.000000
# 2 0.000926 0.014041 -0.006936 0.000000 0.008559 0.000000
# 3 -0.023421 -0.006936 0.044598 0.000000 -0.033671 0.000000
# 4 0.000000 0.000000 0.000000 0.037387 0.000000 0.006285
# 5 0.027682 0.008559 -0.033671 0.000000 0.095742 0.000000
# 6 0.000000 0.000000 0.000000 0.006285 0.000000 0.031346
#
#
# Mechanical properties :
#
#
# Convention : Reuss Voigt Hill
#
# Bulk Modulus (GPa) = 32.98143 34.23054 33.60598
# Shear Modulus (GPa) = 15.49771 23.89533 19.69652
#
# Velocity S-wave (km/s) = 2.74615 3.40995 3.09589
# Velocity P-wave (km/s) = 5.10923 5.67103 5.39745
#
# Compressibility (1/GPa) = 0.03032009
#
# Stress axis : x y z
#
# Youngs Moduli (GPa) = 32.73948 71.21893 22.42250
#
# Poissons Ratio (x) = -0.06593 0.52516
# Poissons Ratio (y) = -0.03031 0.15553
# Poissons Ratio (z) = 0.76680 0.49399
#
# Static dielectric constant tensor:
#      x y z
#    x 1.766200 0.000000 -0.001480 
#    y 0.000000 1.845260 0.000000 
#    z -0.001480 0.000000 1.757030 
# 
# From -- ./inp_files/77426.got.cif
#   From: 2010.05.17/outbox.cif.g08.bks.cpg/sg14_39_cif.got.tgz:77426.got - 2010.06.03 17:49:19.
