data_PCOD9240910
_publ_section_title
;
Structure prediction by ZEFSAII (Michael W. Deem and Ramdas Pophale) SiO2 
 PCOD9240910
Probable space group: P 21/C
;
_chemical_formula_sum "Si O2"
_cell_formula_units_Z 28
_cell_length_a 20.326803
_cell_length_b 5.077903
_cell_length_c 16.913560
_cell_angle_alpha 90.000000
_cell_angle_beta 129.053496
_cell_angle_gamma 90.000000
_cell_volume 1355.696349
_symmetry_space_group_name_H-M "P 21/C"
_symmetry_group_IT_number 14
_symmetry_cell_setting 'monoclinic'
loop_
_space_group_symop_operation_xyz
x,y,z
-x,1/2+y,1/2-z
-x,-y,-z
x,1/2-y,1/2+z
loop_
_atom_site_type_symbol
_atom_site_label
_atom_site_fract_x
_atom_site_fract_y
_atom_site_fract_z
Si Si1 0.708851 0.516990 0.697362
Si Si2 0.820544 0.845723 0.681719
Si Si3 0.553224 0.241297 0.298810
Si Si4 0.694256 0.491502 0.291805
Si Si5 0.681820 0.237691 0.530372
Si Si6 0.001055 0.881673 0.803193
Si Si7 0.182062 0.462621 0.475887
O O1 0.796528 0.607622 0.721662
O O2 0.673373 0.760241 0.720831
O O3 0.654172 0.436436 0.578734
O O4 0.720859 0.264827 0.762036
O O5 0.829688 0.773781 0.595567
O O6 0.736041 0.018958 0.616850
O O7 0.911564 0.957301 0.775279
O O8 0.486331 0.474128 0.265714
O O9 0.617331 0.385906 0.287114
O O10 0.604825 0.158730 0.416409
O O11 0.769812 0.589508 0.406543
O O12 0.752052 0.359537 0.524295
O O13 0.089057 0.914925 0.915817
O O14 0.007571 0.082943 0.733993
#
# Coordination Sequence:
#
# PCOD9240910 Si02
#       7
#     4   4   4   4   4   4   4
#     4  11  23  40  63  92 123 174 199 244 299 389
#     4  10  20  38  65  90 123 166 212 252 299 366
#     4  11  26  44  68  96 121 151 204 263 308 364
#     4  11  24  41  65  89 128 160 204 247 315 365
#     4  10  21  41  68  87 126 165 207 244 315 365
#     4  10  19  33  57  93 122 154 213 268 295 341
#     4   9  21  35  63  92 121 163 213 260 302 349
#
# _framework density 20.653592
#
# number of rings (size 3 to 8) (size 9 to 14) (size 15 to 20)
#    0.000    1.714    2.857    0.857   10.000    0.000 
#    0.000    5.714    0.000    0.000    0.000    0.000 
#    0.000    0.000    0.000    0.000    0.000    0.000 
#
# Total GULP energy -155998.116168 kJ/mol
# GULP energy per Si atom -5571.361292 kJ/mol
# Density = 2.060658 g / cm^3
# Si number density = 20.653592 Si / 1000 Ang^3
#
#
#
# Elastic Constant Matrix: (Units=GPa)
#
#
# Indices 1 2 3 4 5 6 
#
# 1 58.2152 19.0301 48.3575 0.0000 -6.1755 0.0000
# 2 19.0301 73.1683 12.7679 0.0000 -5.2366 0.0000
# 3 48.3575 12.7679 65.3335 0.0000 8.4192 0.0000
# 4 0.0000 0.0000 0.0000 21.5457 0.0000 -2.9966
# 5 -6.1755 -5.2366 8.4192 0.0000 28.6919 0.0000
# 6 0.0000 0.0000 0.0000 -2.9966 0.0000 37.7138
#
#
#
# Elastic Compliance Matrix: (Units=1/GPa)
#
#
# Indices 1 2 3 4 5 6 
#
# 1 0.061590 -0.005794 -0.047835 0.000000 0.026235 0.000000
# 2 -0.005794 0.015047 0.001200 0.000000 0.001147 0.000000
# 3 -0.047835 0.001200 0.053811 0.000000 -0.025867 0.000000
# 4 0.000000 0.000000 0.000000 0.046932 0.000000 0.003729
# 5 0.026235 0.001147 -0.025867 0.000000 0.048299 0.000000
# 6 0.000000 0.000000 0.000000 0.003729 0.000000 0.026812
#
#
# Mechanical properties :
#
#
# Convention : Reuss Voigt Hill
#
# Bulk Modulus (GPa) = 39.07864 39.66980 39.37422
# Shear Modulus (GPa) = 13.66577 25.36103 19.51340
#
# Velocity S-wave (km/s) = 2.57508 3.50798 3.07709
# Velocity P-wave (km/s) = 5.27290 5.97133 5.63295
#
# Compressibility (1/GPa) = 0.02558943
#
# Stress axis : x y z
#
# Youngs Moduli (GPa) = 16.23645 66.45976 18.58366
#
# Poissons Ratio (x) = 0.38506 0.88895
# Poissons Ratio (y) = 0.09407 -0.02230
# Poissons Ratio (z) = 0.77667 -0.07975
#
# Static dielectric constant tensor:
#      x y z
#    x 1.797370 0.000000 0.026290 
#    y 0.000000 1.809060 0.000000 
#    z 0.026290 0.000000 1.730910 
# 
# From -- ./inp_files/49651.got.cif
#   From: 2010.05.17/outbox.cif.g08.bks.cpg/sg14_25_cif.got.tgz:49651.got - 2010.06.03 17:49:19.
