data_PCOD9240721
_publ_section_title
;
Structure prediction by ZEFSAII (Michael W. Deem and Ramdas Pophale) SiO2 
 PCOD9240721
Probable space group: P 21/C
;
_chemical_formula_sum "Si O2"
_cell_formula_units_Z 32
_cell_length_a 27.695885
_cell_length_b 10.936166
_cell_length_c 28.209788
_cell_angle_alpha 90.000000
_cell_angle_beta 10.206370
_cell_angle_gamma 90.000000
_cell_volume 1514.012869
_symmetry_space_group_name_H-M "P 21/C"
_symmetry_group_IT_number 14
_symmetry_cell_setting 'monoclinic'
loop_
_space_group_symop_operation_xyz
x,y,z
-x,1/2+y,1/2-z
-x,-y,-z
x,1/2-y,1/2+z
loop_
_atom_site_type_symbol
_atom_site_label
_atom_site_fract_x
_atom_site_fract_y
_atom_site_fract_z
Si Si1 0.382976 0.500000 0.906500
Si Si2 0.479223 0.259933 0.327187
Si Si3 0.491702 0.353099 0.561641
Si Si4 0.816366 0.000000 0.905819
Si Si5 0.520780 0.259933 0.672811
Si Si6 0.491694 0.646902 0.561648
Si Si7 0.954427 0.853384 0.430384
Si Si8 0.045566 0.853382 0.569623
O O1 0.370490 0.373194 0.946764
O O2 0.661539 0.499999 0.606463
O O3 0.370493 0.626805 0.946762
O O4 0.134293 0.500001 0.109405
O O5 0.287815 0.378141 0.519591
O O6 0.500001 0.250001 0.249999
O O7 0.769187 0.287533 0.070356
O O8 0.533600 0.500001 0.518302
O O9 0.500003 0.305787 0.499997
O O10 0.211758 0.334783 0.859796
O O11 0.742322 0.308313 0.351642
O O12 0.712190 0.121860 0.980405
O O13 0.230817 0.287535 0.929641
O O14 0.211749 0.665217 0.859805
O O15 0.742314 0.691689 0.351651
O O16 0.949668 0.000001 0.425115
#
# Coordination Sequence:
#
# PCOD9240721 Si02
#       8
#     4   4   4   4   4   4   4   4
#     4  10  22  34  52  72 103 144 181 222 262 302
#     4  10  21  37  53  79 110 148 185 225 262 318
#     4   9  18  32  52  79 108 133 170 225 279 324
#     4  10  20  36  52  72 101 142 185 222 264 306
#     4  10  21  37  53  79 110 148 185 225 262 318
#     4   9  18  32  52  79 108 133 170 225 279 324
#     4  10  19  32  52  78 106 142 176 215 270 325
#     4  10  19  32  52  78 106 142 176 215 270 325
#
# _framework density 21.135884000000001
#
# number of rings (size 3 to 8) (size 9 to 14) (size 15 to 20)
#    0.000    2.250    1.250    1.500    0.000   11.000 
#    0.000    0.000    0.000    0.000    0.000    5.250 
#    0.000    0.000    0.000    0.000    0.000    0.000 
#
# Total GULP energy -178856.708025 kJ/mol
# GULP energy per Si atom -5589.272126 kJ/mol
# Density = 2.108778 g / cm^3
# Si number density = 21.135884 Si / 1000 Ang^3
#
#
#
# Elastic Constant Matrix: (Units=GPa)
#
#
# Indices 1 2 3 4 5 6 
#
# 1 86.4227 5.6390 -4.6735 0.0000 -7.4952 0.0000
# 2 5.6390 128.4143 10.8932 0.0000 -0.4358 0.0000
# 3 -4.6735 10.8932 53.7290 0.0000 -0.3454 0.0000
# 4 0.0000 0.0000 0.0000 15.6850 0.0000 -5.5129
# 5 -7.4952 -0.4358 -0.3454 0.0000 24.3108 0.0000
# 6 0.0000 0.0000 0.0000 -5.5129 0.0000 15.1127
#
#
#
# Elastic Compliance Matrix: (Units=1/GPa)
#
#
# Indices 1 2 3 4 5 6 
#
# 1 0.011997 -0.000615 0.001192 0.000000 0.003705 0.000000
# 2 -0.000615 0.007955 -0.001667 0.000000 -0.000071 0.000000
# 3 0.001192 -0.001667 0.019057 0.000000 0.000608 0.000000
# 4 0.000000 0.000000 0.000000 0.073131 0.000000 0.026677
# 5 0.003705 -0.000071 0.000608 0.000000 0.042284 0.000000
# 6 0.000000 0.000000 0.000000 0.026677 0.000000 0.075901
#
#
# Mechanical properties :
#
#
# Convention : Reuss Voigt Hill
#
# Bulk Modulus (GPa) = 27.15208 32.47593 29.81401
# Shear Modulus (GPa) = 20.42629 28.13552 24.28090
#
# Velocity S-wave (km/s) = 3.11211 3.65248 3.39307
# Velocity P-wave (km/s) = 5.07819 5.76074 5.43020
#
# Compressibility (1/GPa) = 0.03682959
#
# Stress axis : x y z
#
# Youngs Moduli (GPa) = 83.35452 125.69957 52.47282
#
# Poissons Ratio (x) = 0.07735 -0.06255
# Poissons Ratio (y) = 0.05129 0.08747
# Poissons Ratio (z) = -0.09937 0.20953
#
# Static dielectric constant tensor:
#      x y z
#    x 1.824940 0.000000 0.048260 
#    y 0.000000 1.792290 0.000000 
#    z 0.048260 0.000000 1.766850 
# 
# From -- ./inp_files/80789.got.cif
#   From: 2010.05.17/outbox.cif.g08.bks.cpg/sg14_41_cif.got.tgz:80789.got - 2010.06.03 17:49:19.
