data_PCOD9240947
_publ_section_title
;
Structure prediction by ZEFSAII (Michael W. Deem and Ramdas Pophale) SiO2 
 PCOD9240947
Probable space group: P 21/C
;
_chemical_formula_sum "Si O2"
_cell_formula_units_Z 28
_cell_length_a 5.210186
_cell_length_b 24.776078
_cell_length_c 9.239242
_cell_angle_alpha 90.000000
_cell_angle_beta 100.978618
_cell_angle_gamma 90.000000
_cell_volume 1170.847084
_symmetry_space_group_name_H-M "P 21/C"
_symmetry_group_IT_number 14
_symmetry_cell_setting 'monoclinic'
loop_
_space_group_symop_operation_xyz
x,y,z
-x,1/2+y,1/2-z
-x,-y,-z
x,1/2-y,1/2+z
loop_
_atom_site_type_symbol
_atom_site_label
_atom_site_fract_x
_atom_site_fract_y
_atom_site_fract_z
Si Si1 0.539366 0.377495 0.014728
Si Si2 0.701581 0.618408 0.604549
Si Si3 0.587038 0.295528 0.586764
Si Si4 0.787016 0.289084 0.886103
Si Si5 0.750325 0.793110 0.338674
Si Si6 0.221000 0.938215 0.211042
Si Si7 0.222208 0.476401 0.919511
O O1 0.634650 0.345616 0.886106
O O2 0.285857 0.413405 0.950432
O O3 0.758771 0.410645 0.126429
O O4 0.481471 0.329887 0.120793
O O5 0.517523 0.645784 0.464632
O O6 0.498214 0.579220 0.669780
O O7 0.809234 0.672581 0.701221
O O8 0.966460 0.585194 0.603907
O O9 0.832351 0.285165 0.720011
O O10 0.643850 0.262483 0.444923
O O11 0.366547 0.266323 0.660328
O O12 0.033487 0.296447 0.014540
O O13 0.186974 0.000870 0.252741
O O14 0.500000 0.500000 0.000000
O O15 0.000000 0.500000 0.000000
#
# Coordination Sequence:
#
# PCOD9240947 Si02
#       7
#     4   4   4   4   4   4   4
#     4   9  20  34  57  89 122 154 202 255 311 360
#     4  11  22  40  59  88 123 164 201 255 305 367
#     4  11  25  37  58  87 120 168 211 251 312 371
#     4  11  23  39  57  88 122 164 205 259 308 372
#     4  10  21  36  57  84 120 160 203 254 302 359
#     4  10  20  37  60  89 123 159 203 254 309 361
#     4  10  19  33  60  95 124 156 202 258 313 362
#
# _framework density 23.914311000000001
#
# number of rings (size 3 to 8) (size 9 to 14) (size 15 to 20)
#    0.000    1.714    2.857    2.571    6.000    0.000 
#    0.000    0.000    0.000    1.714    0.000    0.000 
#    0.000    0.000    0.000    0.000    0.000    0.000 
#
# Total GULP energy -155971.326243 kJ/mol
# GULP energy per Si atom -5570.404509 kJ/mol
# Density = 2.385988 g / cm^3
# Si number density = 23.914311 Si / 1000 Ang^3
#
#
#
# Elastic Constant Matrix: (Units=GPa)
#
#
# Indices 1 2 3 4 5 6 
#
# 1 100.1075 5.3489 -5.1417 0.0000 2.8235 0.0000
# 2 5.3489 27.6207 -14.2648 0.0000 -9.9208 0.0000
# 3 -5.1417 -14.2648 76.5665 0.0000 8.1630 0.0000
# 4 0.0000 0.0000 0.0000 17.6861 0.0000 0.3764
# 5 2.8235 -9.9208 8.1630 0.0000 17.5443 0.0000
# 6 0.0000 0.0000 0.0000 0.3764 0.0000 29.6655
#
#
#
# Elastic Compliance Matrix: (Units=1/GPa)
#
#
# Indices 1 2 3 4 5 6 
#
# 1 0.010278 -0.003019 0.000511 0.000000 -0.003599 0.000000
# 2 -0.003019 0.049123 0.006246 0.000000 0.025358 0.000000
# 3 0.000511 0.006246 0.014616 0.000000 -0.003351 0.000000
# 4 0.000000 0.000000 0.000000 0.056557 0.000000 -0.000718
# 5 -0.003599 0.025358 -0.003351 0.000000 0.073476 0.000000
# 6 0.000000 0.000000 0.000000 -0.000718 0.000000 0.033718
#
#
# Mechanical properties :
#
#
# Convention : Reuss Voigt Hill
#
# Bulk Modulus (GPa) = 12.27095 19.57550 15.92322
# Shear Modulus (GPa) = 19.42077 27.53600 23.47838
#
# Velocity S-wave (km/s) = 2.85283 3.39698 3.13672
# Velocity P-wave (km/s) = 3.99923 4.85689 4.44878
#
# Compressibility (1/GPa) = 0.08149327
#
# Stress axis : x y z
#
# Youngs Moduli (GPa) = 97.29166 20.35707 68.41930
#
# Poissons Ratio (x) = 0.06146 -0.03500
# Poissons Ratio (y) = 0.29374 -0.42733
# Poissons Ratio (z) = -0.04976 -0.12715
#
# Static dielectric constant tensor:
#      x y z
#    x 1.984800 0.000000 0.011230 
#    y 0.000000 2.141070 0.000000 
#    z 0.011230 0.000000 2.004050 
# 
# From -- ./inp_files/6576.got.cif
#   From: 2010.05.17/outbox.cif.g08.bks.cpg/sg14_4_cif.got.tgz:6576.got - 2010.06.03 17:49:19.
