data_PCOD9240710
_publ_section_title
;
Structure prediction by ZEFSAII (Michael W. Deem and Ramdas Pophale) SiO2 
 PCOD9240710
Probable space group: P 21/C
;
_chemical_formula_sum "Si O2"
_cell_formula_units_Z 24
_cell_length_a 32.372675
_cell_length_b 5.135494
_cell_length_c 25.985547
_cell_angle_alpha 90.000000
_cell_angle_beta 163.764675
_cell_angle_gamma 90.000000
_cell_volume 1207.823870
_symmetry_space_group_name_H-M "P 21/C"
_symmetry_group_IT_number 14
_symmetry_cell_setting 'monoclinic'
loop_
_space_group_symop_operation_xyz
x,y,z
-x,1/2+y,1/2-z
-x,-y,-z
x,1/2-y,1/2+z
loop_
_atom_site_type_symbol
_atom_site_label
_atom_site_fract_x
_atom_site_fract_y
_atom_site_fract_z
Si Si1 0.038597 0.407762 0.920583
Si Si2 0.917382 0.246296 0.878339
Si Si3 0.466582 0.760547 0.404864
Si Si4 0.077474 0.133349 0.819825
Si Si5 0.303976 0.247703 0.168812
Si Si6 0.291127 0.880030 0.791324
O O1 0.938084 0.258505 0.841768
O O2 0.944562 0.564350 0.766109
O O3 0.158184 0.236845 0.031558
O O4 0.145448 0.592118 0.082091
O O5 0.755816 0.257491 0.710805
O O6 0.000000 0.500000 0.000000
O O7 0.000000 0.000000 0.000000
O O8 0.382174 0.519053 0.275865
O O9 0.635152 0.662459 0.610022
O O10 0.404505 0.764858 0.389173
O O11 0.414601 0.015336 0.313565
O O12 0.967878 0.367686 0.704679
O O13 0.236011 0.222826 0.030672
#
# Coordination Sequence:
#
# PCOD9240710 Si02
#       6
#     4   4   4   4   4   4
#     4   9  19  33  53  77 103 131 168 217 264 310
#     4  10  20  33  50  73 104 134 165 207 255 310
#     4  10  20  32  51  72 102 133 165 207 246 309
#     4  10  19  32  52  75 101 129 166 214 257 301
#     4  10  19  33  50  74  99 130 167 205 256 300
#     4   9  19  33  50  75 101 132 167 203 257 305
#
# _framework density 19.870448
#
# number of rings (size 3 to 8) (size 9 to 14) (size 15 to 20)
#    0.000    2.333    0.000    4.000    0.000   12.667 
#    0.000    0.000    0.000    2.000    0.000    0.000 
#    0.000    0.000    0.000    0.000    0.000    0.000 
#
# Total GULP energy -133895.753689 kJ/mol
# GULP energy per Si atom -5578.989737 kJ/mol
# Density = 1.982522 g / cm^3
# Si number density = 19.870448 Si / 1000 Ang^3
#
#
#
# Elastic Constant Matrix: (Units=GPa)
#
#
# Indices 1 2 3 4 5 6 
#
# 1 101.4006 24.2018 39.9045 0.0000 -9.5020 0.0000
# 2 24.2018 101.1611 24.8744 0.0000 -6.3026 0.0000
# 3 39.9045 24.8744 87.3588 0.0000 -29.5738 0.0000
# 4 0.0000 0.0000 0.0000 36.9309 0.0000 -6.9450
# 5 -9.5020 -6.3026 -29.5738 0.0000 38.6008 0.0000
# 6 0.0000 0.0000 0.0000 -6.9450 0.0000 21.4786
#
#
#
# Elastic Compliance Matrix: (Units=1/GPa)
#
#
# Indices 1 2 3 4 5 6 
#
# 1 0.012355 -0.001650 -0.005719 0.000000 -0.001609 0.000000
# 2 -0.001650 0.010868 -0.002535 0.000000 -0.000574 0.000000
# 3 -0.005719 -0.002535 0.019125 0.000000 0.012831 0.000000
# 4 0.000000 0.000000 0.000000 0.028831 0.000000 0.009322
# 5 -0.001609 -0.000574 0.012831 0.000000 0.035246 0.000000
# 6 0.000000 0.000000 0.000000 0.009322 0.000000 0.049572
#
#
# Mechanical properties :
#
#
# Convention : Reuss Voigt Hill
#
# Bulk Modulus (GPa) = 44.36549 51.98688 48.17618
# Shear Modulus (GPa) = 27.27500 32.79806 30.03653
#
# Velocity S-wave (km/s) = 3.70894 4.06716 3.89217
# Velocity P-wave (km/s) = 6.38102 6.94805 6.67056
#
# Compressibility (1/GPa) = 0.02254004
#
# Stress axis : x y z
#
# Youngs Moduli (GPa) = 80.93615 92.01718 52.28829
#
# Poissons Ratio (x) = 0.15183 0.29903
# Poissons Ratio (y) = 0.13354 0.13255
# Poissons Ratio (z) = 0.46286 0.23326
#
# Static dielectric constant tensor:
#      x y z
#    x 1.745390 0.000000 0.015950 
#    y 0.000000 1.752470 0.000000 
#    z 0.015950 0.000000 1.755830 
# 
# From -- ./inp_files/74456.got.cif
#   From: 2010.05.17/outbox.cif.g08.bks.cpg/sg14_38_cif.got.tgz:74456.got - 2010.06.03 17:49:19.
