data_PCOD9240060
_publ_section_title
;
Structure prediction by ZEFSAII (Michael W. Deem and Ramdas Pophale) SiO2 
 PCOD9240060
Probable space group: P 21/C
;
_chemical_formula_sum "Si O2"
_cell_formula_units_Z 32
_cell_length_a 12.388718
_cell_length_b 22.914213
_cell_length_c 7.968628
_cell_angle_alpha 90.000000
_cell_angle_beta 41.464438
_cell_angle_gamma 90.000000
_cell_volume 1497.871545
_symmetry_space_group_name_H-M "P 21/C"
_symmetry_group_IT_number 14
_symmetry_cell_setting 'monoclinic'
loop_
_space_group_symop_operation_xyz
x,y,z
-x,1/2+y,1/2-z
-x,-y,-z
x,1/2-y,1/2+z
loop_
_atom_site_type_symbol
_atom_site_label
_atom_site_fract_x
_atom_site_fract_y
_atom_site_fract_z
Si Si1 0.301900 0.384830 0.150086
Si Si2 0.468598 0.118412 0.789393
Si Si3 0.686059 0.003439 0.534149
Si Si4 0.114300 0.328776 0.090808
Si Si5 0.049043 0.758115 0.928966
Si Si6 0.822745 0.562852 0.181931
Si Si7 0.996810 0.063956 0.208732
Si Si8 0.216920 0.669752 0.941544
O O1 0.414536 0.361507 0.167564
O O2 0.128460 0.402836 0.440026
O O3 0.368225 0.446244 0.002504
O O4 0.268619 0.342977 0.030907
O O5 0.559056 0.055631 0.669058
O O6 0.596592 0.159516 0.732033
O O7 0.308512 0.107160 0.084293
O O8 0.864501 0.025455 0.264479
O O9 0.727511 0.982354 0.675011
O O10 0.108025 0.278754 0.954591
O O11 0.075613 0.392439 0.055625
O O12 0.990703 0.300346 0.369703
O O13 0.177671 0.708109 0.827060
O O14 0.126943 0.796802 0.695941
O O15 0.908160 0.534472 0.245457
O O16 0.879679 0.109091 0.444161
#
# Coordination Sequence:
#
# PCOD9240060 Si02
#       8
#     4   4   4   4   4   4   4   4
#     4  10  20  36  56  86 116 149 189 232 275 337
#     4  10  22  37  57  80 124 155 181 221 286 343
#     4  10  20  34  57  82 120 151 191 220 282 333
#     4  10  20  35  60  85 107 143 190 237 282 325
#     4  10  20  38  62  84 108 142 188 242 294 320
#     4  10  20  36  56  86 116 149 189 232 275 337
#     4  10  18  34  58  86 112 145 195 235 274 320
#     4  10  20  38  60  81 111 146 185 233 284 341
#
# _framework density 21.363647
#
# number of rings (size 3 to 8) (size 9 to 14) (size 15 to 20)
#    0.000    2.000    2.500    1.500    0.000    0.000 
#    0.000    8.750    5.500    0.000    0.000    0.000 
#    0.000    0.000    0.000    0.000    0.000    0.000 
#
# Total GULP energy -178323.804047 kJ/mol
# GULP energy per Si atom -5572.618876 kJ/mol
# Density = 2.131502 g / cm^3
# Si number density = 21.363647 Si / 1000 Ang^3
#
#
#
# Elastic Constant Matrix: (Units=GPa)
#
#
# Indices 1 2 3 4 5 6 
#
# 1 95.9818 19.7980 2.3109 0.0000 -0.2182 0.0000
# 2 19.7980 47.7471 1.1053 0.0000 -3.7258 0.0000
# 3 2.3109 1.1053 16.7843 0.0000 1.3135 0.0000
# 4 0.0000 0.0000 0.0000 19.5284 0.0000 -0.2129
# 5 -0.2182 -3.7258 1.3135 0.0000 16.5224 0.0000
# 6 0.0000 0.0000 0.0000 -0.2129 0.0000 28.3164
#
#
#
# Elastic Compliance Matrix: (Units=1/GPa)
#
#
# Indices 1 2 3 4 5 6 
#
# 1 0.011431 -0.004777 -0.001194 0.000000 -0.000831 0.000000
# 2 -0.004777 0.023369 -0.001297 0.000000 0.005310 0.000000
# 3 -0.001194 -0.001297 0.060228 0.000000 -0.005096 0.000000
# 4 0.000000 0.000000 0.000000 0.051212 0.000000 0.000385
# 5 -0.000831 0.005310 -0.005096 0.000000 0.062115 0.000000
# 6 0.000000 0.000000 0.000000 0.000385 0.000000 0.035318
#
#
# Mechanical properties :
#
#
# Convention : Reuss Voigt Hill
#
# Bulk Modulus (GPa) = 12.42358 22.99351 17.70854
# Shear Modulus (GPa) = 17.54144 22.02671 19.78407
#
# Velocity S-wave (km/s) = 2.86857 3.21446 3.04643
# Velocity P-wave (km/s) = 4.09872 4.95614 4.54768
#
# Compressibility (1/GPa) = 0.08049209
#
# Stress axis : x y z
#
# Youngs Moduli (GPa) = 87.48270 42.79218 16.60354
#
# Poissons Ratio (x) = 0.20442 0.01983
# Poissons Ratio (y) = 0.41790 0.02153
# Poissons Ratio (z) = 0.10447 0.05549
#
# Static dielectric constant tensor:
#      x y z
#    x 1.830290 0.000000 0.008990 
#    y 0.000000 1.803100 0.000000 
#    z 0.008990 0.000000 1.781950 
# 
# From -- ./inp_files/14616.got.cif
#   From: 2010.05.17/outbox.cif.g08.bks.cpg/sg14_8_cif.got.tgz:14616.got - 2010.06.03 17:49:19.
