data_PCOD9240606
_publ_section_title
;
Structure prediction by ZEFSAII (Michael W. Deem and Ramdas Pophale) SiO2 
 PCOD9240606
Probable space group: P 21/C
;
_chemical_formula_sum "Si O2"
_cell_formula_units_Z 24
_cell_length_a 9.301342
_cell_length_b 13.738632
_cell_length_c 13.234754
_cell_angle_alpha 90.000000
_cell_angle_beta 140.970975
_cell_angle_gamma 90.000000
_cell_volume 1064.996854
_symmetry_space_group_name_H-M "P 21/C"
_symmetry_group_IT_number 14
_symmetry_cell_setting 'monoclinic'
loop_
_space_group_symop_operation_xyz
x,y,z
-x,1/2+y,1/2-z
-x,-y,-z
x,1/2-y,1/2+z
loop_
_atom_site_type_symbol
_atom_site_label
_atom_site_fract_x
_atom_site_fract_y
_atom_site_fract_z
Si Si1 0.739198 0.615972 0.338867
Si Si2 0.316676 0.689244 0.487956
Si Si3 0.260801 0.615973 0.661133
Si Si4 0.831171 0.111085 0.665016
Si Si5 0.831171 0.888915 0.665016
Si Si6 0.316677 0.189243 0.987956
O O1 0.736297 0.500000 0.349372
O O2 0.697165 0.632471 0.197410
O O3 0.598343 0.659605 0.354557
O O4 1.000000 0.651053 0.500000
O O5 0.401657 0.659605 0.645443
O O6 0.224940 0.800195 0.438941
O O7 0.500000 0.676819 0.500000
O O8 0.098066 0.622498 0.339742
O O9 0.302834 0.632471 0.802590
O O10 0.098066 0.122497 0.839742
O O11 0.784526 1.000000 0.607541
O O12 0.775059 0.800194 0.561059
#
# Coordination Sequence:
#
# PCOD9240606 Si02
#       6
#     4   4   4   4   4   4
#     4   8  15  30  50  69  94 129 161 190 234 290
#     4  10  19  30  52  77  96 121 163 206 236 273
#     4   8  15  30  50  69  94 129 161 190 234 290
#     4   9  19  35  51  69  98 132 160 191 239 293
#     4   9  19  35  51  69  98 132 160 191 239 293
#     4  10  19  30  52  77  96 121 163 206 236 273
#
# _framework density 22.535278999999999
#
# number of rings (size 3 to 8) (size 9 to 14) (size 15 to 20)
#    0.000    3.000    0.000    3.000    0.000    4.667 
#    0.000    0.000    0.000   27.000    0.000    0.000 
#    0.000    0.000    0.000    0.000    0.000    0.000 
#
# Total GULP energy -133987.785715 kJ/mol
# GULP energy per Si atom -5582.824405 kJ/mol
# Density = 2.248399 g / cm^3
# Si number density = 22.535279 Si / 1000 Ang^3
#
#
#
# Elastic Constant Matrix: (Units=GPa)
#
#
# Indices 1 2 3 4 5 6 
#
# 1 118.2334 33.7163 4.9419 0.0000 -14.1971 0.0000
# 2 33.7163 98.0996 17.4522 0.0000 -26.8731 0.0000
# 3 4.9419 17.4522 26.7400 0.0000 0.0608 0.0000
# 4 0.0000 0.0000 0.0000 28.3565 0.0000 -9.3330
# 5 -14.1971 -26.8731 0.0608 0.0000 36.3413 0.0000
# 6 0.0000 0.0000 0.0000 -9.3330 0.0000 30.0218
#
#
#
# Elastic Compliance Matrix: (Units=1/GPa)
#
#
# Indices 1 2 3 4 5 6 
#
# 1 0.009452 -0.002827 0.000094 0.000000 0.001602 0.000000
# 2 -0.002827 0.015820 -0.009827 0.000000 0.010611 0.000000
# 3 0.000094 -0.009827 0.043810 0.000000 -0.007303 0.000000
# 4 0.000000 0.000000 0.000000 0.039285 0.000000 0.012213
# 5 0.001602 0.010611 -0.007303 0.000000 0.036001 0.000000
# 6 0.000000 0.000000 0.000000 0.012213 0.000000 0.037106
#
#
# Mechanical properties :
#
#
# Convention : Reuss Voigt Hill
#
# Bulk Modulus (GPa) = 22.74593 39.47709 31.11151
# Shear Modulus (GPa) = 22.59914 31.40809 27.00362
#
# Velocity S-wave (km/s) = 3.17019 3.73732 3.46538
# Velocity P-wave (km/s) = 4.84928 6.01493 5.46328
#
# Compressibility (1/GPa) = 0.04396391
#
# Stress axis : x y z
#
# Youngs Moduli (GPa) = 105.79379 63.21090 22.82586
#
# Poissons Ratio (x) = 0.17867 -0.00215
# Poissons Ratio (y) = 0.29903 0.22431
# Poissons Ratio (z) = -0.00997 0.62117
#
# Static dielectric constant tensor:
#      x y z
#    x 1.855590 0.000000 0.015450 
#    y 0.000000 1.802540 0.000000 
#    z 0.015450 0.000000 1.953780 
# 
# From -- ./inp_files/40801.got.cif
#   From: 2010.05.17/outbox.cif.g08.bks.cpg/sg14_21_cif.got.tgz:40801.got - 2010.06.03 17:49:19.
