data_PCOD9240903
_publ_section_title
;
Structure prediction by ZEFSAII (Michael W. Deem and Ramdas Pophale) SiO2 
 PCOD9240903
Probable space group: P 21/C
;
_chemical_formula_sum "Si O2"
_cell_formula_units_Z 20
_cell_length_a 11.056556
_cell_length_b 18.387947
_cell_length_c 5.307235
_cell_angle_alpha 90.000000
_cell_angle_beta 55.709820
_cell_angle_gamma 90.000000
_cell_volume 891.464233
_symmetry_space_group_name_H-M "P 21/C"
_symmetry_group_IT_number 14
_symmetry_cell_setting 'monoclinic'
loop_
_space_group_symop_operation_xyz
x,y,z
-x,1/2+y,1/2-z
-x,-y,-z
x,1/2-y,1/2+z
loop_
_atom_site_type_symbol
_atom_site_label
_atom_site_fract_x
_atom_site_fract_y
_atom_site_fract_z
Si Si1 0.550249 0.542305 0.691421
Si Si2 0.907325 0.710263 0.380526
Si Si3 0.164614 0.971406 0.262194
Si Si4 0.446906 0.291726 0.216378
Si Si5 0.091369 0.574438 0.349602
O O1 0.500000 0.500000 0.500000
O O2 0.726700 0.534307 0.454629
O O3 0.509328 0.626277 0.768086
O O4 0.500000 0.500000 0.000000
O O5 0.949287 0.769393 0.545745
O O6 0.731061 0.706488 0.589046
O O7 0.984531 0.637551 0.385771
O O8 0.203525 0.940194 0.490704
O O9 0.163429 0.913518 0.037104
O O10 0.000000 0.000000 0.500000
O O11 0.493770 0.238532 0.388961
O O12 0.000000 0.500000 0.500000
#
# Coordination Sequence:
#
# PCOD9240903 Si02
#       5
#     4   4   4   4   4
#     4  12  25  42  66  98 129 164 217 271 316 378
#     4  10  20  34  57  91 125 157 204 262 310 361
#     4  10  21  37  62  90 121 159 201 250 307 364
#     4  10  21  38  62  90 123 165 211 262 318 373
#     4  10  19  33  57  85 119 157 195 243 307 368
#
# _framework density 22.434996999999999
#
# number of rings (size 3 to 8) (size 9 to 14) (size 15 to 20)
#    0.000    1.600    0.000    6.000    0.000    9.600 
#    0.000    0.000    0.000   24.000    0.000    0.000 
#    0.000    0.000    0.000    0.000    0.000    0.000 
#
# Total GULP energy -111665.975920 kJ/mol
# GULP energy per Si atom -5583.298796 kJ/mol
# Density = 2.238393 g / cm^3
# Si number density = 22.434997 Si / 1000 Ang^3
#
#
#
# Elastic Constant Matrix: (Units=GPa)
#
#
# Indices 1 2 3 4 5 6 
#
# 1 77.3434 52.8217 50.5648 0.0000 36.2937 0.0000
# 2 52.8217 123.7720 19.8621 0.0000 21.4755 0.0000
# 3 50.5648 19.8621 115.3602 0.0000 43.9051 0.0000
# 4 0.0000 0.0000 0.0000 26.8518 0.0000 5.7146
# 5 36.2937 21.4755 43.9051 0.0000 58.1790 0.0000
# 6 0.0000 0.0000 0.0000 5.7146 0.0000 44.0179
#
#
#
# Elastic Compliance Matrix: (Units=1/GPa)
#
#
# Indices 1 2 3 4 5 6 
#
# 1 0.028227 -0.009368 -0.007539 0.000000 -0.008461 0.000000
# 2 -0.009368 0.011754 0.002118 0.000000 -0.000093 0.000000
# 3 -0.007539 0.002118 0.014192 0.000000 -0.006789 0.000000
# 4 0.000000 0.000000 0.000000 0.038300 0.000000 -0.004972
# 5 -0.008461 -0.000093 -0.006789 0.000000 0.027624 0.000000
# 6 0.000000 0.000000 0.000000 -0.004972 0.000000 0.023364
#
#
# Mechanical properties :
#
#
# Convention : Reuss Voigt Hill
#
# Bulk Modulus (GPa) = 40.66123 62.55256 51.60689
# Shear Modulus (GPa) = 27.58821 38.69152 33.13987
#
# Velocity S-wave (km/s) = 3.51051 4.15734 3.84754
# Velocity P-wave (km/s) = 5.88174 7.14051 6.54147
#
# Compressibility (1/GPa) = 0.02459345
#
# Stress axis : x y z
#
# Youngs Moduli (GPa) = 35.42747 85.07982 70.46116
#
# Poissons Ratio (x) = 0.79705 0.53122
# Poissons Ratio (y) = 0.33190 -0.14923
# Poissons Ratio (z) = 0.26709 -0.18019
#
# Static dielectric constant tensor:
#      x y z
#    x 2.236710 0.000000 0.043500 
#    y 0.000000 1.848920 0.000000 
#    z 0.043500 0.000000 1.842920 
# 
# From -- ./inp_files/1290.got.cif
#   From: 2010.05.17/outbox.cif.g08.bks.cpg/sg14_1_cif.got.tgz:1290.got - 2010.06.03 17:49:19.
