data_PCOD9240757
_publ_section_title
;
Structure prediction by ZEFSAII (Michael W. Deem and Ramdas Pophale) SiO2 
 PCOD9240757
Probable space group: P 21/C
;
_chemical_formula_sum "Si O2"
_cell_formula_units_Z 28
_cell_length_a 13.881192
_cell_length_b 8.796448
_cell_length_c 18.166265
_cell_angle_alpha 90.000000
_cell_angle_beta 43.693774
_cell_angle_gamma 90.000000
_cell_volume 1532.337723
_symmetry_space_group_name_H-M "P 21/C"
_symmetry_group_IT_number 14
_symmetry_cell_setting 'monoclinic'
loop_
_space_group_symop_operation_xyz
x,y,z
-x,1/2+y,1/2-z
-x,-y,-z
x,1/2-y,1/2+z
loop_
_atom_site_type_symbol
_atom_site_label
_atom_site_fract_x
_atom_site_fract_y
_atom_site_fract_z
Si Si1 0.231348 0.520544 0.872234
Si Si2 0.601875 0.366886 0.351594
Si Si3 0.661355 0.061575 0.982240
Si Si4 0.369176 0.912946 0.766039
Si Si5 0.887275 0.461069 0.478805
Si Si6 0.446247 0.802503 0.347949
Si Si7 0.972216 0.757600 0.504169
O O1 0.336152 0.526044 0.746254
O O2 0.310751 0.599390 0.896531
O O3 0.166914 0.356818 0.921409
O O4 0.101400 0.628893 0.921708
O O5 0.439757 0.415446 0.450133
O O6 0.672958 0.403515 0.389928
O O7 0.632870 0.197997 0.303355
O O8 0.585141 0.205364 0.062752
O O9 0.803595 0.044670 0.949332
O O10 0.465313 0.817196 0.770468
O O11 0.228598 0.937389 0.891604
O O12 0.431917 0.075948 0.713438
O O13 0.958822 0.622425 0.453082
O O14 0.997185 0.327685 0.435227
#
# Coordination Sequence:
#
# PCOD9240757 Si02
#       7
#     4   4   4   4   4   4   4
#     4  10  19  35  54  81 103 136 177 223 252 311
#     4  10  21  37  54  76 111 142 171 218 272 315
#     4  10  21  37  54  76 111 142 171 218 272 315
#     4  10  19  32  55  81 103 137 178 225 263 306
#     4  10  19  35  54  81 103 136 177 223 252 311
#     4  10  19  32  55  81 103 137 178 225 263 306
#     4  10  20  32  58  78 104 132 178 218 258 298
#
# _framework density 18.272734
#
# number of rings (size 3 to 8) (size 9 to 14) (size 15 to 20)
#    0.000    2.000    4.286    3.429    6.000    0.571 
#    0.000    1.429    0.000    0.000    0.000    0.000 
#    0.000    0.000    0.000    0.000    0.000    0.000 
#
# Total GULP energy -156057.238211 kJ/mol
# GULP energy per Si atom -5573.472793 kJ/mol
# Density = 1.823114 g / cm^3
# Si number density = 18.272734 Si / 1000 Ang^3
#
#
#
# Elastic Constant Matrix: (Units=GPa)
#
#
# Indices 1 2 3 4 5 6 
#
# 1 70.3486 10.3104 -0.3945 0.0000 11.4081 0.0000
# 2 10.3104 66.0963 3.3215 0.0000 1.0912 0.0000
# 3 -0.3945 3.3215 22.6623 0.0000 7.7878 0.0000
# 4 0.0000 0.0000 0.0000 19.7061 0.0000 -10.1548
# 5 11.4081 1.0912 7.7878 0.0000 20.0119 0.0000
# 6 0.0000 0.0000 0.0000 -10.1548 0.0000 36.5219
#
#
#
# Elastic Compliance Matrix: (Units=1/GPa)
#
#
# Indices 1 2 3 4 5 6 
#
# 1 0.016392 -0.002599 0.004420 0.000000 -0.010923 0.000000
# 2 -0.002599 0.015654 -0.002950 0.000000 0.001776 0.000000
# 3 0.004420 -0.002950 0.052462 0.000000 -0.022775 0.000000
# 4 0.000000 0.000000 0.000000 0.059233 0.000000 0.016469
# 5 -0.010923 0.001776 -0.022775 0.000000 0.064963 0.000000
# 6 0.000000 0.000000 0.000000 0.016469 0.000000 0.031960
#
#
# Mechanical properties :
#
#
# Convention : Reuss Voigt Hill
#
# Bulk Modulus (GPa) = 12.15805 20.62023 16.38914
# Shear Modulus (GPa) = 18.49537 24.97261 21.73399
#
# Velocity S-wave (km/s) = 3.18494 3.70085 3.45254
# Velocity P-wave (km/s) = 4.49368 5.43791 4.98819
#
# Compressibility (1/GPa) = 0.08225006
#
# Stress axis : x y z
#
# Youngs Moduli (GPa) = 61.00577 63.88250 19.06143
#
# Poissons Ratio (x) = 0.16602 -0.08425
# Poissons Ratio (y) = 0.15854 0.05623
# Poissons Ratio (z) = -0.26964 0.18844
#
# Static dielectric constant tensor:
#      x y z
#    x 1.661260 0.000000 -0.044480 
#    y 0.000000 1.659230 0.000000 
#    z -0.044480 0.000000 1.616030 
# 
# From -- ./inp_files/58761.got.cif
#   From: 2010.05.17/outbox.cif.g08.bks.cpg/sg14_30_cif.got.tgz:58761.got - 2010.06.03 17:49:19.
