data_PCOD9240084
_publ_section_title
;
Structure prediction by ZEFSAII (Michael W. Deem and Ramdas Pophale) SiO2 
 PCOD9240084
Probable space group: P 21/C
;
_chemical_formula_sum "Si O2"
_cell_formula_units_Z 32
_cell_length_a 8.590957
_cell_length_b 16.741606
_cell_length_c 20.722556
_cell_angle_alpha 90.000000
_cell_angle_beta 37.232858
_cell_angle_gamma 90.000000
_cell_volume 1803.339184
_symmetry_space_group_name_H-M "P 21/C"
_symmetry_group_IT_number 14
_symmetry_cell_setting 'monoclinic'
loop_
_space_group_symop_operation_xyz
x,y,z
-x,1/2+y,1/2-z
-x,-y,-z
x,1/2-y,1/2+z
loop_
_atom_site_type_symbol
_atom_site_label
_atom_site_fract_x
_atom_site_fract_y
_atom_site_fract_z
Si Si1 0.449581 0.151310 0.344581
Si Si2 0.121516 0.840094 0.412772
Si Si3 0.746900 0.406937 0.525451
Si Si4 0.550039 0.786034 0.801516
Si Si5 0.274885 0.425928 0.414547
Si Si6 0.043492 0.348043 0.303271
Si Si7 0.460407 0.031423 0.709060
Si Si8 0.728038 0.195697 0.782184
O O1 0.434258 0.179950 0.275582
O O2 0.653122 0.211126 0.310441
O O3 0.168846 0.161164 0.468098
O O4 0.525992 0.058887 0.318367
O O5 0.303056 0.772973 0.385458
O O6 0.265397 0.923496 0.381137
O O7 0.141575 0.823308 0.329653
O O8 0.505260 0.357569 0.631042
O O9 0.703962 0.502254 0.541363
O O10 0.982765 0.397960 0.499171
O O11 0.847178 0.372191 0.425064
O O12 0.799375 0.732351 0.731875
O O13 0.361745 0.460909 0.315899
O O14 0.459878 0.353133 0.369658
O O15 0.258643 0.417517 0.233698
O O16 0.899289 0.334943 0.284134
#
# Coordination Sequence:
#
# PCOD9240084 Si02
#       8
#     4   4   4   4   4   4   4   4
#     4  11  19  35  59  82  99 140 190 223 268 311
#     4   9  19  34  56  77 107 138 178 228 269 300
#     4  10  18  34  60  82 101 139 184 226 267 304
#     4  10  19  34  56  81 105 137 181 230 261 311
#     4   9  18  35  58  81 106 133 183 231 266 304
#     4  10  22  37  51  79 120 143 170 215 275 328
#     4   9  18  36  56  82 105 136 181 232 262 315
#     4  10  22  37  50  78 118 144 171 220 266 331
#
# _framework density 17.744859999999999
#
# number of rings (size 3 to 8) (size 9 to 14) (size 15 to 20)
#    0.000    2.250    1.250    4.125    0.000    1.500 
#    2.250    0.625    0.000    0.000    0.000    0.000 
#    0.000    0.000    0.000    0.000    0.000    0.000 
#
# Total GULP energy -178530.446298 kJ/mol
# GULP energy per Si atom -5579.076447 kJ/mol
# Density = 1.770447 g / cm^3
# Si number density = 17.744860 Si / 1000 Ang^3
#
#
#
# Elastic Constant Matrix: (Units=GPa)
#
#
# Indices 1 2 3 4 5 6 
#
# 1 61.0630 32.4437 12.8654 0.0000 4.4505 0.0000
# 2 32.4437 117.6785 35.2833 0.0000 0.0465 0.0000
# 3 12.8654 35.2833 65.2643 0.0000 -6.6487 0.0000
# 4 0.0000 0.0000 0.0000 24.4574 0.0000 -0.9469
# 5 4.4505 0.0465 -6.6487 0.0000 10.5148 0.0000
# 6 0.0000 0.0000 0.0000 -0.9469 0.0000 12.8949
#
#
#
# Elastic Compliance Matrix: (Units=1/GPa)
#
#
# Indices 1 2 3 4 5 6 
#
# 1 0.020184 -0.004847 -0.002380 0.000000 -0.010027 0.000000
# 2 -0.004847 0.011446 -0.005375 0.000000 -0.001398 0.000000
# 3 -0.002380 -0.005375 0.020097 0.000000 0.013739 0.000000
# 4 0.000000 0.000000 0.000000 0.041004 0.000000 0.003011
# 5 -0.010027 -0.001398 0.013739 0.000000 0.108041 0.000000
# 6 0.000000 0.000000 0.000000 0.003011 0.000000 0.077771
#
#
# Mechanical properties :
#
#
# Convention : Reuss Voigt Hill
#
# Bulk Modulus (GPa) = 37.70269 45.02116 41.36193
# Shear Modulus (GPa) = 15.99548 20.46767 18.23157
#
# Velocity S-wave (km/s) = 3.00561 3.39992 3.20883
# Velocity P-wave (km/s) = 5.77392 6.39055 6.09004
#
# Compressibility (1/GPa) = 0.02652331
#
# Stress axis : x y z
#
# Youngs Moduli (GPa) = 49.54396 87.36530 49.75915
#
# Poissons Ratio (x) = 0.42348 0.11841
# Poissons Ratio (y) = 0.24015 0.26745
# Poissons Ratio (z) = 0.11790 0.46958
#
# Static dielectric constant tensor:
#      x y z
#    x 1.571390 0.000000 -0.005040 
#    y 0.000000 1.624390 0.000000 
#    z -0.005040 0.000000 1.603590 
# 
# From -- ./inp_files/65838.got.cif
#   From: 2010.05.17/outbox.cif.g08.bks.cpg/sg14_33_cif.got.tgz:65838.got - 2010.06.03 17:49:19.
