data_PCOD9240916
_publ_section_title
;
Structure prediction by ZEFSAII (Michael W. Deem and Ramdas Pophale) SiO2 
 PCOD9240916
Probable space group: P 21/C
;
_chemical_formula_sum "Si O2"
_cell_formula_units_Z 28
_cell_length_a 10.289521
_cell_length_b 21.849662
_cell_length_c 7.744745
_cell_angle_alpha 90.000000
_cell_angle_beta 49.841405
_cell_angle_gamma 90.000000
_cell_volume 1330.728397
_symmetry_space_group_name_H-M "P 21/C"
_symmetry_group_IT_number 14
_symmetry_cell_setting 'monoclinic'
loop_
_space_group_symop_operation_xyz
x,y,z
-x,1/2+y,1/2-z
-x,-y,-z
x,1/2-y,1/2+z
loop_
_atom_site_type_symbol
_atom_site_label
_atom_site_fract_x
_atom_site_fract_y
_atom_site_fract_z
Si Si1 0.235808 0.234984 0.250615
Si Si2 0.084390 0.387627 0.983571
Si Si3 0.085219 0.925872 0.041674
Si Si4 0.125192 0.701575 0.386763
Si Si5 0.168451 0.053692 0.046086
Si Si6 0.230256 0.825349 0.415708
Si Si7 0.394908 0.164632 0.797712
O O1 0.384057 0.284102 0.159215
O O2 0.194730 0.175124 0.405066
O O3 0.062242 0.274335 0.401134
O O4 0.281376 0.200923 0.035592
O O5 0.060249 0.421846 0.185318
O O6 0.894152 0.366154 0.092194
O O7 0.147197 0.427493 0.765489
O O8 0.205048 0.982003 0.990875
O O9 0.167562 0.858984 0.957154
O O10 0.001073 0.937101 0.925532
O O11 0.245434 0.758747 0.317644
O O12 0.133649 0.685238 0.179174
O O13 0.301992 0.100605 0.848536
O O14 0.417231 0.848485 0.296404
#
# Coordination Sequence:
#
# PCOD9240916 Si02
#       7
#     4   4   4   4   4   4   4
#     4  10  19  33  58  82 110 148 195 244 294 336
#     4  10  20  38  60  85 113 155 199 244 295 355
#     4  11  20  36  65  83 114 155 209 242 285 346
#     4  11  19  37  57  87 112 155 198 240 290 367
#     4  10  22  38  59  88 116 155 201 250 285 347
#     4  11  22  35  58  86 122 152 188 246 312 352
#     4  11  21  37  55  88 122 148 189 253 300 347
#
# _framework density 21.041107
#
# number of rings (size 3 to 8) (size 9 to 14) (size 15 to 20)
#    0.000    1.429    2.857    5.571    0.000    0.000 
#    0.000    1.429    0.000    0.000    0.000    0.000 
#    0.000    0.000    0.000    0.000    0.000    0.000 
#
# Total GULP energy -156205.216178 kJ/mol
# GULP energy per Si atom -5578.757721 kJ/mol
# Density = 2.099322 g / cm^3
# Si number density = 21.041107 Si / 1000 Ang^3
#
#
#
# Elastic Constant Matrix: (Units=GPa)
#
#
# Indices 1 2 3 4 5 6 
#
# 1 28.8025 -2.6863 7.4138 0.0000 -3.2273 0.0000
# 2 -2.6863 56.0294 -0.8115 0.0000 1.7769 0.0000
# 3 7.4138 -0.8115 52.2263 0.0000 13.7706 0.0000
# 4 0.0000 0.0000 0.0000 15.9893 0.0000 4.8252
# 5 -3.2273 1.7769 13.7706 0.0000 37.4420 0.0000
# 6 0.0000 0.0000 0.0000 4.8252 0.0000 21.4674
#
#
#
# Elastic Compliance Matrix: (Units=1/GPa)
#
#
# Indices 1 2 3 4 5 6 
#
# 1 0.037225 0.001509 -0.006742 0.000000 0.005616 0.000000
# 2 0.001509 0.017950 0.000282 0.000000 -0.000826 0.000000
# 3 -0.006742 0.000282 0.022442 0.000000 -0.008848 0.000000
# 4 0.000000 0.000000 0.000000 0.067093 0.000000 -0.015080
# 5 0.005616 -0.000826 -0.008848 0.000000 0.030486 0.000000
# 6 0.000000 0.000000 0.000000 -0.015080 0.000000 0.049972
#
#
# Mechanical properties :
#
#
# Convention : Reuss Voigt Hill
#
# Bulk Modulus (GPa) = 14.76749 16.09890 15.43319
# Shear Modulus (GPa) = 19.40697 23.85589 21.63143
#
# Velocity S-wave (km/s) = 3.04029 3.37081 3.20981
# Velocity P-wave (km/s) = 4.39979 4.77678 4.59215
#
# Compressibility (1/GPa) = 0.06771630
#
# Stress axis : x y z
#
# Youngs Moduli (GPa) = 26.86400 55.70912 44.55954
#
# Poissons Ratio (x) = -0.08406 0.30040
# Poissons Ratio (y) = -0.04054 -0.01259
# Poissons Ratio (z) = 0.18111 -0.01573
#
# Static dielectric constant tensor:
#      x y z
#    x 1.791870 0.000000 0.054050 
#    y 0.000000 1.830610 0.000000 
#    z 0.054050 0.000000 1.795810 
# 
# From -- ./inp_files/9941.got.cif
#   From: 2010.05.17/outbox.cif.g08.bks.cpg/sg14_5_cif.got.tgz:9941.got - 2010.06.03 17:49:19.
