data_PCOD9240999
_publ_section_title
;
Structure prediction by ZEFSAII (Michael W. Deem and Ramdas Pophale) SiO2 
 PCOD9240999
Probable space group: P 21/C
;
_chemical_formula_sum "Si O2"
_cell_formula_units_Z 28
_cell_length_a 14.610797
_cell_length_b 5.013546
_cell_length_c 26.285578
_cell_angle_alpha 90.000000
_cell_angle_beta 41.554468
_cell_angle_gamma 90.000000
_cell_volume 1277.224442
_symmetry_space_group_name_H-M "P 21/C"
_symmetry_group_IT_number 14
_symmetry_cell_setting 'monoclinic'
loop_
_space_group_symop_operation_xyz
x,y,z
-x,1/2+y,1/2-z
-x,-y,-z
x,1/2-y,1/2+z
loop_
_atom_site_type_symbol
_atom_site_label
_atom_site_fract_x
_atom_site_fract_y
_atom_site_fract_z
Si Si1 0.907881 0.641722 0.295651
Si Si2 0.629066 0.173617 0.145644
Si Si3 0.209437 0.551180 0.755698
Si Si4 0.847589 0.601114 0.024687
Si Si5 0.899508 0.781247 0.608628
Si Si6 0.925868 0.862738 0.899891
Si Si7 0.447741 0.831030 0.705047
O O1 0.801914 0.584288 0.294219
O O2 0.860766 0.570271 0.372349
O O3 0.961265 0.944396 0.268152
O O4 0.765112 0.330460 0.070206
O O5 0.622577 0.189288 0.209813
O O6 0.512155 0.379155 0.174159
O O7 0.572687 0.884314 0.152896
O O8 0.214277 0.352601 0.802351
O O9 0.333893 0.753195 0.711285
O O10 0.060374 0.691202 0.826593
O O11 0.840627 0.791791 0.077547
O O12 0.815627 0.726880 0.983191
O O13 0.009061 0.535599 0.946275
O O14 0.005127 0.593709 0.594706
#
# Coordination Sequence:
#
# PCOD9240999 Si02
#       7
#     4   4   4   4   4   4   4
#     4  10  20  35  56  83 114 147 184 232 283 330
#     4  10  22  37  54  79 110 150 189 228 273 331
#     4  10  20  35  56  83 115 143 189 238 276 334
#     4  10  21  34  53  83 117 150 182 228 282 346
#     4  10  19  34  54  85 114 147 180 224 294 340
#     4  10  21  33  56  85 115 151 183 227 291 342
#     4  10  22  36  56  79 108 150 190 230 275 321
#
# _framework density 21.922535
#
# number of rings (size 3 to 8) (size 9 to 14) (size 15 to 20)
#    0.000    2.000    2.857    0.429    4.000    1.143 
#    0.000    0.000    0.000    1.714    0.000    0.000 
#    0.000    0.000    0.000    0.000    0.000    0.000 
#
# Total GULP energy -156211.172611 kJ/mol
# GULP energy per Si atom -5578.970450 kJ/mol
# Density = 2.187264 g / cm^3
# Si number density = 21.922535 Si / 1000 Ang^3
#
#
#
# Elastic Constant Matrix: (Units=GPa)
#
#
# Indices 1 2 3 4 5 6 
#
# 1 96.2754 -3.9555 50.1075 0.0000 32.5454 0.0000
# 2 -3.9555 49.6689 9.6531 0.0000 9.7171 0.0000
# 3 50.1075 9.6531 78.6742 0.0000 21.0273 0.0000
# 4 0.0000 0.0000 0.0000 29.4567 0.0000 -2.7371
# 5 32.5454 9.7171 21.0273 0.0000 46.8965 0.0000
# 6 0.0000 0.0000 0.0000 -2.7371 0.0000 21.6417
#
#
#
# Elastic Compliance Matrix: (Units=1/GPa)
#
#
# Indices 1 2 3 4 5 6 
#
# 1 0.019355 0.005495 -0.010347 0.000000 -0.009931 0.000000
# 2 0.005495 0.022724 -0.004556 0.000000 -0.006479 0.000000
# 3 -0.010347 -0.004556 0.020097 0.000000 -0.000886 0.000000
# 4 0.000000 0.000000 0.000000 0.034352 0.000000 0.004345
# 5 -0.009931 -0.006479 -0.000886 0.000000 0.029955 0.000000
# 6 0.000000 0.000000 0.000000 0.004345 0.000000 0.046757
#
#
# Mechanical properties :
#
#
# Convention : Reuss Voigt Hill
#
# Bulk Modulus (GPa) = 23.06314 37.35874 30.21094
# Shear Modulus (GPa) = 24.21195 30.85321 27.53258
#
# Velocity S-wave (km/s) = 3.32690 3.75557 3.54772
# Velocity P-wave (km/s) = 5.03000 5.99032 5.53104
#
# Compressibility (1/GPa) = 0.04335923
#
# Stress axis : x y z
#
# Youngs Moduli (GPa) = 51.66569 44.00616 49.75961
#
# Poissons Ratio (x) = -0.24183 0.51487
# Poissons Ratio (y) = -0.28392 0.22673
# Poissons Ratio (z) = 0.53460 0.20051
#
# Static dielectric constant tensor:
#      x y z
#    x 1.900510 0.000000 0.015370 
#    y 0.000000 1.940280 0.000000 
#    z 0.015370 0.000000 1.819620 
# 
# From -- ./inp_files/66452.got.cif
#   From: 2010.05.17/outbox.cif.g08.bks.cpg/sg14_34_cif.got.tgz:66452.got - 2010.06.03 17:49:19.
