data_PCOD9240070
_publ_section_title
;
Structure prediction by ZEFSAII (Michael W. Deem and Ramdas Pophale) SiO2 
 PCOD9240070
Probable space group: P 21/C
;
_chemical_formula_sum "Si O2"
_cell_formula_units_Z 32
_cell_length_a 14.477345
_cell_length_b 9.429634
_cell_length_c 19.768003
_cell_angle_alpha 90.000000
_cell_angle_beta 141.317077
_cell_angle_gamma 90.000000
_cell_volume 1686.683279
_symmetry_space_group_name_H-M "P 21/C"
_symmetry_group_IT_number 14
_symmetry_cell_setting 'monoclinic'
loop_
_space_group_symop_operation_xyz
x,y,z
-x,1/2+y,1/2-z
-x,-y,-z
x,1/2-y,1/2+z
loop_
_atom_site_type_symbol
_atom_site_label
_atom_site_fract_x
_atom_site_fract_y
_atom_site_fract_z
Si Si1 0.831888 0.179504 0.770696
Si Si2 0.566420 0.959853 0.813757
Si Si3 0.829096 0.637718 0.558372
Si Si4 0.382817 0.361009 0.014189
Si Si5 0.615242 0.224359 0.751242
Si Si6 0.607458 0.912977 0.636573
Si Si7 0.275180 0.925738 0.884946
Si Si8 0.571826 0.616944 0.638869
O O1 0.773646 0.247779 0.808031
O O2 0.802655 0.288892 0.692479
O O3 0.002856 0.142093 0.868460
O O4 0.728831 0.038306 0.705738
O O5 0.455260 0.830460 0.734876
O O6 0.602919 0.067916 0.775170
O O7 0.474003 0.040471 0.818863
O O8 0.718883 0.908715 0.935149
O O9 0.770267 0.793367 0.549044
O O10 0.808908 0.526349 0.608991
O O11 0.503389 0.265907 0.122835
O O12 0.447497 0.518701 0.062968
O O13 0.394530 0.352374 0.940837
O O14 0.636795 0.770896 0.694300
O O15 0.322451 0.024496 0.848717
O O16 0.420406 0.874143 0.008484
#
# Coordination Sequence:
#
# PCOD9240070 Si02
#       8
#     4   4   4   4   4   4   4   4
#     4  11  23  36  57  87 122 155 188 229 299 356
#     4  10  22  38  61  84 110 153 203 249 283 327
#     4  10  22  37  56  84 125 159 182 232 299 356
#     4   9  18  34  55  82 114 142 186 242 288 325
#     4  10  21  38  59  84 106 151 205 243 281 333
#     4  10  19  32  59  89 109 146 189 244 286 348
#     4  10  19  34  56  84 114 150 186 232 296 352
#     4  10  18  34  59  83 112 139 191 251 287 328
#
# _framework density 18.972145000000001
#
# number of rings (size 3 to 8) (size 9 to 14) (size 15 to 20)
#    0.000    2.000    2.500    2.250    7.000    0.500 
#    0.000    0.000    0.000    3.000    0.000    0.000 
#    0.000    0.000    0.000    0.000    0.000    0.000 
#
# Total GULP energy -178206.756597 kJ/mol
# GULP energy per Si atom -5568.961144 kJ/mol
# Density = 1.892896 g / cm^3
# Si number density = 18.972145 Si / 1000 Ang^3
#
#
#
# Elastic Constant Matrix: (Units=GPa)
#
#
# Indices 1 2 3 4 5 6 
#
# 1 106.3336 30.8172 44.8774 0.0000 18.5278 0.0000
# 2 30.8172 94.6211 28.1179 0.0000 18.4009 0.0000
# 3 44.8774 28.1179 41.3529 0.0000 12.6562 0.0000
# 4 0.0000 0.0000 0.0000 14.2776 0.0000 -2.3829
# 5 18.5278 18.4009 12.6562 0.0000 28.3283 0.0000
# 6 0.0000 0.0000 0.0000 -2.3829 0.0000 30.6540
#
#
#
# Elastic Compliance Matrix: (Units=1/GPa)
#
#
# Indices 1 2 3 4 5 6 
#
# 1 0.017651 0.000399 -0.018318 0.000000 -0.003619 0.000000
# 2 0.000399 0.013980 -0.008200 0.000000 -0.005678 0.000000
# 3 -0.018318 -0.008200 0.051364 0.000000 -0.005640 0.000000
# 4 0.000000 0.000000 0.000000 0.070961 0.000000 0.005516
# 5 -0.003619 -0.005678 -0.005640 0.000000 0.043875 0.000000
# 6 0.000000 0.000000 0.000000 0.005516 0.000000 0.033051
#
#
# Mechanical properties :
#
#
# Convention : Reuss Voigt Hill
#
# Bulk Modulus (GPa) = 32.51644 49.99250 41.25447
# Shear Modulus (GPa) = 17.04322 23.88499 20.46410
#
# Velocity S-wave (km/s) = 3.00046 3.55202 3.28783
# Velocity P-wave (km/s) = 5.40185 6.57496 6.01706
#
# Compressibility (1/GPa) = 0.03075367
#
# Stress axis : x y z
#
# Youngs Moduli (GPa) = 56.65553 71.53269 19.46903
#
# Poissons Ratio (x) = -0.02852 0.35664
# Poissons Ratio (y) = -0.02259 0.15965
# Poissons Ratio (z) = 1.03783 0.58660
#
# Static dielectric constant tensor:
#      x y z
#    x 1.687280 0.000000 -0.032220 
#    y 0.000000 1.756120 0.000000 
#    z -0.032220 0.000000 1.647870 
# 
# From -- ./inp_files/68119.got.cif
#   From: 2010.05.17/outbox.cif.g08.bks.cpg/sg14_35_cif.got.tgz:68119.got - 2010.06.03 17:49:19.
