data_PCOD9240716
_publ_section_title
;
Structure prediction by ZEFSAII (Michael W. Deem and Ramdas Pophale) SiO2 
 PCOD9240716
Probable space group: P 21/C
;
_chemical_formula_sum "Si O2"
_cell_formula_units_Z 28
_cell_length_a 14.674540
_cell_length_b 17.288957
_cell_length_c 12.375116
_cell_angle_alpha 90.000000
_cell_angle_beta 150.967239
_cell_angle_gamma 90.000000
_cell_volume 1523.707078
_symmetry_space_group_name_H-M "P 21/C"
_symmetry_group_IT_number 14
_symmetry_cell_setting 'monoclinic'
loop_
_space_group_symop_operation_xyz
x,y,z
-x,1/2+y,1/2-z
-x,-y,-z
x,1/2-y,1/2+z
loop_
_atom_site_type_symbol
_atom_site_label
_atom_site_fract_x
_atom_site_fract_y
_atom_site_fract_z
Si Si1 0.624203 0.217315 0.010977
Si Si2 0.737939 0.008928 0.832027
Si Si3 0.963810 0.718361 0.516631
Si Si4 0.509751 0.639808 0.836202
Si Si5 0.118649 0.074352 0.227177
Si Si6 0.331709 0.348973 0.633516
Si Si7 0.370510 0.301628 0.435579
O O1 0.830140 0.248949 0.249995
O O2 0.609993 0.161996 0.892377
O O3 0.491802 0.291068 0.843978
O O4 0.525255 0.174119 0.008785
O O5 0.600894 0.080586 0.703336
O O6 0.787638 0.984753 0.761388
O O7 0.653555 0.933997 0.802113
O O8 0.938618 0.033455 0.090852
O O9 0.955301 0.647103 0.421965
O O10 0.862745 0.686398 0.520410
O O11 0.826432 0.784222 0.326878
O O12 0.715428 0.604413 0.024391
O O13 0.554165 0.718055 0.946016
O O14 0.343031 0.349523 0.516096
#
# Coordination Sequence:
#
# PCOD9240716 Si02
#       7
#     4   4   4   4   4   4   4
#     4  10  20  34  54  77 102 135 173 210 252 303
#     4  10  19  32  52  77 103 133 167 207 259 306
#     4   9  18  33  53  75  98 132 173 211 254 303
#     4  10  20  33  53  77 103 133 167 212 254 299
#     4   9  19  33  52  77 104 130 165 211 258 303
#     4   9  20  34  50  75 105 133 169 214 255 302
#     4   9  19  35  51  73 104 135 169 211 254 302
#
# _framework density 18.376235999999999
#
# number of rings (size 3 to 8) (size 9 to 14) (size 15 to 20)
#    0.000    2.571    0.000    2.143    0.000   10.286 
#    0.000    0.714    0.000    1.714    0.000    0.000 
#    0.000    0.000    0.000    0.000    0.000    0.000 
#
# Total GULP energy -156158.642254 kJ/mol
# GULP energy per Si atom -5577.094366 kJ/mol
# Density = 1.833441 g / cm^3
# Si number density = 18.376236 Si / 1000 Ang^3
#
#
#
# Elastic Constant Matrix: (Units=GPa)
#
#
# Indices 1 2 3 4 5 6 
#
# 1 50.2798 10.1567 44.7147 0.0000 2.3394 0.0000
# 2 10.1567 38.4709 14.3918 0.0000 8.2494 0.0000
# 3 44.7147 14.3918 85.1607 0.0000 13.6931 0.0000
# 4 0.0000 0.0000 0.0000 15.0666 0.0000 10.6447
# 5 2.3394 8.2494 13.6931 0.0000 22.8539 0.0000
# 6 0.0000 0.0000 0.0000 10.6447 0.0000 20.7777
#
#
#
# Elastic Compliance Matrix: (Units=1/GPa)
#
#
# Indices 1 2 3 4 5 6 
#
# 1 0.039686 -0.004617 -0.021769 0.000000 0.010647 0.000000
# 2 -0.004617 0.029664 -0.001044 0.000000 -0.009609 0.000000
# 3 -0.021769 -0.001044 0.025375 0.000000 -0.012598 0.000000
# 4 0.000000 0.000000 0.000000 0.104023 0.000000 -0.053292
# 5 0.010647 -0.009609 -0.012598 0.000000 0.053683 0.000000
# 6 0.000000 0.000000 0.000000 -0.053292 0.000000 0.075431
#
#
# Mechanical properties :
#
#
# Convention : Reuss Voigt Hill
#
# Bulk Modulus (GPa) = 25.08501 34.71530 29.90016
# Shear Modulus (GPa) = 12.62596 18.71620 15.67108
#
# Velocity S-wave (km/s) = 2.62407 3.19486 2.92343
# Velocity P-wave (km/s) = 4.78136 5.70455 5.26324
#
# Compressibility (1/GPa) = 0.03986444
#
# Stress axis : x y z
#
# Youngs Moduli (GPa) = 25.19796 33.71138 39.40909
#
# Poissons Ratio (x) = 0.15564 0.85791
# Poissons Ratio (y) = 0.11633 0.04114
# Poissons Ratio (z) = 0.54854 0.03519
#
# Static dielectric constant tensor:
#      x y z
#    x 1.660460 0.000000 0.008600 
#    y 0.000000 1.632380 0.000000 
#    z 0.008600 0.000000 1.654740 
# 
# From -- ./inp_files/32915.got.cif
#   From: 2010.05.17/outbox.cif.g08.bks.cpg/sg14_17_cif.got.tgz:32915.got - 2010.06.03 17:49:19.
