data_PCOD9240328
_publ_section_title
;
Structure prediction by ZEFSAII (Michael W. Deem and Ramdas Pophale) SiO2 
 PCOD9240328
Probable space group: P 21/C
;
_chemical_formula_sum "Si O2"
_cell_formula_units_Z 28
_cell_length_a 20.278828
_cell_length_b 14.575390
_cell_length_c 14.682579
_cell_angle_alpha 90.000000
_cell_angle_beta 18.205893
_cell_angle_gamma 90.000000
_cell_volume 1355.881571
_symmetry_space_group_name_H-M "P 21/C"
_symmetry_group_IT_number 14
_symmetry_cell_setting 'monoclinic'
loop_
_space_group_symop_operation_xyz
x,y,z
-x,1/2+y,1/2-z
-x,-y,-z
x,1/2-y,1/2+z
loop_
_atom_site_type_symbol
_atom_site_label
_atom_site_fract_x
_atom_site_fract_y
_atom_site_fract_z
Si Si1 0.435386 0.233209 0.172017
Si Si2 0.972248 0.985819 0.260513
Si Si3 0.048531 0.789138 0.212710
Si Si4 0.229582 0.630195 0.851592
Si Si5 0.870842 0.914738 0.209952
Si Si6 0.863203 0.238791 0.692388
Si Si7 0.358669 0.413009 0.164527
O O1 0.528472 0.145398 0.996007
O O2 0.607066 0.248858 0.026593
O O3 0.189939 0.223883 0.511439
O O4 0.451580 0.323054 0.087993
O O5 0.099499 0.895640 0.125985
O O6 0.825834 0.947992 0.370758
O O7 0.843076 0.036412 0.508389
O O8 0.133650 0.060784 0.006565
O O9 0.056085 0.773991 0.311507
O O10 0.183135 0.712471 0.984240
O O11 0.104576 0.656249 0.922350
O O12 0.023120 0.826792 0.001664
O O13 0.678314 0.899265 0.394238
O O14 0.000000 0.000000 0.000000
O O15 0.500000 0.500000 0.000000
#
# Coordination Sequence:
#
# PCOD9240328 Si02
#       7
#     4   4   4   4   4   4   4
#     4  10  22  41  65  89 131 172 212 265 325 391
#     4  11  22  39  67  90 134 171 214 272 324 381
#     4  12  21  44  67  90 136 174 209 280 323 380
#     4  10  23  43  61  98 131 168 221 268 319 396
#     4  10  18  36  65  91 124 165 208 281 316 355
#     4  10  22  42  63  95 132 170 217 264 324 385
#     4  11  20  37  65  99 123 165 225 274 318 374
#
# _framework density 20.650772
#
# number of rings (size 3 to 8) (size 9 to 14) (size 15 to 20)
#    0.857    0.571    4.286    3.429    0.000    1.143 
#    7.714    1.429    0.000    0.000    0.000    0.000 
#    0.000    0.000    0.000    0.000    0.000    0.000 
#
# Total GULP energy -156068.207872 kJ/mol
# GULP energy per Si atom -5573.864567 kJ/mol
# Density = 2.060377 g / cm^3
# Si number density = 20.650772 Si / 1000 Ang^3
#
#
#
# Elastic Constant Matrix: (Units=GPa)
#
#
# Indices 1 2 3 4 5 6 
#
# 1 64.9243 18.0085 -1.4581 0.0000 -5.3671 0.0000
# 2 18.0085 57.1301 -0.1586 0.0000 -1.4334 0.0000
# 3 -1.4581 -0.1586 43.2816 0.0000 -8.0071 0.0000
# 4 0.0000 0.0000 0.0000 36.9167 0.0000 12.7785
# 5 -5.3671 -1.4334 -8.0071 0.0000 25.5398 0.0000
# 6 0.0000 0.0000 0.0000 12.7785 0.0000 27.3358
#
#
#
# Elastic Compliance Matrix: (Units=1/GPa)
#
#
# Indices 1 2 3 4 5 6 
#
# 1 0.017216 -0.005330 0.001247 0.000000 0.003710 0.000000
# 2 -0.005330 0.019182 -0.000125 0.000000 -0.000083 0.000000
# 3 0.001247 -0.000125 0.024621 0.000000 0.007974 0.000000
# 4 0.000000 0.000000 0.000000 0.032317 0.000000 -0.015107
# 5 0.003710 -0.000083 0.007974 0.000000 0.042430 0.000000
# 6 0.000000 0.000000 0.000000 -0.015107 0.000000 0.043644
#
#
# Mechanical properties :
#
#
# Convention : Reuss Voigt Hill
#
# Bulk Modulus (GPa) = 19.01049 22.01328 20.51188
# Shear Modulus (GPa) = 24.34751 27.88807 26.11779
#
# Velocity S-wave (km/s) = 3.43740 3.67885 3.56017
# Velocity P-wave (km/s) = 4.99800 5.35987 5.18209
#
# Compressibility (1/GPa) = 0.05260254
#
# Stress axis : x y z
#
# Youngs Moduli (GPa) = 58.08661 52.13315 40.61533
#
# Poissons Ratio (x) = 0.27788 -0.05064
# Poissons Ratio (y) = 0.30961 0.00506
# Poissons Ratio (z) = -0.07242 0.00649
#
# Static dielectric constant tensor:
#      x y z
#    x 1.813770 0.000000 -0.040820 
#    y 0.000000 1.738160 0.000000 
#    z -0.040820 0.000000 1.813800 
# 
# From -- ./inp_files/50557.got.cif
#   From: 2010.05.17/outbox.cif.g08.bks.cpg/sg14_26_cif.got.tgz:50557.got - 2010.06.03 17:49:19.
