data_PCOD9240877
_publ_section_title
;
Structure prediction by ZEFSAII (Michael W. Deem and Ramdas Pophale) SiO2 
 PCOD9240877
Probable space group: P 21/C
;
_chemical_formula_sum "Si O2"
_cell_formula_units_Z 28
_cell_length_a 7.362578
_cell_length_b 28.089208
_cell_length_c 5.633595
_cell_angle_alpha 90.000000
_cell_angle_beta 89.023308
_cell_angle_gamma 90.000000
_cell_volume 1164.908791
_symmetry_space_group_name_H-M "P 21/C"
_symmetry_group_IT_number 14
_symmetry_cell_setting 'monoclinic'
loop_
_space_group_symop_operation_xyz
x,y,z
-x,1/2+y,1/2-z
-x,-y,-z
x,1/2-y,1/2+z
loop_
_atom_site_type_symbol
_atom_site_label
_atom_site_fract_x
_atom_site_fract_y
_atom_site_fract_z
Si Si1 0.379015 0.725270 0.961787
Si Si2 0.959888 0.871606 0.296517
Si Si3 0.622194 0.473112 0.306228
Si Si4 0.144067 0.458676 0.956528
Si Si5 0.639165 0.383337 0.002480
Si Si6 0.935268 0.727443 0.971882
Si Si7 0.874088 0.413135 0.605409
O O1 0.435073 0.748520 0.707029
O O2 0.435574 0.669652 0.972559
O O3 0.157032 0.726742 0.966463
O O4 0.147929 0.879554 0.431748
O O5 0.870787 0.825375 0.404886
O O6 0.847292 0.919711 0.336285
O O7 0.043064 0.867418 0.032104
O O8 0.500000 0.500000 0.500000
O O9 0.677341 0.513118 0.114695
O O10 0.562656 0.424624 0.172821
O O11 0.807563 0.455371 0.433613
O O12 0.049262 0.430902 0.743333
O O13 0.000000 0.500000 0.000000
O O14 0.681068 0.400492 0.734559
O O15 0.880439 0.757970 0.739696
#
# Coordination Sequence:
#
# PCOD9240877 Si02
#       7
#     4   4   4   4   4   4   4
#     4   9  18  28  48  75 107 144 182 225 280 337
#     4   9  19  29  51  74 104 144 185 223 270 339
#     4  11  23  36  53  81 113 145 183 234 283 327
#     4  11  19  36  53  80 104 145 191 219 267 341
#     4   9  19  32  48  76 109 141 182 225 277 332
#     4   9  18  28  44  74 112 142 174 229 290 331
#     4  10  19  33  56  73 111 146 185 223 278 327
#
# _framework density 24.036214000000001
#
# number of rings (size 3 to 8) (size 9 to 14) (size 15 to 20)
#    0.000    2.286    4.286    0.429   14.000    0.571 
#    0.000    0.000    0.000    0.000    0.000    2.000 
#    0.000    0.000    0.000    0.000    0.000    0.000 
#
# Total GULP energy -156050.063979 kJ/mol
# GULP energy per Si atom -5573.216571 kJ/mol
# Density = 2.398151 g / cm^3
# Si number density = 24.036214 Si / 1000 Ang^3
#
#
#
# Elastic Constant Matrix: (Units=GPa)
#
#
# Indices 1 2 3 4 5 6 
#
# 1 74.3828 19.8029 14.5591 0.0000 -9.2331 0.0000
# 2 19.8029 165.3726 71.5098 0.0000 -17.7287 0.0000
# 3 14.5591 71.5098 117.6060 0.0000 -11.8583 0.0000
# 4 0.0000 0.0000 0.0000 39.3133 0.0000 -0.6355
# 5 -9.2331 -17.7287 -11.8583 0.0000 15.2734 0.0000
# 6 0.0000 0.0000 0.0000 -0.6355 0.0000 1.3750
#
#
#
# Elastic Compliance Matrix: (Units=1/GPa)
#
#
# Indices 1 2 3 4 5 6 
#
# 1 0.014692 -0.000663 -0.000648 0.000000 0.007608 0.000000
# 2 -0.000663 0.008799 -0.004642 0.000000 0.006209 0.000000
# 3 -0.000648 -0.004642 0.011742 0.000000 0.003336 0.000000
# 4 0.000000 0.000000 0.000000 0.025628 0.000000 0.011845
# 5 0.007608 0.006209 0.003336 0.000000 0.079869 0.000000
# 6 0.000000 0.000000 0.000000 0.011845 0.000000 0.732768
#
#
# Mechanical properties :
#
#
# Convention : Reuss Voigt Hill
#
# Bulk Modulus (GPa) = 42.87110 63.23388 53.05249
# Shear Modulus (GPa) = 5.59796 27.95832 16.77814
#
# Velocity S-wave (km/s) = 1.52775 3.41423 2.64490
# Velocity P-wave (km/s) = 4.58114 6.47360 5.60778
#
# Compressibility (1/GPa) = 0.02332574
#
# Stress axis : x y z
#
# Youngs Moduli (GPa) = 68.06487 113.64449 85.16192
#
# Poissons Ratio (x) = 0.07539 0.05521
# Poissons Ratio (y) = 0.04515 0.39534
# Poissons Ratio (z) = 0.04413 0.52757
#
# Static dielectric constant tensor:
#      x y z
#    x 1.917560 0.000000 -0.075820 
#    y 0.000000 1.964140 0.000000 
#    z -0.075820 0.000000 2.171220 
# 
# From -- ./inp_files/1884.got.cif
#   From: 2010.05.17/outbox.cif.g08.bks.cpg/sg14_1_cif.got.tgz:1884.got - 2010.06.03 17:49:19.
