data_PCOD9240593
_publ_section_title
;
Structure prediction by ZEFSAII (Michael W. Deem and Ramdas Pophale) SiO2 
 PCOD9240593
Probable space group: P 21/C
;
_chemical_formula_sum "Si O2"
_cell_formula_units_Z 24
_cell_length_a 7.897627
_cell_length_b 8.101268
_cell_length_c 21.347292
_cell_angle_alpha 90.000000
_cell_angle_beta 40.152802
_cell_angle_gamma 90.000000
_cell_volume 880.717218
_symmetry_space_group_name_H-M "P 21/C"
_symmetry_group_IT_number 14
_symmetry_cell_setting 'monoclinic'
loop_
_space_group_symop_operation_xyz
x,y,z
-x,1/2+y,1/2-z
-x,-y,-z
x,1/2-y,1/2+z
loop_
_atom_site_type_symbol
_atom_site_label
_atom_site_fract_x
_atom_site_fract_y
_atom_site_fract_z
Si Si1 0.416996 0.027941 0.652247
Si Si2 0.499796 0.519394 0.597367
Si Si3 0.933596 0.766283 0.932496
Si Si4 0.114854 0.703963 0.018381
Si Si5 0.037855 0.292219 0.708816
Si Si6 0.327035 0.419996 0.313801
O O1 0.665501 0.060683 0.536767
O O2 0.209035 0.176873 0.704144
O O3 0.492848 0.052652 0.704069
O O4 0.244572 0.863297 0.692467
O O5 0.699438 0.365278 0.534258
O O6 0.221793 0.456024 0.652051
O O7 0.513906 0.568651 0.666570
O O8 0.639808 0.662842 0.519222
O O9 0.000860 0.689186 0.980229
O O10 0.131784 0.923278 0.871525
O O11 0.970780 0.690839 0.853871
O O12 0.861746 0.757225 0.130881
#
# Coordination Sequence:
#
# PCOD9240593 Si02
#       6
#     4   4   4   4   4   4
#     4  10  20  32  48  72 102 134 166 204 244 290
#     4   8  14  27  49  73  93 119 163 213 248 278
#     4   8  14  27  49  73  93 119 163 213 248 278
#     4   8  15  29  48  69  94 127 165 202 242 290
#     4  10  19  30  47  76 104 128 158 202 252 292
#     4   8  15  29  48  69  94 127 165 202 242 290
#
# _framework density 27.250516000000001
#
# number of rings (size 3 to 8) (size 9 to 14) (size 15 to 20)
#    0.000    3.333    0.000    2.500    0.000    2.667 
#    0.000    0.833    0.000    0.000    0.000   23.333 
#    0.000    0.000    0.000    0.000    0.000    0.000 
#
# Total GULP energy -134122.347904 kJ/mol
# GULP energy per Si atom -5588.431163 kJ/mol
# Density = 2.718849 g / cm^3
# Si number density = 27.250516 Si / 1000 Ang^3
#
#
#
# Elastic Constant Matrix: (Units=GPa)
#
#
# Indices 1 2 3 4 5 6 
#
# 1 61.5243 10.0725 11.8769 0.0000 5.7814 0.0000
# 2 10.0725 55.2265 15.5550 0.0000 -24.1600 0.0000
# 3 11.8769 15.5550 62.4731 0.0000 -12.6480 0.0000
# 4 0.0000 0.0000 0.0000 38.0414 0.0000 -29.7560
# 5 5.7814 -24.1600 -12.6480 0.0000 35.9315 0.0000
# 6 0.0000 0.0000 0.0000 -29.7560 0.0000 54.9553
#
#
#
# Elastic Compliance Matrix: (Units=1/GPa)
#
#
# Indices 1 2 3 4 5 6 
#
# 1 0.018758 -0.006037 -0.003764 0.000000 -0.008402 0.000000
# 2 -0.006037 0.028172 -0.001976 0.000000 0.019219 0.000000
# 3 -0.003764 -0.001976 0.018378 0.000000 0.005746 0.000000
# 4 0.000000 0.000000 0.000000 0.045600 0.000000 0.024691
# 5 -0.008402 0.019219 0.005746 0.000000 0.044128 0.000000
# 6 0.000000 0.000000 0.000000 0.024691 0.000000 0.031566
#
#
# Mechanical properties :
#
#
# Convention : Reuss Voigt Hill
#
# Bulk Modulus (GPa) = 23.94945 28.24807 26.09876
# Shear Modulus (GPa) = 22.31402 35.23359 28.77381
#
# Velocity S-wave (km/s) = 2.86466 3.59966 3.25299
# Velocity P-wave (km/s) = 4.44403 5.25979 4.86902
#
# Compressibility (1/GPa) = 0.04175462
#
# Stress axis : x y z
#
# Youngs Moduli (GPa) = 53.30977 35.49566 54.41334
#
# Poissons Ratio (x) = 0.21428 0.20482
# Poissons Ratio (y) = 0.32182 0.10752
# Poissons Ratio (z) = 0.20067 0.07014
#
# Static dielectric constant tensor:
#      x y z
#    x 2.056360 0.000000 -0.001630 
#    y 0.000000 2.226190 0.000000 
#    z -0.001630 0.000000 2.123500 
# 
# From -- ./inp_files/36234.got.cif
#   From: 2010.05.17/outbox.cif.g08.bks.cpg/sg14_19_cif.got.tgz:36234.got - 2010.06.03 17:49:19.
