data_PCOD9240889
_publ_section_title
;
Structure prediction by ZEFSAII (Michael W. Deem and Ramdas Pophale) SiO2 
 PCOD9240889
Probable space group: P 21/C
;
_chemical_formula_sum "Si O2"
_cell_formula_units_Z 32
_cell_length_a 5.143869
_cell_length_b 14.303334
_cell_length_c 24.026721
_cell_angle_alpha 90.000000
_cell_angle_beta 76.943449
_cell_angle_gamma 90.000000
_cell_volume 1722.052683
_symmetry_space_group_name_H-M "P 21/C"
_symmetry_group_IT_number 14
_symmetry_cell_setting 'monoclinic'
loop_
_space_group_symop_operation_xyz
x,y,z
-x,1/2+y,1/2-z
-x,-y,-z
x,1/2-y,1/2+z
loop_
_atom_site_type_symbol
_atom_site_label
_atom_site_fract_x
_atom_site_fract_y
_atom_site_fract_z
Si Si1 0.311696 0.254317 0.377959
Si Si2 0.006280 0.485802 0.088784
Si Si3 0.025509 0.492105 0.216408
Si Si4 0.573369 0.819643 0.307294
Si Si5 0.764607 0.306917 0.942664
Si Si6 0.457255 0.871120 0.434642
Si Si7 0.917952 0.802859 0.719887
Si Si8 0.689244 0.139964 0.792550
O O1 0.527969 0.214116 0.410609
O O2 0.274242 0.188542 0.324823
O O3 0.433422 0.348343 0.344103
O O4 0.023359 0.258280 0.420938
O O5 0.117745 0.588906 0.072764
O O6 0.251836 0.414442 0.067657
O O7 0.925745 0.479679 0.157694
O O8 0.754477 0.455648 0.064221
O O9 0.077242 0.601805 0.220330
O O10 0.815829 0.459804 0.273535
O O11 0.265364 0.417716 0.208288
O O12 0.468907 0.818887 0.374743
O O13 0.761763 0.732829 0.281622
O O14 0.365498 0.821548 0.267067
O O15 0.644056 0.308127 0.010132
O O16 0.099353 0.714406 0.694672
#
# Coordination Sequence:
#
# PCOD9240889 Si02
#       8
#     4   4   4   4   4   4   4   4
#     4  11  21  36  53  79 108 146 187 231 264 320
#     4  11  20  33  50  78 113 147 188 218 264 336
#     4  10  19  33  56  82 109 153 178 228 284 332
#     4   9  21  34  55  80 116 144 185 231 274 326
#     4  12  22  34  54  76 112 153 191 221 270 324
#     4  11  22  36  50  78 113 152 185 226 269 327
#     4  10  20  36  58  79 115 145 189 227 282 331
#     4  10  19  36  54  80 114 141 183 240 276 328
#
# _framework density 18.582476
#
# number of rings (size 3 to 8) (size 9 to 14) (size 15 to 20)
#    0.000    1.500    3.750    2.250    0.000    3.000 
#    0.000    0.000    0.000    0.000    0.000    1.750 
#    0.000    0.500    0.000    0.000    0.000    0.000 
#
# Total GULP energy -178406.100826 kJ/mol
# GULP energy per Si atom -5575.190651 kJ/mol
# Density = 1.854018 g / cm^3
# Si number density = 18.582476 Si / 1000 Ang^3
#
#
#
# Elastic Constant Matrix: (Units=GPa)
#
#
# Indices 1 2 3 4 5 6 
#
# 1 65.6248 11.0579 24.0468 0.0000 1.1476 0.0000
# 2 11.0579 30.2171 13.4304 0.0000 -0.1771 0.0000
# 3 24.0468 13.4304 101.4217 0.0000 -2.7211 0.0000
# 4 0.0000 0.0000 0.0000 23.7622 0.0000 -3.3457
# 5 1.1476 -0.1771 -2.7211 0.0000 24.6797 0.0000
# 6 0.0000 0.0000 0.0000 -3.3457 0.0000 15.4203
#
#
#
# Elastic Compliance Matrix: (Units=1/GPa)
#
#
# Indices 1 2 3 4 5 6 
#
# 1 0.017355 -0.004797 -0.003513 0.000000 -0.001229 0.000000
# 2 -0.004797 0.036491 -0.003693 0.000000 0.000078 0.000000
# 3 -0.003513 -0.003693 0.011219 0.000000 0.001374 0.000000
# 4 0.000000 0.000000 0.000000 0.043410 0.000000 0.009419
# 5 -0.001229 0.000078 0.001374 0.000000 0.040728 0.000000
# 6 0.000000 0.000000 0.000000 0.009419 0.000000 0.066893
#
#
# Mechanical properties :
#
#
# Convention : Reuss Voigt Hill
#
# Bulk Modulus (GPa) = 24.35465 32.70374 28.52920
# Shear Modulus (GPa) = 19.70156 22.68767 21.19461
#
# Velocity S-wave (km/s) = 3.25964 3.49795 3.38090
# Velocity P-wave (km/s) = 5.22510 5.82681 5.53414
#
# Compressibility (1/GPa) = 0.04105992
#
# Stress axis : x y z
#
# Youngs Moduli (GPa) = 57.62014 27.40396 89.13847
#
# Poissons Ratio (x) = 0.13146 0.31310
# Poissons Ratio (y) = 0.27641 0.32917
# Poissons Ratio (z) = 0.20239 0.10120
#
# Static dielectric constant tensor:
#      x y z
#    x 1.727560 0.000000 -0.029030 
#    y 0.000000 1.645450 0.000000 
#    z -0.029030 0.000000 1.677980 
# 
# From -- ./inp_files/71378.got.cif
#   From: 2010.05.17/outbox.cif.g08.bks.cpg/sg14_36_cif.got.tgz:71378.got - 2010.06.03 17:49:19.
