data_PCOD9240835
_publ_section_title
;
Structure prediction by ZEFSAII (Michael W. Deem and Ramdas Pophale) SiO2 
 PCOD9240835
Probable space group: P 21/C
;
_chemical_formula_sum "Si O2"
_cell_formula_units_Z 24
_cell_length_a 12.534843
_cell_length_b 20.992095
_cell_length_c 7.908702
_cell_angle_alpha 90.000000
_cell_angle_beta 27.627837
_cell_angle_gamma 90.000000
_cell_volume 965.032291
_symmetry_space_group_name_H-M "P 21/C"
_symmetry_group_IT_number 14
_symmetry_cell_setting 'monoclinic'
loop_
_space_group_symop_operation_xyz
x,y,z
-x,1/2+y,1/2-z
-x,-y,-z
x,1/2-y,1/2+z
loop_
_atom_site_type_symbol
_atom_site_label
_atom_site_fract_x
_atom_site_fract_y
_atom_site_fract_z
Si Si1 0.755180 0.948207 0.586141
Si Si2 0.205025 0.274279 0.055732
Si Si3 0.798024 0.848903 0.785526
Si Si4 0.596723 0.886986 0.502011
Si Si5 0.921350 0.090642 0.358902
Si Si6 0.824828 0.360447 0.646493
O O1 0.695977 0.912637 0.844382
O O2 0.572926 0.936986 0.691335
O O3 0.824219 0.020434 0.513392
O O4 0.975608 0.909122 0.201329
O O5 0.282382 0.201641 0.959986
O O6 0.346863 0.321243 0.978264
O O7 0.937720 0.290164 0.476595
O O8 0.212911 0.300436 0.855714
O O9 0.044082 0.871899 0.514660
O O10 0.384378 0.877214 0.678442
O O11 0.814658 0.911124 0.083934
O O12 0.788175 0.126570 0.396129
#
# Coordination Sequence:
#
# PCOD9240835 Si02
#       6
#     4   4   4   4   4   4
#     4   9  20  34  54  79 107 141 173 210 256 309
#     4   9  19  36  56  76 102 137 177 219 262 305
#     4  10  19  37  56  74 107 139 173 222 261 304
#     4   9  18  34  57  81 106 137 172 212 257 310
#     4  10  19  33  53  81 109 139 172 207 261 312
#     4   9  18  34  57  81 106 137 172 212 257 310
#
# _framework density 24.869633
#
# number of rings (size 3 to 8) (size 9 to 14) (size 15 to 20)
#    0.000    3.333    0.000    4.500    0.000    2.667 
#    0.000   21.667    0.000   10.000    0.000    0.000 
#    0.000    0.000    0.000    0.000    0.000    0.000 
#
# Total GULP energy -133909.038529 kJ/mol
# GULP energy per Si atom -5579.543272 kJ/mol
# Density = 2.481303 g / cm^3
# Si number density = 24.869633 Si / 1000 Ang^3
#
#
#
# Elastic Constant Matrix: (Units=GPa)
#
#
# Indices 1 2 3 4 5 6 
#
# 1 185.6180 8.7340 31.9733 0.0000 -9.0540 0.0000
# 2 8.7340 96.4906 14.5043 0.0000 19.5646 0.0000
# 3 31.9733 14.5043 61.1715 0.0000 -11.0913 0.0000
# 4 0.0000 0.0000 0.0000 22.4781 0.0000 8.6936
# 5 -9.0540 19.5646 -11.0913 0.0000 29.5383 0.0000
# 6 0.0000 0.0000 0.0000 8.6936 0.0000 31.1599
#
#
#
# Elastic Compliance Matrix: (Units=1/GPa)
#
#
# Indices 1 2 3 4 5 6 
#
# 1 0.005941 -0.000299 -0.002863 0.000000 0.000944 0.000000
# 2 -0.000299 0.013321 -0.004956 0.000000 -0.010775 0.000000
# 3 -0.002863 -0.004956 0.020876 0.000000 0.010244 0.000000
# 4 0.000000 0.000000 0.000000 0.049869 0.000000 -0.013913
# 5 0.000944 -0.010775 0.010244 0.000000 0.045127 0.000000
# 6 0.000000 0.000000 0.000000 -0.013913 0.000000 0.035974
#
#
# Mechanical properties :
#
#
# Convention : Reuss Voigt Hill
#
# Bulk Modulus (GPa) = 41.83756 50.41148 46.12452
# Shear Modulus (GPa) = 25.60019 35.83983 30.72001
#
# Velocity S-wave (km/s) = 3.21187 3.80031 3.51841
# Velocity P-wave (km/s) = 5.53300 6.29053 5.92389
#
# Compressibility (1/GPa) = 0.02390197
#
# Stress axis : x y z
#
# Youngs Moduli (GPa) = 168.33080 75.07220 47.90077
#
# Poissons Ratio (x) = 0.02242 0.13715
# Poissons Ratio (y) = 0.05028 0.23740
# Poissons Ratio (z) = 0.48196 0.37206
#
# Static dielectric constant tensor:
#      x y z
#    x 2.050750 0.000000 0.071240 
#    y 0.000000 1.940000 0.000000 
#    z 0.071240 0.000000 2.152940 
# 
# From -- ./inp_files/14090.got.cif
#   From: 2010.05.17/outbox.cif.g08.bks.cpg/sg14_8_cif.got.tgz:14090.got - 2010.06.03 17:49:19.
