data_PCOD9240555
_publ_section_title
;
Structure prediction by ZEFSAII (Michael W. Deem and Ramdas Pophale) SiO2 
 PCOD9240555
Probable space group: P 21/C
;
_chemical_formula_sum "Si O2"
_cell_formula_units_Z 30
_cell_length_a 21.820848
_cell_length_b 10.024652
_cell_length_c 11.452206
_cell_angle_alpha 90.000000
_cell_angle_beta 150.220351
_cell_angle_gamma 90.000000
_cell_volume 1244.211625
_symmetry_space_group_name_H-M "P 21/C"
_symmetry_group_IT_number 14
_symmetry_cell_setting 'monoclinic'
loop_
_space_group_symop_operation_xyz
x,y,z
-x,1/2+y,1/2-z
-x,-y,-z
x,1/2-y,1/2+z
loop_
_atom_site_type_symbol
_atom_site_label
_atom_site_fract_x
_atom_site_fract_y
_atom_site_fract_z
Si Si1 0.735118 0.095458 0.760073
Si Si2 0.794445 0.808752 0.910478
Si Si3 0.000000 0.000000 0.500000
Si Si4 0.433119 0.846201 0.974492
Si Si5 0.704283 0.160349 0.459603
Si Si6 0.710168 0.039107 0.064925
Si Si7 0.938974 0.253540 0.721053
Si Si8 0.683330 0.744888 0.470012
O O1 0.630470 0.198941 0.624208
O O2 0.720434 0.071958 0.599534
O O3 0.742249 0.957859 0.838590
O O4 0.864456 0.169807 0.996662
O O5 0.740582 0.762242 0.695125
O O6 0.765171 0.736843 0.986067
O O7 0.941967 0.816407 0.136754
O O8 0.854808 0.009085 0.297610
O O9 0.980753 0.136824 0.385163
O O10 0.416902 0.879573 0.812457
O O11 0.341461 0.942418 0.891287
O O12 0.563133 0.832906 0.249944
O O13 0.688900 0.315449 0.472999
O O14 0.833447 0.159313 0.602417
O O15 0.643483 0.910731 0.902662
#
# Coordination Sequence:
#
# PCOD9240555 Si02
#       8
#     4   4   2   4   4   4   4   4
#     4  10  24  42  70 103 137 184 238 299 357 430
#     4  12  28  46  69 110 142 185 238 299 361 422
#     4  10  18  42  72  98 136 176 240 276 368 424
#     4  10  24  44  71  99 141 189 239 286 362 423
#     4   9  21  41  68 102 133 186 235 294 356 428
#     4  10  22  42  74 102 134 192 236 299 357 430
#     4  10  22  41  70 100 141 185 229 296 362 435
#     4  12  28  46  70 103 144 189 239 296 353 434
#
# _framework density 24.111653
#
# number of rings (size 3 to 8) (size 9 to 14) (size 15 to 20)
#    0.000    1.600    1.333    2.400    7.467    8.000 
#    0.000    1.333    0.000    0.000    0.000    0.000 
#    0.000    0.000    0.000    0.000    0.000    0.000 
#
# Total GULP energy -167145.084360 kJ/mol
# GULP energy per Si atom -5571.502812 kJ/mol
# Density = 2.405677 g / cm^3
# Si number density = 24.111653 Si / 1000 Ang^3
#
#
#
# Elastic Constant Matrix: (Units=GPa)
#
#
# Indices 1 2 3 4 5 6 
#
# 1 64.2522 10.3382 19.7052 0.0000 -22.0915 0.0000
# 2 10.3382 67.9567 14.7238 0.0000 6.1203 0.0000
# 3 19.7052 14.7238 93.1860 0.0000 -15.9879 0.0000
# 4 0.0000 0.0000 0.0000 31.9204 0.0000 -8.8764
# 5 -22.0915 6.1203 -15.9879 0.0000 26.9908 0.0000
# 6 0.0000 0.0000 0.0000 -8.8764 0.0000 5.5661
#
#
#
# Elastic Compliance Matrix: (Units=1/GPa)
#
#
# Indices 1 2 3 4 5 6 
#
# 1 0.023496 -0.005220 -0.000714 0.000000 0.019993 0.000000
# 2 -0.005220 0.017148 -0.003346 0.000000 -0.010143 0.000000
# 3 -0.000714 -0.003346 0.012735 0.000000 0.007718 0.000000
# 4 0.000000 0.000000 0.000000 0.056291 0.000000 0.089769
# 5 0.019993 -0.010143 0.007718 0.000000 0.060285 0.000000
# 6 0.000000 0.000000 0.000000 0.089769 0.000000 0.322818
#
#
# Mechanical properties :
#
#
# Convention : Reuss Voigt Hill
#
# Bulk Modulus (GPa) = 28.71945 34.99215 31.85580
# Shear Modulus (GPa) = 9.56133 24.93730 17.24931
#
# Velocity S-wave (km/s) = 1.99350 3.21945 2.67759
# Velocity P-wave (km/s) = 4.15158 5.32578 4.77491
#
# Compressibility (1/GPa) = 0.03481960
#
# Stress axis : x y z
#
# Youngs Moduli (GPa) = 42.55966 58.31632 78.52397
#
# Poissons Ratio (x) = 0.30444 0.05604
# Poissons Ratio (y) = 0.22218 0.26272
# Poissons Ratio (z) = 0.03037 0.19511
#
# Static dielectric constant tensor:
#      x y z
#    x 1.978030 0.000000 -0.073370 
#    y 0.000000 2.112820 0.000000 
#    z -0.073370 0.000000 1.916750 
# 
# From -- ./inp_files/35888.got.cif
#   From: 2010.05.17/outbox.cif.g08.bks.cpg/sg14_18_cif.got.tgz:35888.got - 2010.06.03 17:49:19.
