data_PCOD9240641
_publ_section_title
;
Structure prediction by ZEFSAII (Michael W. Deem and Ramdas Pophale) SiO2 
 PCOD9240641
Probable space group: P 21/C
;
_chemical_formula_sum "Si O2"
_cell_formula_units_Z 24
_cell_length_a 9.251849
_cell_length_b 18.433744
_cell_length_c 15.226675
_cell_angle_alpha 90.000000
_cell_angle_beta 153.881756
_cell_angle_gamma 90.000000
_cell_volume 1143.199333
_symmetry_space_group_name_H-M "P 21/C"
_symmetry_group_IT_number 14
_symmetry_cell_setting 'monoclinic'
loop_
_space_group_symop_operation_xyz
x,y,z
-x,1/2+y,1/2-z
-x,-y,-z
x,1/2-y,1/2+z
loop_
_atom_site_type_symbol
_atom_site_label
_atom_site_fract_x
_atom_site_fract_y
_atom_site_fract_z
Si Si1 0.758705 0.399245 0.132746
Si Si2 0.897190 0.319569 0.581683
Si Si3 0.464598 0.680616 0.163101
Si Si4 0.986461 0.945101 0.734067
Si Si5 0.817946 0.343168 0.801372
Si Si6 0.174739 0.232933 0.899991
O O1 0.987680 0.469901 0.253085
O O2 0.928799 0.334480 0.278108
O O3 0.699849 0.366732 0.003790
O O4 0.400155 0.422239 0.971961
O O5 0.148165 0.330950 0.638448
O O6 0.830816 0.396270 0.592439
O O7 0.093160 0.274924 0.765206
O O8 0.613351 0.265411 0.397422
O O9 0.309195 0.656456 0.169680
O O10 0.117563 0.919011 0.711421
O O11 0.532364 0.301440 0.591712
O O12 0.129284 0.291158 0.952800
#
# Coordination Sequence:
#
# PCOD9240641 Si02
#       6
#     4   4   4   4   4   4
#     4   9  19  35  54  71  98 136 170 197 242 299
#     4   9  17  32  51  70  94 128 167 196 239 295
#     4  10  19  31  50  75  99 126 159 207 251 290
#     4   9  18  34  54  73  98 134 169 202 241 295
#     4  11  20  31  51  76 102 124 160 210 252 287
#     4  10  19  33  52  74  97 131 169 202 241 296
#
# _framework density 20.993713
#
# number of rings (size 3 to 8) (size 9 to 14) (size 15 to 20)
#    0.000    2.333    0.000    6.000    0.000    1.333 
#    0.000    0.000    0.000   20.000    0.000    0.000 
#    0.000    0.000    0.000    0.000    0.000    0.000 
#
# Total GULP energy -133987.499928 kJ/mol
# GULP energy per Si atom -5582.812497 kJ/mol
# Density = 2.094593 g / cm^3
# Si number density = 20.993713 Si / 1000 Ang^3
#
#
#
# Elastic Constant Matrix: (Units=GPa)
#
#
# Indices 1 2 3 4 5 6 
#
# 1 113.1718 11.0369 -4.6983 0.0000 2.2757 0.0000
# 2 11.0369 81.1902 -4.9385 0.0000 -1.3814 0.0000
# 3 -4.6983 -4.9385 13.8707 0.0000 -3.5495 0.0000
# 4 0.0000 0.0000 0.0000 19.9435 0.0000 7.7535
# 5 2.2757 -1.3814 -3.5495 0.0000 14.4759 0.0000
# 6 0.0000 0.0000 0.0000 7.7535 0.0000 16.8103
#
#
#
# Elastic Compliance Matrix: (Units=1/GPa)
#
#
# Indices 1 2 3 4 5 6 
#
# 1 0.009063 -0.001099 0.002440 0.000000 -0.000931 0.000000
# 2 -0.001099 0.012805 0.004848 0.000000 0.002583 0.000000
# 3 0.002440 0.004848 0.079666 0.000000 0.019613 0.000000
# 4 0.000000 0.000000 0.000000 0.061097 0.000000 -0.028180
# 5 -0.000931 0.002583 0.019613 0.000000 0.074283 0.000000
# 6 0.000000 0.000000 0.000000 -0.028180 0.000000 0.072485
#
#
# Mechanical properties :
#
#
# Convention : Reuss Voigt Hill
#
# Bulk Modulus (GPa) = 8.77873 23.44808 16.11340
# Shear Modulus (GPa) = 14.92568 24.03478 19.48023
#
# Velocity S-wave (km/s) = 2.66927 3.38724 3.04946
# Velocity P-wave (km/s) = 3.70010 5.14696 4.48230
#
# Compressibility (1/GPa) = 0.11391174
#
# Stress axis : x y z
#
# Youngs Moduli (GPa) = 110.33409 78.09419 12.55237
#
# Poissons Ratio (x) = 0.08586 -0.03063
# Poissons Ratio (y) = 0.12131 -0.06085
# Poissons Ratio (z) = -0.26924 -0.37859
#
# Static dielectric constant tensor:
#      x y z
#    x 1.777810 0.000000 0.017580 
#    y 0.000000 1.753380 0.000000 
#    z 0.017580 0.000000 1.802250 
# 
# From -- ./inp_files/9042.got.cif
#   From: 2010.05.17/outbox.cif.g08.bks.cpg/sg14_5_cif.got.tgz:9042.got - 2010.06.03 17:49:19.
