data_PCOD9240694
_publ_section_title
;
Structure prediction by ZEFSAII (Michael W. Deem and Ramdas Pophale) SiO2 
 PCOD9240694
Probable space group: P 21/C
;
_chemical_formula_sum "Si O2"
_cell_formula_units_Z 28
_cell_length_a 11.553551
_cell_length_b 18.014765
_cell_length_c 5.473825
_cell_angle_alpha 90.000000
_cell_angle_beta 97.032590
_cell_angle_gamma 90.000000
_cell_volume 1130.720596
_symmetry_space_group_name_H-M "P 21/C"
_symmetry_group_IT_number 14
_symmetry_cell_setting 'monoclinic'
loop_
_space_group_symop_operation_xyz
x,y,z
-x,1/2+y,1/2-z
-x,-y,-z
x,1/2-y,1/2+z
loop_
_atom_site_type_symbol
_atom_site_label
_atom_site_fract_x
_atom_site_fract_y
_atom_site_fract_z
Si Si1 0.564625 0.264663 0.429879
Si Si2 0.107665 0.786230 0.797529
Si Si3 0.364892 0.367432 0.867206
Si Si4 0.860047 0.915694 0.412943
Si Si5 0.545092 0.921891 0.104960
Si Si6 0.844383 0.731110 0.660320
Si Si7 0.072255 0.950797 0.819221
O O1 0.628198 0.250710 0.195647
O O2 0.449520 0.207688 0.400290
O O3 0.539858 0.351591 0.430047
O O4 0.144310 0.767928 0.528860
O O5 0.125142 0.870633 0.897581
O O6 0.966386 0.773560 0.727471
O O7 0.419540 0.418982 0.100786
O O8 0.232186 0.379641 0.925691
O O9 0.367387 0.396843 0.590532
O O10 0.874165 0.854551 0.206405
O O11 0.978886 0.929157 0.587113
O O12 0.833028 0.994028 0.277946
O O13 0.500000 0.000000 0.000000
O O14 0.778390 0.744426 0.390824
O O15 0.000000 0.000000 0.000000
#
# Coordination Sequence:
#
# PCOD9240694 Si02
#       7
#     4   4   4   4   4   4   4
#     4   8  16  32  51  84 120 148 183 222 285 350
#     4  10  19  36  52  75 101 145 211 245 299 338
#     4  10  22  36  56  89 124 154 189 240 300 351
#     4  11  24  35  54  85 124 162 202 254 300 352
#     4  10  20  38  60  86 120 158 190 233 298 372
#     4  10  19  32  50  74 107 149 200 234 300 340
#     4  11  23  37  55  80 121 168 213 248 302 353
#
# _framework density 24.762968999999998
#
# number of rings (size 3 to 8) (size 9 to 14) (size 15 to 20)
#    0.000    2.000    2.857    2.143    4.000    3.429 
#    0.000    0.000    0.000    0.000    0.000   18.000 
#    0.000    0.000    0.000    0.000    0.000    0.000 
#
# Total GULP energy -156000.047907 kJ/mol
# GULP energy per Si atom -5571.430282 kJ/mol
# Density = 2.470661 g / cm^3
# Si number density = 24.762969 Si / 1000 Ang^3
#
#
#
# Elastic Constant Matrix: (Units=GPa)
#
#
# Indices 1 2 3 4 5 6 
#
# 1 44.1509 6.9768 1.2734 0.0000 7.1755 0.0000
# 2 6.9768 166.9488 28.3955 0.0000 -3.1451 0.0000
# 3 1.2734 28.3955 146.8866 0.0000 -3.3403 0.0000
# 4 0.0000 0.0000 0.0000 43.3725 0.0000 -6.9508
# 5 7.1755 -3.1451 -3.3403 0.0000 38.3942 0.0000
# 6 0.0000 0.0000 0.0000 -6.9508 0.0000 11.7955
#
#
#
# Elastic Compliance Matrix: (Units=1/GPa)
#
#
# Indices 1 2 3 4 5 6 
#
# 1 0.023549 -0.001051 -0.000103 0.000000 -0.004496 0.000000
# 2 -0.001051 0.006247 -0.001185 0.000000 0.000605 0.000000
# 3 -0.000103 -0.001185 0.007050 0.000000 0.000536 0.000000
# 4 0.000000 0.000000 0.000000 0.025460 0.000000 0.015003
# 5 -0.004496 0.000605 0.000536 0.000000 0.026982 0.000000
# 6 0.000000 0.000000 0.000000 0.015003 0.000000 0.093620
#
#
# Mechanical properties :
#
#
# Convention : Reuss Voigt Hill
#
# Bulk Modulus (GPa) = 31.08696 47.91976 39.50336
# Shear Modulus (GPa) = 25.21314 40.13515 32.67415
#
# Velocity S-wave (km/s) = 3.19435 4.03025 3.63640
# Velocity P-wave (km/s) = 5.11725 6.40707 5.79814
#
# Compressibility (1/GPa) = 0.03216783
#
# Stress axis : x y z
#
# Youngs Moduli (GPa) = 42.46390 160.08461 141.84258
#
# Poissons Ratio (x) = 0.16829 0.01464
# Poissons Ratio (y) = 0.04464 0.16804
# Poissons Ratio (z) = 0.00438 0.18965
#
# Static dielectric constant tensor:
#      x y z
#    x 2.282790 0.000000 -0.017470 
#    y 0.000000 2.071930 0.000000 
#    z -0.017470 0.000000 2.085220 
# 
# From -- ./inp_files/3677.got.cif
#   From: 2010.05.17/outbox.cif.g08.bks.cpg/sg14_2_cif.got.tgz:3677.got - 2010.06.03 17:49:19.
