data_PCOD9240590
_publ_section_title
;
Structure prediction by ZEFSAII (Michael W. Deem and Ramdas Pophale) SiO2 
 PCOD9240590
Probable space group: P 21/C
;
_chemical_formula_sum "Si O2"
_cell_formula_units_Z 28
_cell_length_a 11.814363
_cell_length_b 5.609238
_cell_length_c 21.823588
_cell_angle_alpha 90.000000
_cell_angle_beta 77.054498
_cell_angle_gamma 90.000000
_cell_volume 1409.481653
_symmetry_space_group_name_H-M "P 21/C"
_symmetry_group_IT_number 14
_symmetry_cell_setting 'monoclinic'
loop_
_space_group_symop_operation_xyz
x,y,z
-x,1/2+y,1/2-z
-x,-y,-z
x,1/2-y,1/2+z
loop_
_atom_site_type_symbol
_atom_site_label
_atom_site_fract_x
_atom_site_fract_y
_atom_site_fract_z
Si Si1 0.559248 0.689039 0.948512
Si Si2 0.732899 0.125234 0.380207
Si Si3 0.964162 0.040741 0.408788
Si Si4 0.326547 0.933298 0.990589
Si Si5 0.906054 0.310437 0.534205
Si Si6 0.848178 0.339679 0.255142
Si Si7 0.909576 0.838225 0.199823
O O1 0.627928 0.559615 0.886195
O O2 0.655424 0.813706 0.979561
O O3 0.500000 0.500000 0.000000
O O4 0.452112 0.863979 0.947157
O O5 0.704242 0.271213 0.445880
O O6 0.756345 0.298210 0.320864
O O7 0.856637 0.993495 0.376524
O O8 0.035756 0.263260 0.372445
O O9 0.909093 0.108644 0.480543
O O10 0.048428 0.819776 0.410687
O O11 0.222775 0.915776 0.954867
O O12 0.000000 0.500000 0.500000
O O13 0.836429 0.600134 0.226117
O O14 0.976960 0.348626 0.269978
O O15 0.847384 0.092863 0.215909
#
# Coordination Sequence:
#
# PCOD9240590 Si02
#       7
#     4   4   4   4   4   4   4
#     4   9  17  30  47  67  96 126 158 207 256 294
#     4   9  17  29  48  71  98 127 158 203 251 300
#     4   9  19  31  45  70 101 130 162 199 243 300
#     4   9  18  30  46  70  98 127 166 205 250 302
#     4  10  19  30  47  70  97 134 168 197 244 304
#     4   9  18  29  47  71  98 133 163 204 248 304
#     4   9  18  31  45  69 102 131 167 200 249 297
#
# _framework density 19.865459999999999
#
# number of rings (size 3 to 8) (size 9 to 14) (size 15 to 20)
#    0.000    2.857    0.000    0.857    4.000    1.143 
#    0.000    0.000    0.000    0.000    0.000    2.000 
#    0.000    0.000    0.000    0.000    0.000    0.000 
#
# Total GULP energy -155872.324687 kJ/mol
# GULP energy per Si atom -5566.868739 kJ/mol
# Density = 1.982025 g / cm^3
# Si number density = 19.865460 Si / 1000 Ang^3
#
#
#
# Elastic Constant Matrix: (Units=GPa)
#
#
# Indices 1 2 3 4 5 6 
#
# 1 57.3867 11.1888 5.7402 0.0000 -8.4741 0.0000
# 2 11.1888 70.4282 12.8805 0.0000 0.6850 0.0000
# 3 5.7402 12.8805 56.2267 0.0000 -15.2732 0.0000
# 4 0.0000 0.0000 0.0000 34.6121 0.0000 -5.5415
# 5 -8.4741 0.6850 -15.2732 0.0000 16.1907 0.0000
# 6 0.0000 0.0000 0.0000 -5.5415 0.0000 24.1925
#
#
#
# Elastic Compliance Matrix: (Units=1/GPa)
#
#
# Indices 1 2 3 4 5 6 
#
# 1 0.019783 -0.003678 0.002256 0.000000 0.012638 0.000000
# 2 -0.003678 0.015830 -0.005319 0.000000 -0.007612 0.000000
# 3 0.002256 -0.005319 0.025754 0.000000 0.025701 0.000000
# 4 0.000000 0.000000 0.000000 0.029992 0.000000 0.006870
# 5 0.012638 -0.007612 0.025701 0.000000 0.092945 0.000000
# 6 0.000000 0.000000 0.000000 0.006870 0.000000 0.042909
#
#
# Mechanical properties :
#
#
# Convention : Reuss Voigt Hill
#
# Bulk Modulus (GPa) = 20.88305 27.07340 23.97822
# Shear Modulus (GPa) = 19.48129 25.28121 22.38125
#
# Velocity S-wave (km/s) = 3.13495 3.57125 3.36019
# Velocity P-wave (km/s) = 4.86199 5.53743 5.21066
#
# Compressibility (1/GPa) = 0.04788573
#
# Stress axis : x y z
#
# Youngs Moduli (GPa) = 50.54743 63.17133 38.82828
#
# Poissons Ratio (x) = 0.23237 -0.08760
# Poissons Ratio (y) = 0.18594 0.20651
# Poissons Ratio (z) = -0.11403 0.33598
#
# Static dielectric constant tensor:
#      x y z
#    x 1.715900 0.000000 0.000360 
#    y 0.000000 1.777500 0.000000 
#    z 0.000360 0.000000 1.755600 
# 
# From -- ./inp_files/72628.got.cif
#   From: 2010.05.17/outbox.cif.g08.bks.cpg/sg14_37_cif.got.tgz:72628.got - 2010.06.03 17:49:19.
