data_PCOD9240940
_publ_section_title
;
Structure prediction by ZEFSAII (Michael W. Deem and Ramdas Pophale) SiO2 
 PCOD9240940
Probable space group: P 21/C
;
_chemical_formula_sum "Si O2"
_cell_formula_units_Z 32
_cell_length_a 10.853609
_cell_length_b 16.995716
_cell_length_c 14.219600
_cell_angle_alpha 90.000000
_cell_angle_beta 148.584483
_cell_angle_gamma 90.000000
_cell_volume 1367.223133
_symmetry_space_group_name_H-M "P 21/C"
_symmetry_group_IT_number 14
_symmetry_cell_setting 'monoclinic'
loop_
_space_group_symop_operation_xyz
x,y,z
-x,1/2+y,1/2-z
-x,-y,-z
x,1/2-y,1/2+z
loop_
_atom_site_type_symbol
_atom_site_label
_atom_site_fract_x
_atom_site_fract_y
_atom_site_fract_z
Si Si1 0.834945 0.397802 0.502726
Si Si2 0.952968 0.492309 0.110404
Si Si3 0.523403 0.911232 0.375499
Si Si4 0.852875 0.204672 0.707479
Si Si5 0.666202 0.823463 0.652850
Si Si6 0.694826 0.375216 0.628733
Si Si7 0.072056 0.546395 0.682685
Si Si8 0.185451 0.339725 0.262777
O O1 0.641858 0.365734 0.305640
O O2 0.749814 0.383200 0.553029
O O3 0.101214 0.367717 0.661889
O O4 0.871181 0.491277 0.509702
O O5 0.939111 0.474188 0.213882
O O6 0.158142 0.556019 0.226819
O O7 0.028477 0.408620 0.116072
O O8 0.705224 0.535822 0.934848
O O9 0.653652 0.852410 0.533337
O O10 0.336467 0.963784 0.313812
O O11 0.612211 0.165549 0.508569
O O12 0.783995 0.286899 0.709254
O O13 0.964050 0.139700 0.848358
O O14 0.031206 0.208768 0.737706
O O15 0.701910 0.734460 0.715447
O O16 0.413636 0.381098 0.458969
#
# Coordination Sequence:
#
# PCOD9240940 Si02
#       8
#     4   4   4   4   4   4   4   4
#     4  11  21  35  59  87 121 150 188 232 304 341
#     4  10  19  33  60  82 112 153 194 231 286 342
#     4  11  20  35  61  88 119 150 189 238 296 344
#     4   9  18  32  62  81 109 152 193 235 289 338
#     4  10  20  37  60  82 116 151 186 241 291 338
#     4  10  19  36  57  82 113 156 191 234 288 342
#     4   9  19  33  55  89 115 143 186 241 280 337
#     4  10  19  34  62  80 111 153 196 233 283 339
#
# _framework density 23.405104000000001
#
# number of rings (size 3 to 8) (size 9 to 14) (size 15 to 20)
#    0.000    2.000    3.750    1.125    3.500    0.000 
#    0.000    0.625   44.000    0.000    0.000    0.000 
#    0.000    0.000    0.000    0.000    0.000    0.000 
#
# Total GULP energy -178218.863605 kJ/mol
# GULP energy per Si atom -5569.339488 kJ/mol
# Density = 2.335183 g / cm^3
# Si number density = 23.405104 Si / 1000 Ang^3
#
#
#
# Elastic Constant Matrix: (Units=GPa)
#
#
# Indices 1 2 3 4 5 6 
#
# 1 29.9738 0.5557 17.7929 0.0000 6.7834 0.0000
# 2 0.5557 114.7607 36.9440 0.0000 1.3391 0.0000
# 3 17.7929 36.9440 84.8772 0.0000 4.6452 0.0000
# 4 0.0000 0.0000 0.0000 25.5325 0.0000 17.7742
# 5 6.7834 1.3391 4.6452 0.0000 37.8619 0.0000
# 6 0.0000 0.0000 0.0000 17.7742 0.0000 15.7465
#
#
#
# Elastic Compliance Matrix: (Units=1/GPa)
#
#
# Indices 1 2 3 4 5 6 
#
# 1 0.040261 0.002890 -0.009361 0.000000 -0.006167 0.000000
# 2 0.002890 0.010343 -0.005093 0.000000 -0.000259 0.000000
# 3 -0.009361 -0.005093 0.015967 0.000000 -0.000102 0.000000
# 4 0.000000 0.000000 0.000000 0.182831 0.000000 -0.206374
# 5 -0.006167 -0.000259 -0.000102 0.000000 0.027538 0.000000
# 6 0.000000 0.000000 0.000000 -0.206374 0.000000 0.296456
#
#
# Mechanical properties :
#
#
# Convention : Reuss Voigt Hill
#
# Bulk Modulus (GPa) = 23.01871 37.79964 30.40917
# Shear Modulus (GPa) = 8.18326 27.44944 17.81635
#
# Velocity S-wave (km/s) = 1.87188 3.42833 2.76201
# Velocity P-wave (km/s) = 3.81159 5.64415 4.81584
#
# Compressibility (1/GPa) = 0.04344292
#
# Stress axis : x y z
#
# Youngs Moduli (GPa) = 24.83783 96.68833 62.63087
#
# Poissons Ratio (x) = -0.27946 0.58626
# Poissons Ratio (y) = -0.07179 0.31901
# Poissons Ratio (z) = 0.23250 0.49248
#
# Static dielectric constant tensor:
#      x y z
#    x 1.949450 0.000000 -0.000190 
#    y 0.000000 1.984960 0.000000 
#    z -0.000190 0.000000 1.858290 
# 
# From -- ./inp_files/68804.got.cif
#   From: 2010.05.17/outbox.cif.g08.bks.cpg/sg14_35_cif.got.tgz:68804.got - 2010.06.03 17:49:19.
