data_PCOD9240737
_publ_section_title
;
Structure prediction by ZEFSAII (Michael W. Deem and Ramdas Pophale) SiO2 
 PCOD9240737
Probable space group: P 21/C
;
_chemical_formula_sum "Si O2"
_cell_formula_units_Z 28
_cell_length_a 21.966236
_cell_length_b 5.785292
_cell_length_c 13.049624
_cell_angle_alpha 90.000000
_cell_angle_beta 39.666250
_cell_angle_gamma 90.000000
_cell_volume 1058.555500
_symmetry_space_group_name_H-M "P 21/C"
_symmetry_group_IT_number 14
_symmetry_cell_setting 'monoclinic'
loop_
_space_group_symop_operation_xyz
x,y,z
-x,1/2+y,1/2-z
-x,-y,-z
x,1/2-y,1/2+z
loop_
_atom_site_type_symbol
_atom_site_label
_atom_site_fract_x
_atom_site_fract_y
_atom_site_fract_z
Si Si1 0.844682 0.886753 0.530895
Si Si2 0.901501 0.923165 0.680877
Si Si3 0.123916 0.603475 0.493847
Si Si4 0.510905 0.802144 0.900925
Si Si5 0.858955 0.416704 0.762026
Si Si6 0.327830 0.984173 0.393968
Si Si7 0.351276 0.904881 0.704641
O O1 0.893685 0.135766 0.443216
O O2 0.746168 0.900432 0.594694
O O3 0.831315 0.895908 0.672312
O O4 0.905441 0.653751 0.432808
O O5 0.900286 0.672320 0.738213
O O6 0.872734 0.149895 0.783912
O O7 0.000000 0.000000 0.500000
O O8 0.100427 0.604750 0.404291
O O9 0.238926 0.572977 0.341329
O O10 0.583352 0.622653 0.858615
O O11 0.572648 0.881410 0.723152
O O12 0.403649 0.708927 0.038196
O O13 0.500000 0.000000 0.000000
O O14 0.745649 0.454271 0.919307
O O15 0.358426 0.749570 0.298570
#
# Coordination Sequence:
#
# PCOD9240737 Si02
#       7
#     4   4   4   4   4   4   4
#     4   9  18  32  55  77 101 140 176 208 258 323
#     4  10  21  40  57  78 108 143 174 210 268 338
#     4   9  17  33  51  76 101 141 181 210 249 327
#     4   9  17  29  50  77 102 142 180 218 260 308
#     4  10  22  34  59  82 107 136 176 223 272 305
#     4  10  19  32  53  81 107 134 182 230 262 304
#     4   9  17  30  53  73 105 144 183 212 260 311
#
# _framework density 26.451142000000001
#
# number of rings (size 3 to 8) (size 9 to 14) (size 15 to 20)
#    0.000    2.571    1.429    0.429    2.000    0.000 
#    0.000    1.429    9.429    0.000    0.000    0.000 
#    0.000    0.000    0.000    0.000    0.000    0.000 
#
# Total GULP energy -155890.500604 kJ/mol
# GULP energy per Si atom -5567.517879 kJ/mol
# Density = 2.639094 g / cm^3
# Si number density = 26.451142 Si / 1000 Ang^3
#
#
#
# Elastic Constant Matrix: (Units=GPa)
#
#
# Indices 1 2 3 4 5 6 
#
# 1 41.3871 21.9473 0.2299 0.0000 -1.6631 0.0000
# 2 21.9473 255.0345 44.6615 0.0000 6.5153 0.0000
# 3 0.2299 44.6615 159.8679 0.0000 -18.6752 0.0000
# 4 0.0000 0.0000 0.0000 37.2018 0.0000 -9.8735
# 5 -1.6631 6.5153 -18.6752 0.0000 26.3866 0.0000
# 6 0.0000 0.0000 0.0000 -9.8735 0.0000 31.2091
#
#
#
# Elastic Compliance Matrix: (Units=1/GPa)
#
#
# Indices 1 2 3 4 5 6 
#
# 1 0.025572 -0.002448 0.000988 0.000000 0.002915 0.000000
# 2 -0.002448 0.004456 -0.001513 0.000000 -0.002325 0.000000
# 3 0.000988 -0.001513 0.007334 0.000000 0.005626 0.000000
# 4 0.000000 0.000000 0.000000 0.029344 0.000000 0.009284
# 5 0.002915 -0.002325 0.005626 0.000000 0.042638 0.000000
# 6 0.000000 0.000000 0.000000 0.009284 0.000000 0.034979
#
#
# Mechanical properties :
#
#
# Convention : Reuss Voigt Hill
#
# Bulk Modulus (GPa) = 31.83202 65.55188 48.69195
# Shear Modulus (GPa) = 31.10587 44.92288 38.01438
#
# Velocity S-wave (km/s) = 3.43297 4.12556 3.79509
# Velocity P-wave (km/s) = 5.27011 6.89418 6.13611
#
# Compressibility (1/GPa) = 0.03141491
#
# Stress axis : x y z
#
# Youngs Moduli (GPa) = 39.10537 224.41294 136.35748
#
# Poissons Ratio (x) = 0.54938 -0.13468
# Poissons Ratio (y) = 0.09573 0.20631
# Poissons Ratio (z) = -0.03862 0.33954
#
# Static dielectric constant tensor:
#      x y z
#    x 2.117720 0.000000 0.002690 
#    y 0.000000 2.208250 0.000000 
#    z 0.002690 0.000000 2.059640 
# 
# From -- ./inp_files/49501.got.cif
#   From: 2010.05.17/outbox.cif.g08.bks.cpg/sg14_25_cif.got.tgz:49501.got - 2010.06.03 17:49:19.
