data_PCOD9240377
_publ_section_title
;
Structure prediction by ZEFSAII (Michael W. Deem and Ramdas Pophale) SiO2 
 PCOD9240377
Probable space group: P 21/C
;
_chemical_formula_sum "Si O2"
_cell_formula_units_Z 28
_cell_length_a 13.630568
_cell_length_b 8.608831
_cell_length_c 16.977313
_cell_angle_alpha 90.000000
_cell_angle_beta 42.380485
_cell_angle_gamma 90.000000
_cell_volume 1342.825993
_symmetry_space_group_name_H-M "P 21/C"
_symmetry_group_IT_number 14
_symmetry_cell_setting 'monoclinic'
loop_
_space_group_symop_operation_xyz
x,y,z
-x,1/2+y,1/2-z
-x,-y,-z
x,1/2-y,1/2+z
loop_
_atom_site_type_symbol
_atom_site_label
_atom_site_fract_x
_atom_site_fract_y
_atom_site_fract_z
Si Si1 0.877833 0.213883 0.182617
Si Si2 0.650432 0.126608 0.705675
Si Si3 0.585760 0.626164 0.371087
Si Si4 0.311132 0.444078 0.251646
Si Si5 0.422584 0.128327 0.367652
Si Si6 0.795949 0.612038 0.508202
Si Si7 0.732195 0.407020 0.404963
O O1 0.794281 0.301534 0.159962
O O2 0.834376 0.306717 0.287365
O O3 0.808250 0.042400 0.223703
O O4 0.048050 0.190400 0.070648
O O5 0.537798 0.263359 0.750011
O O6 0.576603 0.021074 0.817597
O O7 0.664453 0.003398 0.627968
O O8 0.672471 0.767455 0.282725
O O9 0.675478 0.557443 0.390496
O O10 0.421862 0.677646 0.487783
O O11 0.463039 0.535360 0.147014
O O12 0.269614 0.442137 0.369040
O O13 0.308771 0.253935 0.464768
O O14 0.801771 0.468824 0.444183
#
# Coordination Sequence:
#
# PCOD9240377 Si02
#       7
#     4   4   4   4   4   4   4
#     4  10  26  42  61  95 137 175 210 260 341 395
#     4  10  18  37  61  95 126 161 213 268 315 378
#     4  10  19  40  67  92 124 170 214 280 320 371
#     4  11  23  41  70  98 123 165 228 275 316 386
#     4  11  19  35  66  97 121 161 218 268 320 366
#     4  12  23  42  68  94 131 174 214 271 323 388
#     4  10  23  43  65  89 138 173 209 270 335 383
#
# _framework density 20.851547
#
# number of rings (size 3 to 8) (size 9 to 14) (size 15 to 20)
#    0.000    1.429    4.286    0.429    2.000    2.286 
#    2.571    0.000    0.000    0.000    0.000    0.000 
#    0.000    0.000    0.000    0.000    0.000    0.000 
#
# Total GULP energy -156243.386427 kJ/mol
# GULP energy per Si atom -5580.120944 kJ/mol
# Density = 2.080409 g / cm^3
# Si number density = 20.851547 Si / 1000 Ang^3
#
#
#
# Elastic Constant Matrix: (Units=GPa)
#
#
# Indices 1 2 3 4 5 6 
#
# 1 64.0988 25.8631 37.1490 0.0000 -16.8770 0.0000
# 2 25.8631 97.7596 31.8738 0.0000 -8.7834 0.0000
# 3 37.1490 31.8738 55.9421 0.0000 -18.1073 0.0000
# 4 0.0000 0.0000 0.0000 24.3454 0.0000 -0.3835
# 5 -16.8770 -8.7834 -18.1073 0.0000 31.7206 0.0000
# 6 0.0000 0.0000 0.0000 -0.3835 0.0000 23.4275
#
#
#
# Elastic Compliance Matrix: (Units=1/GPa)
#
#
# Indices 1 2 3 4 5 6 
#
# 1 0.026174 -0.001641 -0.014825 0.000000 0.005009 0.000000
# 2 -0.001641 0.012680 -0.006478 0.000000 -0.001060 0.000000
# 3 -0.014825 -0.006478 0.034686 0.000000 0.010119 0.000000
# 4 0.000000 0.000000 0.000000 0.041086 0.000000 0.000673
# 5 0.005009 -0.001060 0.010119 0.000000 0.039673 0.000000
# 6 0.000000 0.000000 0.000000 0.000673 0.000000 0.042696
#
#
# Mechanical properties :
#
#
# Convention : Reuss Voigt Hill
#
# Bulk Modulus (GPa) = 36.16267 45.28580 40.72423
# Shear Modulus (GPa) = 19.83338 24.09302 21.96320
#
# Velocity S-wave (km/s) = 3.08745 3.40289 3.24900
# Velocity P-wave (km/s) = 5.48547 6.09958 5.80066
#
# Compressibility (1/GPa) = 0.02765283
#
# Stress axis : x y z
#
# Youngs Moduli (GPa) = 38.20651 78.86303 28.82969
#
# Poissons Ratio (x) = 0.12941 0.42739
# Poissons Ratio (y) = 0.06269 0.18676
# Poissons Ratio (z) = 0.56640 0.51088
#
# Static dielectric constant tensor:
#      x y z
#    x 1.772190 0.000000 0.030390 
#    y 0.000000 1.744930 0.000000 
#    z 0.030390 0.000000 1.749300 
# 
# From -- ./inp_files/59027.got.cif
#   From: 2010.05.17/outbox.cif.g08.bks.cpg/sg14_30_cif.got.tgz:59027.got - 2010.06.03 17:49:19.
