data_PCOD9240188
_publ_section_title
;
Structure prediction by ZEFSAII (Michael W. Deem and Ramdas Pophale) SiO2 
 PCOD9240188
Probable space group: P 21/C
;
_chemical_formula_sum "Si O2"
_cell_formula_units_Z 32
_cell_length_a 11.741281
_cell_length_b 15.528875
_cell_length_c 11.086877
_cell_angle_alpha 90.000000
_cell_angle_beta 52.732478
_cell_angle_gamma 90.000000
_cell_volume 1608.710288
_symmetry_space_group_name_H-M "P 21/C"
_symmetry_group_IT_number 14
_symmetry_cell_setting 'monoclinic'
loop_
_space_group_symop_operation_xyz
x,y,z
-x,1/2+y,1/2-z
-x,-y,-z
x,1/2-y,1/2+z
loop_
_atom_site_type_symbol
_atom_site_label
_atom_site_fract_x
_atom_site_fract_y
_atom_site_fract_z
Si Si1 0.779540 0.757890 0.722650
Si Si2 0.186479 0.046466 0.262868
Si Si3 0.874843 0.495721 0.938711
Si Si4 0.170669 0.319672 0.059025
Si Si5 0.488421 0.654129 0.202955
Si Si6 0.401211 0.994589 0.945393
Si Si7 0.526179 0.658904 0.764414
Si Si8 0.367122 0.564960 0.062582
O O1 0.743217 0.858479 0.771611
O O2 0.854600 0.761387 0.543129
O O3 0.850707 0.724324 0.798910
O O4 0.645319 0.695972 0.780689
O O5 0.205120 0.997033 0.379178
O O6 0.016573 0.060515 0.357434
O O7 0.246527 0.996675 0.108582
O O8 0.921669 0.595110 0.896267
O O9 0.780065 0.478443 0.881364
O O10 0.340353 0.350031 0.940324
O O11 0.448709 0.588073 0.336403
O O12 0.472946 0.755557 0.233440
O O13 0.379964 0.625307 0.168721
O O14 0.416151 0.081688 0.856121
O O15 0.500000 0.000000 0.000000
O O16 0.401989 0.619039 0.922336
O O17 0.500000 0.500000 0.000000
#
# Coordination Sequence:
#
# PCOD9240188 Si02
#       8
#     4   4   4   4   4   4   4   4
#     4  10  19  34  61  89 117 153 211 256 307 365
#     4  10  22  40  62  89 119 167 211 247 312 371
#     4  10  21  40  64  85 121 167 205 250 307 382
#     4  10  18  35  60  92 117 156 207 260 309 369
#     4  11  23  34  59  95 122 159 204 251 315 368
#     4  12  23  38  62  93 126 158 208 264 307 368
#     4  11  22  36  63  92 123 158 201 267 311 363
#     4  12  20  39  64  91 122 161 207 254 312 368
#
# _framework density 19.891711000000001
#
# number of rings (size 3 to 8) (size 9 to 14) (size 15 to 20)
#    0.000    1.250    3.750    4.500    1.750    0.000 
#    0.000    1.875    8.250    0.000    0.000    0.000 
#    0.000    0.000    0.000    0.000    0.000    0.000 
#
# Total GULP energy -178251.427137 kJ/mol
# GULP energy per Si atom -5570.357098 kJ/mol
# Density = 1.984644 g / cm^3
# Si number density = 19.891711 Si / 1000 Ang^3
#
#
#
# Elastic Constant Matrix: (Units=GPa)
#
#
# Indices 1 2 3 4 5 6 
#
# 1 67.3851 11.2163 21.5992 0.0000 22.0958 0.0000
# 2 11.2163 68.6541 22.8602 0.0000 -0.6566 0.0000
# 3 21.5992 22.8602 81.2928 0.0000 23.8532 0.0000
# 4 0.0000 0.0000 0.0000 23.0690 0.0000 15.1870
# 5 22.0958 -0.6566 23.8532 0.0000 28.3332 0.0000
# 6 0.0000 0.0000 0.0000 15.1870 0.0000 29.6473
#
#
#
# Elastic Compliance Matrix: (Units=1/GPa)
#
#
# Indices 1 2 3 4 5 6 
#
# 1 0.020777 -0.003684 0.000392 0.000000 -0.016618 0.000000
# 2 -0.003684 0.017408 -0.006478 0.000000 0.008730 0.000000
# 3 0.000392 -0.006478 0.018796 0.000000 -0.016279 0.000000
# 4 0.000000 0.000000 0.000000 0.065405 0.000000 -0.033504
# 5 -0.016618 0.008730 -0.016279 0.000000 0.062162 0.000000
# 6 0.000000 0.000000 0.000000 -0.033504 0.000000 0.050892
#
#
# Mechanical properties :
#
#
# Convention : Reuss Voigt Hill
#
# Bulk Modulus (GPa) = 26.70931 36.52039 31.61485
# Shear Modulus (GPa) = 18.69438 26.98699 22.84068
#
# Velocity S-wave (km/s) = 3.06895 3.68733 3.39226
# Velocity P-wave (km/s) = 5.10044 6.04384 5.59207
#
# Compressibility (1/GPa) = 0.03744013
#
# Stress axis : x y z
#
# Youngs Moduli (GPa) = 48.13057 57.44425 53.20399
#
# Poissons Ratio (x) = 0.21161 -0.02084
# Poissons Ratio (y) = 0.17730 0.34467
# Poissons Ratio (z) = -0.01885 0.37213
#
# Static dielectric constant tensor:
#      x y z
#    x 1.761860 0.000000 -0.010060 
#    y 0.000000 1.322530 0.000000 
#    z -0.010060 0.000000 1.763710 
# 
# From -- ./inp_files/29800.got.cif
#   From: 2010.05.17/outbox.cif.g08.bks.cpg/sg14_15_cif.got.tgz:29800.got - 2010.06.03 17:49:19.
