data_PCOD9240045
_publ_section_title
;
Structure prediction by ZEFSAII (Michael W. Deem and Ramdas Pophale) SiO2 
 PCOD9240045
Probable space group: P 21/C
;
_chemical_formula_sum "Si O2"
_cell_formula_units_Z 32
_cell_length_a 13.264472
_cell_length_b 14.359195
_cell_length_c 8.693718
_cell_angle_alpha 90.000000
_cell_angle_beta 62.023186
_cell_angle_gamma 90.000000
_cell_volume 1462.358780
_symmetry_space_group_name_H-M "P 21/C"
_symmetry_group_IT_number 14
_symmetry_cell_setting 'monoclinic'
loop_
_space_group_symop_operation_xyz
x,y,z
-x,1/2+y,1/2-z
-x,-y,-z
x,1/2-y,1/2+z
loop_
_atom_site_type_symbol
_atom_site_label
_atom_site_fract_x
_atom_site_fract_y
_atom_site_fract_z
Si Si1 0.169542 0.594000 0.668892
Si Si2 0.835257 0.905737 0.907843
Si Si3 0.048820 0.649220 0.069167
Si Si4 0.738829 0.800308 0.464065
Si Si5 0.578079 0.219606 0.803964
Si Si6 0.043359 0.357044 0.369137
Si Si7 0.265658 0.702007 0.068578
Si Si8 0.407921 0.209677 0.165307
O O1 0.233372 0.498066 0.587527
O O2 0.240839 0.686659 0.580871
O O3 0.063168 0.591726 0.627750
O O4 0.112496 0.606759 0.877108
O O5 0.763325 0.810722 0.959583
O O6 0.936056 0.900277 0.709474
O O7 0.897934 0.902897 0.027014
O O8 0.005247 0.753538 0.057716
O O9 0.140443 0.657286 0.144402
O O10 0.856894 0.845454 0.328704
O O11 0.648924 0.796843 0.386844
O O12 0.692183 0.836388 0.660916
O O13 0.669755 0.168595 0.631201
O O14 0.491916 0.259549 0.740502
O O15 0.649436 0.298907 0.846918
O O16 0.495730 0.165131 0.980601
#
# Coordination Sequence:
#
# PCOD9240045 Si02
#       8
#     4   4   4   4   4   4   4   4
#     4  11  22  34  51  81 116 144 173 211 265 322
#     4  11  22  34  51  81 116 144 173 212 263 322
#     4  10  20  34  54  78 108 144 181 214 251 316
#     4  10  18  34  57  80 106 139 178 219 265 311
#     4   9  18  32  56  85  98 128 182 237 262 301
#     4  10  20  34  54  78 108 144 180 215 251 313
#     4  10  18  34  57  80 107 137 179 220 265 310
#     4   9  18  32  56  85  99 126 183 237 261 302
#
# _framework density 21.882456000000001
#
# number of rings (size 3 to 8) (size 9 to 14) (size 15 to 20)
#    0.000    2.000    2.500    3.000    3.500    0.000 
#    0.000    0.000    0.000    7.500    0.000    0.000 
#    0.000    0.000    0.000    0.000    0.000    0.000 
#
# Total GULP energy -178280.120575 kJ/mol
# GULP energy per Si atom -5571.253768 kJ/mol
# Density = 2.183265 g / cm^3
# Si number density = 21.882456 Si / 1000 Ang^3
#
#
#
# Elastic Constant Matrix: (Units=GPa)
#
#
# Indices 1 2 3 4 5 6 
#
# 1 85.3573 -2.9132 11.5244 0.0000 6.5284 0.0000
# 2 -2.9132 37.4786 -4.4785 0.0000 -1.4694 0.0000
# 3 11.5244 -4.4785 101.3945 0.0000 0.4696 0.0000
# 4 0.0000 0.0000 0.0000 0.2627 0.0000 -2.0809
# 5 6.5284 -1.4694 0.4696 0.0000 35.7930 0.0000
# 6 0.0000 0.0000 0.0000 -2.0809 0.0000 -0.2689
#
#
#
# Elastic Compliance Matrix: (Units=1/GPa)
#
#
# Indices 1 2 3 4 5 6 
#
# 1 0.012084 0.000695 -0.001333 0.000000 -0.002158 0.000000
# 2 0.000695 0.026906 0.001105 0.000000 0.000963 0.000000
# 3 -0.001333 0.001105 0.010062 0.000000 0.000156 0.000000
# 4 0.000000 0.000000 0.000000 0.061094 0.000000 -0.472856
# 5 -0.002158 0.000963 0.000156 0.000000 0.028369 0.000000
# 6 0.000000 0.000000 0.000000 -0.472856 0.000000 -0.059703
#
#
# Mechanical properties :
#
#
# Convention : Reuss Voigt Hill
#
# Bulk Modulus (GPa) = 20.00517 25.83286 22.91901
# Shear Modulus (GPa) = 52.88761 21.83057 37.35909
#
# Velocity S-wave (km/s) = 4.92153 3.16195 4.13639
# Velocity P-wave (km/s) = 6.43873 5.01612 5.77142
#
# Compressibility (1/GPa) = 0.04998707
#
# Stress axis : x y z
#
# Youngs Moduli (GPa) = 82.75277 37.16682 99.38356
#
# Poissons Ratio (x) = -0.02585 0.13245
# Poissons Ratio (y) = -0.05755 -0.10981
# Poissons Ratio (z) = 0.11029 -0.04107
#
# Static dielectric constant tensor:
#      x y z
#    x 1.881510 0.000000 -0.006070 
#    y 0.000000 1.810630 0.000000 
#    z -0.006070 0.000000 1.867650 
# 
# From -- ./inp_files/13118.got.cif
#   From: 2010.05.17/outbox.cif.g08.bks.cpg/sg14_7_cif.got.tgz:13118.got - 2010.06.03 17:49:19.
