data_PCOD9240831
_publ_section_title
;
Structure prediction by ZEFSAII (Michael W. Deem and Ramdas Pophale) SiO2 
 PCOD9240831
Probable space group: P 21/C
;
_chemical_formula_sum "Si O2"
_cell_formula_units_Z 32
_cell_length_a 15.109969
_cell_length_b 5.137557
_cell_length_c 20.873666
_cell_angle_alpha 90.000000
_cell_angle_beta 89.987370
_cell_angle_gamma 90.000000
_cell_volume 1620.387731
_symmetry_space_group_name_H-M "P 21/C"
_symmetry_group_IT_number 14
_symmetry_cell_setting 'monoclinic'
loop_
_space_group_symop_operation_xyz
x,y,z
-x,1/2+y,1/2-z
-x,-y,-z
x,1/2-y,1/2+z
loop_
_atom_site_type_symbol
_atom_site_label
_atom_site_fract_x
_atom_site_fract_y
_atom_site_fract_z
Si Si1 0.124256 0.484038 0.306068
Si Si2 0.515612 0.289398 0.209337
Si Si3 0.955277 0.632712 0.098357
Si Si4 0.296099 0.781278 0.755829
Si Si5 0.059378 0.222572 0.680997
Si Si6 0.669366 0.783476 0.833345
Si Si7 0.184002 0.288599 0.565109
Si Si8 0.106779 0.732764 0.003190
O O1 0.206458 0.673849 0.295205
O O2 0.030392 0.629316 0.304170
O O3 0.119050 0.302573 0.243198
O O4 0.119062 0.307948 0.369293
O O5 0.493875 0.087960 0.267696
O O6 0.618649 0.235065 0.197344
O O7 0.437458 0.223778 0.160026
O O8 0.025690 0.554309 0.153156
O O9 0.012986 0.757335 0.041204
O O10 0.916492 0.368022 0.067652
O O11 0.307215 0.027355 0.708151
O O12 0.302018 0.530042 0.709988
O O13 0.115686 0.343358 0.623549
O O14 0.721735 0.786681 0.899978
O O15 0.157635 0.010603 0.535927
O O16 0.164793 0.512743 0.513823
#
# Coordination Sequence:
#
# PCOD9240831 Si02
#       8
#     4   4   4   4   4   4   4   4
#     4  12  22  33  50  77 108 144 171 208 265 316
#     4   8  16  32  48  73 103 136 164 202 254 314
#     4  10  23  37  50  70 101 146 176 225 249 301
#     4  10  21  31  52  76 109 139 166 203 259 324
#     4  11  23  32  51  75 109 138 175 211 261 313
#     4  10  19  33  53  77 107 133 169 212 259 309
#     4  11  21  36  54  78  99 139 174 222 253 303
#     4  10  23  38  54  70 101 137 191 218 255 285
#
# _framework density 19.748360000000002
#
# number of rings (size 3 to 8) (size 9 to 14) (size 15 to 20)
#    0.000    1.750    3.750    0.750    7.000    1.500 
#    0.000    0.000    0.000    0.000    0.000    1.750 
#    0.000    0.000    0.000    0.000    0.000    0.000 
#
# Total GULP energy -178654.581033 kJ/mol
# GULP energy per Si atom -5582.955657 kJ/mol
# Density = 1.970341 g / cm^3
# Si number density = 19.748360 Si / 1000 Ang^3
#
#
#
# Elastic Constant Matrix: (Units=GPa)
#
#
# Indices 1 2 3 4 5 6 
#
# 1 76.3348 3.2163 28.0904 0.0000 29.5330 0.0000
# 2 3.2163 96.5153 23.4234 0.0000 2.6876 0.0000
# 3 28.0904 23.4234 81.6412 0.0000 17.9814 0.0000
# 4 0.0000 0.0000 0.0000 22.8822 0.0000 5.5333
# 5 29.5330 2.6876 17.9814 0.0000 30.4434 0.0000
# 6 0.0000 0.0000 0.0000 5.5333 0.0000 20.4129
#
#
#
# Elastic Compliance Matrix: (Units=1/GPa)
#
#
# Indices 1 2 3 4 5 6 
#
# 1 0.021735 0.000647 -0.003457 0.000000 -0.019100 0.000000
# 2 0.000647 0.011184 -0.003536 0.000000 0.000474 0.000000
# 3 -0.003457 -0.003536 0.015686 0.000000 -0.005599 0.000000
# 4 0.000000 0.000000 0.000000 0.046768 0.000000 -0.012677
# 5 -0.019100 0.000474 -0.005599 0.000000 0.054642 0.000000
# 6 0.000000 0.000000 0.000000 -0.012677 0.000000 0.052425
#
#
# Mechanical properties :
#
#
# Convention : Reuss Voigt Hill
#
# Bulk Modulus (GPa) = 27.84553 40.43904 34.14228
# Shear Modulus (GPa) = 22.01653 28.06511 25.04082
#
# Velocity S-wave (km/s) = 3.34256 3.77389 3.56475
# Velocity P-wave (km/s) = 5.38774 6.28580 5.85402
#
# Compressibility (1/GPa) = 0.03591241
#
# Stress axis : x y z
#
# Youngs Moduli (GPa) = 46.00970 89.41035 63.75200
#
# Poissons Ratio (x) = -0.05781 0.22039
# Poissons Ratio (y) = -0.02975 0.22541
# Poissons Ratio (z) = 0.15906 0.31613
#
# Static dielectric constant tensor:
#      x y z
#    x 1.714000 0.000000 0.018100 
#    y 0.000000 1.769330 0.000000 
#    z 0.018100 0.000000 1.727520 
# 
# From -- ./inp_files/67722.got.cif
#   From: 2010.05.17/outbox.cif.g08.bks.cpg/sg14_34_cif.got.tgz:67722.got - 2010.06.03 17:49:19.
