data_PCOD9240782
_publ_section_title
;
Structure prediction by ZEFSAII (Michael W. Deem and Ramdas Pophale) SiO2 
 PCOD9240782
Probable space group: P 21/C
;
_chemical_formula_sum "Si O2"
_cell_formula_units_Z 28
_cell_length_a 11.636446
_cell_length_b 9.927204
_cell_length_c 13.046085
_cell_angle_alpha 90.000000
_cell_angle_beta 129.811519
_cell_angle_gamma 90.000000
_cell_volume 1157.647311
_symmetry_space_group_name_H-M "P 21/C"
_symmetry_group_IT_number 14
_symmetry_cell_setting 'monoclinic'
loop_
_space_group_symop_operation_xyz
x,y,z
-x,1/2+y,1/2-z
-x,-y,-z
x,1/2-y,1/2+z
loop_
_atom_site_type_symbol
_atom_site_label
_atom_site_fract_x
_atom_site_fract_y
_atom_site_fract_z
Si Si1 0.388041 0.243581 0.497603
Si Si2 0.097041 0.919560 0.448362
Si Si3 0.396188 0.688223 0.046539
Si Si4 0.198803 0.645582 0.564425
Si Si5 0.710380 0.579852 0.237980
Si Si6 0.182772 0.292254 0.046130
Si Si7 0.134156 0.424576 0.362888
O O1 0.546881 0.236875 0.532549
O O2 0.293208 0.131289 0.379930
O O3 0.351557 0.208460 0.592884
O O4 0.306855 0.387473 0.434911
O O5 0.240062 0.888446 0.456756
O O6 0.105586 0.783683 0.521837
O O7 0.960392 0.936106 0.293074
O O8 0.130898 0.056073 0.528292
O O9 0.532956 0.594813 0.162364
O O10 0.355379 0.807445 0.101901
O O11 0.225917 0.558023 0.681107
O O12 0.125105 0.549858 0.435273
O O13 0.798510 0.697769 0.346353
O O14 0.093870 0.207751 0.908014
#
# Coordination Sequence:
#
# PCOD9240782 Si02
#       7
#     4   4   4   4   4   4   4
#     4   8  19  36  57  82 108 151 189 229 277 342
#     4  10  19  32  57  85 110 146 186 231 284 340
#     4   8  20  31  56  80 111 139 190 228 271 336
#     4   9  19  33  59  78 109 151 185 223 291 329
#     4   9  18  38  55  79 115 148 183 235 283 326
#     4   9  19  34  62  77 109 154 180 232 287 328
#     4   9  18  36  55  80 111 148 187 226 281 337
#
# _framework density 24.186986999999998
#
# number of rings (size 3 to 8) (size 9 to 14) (size 15 to 20)
#    2.571    0.571    0.000    0.857    2.000    1.143 
#    0.000    1.429    3.143    0.000    0.000    0.000 
#    0.000    0.000    0.000    0.000    0.000    0.000 
#
# Total GULP energy -155964.108738 kJ/mol
# GULP energy per Si atom -5570.146741 kJ/mol
# Density = 2.413194 g / cm^3
# Si number density = 24.186987 Si / 1000 Ang^3
#
#
#
# Elastic Constant Matrix: (Units=GPa)
#
#
# Indices 1 2 3 4 5 6 
#
# 1 70.2080 20.3961 3.2397 0.0000 12.3316 0.0000
# 2 20.3961 135.8101 18.2594 0.0000 -1.2793 0.0000
# 3 3.2397 18.2594 58.3150 0.0000 -0.9492 0.0000
# 4 0.0000 0.0000 0.0000 28.7726 0.0000 -0.1252
# 5 12.3316 -1.2793 -0.9492 0.0000 23.2086 0.0000
# 6 0.0000 0.0000 0.0000 -0.1252 0.0000 34.6052
#
#
#
# Elastic Compliance Matrix: (Units=1/GPa)
#
#
# Indices 1 2 3 4 5 6 
#
# 1 0.016565 -0.002535 -0.000272 0.000000 -0.008952 0.000000
# 2 -0.002535 0.008077 -0.002361 0.000000 0.001696 0.000000
# 3 -0.000272 -0.002361 0.017915 0.000000 0.000747 0.000000
# 4 0.000000 0.000000 0.000000 0.034756 0.000000 0.000126
# 5 -0.008952 0.001696 0.000747 0.000000 0.047968 0.000000
# 6 0.000000 0.000000 0.000000 0.000126 0.000000 0.028898
#
#
# Mechanical properties :
#
#
# Convention : Reuss Voigt Hill
#
# Bulk Modulus (GPa) = 31.03613 38.68038 34.85826
# Shear Modulus (GPa) = 28.52975 32.14648 30.33812
#
# Velocity S-wave (km/s) = 3.43818 3.64961 3.54547
# Velocity P-wave (km/s) = 5.34987 5.81262 5.58604
#
# Compressibility (1/GPa) = 0.03222051
#
# Stress axis : x y z
#
# Youngs Moduli (GPa) = 60.36834 123.80262 55.82011
#
# Poissons Ratio (x) = 0.31390 0.01519
# Poissons Ratio (y) = 0.15306 0.13177
# Poissons Ratio (z) = 0.01642 0.29226
#
# Static dielectric constant tensor:
#      x y z
#    x 2.052460 0.000000 0.027630 
#    y 0.000000 1.930890 0.000000 
#    z 0.027630 0.000000 1.876600 
# 
# From -- ./inp_files/44435.got.cif
#   From: 2010.05.17/outbox.cif.g08.bks.cpg/sg14_23_cif.got.tgz:44435.got - 2010.06.03 17:49:19.
