data_PCOD9240431
_publ_section_title
;
Structure prediction by ZEFSAII (Michael W. Deem and Ramdas Pophale) SiO2 
 PCOD9240431
Probable space group: P 21/C
;
_chemical_formula_sum "Si O2"
_cell_formula_units_Z 32
_cell_length_a 20.240506
_cell_length_b 5.146927
_cell_length_c 15.135334
_cell_angle_alpha 90.000000
_cell_angle_beta 55.433266
_cell_angle_gamma 90.000000
_cell_volume 1298.395536
_symmetry_space_group_name_H-M "P 21/C"
_symmetry_group_IT_number 14
_symmetry_cell_setting 'monoclinic'
loop_
_space_group_symop_operation_xyz
x,y,z
-x,1/2+y,1/2-z
-x,-y,-z
x,1/2-y,1/2+z
loop_
_atom_site_type_symbol
_atom_site_label
_atom_site_fract_x
_atom_site_fract_y
_atom_site_fract_z
Si Si1 0.160194 0.857361 0.009820
Si Si2 0.657828 0.937346 0.846418
Si Si3 0.178158 0.121831 0.190659
Si Si4 0.731197 0.988390 0.483662
Si Si5 0.005155 0.288556 0.809170
Si Si6 0.528394 0.407607 0.780094
Si Si7 0.306819 0.124978 0.846369
Si Si8 0.408531 0.910305 0.514505
O O1 0.067263 0.791704 0.070824
O O2 0.165598 0.985718 0.104333
O O3 0.211891 0.599216 0.984356
O O4 0.215641 0.025020 0.902452
O O5 0.748817 0.000330 0.810406
O O6 0.667441 0.850926 0.738903
O O7 0.626106 0.675713 0.918219
O O8 0.597049 0.167807 0.915847
O O9 0.088536 0.146169 0.294741
O O10 0.211828 0.406545 0.139843
O O11 0.658895 0.165248 0.507536
O O12 0.690637 0.736251 0.556798
O O13 0.981933 0.543353 0.767948
O O14 0.495860 0.128011 0.774373
O O15 0.624187 0.412790 0.715930
O O16 0.487852 0.518569 0.900672
#
# Coordination Sequence:
#
# PCOD9240431 Si02
#       8
#     4   4   4   4   4   4   4   4
#     4  10  19  36  62  89 119 161 214 258 301 364
#     4  11  25  41  62  92 130 166 200 252 316 374
#     4   9  19  35  59  89 122 158 203 253 307 362
#     4  10  18  38  62  86 117 162 209 252 298 364
#     4  10  19  33  58  94 119 153 207 264 301 352
#     4  12  25  42  68  95 121 160 213 264 308 361
#     4  11  26  39  62  93 125 166 205 260 314 373
#     4  11  23  42  64  90 122 166 208 251 308 371
#
# _framework density 24.645803999999998
#
# number of rings (size 3 to 8) (size 9 to 14) (size 15 to 20)
#    0.000    1.500    3.750    1.500    3.500    1.000 
#    0.000    0.625    0.000    0.750    0.000    0.000 
#    0.000    0.000    0.000    0.000    0.000    0.000 
#
# Total GULP energy -178824.266341 kJ/mol
# GULP energy per Si atom -5588.258323 kJ/mol
# Density = 2.458971 g / cm^3
# Si number density = 24.645804 Si / 1000 Ang^3
#
#
#
# Elastic Constant Matrix: (Units=GPa)
#
#
# Indices 1 2 3 4 5 6 
#
# 1 91.4649 11.1509 40.0277 0.0000 -36.5894 0.0000
# 2 11.1509 114.0534 28.0303 0.0000 -5.9610 0.0000
# 3 40.0277 28.0303 106.2061 0.0000 -37.9084 0.0000
# 4 0.0000 0.0000 0.0000 33.9601 0.0000 -0.0864
# 5 -36.5894 -5.9610 -37.9084 0.0000 37.6460 0.0000
# 6 0.0000 0.0000 0.0000 -0.0864 0.0000 24.0078
#
#
#
# Elastic Compliance Matrix: (Units=1/GPa)
#
#
# Indices 1 2 3 4 5 6 
#
# 1 0.017993 -0.000735 -0.000604 0.000000 0.016763 0.000000
# 2 -0.000735 0.009466 -0.003031 0.000000 -0.002267 0.000000
# 3 -0.000604 -0.003031 0.015708 0.000000 0.014751 0.000000
# 4 0.000000 0.000000 0.000000 0.029447 0.000000 0.000106
# 5 0.016763 -0.002267 0.014751 0.000000 0.057351 0.000000
# 6 0.000000 0.000000 0.000000 0.000106 0.000000 0.041654
#
#
# Mechanical properties :
#
#
# Convention : Reuss Voigt Hill
#
# Bulk Modulus (GPa) = 29.04537 52.23802 40.64170
# Shear Modulus (GPa) = 26.06439 34.62380 30.34409
#
# Velocity S-wave (km/s) = 3.25554 3.75221 3.51266
# Velocity P-wave (km/s) = 5.09334 6.32563 5.74263
#
# Compressibility (1/GPa) = 0.03442889
#
# Stress axis : x y z
#
# Youngs Moduli (GPa) = 55.57694 105.64163 63.66131
#
# Poissons Ratio (x) = 0.07760 0.03846
# Poissons Ratio (y) = 0.04083 0.19293
# Poissons Ratio (z) = 0.03357 0.32015
#
# Static dielectric constant tensor:
#      x y z
#    x 2.038530 0.000000 0.015830 
#    y 0.000000 2.034980 0.000000 
#    z 0.015830 0.000000 1.968430 
# 
# From -- ./inp_files/50992.got.cif
#   From: 2010.05.17/outbox.cif.g08.bks.cpg/sg14_26_cif.got.tgz:50992.got - 2010.06.03 17:49:19.
