data_PCOD9240917
_publ_section_title
;
Structure prediction by ZEFSAII (Michael W. Deem and Ramdas Pophale) SiO2 
 PCOD9240917
Probable space group: P 21/C
;
_chemical_formula_sum "Si O2"
_cell_formula_units_Z 20
_cell_length_a 19.097554
_cell_length_b 4.945430
_cell_length_c 21.252491
_cell_angle_alpha 90.000000
_cell_angle_beta 30.438234
_cell_angle_gamma 90.000000
_cell_volume 1016.868353
_symmetry_space_group_name_H-M "P 21/C"
_symmetry_group_IT_number 14
_symmetry_cell_setting 'monoclinic'
loop_
_space_group_symop_operation_xyz
x,y,z
-x,1/2+y,1/2-z
-x,-y,-z
x,1/2-y,1/2+z
loop_
_atom_site_type_symbol
_atom_site_label
_atom_site_fract_x
_atom_site_fract_y
_atom_site_fract_z
Si Si1 0.876065 0.039205 0.411294
Si Si2 0.550667 0.722337 0.042031
Si Si3 0.433805 0.040243 0.328853
Si Si4 0.055821 0.541279 0.288249
Si Si5 0.675037 0.209934 0.879325
O O1 0.880047 0.062641 0.332063
O O2 0.991323 0.246788 0.347257
O O3 0.721516 0.074856 0.555051
O O4 0.926023 0.740744 0.388976
O O5 0.551022 0.690800 0.115953
O O6 0.406396 0.820170 0.123181
O O7 0.585867 0.427208 0.987793
O O8 0.665004 0.930927 0.926022
O O9 0.468084 0.279370 0.253431
O O10 0.174030 0.659063 0.241608
#
# Coordination Sequence:
#
# PCOD9240917 Si02
#       5
#     4   4   4   4   4
#     4  10  21  33  53  85 111 147 189 224 297 338
#     4  10  21  35  56  87 114 148 196 228 297 339
#     4  12  24  38  58  79 122 161 192 232 269 358
#     4  10  19  33  58  82 114 140 175 256 289 336
#     4  10  19  35  60  85 116 142 181 259 292 336
#
# _framework density 19.668230999999999
#
# number of rings (size 3 to 8) (size 9 to 14) (size 15 to 20)
#    0.000    1.600    2.000    3.600    5.600    0.000 
#    0.000    0.000    0.000    7.200    0.000    0.000 
#    0.000    0.000    0.000    0.000    0.000    0.000 
#
# Total GULP energy -111623.276854 kJ/mol
# GULP energy per Si atom -5581.163843 kJ/mol
# Density = 1.962347 g / cm^3
# Si number density = 19.668231 Si / 1000 Ang^3
#
#
#
# Elastic Constant Matrix: (Units=GPa)
#
#
# Indices 1 2 3 4 5 6 
#
# 1 62.4456 -2.5793 21.1097 0.0000 -14.9250 0.0000
# 2 -2.5793 81.1114 11.3823 0.0000 1.8985 0.0000
# 3 21.1097 11.3823 72.7007 0.0000 -21.3054 0.0000
# 4 0.0000 0.0000 0.0000 23.6828 0.0000 -2.9822
# 5 -14.9250 1.8985 -21.3054 0.0000 16.8127 0.0000
# 6 0.0000 0.0000 0.0000 -2.9822 0.0000 20.0474
#
#
#
# Elastic Compliance Matrix: (Units=1/GPa)
#
#
# Indices 1 2 3 4 5 6 
#
# 1 0.020384 0.000413 -0.001104 0.000000 0.016649 0.000000
# 2 0.000413 0.013040 -0.003954 0.000000 -0.006116 0.000000
# 3 -0.001104 -0.003954 0.023127 0.000000 0.028773 0.000000
# 4 0.000000 0.000000 0.000000 0.043031 0.000000 0.006401
# 5 0.016649 -0.006116 0.028773 0.000000 0.111411 0.000000
# 6 0.000000 0.000000 0.000000 0.006401 0.000000 0.050834
#
#
# Mechanical properties :
#
#
# Convention : Reuss Voigt Hill
#
# Bulk Modulus (GPa) = 21.15929 30.67589 25.91759
# Shear Modulus (GPa) = 17.42957 24.53158 20.98057
#
# Velocity S-wave (km/s) = 2.98010 3.53550 3.26962
# Velocity P-wave (km/s) = 4.75635 5.68304 5.24022
#
# Compressibility (1/GPa) = 0.04726057
#
# Stress axis : x y z
#
# Youngs Moduli (GPa) = 49.05921 76.68783 43.23983
#
# Poissons Ratio (x) = -0.03171 0.04775
# Poissons Ratio (y) = -0.02029 0.17097
# Poissons Ratio (z) = 0.05418 0.30322
#
# Static dielectric constant tensor:
#      x y z
#    x 1.732930 0.000000 -0.028190 
#    y 0.000000 1.681160 0.000000 
#    z -0.028190 0.000000 1.683920 
# 
# From -- ./inp_files/59937.got.cif
#   From: 2010.05.17/outbox.cif.g08.bks.cpg/sg14_30_cif.got.tgz:59937.got - 2010.06.03 17:49:19.
