data_PCOD9240421
_publ_section_title
;
Structure prediction by ZEFSAII (Michael W. Deem and Ramdas Pophale) SiO2 
 PCOD9240421
Probable space group: P 21/C
;
_chemical_formula_sum "Si O2"
_cell_formula_units_Z 26
_cell_length_a 22.537641
_cell_length_b 7.600433
_cell_length_c 10.231426
_cell_angle_alpha 90.000000
_cell_angle_beta 145.400492
_cell_angle_gamma 90.000000
_cell_volume 995.190908
_symmetry_space_group_name_H-M "P 21/C"
_symmetry_group_IT_number 14
_symmetry_cell_setting 'monoclinic'
loop_
_space_group_symop_operation_xyz
x,y,z
-x,1/2+y,1/2-z
-x,-y,-z
x,1/2-y,1/2+z
loop_
_atom_site_type_symbol
_atom_site_label
_atom_site_fract_x
_atom_site_fract_y
_atom_site_fract_z
Si Si1 0.500000 0.500000 0.500000
Si Si2 0.254879 0.525980 0.137041
Si Si3 0.280779 0.585413 0.717631
Si Si4 0.476783 0.750239 0.720646
Si Si5 0.651589 0.915610 0.928009
Si Si6 0.934307 0.710696 0.304825
Si Si7 0.091855 0.425305 0.484833
O O1 0.369939 0.537440 0.282755
O O2 0.491463 0.347385 0.592579
O O3 0.220323 0.731595 0.075875
O O4 0.267718 0.446508 0.307587
O O5 0.171353 0.401520 0.915972
O O6 0.304549 0.467600 0.633129
O O7 0.212983 0.474703 0.695761
O O8 0.385305 0.653278 0.976535
O O9 0.433732 0.565239 0.690527
O O10 0.578085 0.741398 0.808810
O O11 0.936179 0.877285 0.214232
O O12 0.933953 0.730106 0.459969
O O13 0.029030 0.588981 0.428578
#
# Coordination Sequence:
#
# PCOD9240421 Si02
#       7
#     2   4   4   4   4   4   4
#     4  10  18  38  60  92 128 184 218 278 324 402
#     4  10  22  40  69  94 141 178 233 274 348 393
#     4  11  22  42  64 100 132 183 226 288 334 415
#     4  10  21  38  59  90 133 177 231 276 337 393
#     4  10  22  38  62  95 130 187 227 280 338 402
#     4  11  26  51  72 107 132 183 215 293 329 427
#     4  11  27  47  76 102 140 170 235 270 358 393
#
# _framework density 26.125639
#
# number of rings (size 3 to 8) (size 9 to 14) (size 15 to 20)
#    0.000    1.538    1.538    2.308    4.308    3.077 
#    8.308    0.000    0.000    0.000    0.000    0.000 
#    0.000    0.000    0.000    0.000    0.000    0.000 
#
# Total GULP energy -145206.550287 kJ/mol
# GULP energy per Si atom -5584.867319 kJ/mol
# Density = 2.606618 g / cm^3
# Si number density = 26.125639 Si / 1000 Ang^3
#
#
#
# Elastic Constant Matrix: (Units=GPa)
#
#
# Indices 1 2 3 4 5 6 
#
# 1 160.7306 40.7026 30.3025 0.0000 25.3182 0.0000
# 2 40.7026 54.0634 6.1888 0.0000 5.8886 0.0000
# 3 30.3025 6.1888 48.1348 0.0000 12.3316 0.0000
# 4 0.0000 0.0000 0.0000 27.1449 0.0000 9.2722
# 5 25.3182 5.8886 12.3316 0.0000 32.3916 0.0000
# 6 0.0000 0.0000 0.0000 9.2722 0.0000 32.8937
#
#
#
# Elastic Compliance Matrix: (Units=1/GPa)
#
#
# Indices 1 2 3 4 5 6 
#
# 1 0.009186 -0.005973 -0.003827 0.000000 -0.004637 0.000000
# 2 -0.005973 0.022882 0.000762 0.000000 0.000218 0.000000
# 3 -0.003827 0.000762 0.024771 0.000000 -0.006578 0.000000
# 4 0.000000 0.000000 0.000000 0.040764 0.000000 -0.011491
# 5 -0.004637 0.000218 -0.006578 0.000000 0.036961 0.000000
# 6 0.000000 0.000000 0.000000 -0.011491 0.000000 0.033640
#
#
# Mechanical properties :
#
#
# Convention : Reuss Voigt Hill
#
# Bulk Modulus (GPa) = 25.79678 46.36851 36.08265
# Shear Modulus (GPa) = 25.10010 30.86837 27.98423
#
# Velocity S-wave (km/s) = 3.10295 3.44108 3.27638
# Velocity P-wave (km/s) = 4.76795 5.79438 5.30604
#
# Compressibility (1/GPa) = 0.03876452
#
# Stress axis : x y z
#
# Youngs Moduli (GPa) = 108.86071 43.70162 40.36917
#
# Poissons Ratio (x) = 0.26102 0.15449
# Poissons Ratio (y) = 0.65019 -0.03076
# Poissons Ratio (z) = 0.41661 -0.03330
#
# Static dielectric constant tensor:
#      x y z
#    x 1.871850 0.000000 0.150940 
#    y 0.000000 2.118780 0.000000 
#    z 0.150940 0.000000 1.875890 
# 
# From -- ./inp_files/35802.got.cif
#   From: 2010.05.17/outbox.cif.g08.bks.cpg/sg14_18_cif.got.tgz:35802.got - 2010.06.03 17:49:19.
