data_PCOD9240237
_publ_section_title
;
Structure prediction by ZEFSAII (Michael W. Deem and Ramdas Pophale) SiO2 
 PCOD9240237
Probable space group: P 21/C
;
_chemical_formula_sum "Si O2"
_cell_formula_units_Z 22
_cell_length_a 7.215606
_cell_length_b 7.764189
_cell_length_c 17.627812
_cell_angle_alpha 90.000000
_cell_angle_beta 132.812537
_cell_angle_gamma 90.000000
_cell_volume 724.461814
_symmetry_space_group_name_H-M "P 21/C"
_symmetry_group_IT_number 14
_symmetry_cell_setting 'monoclinic'
loop_
_space_group_symop_operation_xyz
x,y,z
-x,1/2+y,1/2-z
-x,-y,-z
x,1/2-y,1/2+z
loop_
_atom_site_type_symbol
_atom_site_label
_atom_site_fract_x
_atom_site_fract_y
_atom_site_fract_z
Si Si1 0.257067 0.265108 0.017476
Si Si2 0.230280 0.634110 0.412295
Si Si3 0.455730 0.062148 0.358058
Si Si4 0.000000 0.500000 0.500000
Si Si5 0.960757 0.974327 0.285554
Si Si6 0.561546 0.278373 0.742642
O O1 0.489619 0.199833 0.031311
O O2 0.294945 0.470065 0.037783
O O3 0.990095 0.175343 0.938070
O O4 0.182977 0.908698 0.985450
O O5 0.160935 0.488403 0.331587
O O6 0.047532 0.790359 0.337742
O O7 0.375937 0.900461 0.280942
O O8 0.481470 0.215458 0.306952
O O9 0.228365 0.076734 0.353375
O O10 0.684189 0.671013 0.381353
O O11 0.766000 0.074479 0.283935
#
# Coordination Sequence:
#
# PCOD9240237 Si02
#       6
#     4   4   4   2   4   4
#     4   8  19  31  45  80 104 134 177 217 260 318
#     4  10  21  33  57  81 110 134 187 217 275 320
#     4   9  18  30  48  77 109 135 177 221 267 317
#     4  12  18  32  56  80 106 146 170 236 262 312
#     4  10  18  36  50  80 110 144 172 226 270 322
#     4   9  18  30  48  77 109 135 177 221 267 317
#
# _framework density 30.367370000000001
#
# number of rings (size 3 to 8) (size 9 to 14) (size 15 to 20)
#    1.091    1.455    1.818    2.727    2.545    0.000 
#    0.000    0.000    0.000    1.091    4.727    5.091 
#    0.000    0.000    0.000    0.000    0.000    0.000 
#
# Total GULP energy -122902.946657 kJ/mol
# GULP energy per Si atom -5586.497575 kJ/mol
# Density = 3.029825 g / cm^3
# Si number density = 30.367370 Si / 1000 Ang^3
#
#
#
# Elastic Constant Matrix: (Units=GPa)
#
#
# Indices 1 2 3 4 5 6 
#
# 1 190.6642 14.1167 42.6291 0.0000 0.8575 0.0000
# 2 14.1167 121.9601 55.0135 0.0000 -4.5892 0.0000
# 3 42.6291 55.0135 105.6334 0.0000 -21.8547 0.0000
# 4 0.0000 0.0000 0.0000 69.3073 0.0000 0.3843
# 5 0.8575 -4.5892 -21.8547 0.0000 51.1789 0.0000
# 6 0.0000 0.0000 0.0000 0.3843 0.0000 33.0040
#
#
#
# Elastic Compliance Matrix: (Units=1/GPa)
#
#
# Indices 1 2 3 4 5 6 
#
# 1 0.005866 0.000603 -0.002951 0.000000 -0.001304 0.000000
# 2 0.000603 0.010894 -0.006271 0.000000 -0.001711 0.000000
# 3 -0.002951 -0.006271 0.015157 0.000000 0.005959 0.000000
# 4 0.000000 0.000000 0.000000 0.014429 0.000000 -0.000168
# 5 -0.001304 -0.001711 0.005959 0.000000 0.021953 0.000000
# 6 0.000000 0.000000 0.000000 -0.000168 0.000000 0.030301
#
#
# Mechanical properties :
#
#
# Convention : Reuss Voigt Hill
#
# Bulk Modulus (GPa) = 68.12771 71.30848 69.71809
# Shear Modulus (GPa) = 41.41463 51.13125 46.27294
#
# Velocity S-wave (km/s) = 3.69696 4.10781 3.90779
# Velocity P-wave (km/s) = 6.38017 6.78467 6.58552
#
# Compressibility (1/GPa) = 0.01467832
#
# Stress axis : x y z
#
# Youngs Moduli (GPa) = 170.47764 91.79468 65.97823
#
# Poissons Ratio (x) = -0.05537 0.19472
# Poissons Ratio (y) = -0.10283 0.41374
# Poissons Ratio (z) = 0.50312 0.57564
#
# Static dielectric constant tensor:
#      x y z
#    x 2.149730 0.000000 -0.182900 
#    y 0.000000 2.225600 0.000000 
#    z -0.182900 0.000000 2.060000 
# 
# From -- ./inp_files/48497.got.cif
#   From: 2010.05.17/outbox.cif.g08.bks.cpg/sg14_25_cif.got.tgz:48497.got - 2010.06.03 17:49:19.
