data_PCOD9240493
_publ_section_title
;
Structure prediction by ZEFSAII (Michael W. Deem and Ramdas Pophale) SiO2 
 PCOD9240493
Probable space group: P 21/C
;
_chemical_formula_sum "Si O2"
_cell_formula_units_Z 24
_cell_length_a 22.262751
_cell_length_b 10.451739
_cell_length_c 14.131745
_cell_angle_alpha 90.000000
_cell_angle_beta 161.835731
_cell_angle_gamma 90.000000
_cell_volume 1025.083156
_symmetry_space_group_name_H-M "P 21/C"
_symmetry_group_IT_number 14
_symmetry_cell_setting 'monoclinic'
loop_
_space_group_symop_operation_xyz
x,y,z
-x,1/2+y,1/2-z
-x,-y,-z
x,1/2-y,1/2+z
loop_
_atom_site_type_symbol
_atom_site_label
_atom_site_fract_x
_atom_site_fract_y
_atom_site_fract_z
Si Si1 0.907785 0.361346 0.877674
Si Si2 0.197109 0.202497 0.659009
Si Si3 0.801198 0.408723 0.913440
Si Si4 0.545239 0.213437 0.318201
Si Si5 0.384952 0.283877 0.257971
Si Si6 0.840688 0.486024 0.178882
O O1 0.916517 0.331819 0.003602
O O2 0.681016 0.339266 0.522746
O O3 0.000000 0.500000 0.000000
O O4 0.015008 0.281840 0.956057
O O5 0.254113 0.269159 0.646113
O O6 0.206671 0.053107 0.639844
O O7 0.372274 0.231956 0.989366
O O8 0.582289 0.352830 0.592309
O O9 0.891645 0.421724 0.152885
O O10 0.464524 0.184207 0.301262
O O11 0.675441 0.099061 0.477675
O O12 0.260127 0.383115 0.008212
O O13 0.000000 0.500000 0.500000
#
# Coordination Sequence:
#
# PCOD9240493 Si02
#       6
#     4   4   4   4   4   4
#     4   9  21  38  62  92 122 161 212 260 310 376
#     4  10  18  39  63  87 120 168 209 256 313 382
#     4   9  17  41  66  86 121 172 206 248 325 387
#     4  11  22  38  62  93 122 166 213 257 310 384
#     4  10  20  40  65  86 124 172 203 251 328 388
#     4  11  22  39  64  98 127 158 216 271 312 373
#
# _framework density 23.412734
#
# number of rings (size 3 to 8) (size 9 to 14) (size 15 to 20)
#    0.000    2.000    3.333    1.000    2.333    0.000 
#   12.000    0.000    0.000    2.000    0.000    0.000 
#    0.000    0.000    0.000    0.000    0.000    0.000 
#
# Total GULP energy -133867.297022 kJ/mol
# GULP energy per Si atom -5577.804043 kJ/mol
# Density = 2.335945 g / cm^3
# Si number density = 23.412734 Si / 1000 Ang^3
#
#
#
# Elastic Constant Matrix: (Units=GPa)
#
#
# Indices 1 2 3 4 5 6 
#
# 1 272.5673 28.3214 67.2732 0.0000 -6.5119 0.0000
# 2 28.3214 25.7812 14.1945 0.0000 -3.8011 0.0000
# 3 67.2732 14.1945 126.1079 0.0000 -23.5925 0.0000
# 4 0.0000 0.0000 0.0000 28.9361 0.0000 -13.1229
# 5 -6.5119 -3.8011 -23.5925 0.0000 42.6713 0.0000
# 6 0.0000 0.0000 0.0000 -13.1229 0.0000 24.1674
#
#
#
# Elastic Compliance Matrix: (Units=1/GPa)
#
#
# Indices 1 2 3 4 5 6 
#
# 1 0.004596 -0.003984 -0.002162 0.000000 -0.000849 0.000000
# 2 -0.003984 0.044862 -0.002555 0.000000 0.001976 0.000000
# 3 -0.002162 -0.002555 0.010336 0.000000 0.005157 0.000000
# 4 0.000000 0.000000 0.000000 0.045850 0.000000 0.024896
# 5 -0.000849 0.001976 0.005157 0.000000 0.026333 0.000000
# 6 0.000000 0.000000 0.000000 0.024896 0.000000 0.054897
#
#
# Mechanical properties :
#
#
# Convention : Reuss Voigt Hill
#
# Bulk Modulus (GPa) = 23.58930 71.55940 47.57435
# Shear Modulus (GPa) = 22.89325 40.13278 31.51302
#
# Velocity S-wave (km/s) = 3.13039 4.14471 3.67274
# Velocity P-wave (km/s) = 4.81280 7.31680 6.19268
#
# Compressibility (1/GPa) = 0.04239210
#
# Stress axis : x y z
#
# Youngs Moduli (GPa) = 217.57397 22.29056 96.75365
#
# Poissons Ratio (x) = 0.08880 0.20921
# Poissons Ratio (y) = 0.86674 0.24719
# Poissons Ratio (z) = 0.47045 0.05695
#
# Static dielectric constant tensor:
#      x y z
#    x 2.023470 0.000000 -0.038260 
#    y 0.000000 1.945100 0.000000 
#    z -0.038260 0.000000 1.915590 
# 
# From -- ./inp_files/35359.got.cif
#   From: 2010.05.17/outbox.cif.g08.bks.cpg/sg14_18_cif.got.tgz:35359.got - 2010.06.03 17:49:19.
