data_PCOD9240499
_publ_section_title
;
Structure prediction by ZEFSAII (Michael W. Deem and Ramdas Pophale) SiO2 
 PCOD9240499
Probable space group: P 21/C
;
_chemical_formula_sum "Si O2"
_cell_formula_units_Z 32
_cell_length_a 11.859255
_cell_length_b 8.544084
_cell_length_c 28.467031
_cell_angle_alpha 90.000000
_cell_angle_beta 147.127273
_cell_angle_gamma 90.000000
_cell_volume 1565.614043
_symmetry_space_group_name_H-M "P 21/C"
_symmetry_group_IT_number 14
_symmetry_cell_setting 'monoclinic'
loop_
_space_group_symop_operation_xyz
x,y,z
-x,1/2+y,1/2-z
-x,-y,-z
x,1/2-y,1/2+z
loop_
_atom_site_type_symbol
_atom_site_label
_atom_site_fract_x
_atom_site_fract_y
_atom_site_fract_z
Si Si1 0.300461 0.989369 0.897215
Si Si2 0.515951 0.380208 0.811946
Si Si3 0.301782 0.486492 0.991045
Si Si4 0.140454 0.479524 0.741711
Si Si5 0.075039 0.855433 0.494024
Si Si6 0.278241 0.346988 0.884770
Si Si7 0.369913 0.247485 0.662683
Si Si8 0.412575 0.760563 0.851931
O O1 0.251758 0.165882 0.864939
O O2 0.345913 0.878724 0.869114
O O3 0.094374 0.940720 0.853754
O O4 0.500000 0.000000 0.000000
O O5 0.312007 0.381693 0.773384
O O6 0.709519 0.301640 0.906755
O O7 0.466981 0.305697 0.744923
O O8 0.574567 0.563117 0.824330
O O9 0.217509 0.396863 0.916028
O O10 0.134246 0.574508 0.964012
O O11 0.478134 0.607506 0.035241
O O12 0.426682 0.363311 0.067720
O O13 0.158738 0.442591 0.803378
O O14 0.216859 0.659205 0.764826
O O15 0.879972 0.739986 0.423831
O O16 0.000000 0.000000 0.500000
O O17 0.470631 0.329574 0.652401
#
# Coordination Sequence:
#
# PCOD9240499 Si02
#       8
#     4   4   4   4   4   4   4   4
#     4  12  24  38  60  94 126 158 204 256 315 366
#     4  10  21  43  64  89 128 163 207 266 310 367
#     4  10  18  39  67  87 117 165 202 250 305 374
#     4  10  22  44  61  83 129 168 199 255 313 373
#     4  10  18  40  68  87 117 168 214 246 302 387
#     4  10  21  38  63  90 120 161 207 248 309 376
#     4  10  22  41  66  95 121 167 217 257 313 375
#     4  10  20  43  62  86 131 158 203 261 307 369
#
# _framework density 20.439266
#
# number of rings (size 3 to 8) (size 9 to 14) (size 15 to 20)
#    0.000    1.750    6.250    0.750    0.000    2.000 
#   20.250    0.625    0.000    0.000    0.000    0.000 
#    0.000    0.000    0.000    0.000    0.000    0.000 
#
# Total GULP energy -178639.286821 kJ/mol
# GULP energy per Si atom -5582.477713 kJ/mol
# Density = 2.039275 g / cm^3
# Si number density = 20.439266 Si / 1000 Ang^3
#
#
#
# Elastic Constant Matrix: (Units=GPa)
#
#
# Indices 1 2 3 4 5 6 
#
# 1 153.7969 20.9220 66.8471 0.0000 7.0314 0.0000
# 2 20.9220 25.5795 8.7811 0.0000 7.7673 0.0000
# 3 66.8471 8.7811 113.4069 0.0000 21.9194 0.0000
# 4 0.0000 0.0000 0.0000 18.1891 0.0000 -11.3537
# 5 7.0314 7.7673 21.9194 0.0000 33.1635 0.0000
# 6 0.0000 0.0000 0.0000 -11.3537 0.0000 21.1564
#
#
#
# Elastic Compliance Matrix: (Units=1/GPa)
#
#
# Indices 1 2 3 4 5 6 
#
# 1 0.009902 -0.007117 -0.005964 0.000000 0.003509 0.000000
# 2 -0.007117 0.047442 0.002726 0.000000 -0.011404 0.000000
# 3 -0.005964 0.002726 0.013759 0.000000 -0.008468 0.000000
# 4 0.000000 0.000000 0.000000 0.082671 0.000000 0.044366
# 5 0.003509 -0.011404 -0.008468 0.000000 0.037677 0.000000
# 6 0.000000 0.000000 0.000000 0.044366 0.000000 0.071076
#
#
# Mechanical properties :
#
#
# Convention : Reuss Voigt Hill
#
# Bulk Modulus (GPa) = 19.84411 53.98708 36.91560
# Shear Modulus (GPa) = 16.66467 27.58400 22.12434
#
# Velocity S-wave (km/s) = 2.85849 3.67762 3.29362
# Velocity P-wave (km/s) = 4.54142 6.67113 5.70651
#
# Compressibility (1/GPa) = 0.05039277
#
# Stress axis : x y z
#
# Youngs Moduli (GPa) = 100.98930 21.07821 72.68081
#
# Poissons Ratio (x) = 0.15002 0.43346
# Poissons Ratio (y) = 0.71878 -0.19813
# Poissons Ratio (z) = 0.60229 -0.05746
#
# Static dielectric constant tensor:
#      x y z
#    x 1.731980 0.000000 0.039790 
#    y 0.000000 1.752280 0.000000 
#    z 0.039790 0.000000 1.773240 
# 
# From -- ./inp_files/80020.got.cif
#   From: 2010.05.17/outbox.cif.g08.bks.cpg/sg14_41_cif.got.tgz:80020.got - 2010.06.03 17:49:19.
