data_PCOD9240148
_publ_section_title
;
Structure prediction by ZEFSAII (Michael W. Deem and Ramdas Pophale) SiO2 
 PCOD9240148
Probable space group: P 21/C
;
_chemical_formula_sum "Si O2"
_cell_formula_units_Z 24
_cell_length_a 13.528612
_cell_length_b 11.025094
_cell_length_c 18.313633
_cell_angle_alpha 90.000000
_cell_angle_beta 30.210030
_cell_angle_gamma 90.000000
_cell_volume 1374.440221
_symmetry_space_group_name_H-M "P 21/C"
_symmetry_group_IT_number 14
_symmetry_cell_setting 'monoclinic'
loop_
_space_group_symop_operation_xyz
x,y,z
-x,1/2+y,1/2-z
-x,-y,-z
x,1/2-y,1/2+z
loop_
_atom_site_type_symbol
_atom_site_label
_atom_site_fract_x
_atom_site_fract_y
_atom_site_fract_z
Si Si1 0.224386 0.653028 0.927266
Si Si2 0.945258 0.635004 0.624742
Si Si3 0.366283 0.036514 0.225574
Si Si4 0.870755 0.628377 0.251395
Si Si5 0.802351 0.933674 0.960911
Si Si6 0.668685 0.797205 0.180458
O O1 0.249844 0.572112 0.839263
O O2 0.439442 0.670530 0.823255
O O3 0.122734 0.783147 0.977694
O O4 0.075966 0.593822 0.080668
O O5 0.855279 0.728149 0.742128
O O6 0.785892 0.619004 0.663183
O O7 0.035569 0.518256 0.604551
O O8 0.296575 0.058904 0.187516
O O9 0.313338 0.160133 0.302409
O O10 0.596768 0.007633 0.085416
O O11 0.863951 0.604363 0.340797
O O12 0.756601 0.822624 0.044575
#
# Coordination Sequence:
#
# PCOD9240148 Si02
#       6
#     4   4   4   4   4   4
#     4   9  19  35  53  78 104 145 176 223 263 311
#     4   9  20  36  54  76 113 137 180 217 269 320
#     4  10  18  35  57  80 107 139 190 218 258 329
#     4   9  20  33  53  80 107 142 174 224 271 302
#     4  11  20  35  57  82 110 141 177 223 276 310
#     4  10  20  34  58  76 105 147 177 219 266 319
#
# _framework density 17.461652999999998
#
# number of rings (size 3 to 8) (size 9 to 14) (size 15 to 20)
#    1.000    1.333    1.667    1.500    0.000    1.333 
#    0.000    0.833    7.333    0.000    0.000    0.000 
#    0.000    0.000    0.000    0.000    0.000    0.000 
#
# Total GULP energy -133633.185222 kJ/mol
# GULP energy per Si atom -5568.049384 kJ/mol
# Density = 1.742191 g / cm^3
# Si number density = 17.461653 Si / 1000 Ang^3
#
#
#
# Elastic Constant Matrix: (Units=GPa)
#
#
# Indices 1 2 3 4 5 6 
#
# 1 66.0636 3.1932 6.0682 0.0000 -7.0284 0.0000
# 2 3.1932 23.0881 -3.6625 0.0000 7.8368 0.0000
# 3 6.0682 -3.6625 33.0056 0.0000 4.2716 0.0000
# 4 0.0000 0.0000 0.0000 16.9867 0.0000 -0.9288
# 5 -7.0284 7.8368 4.2716 0.0000 27.0293 0.0000
# 6 0.0000 0.0000 0.0000 -0.9288 0.0000 17.8294
#
#
#
# Elastic Compliance Matrix: (Units=1/GPa)
#
#
# Indices 1 2 3 4 5 6 
#
# 1 0.016487 -0.005190 -0.004448 0.000000 0.006495 0.000000
# 2 -0.005190 0.051452 0.008952 0.000000 -0.017682 0.000000
# 3 -0.004448 0.008952 0.033275 0.000000 -0.009011 0.000000
# 4 0.000000 0.000000 0.000000 0.059038 0.000000 0.003076
# 5 0.006495 -0.017682 -0.009011 0.000000 0.045237 0.000000
# 6 0.000000 0.000000 0.000000 0.003076 0.000000 0.056247
#
#
# Mechanical properties :
#
#
# Convention : Reuss Voigt Hill
#
# Bulk Modulus (GPa) = 10.01576 14.81722 12.41649
# Shear Modulus (GPa) = 16.86970 20.13964 18.50467
#
# Velocity S-wave (km/s) = 3.11159 3.39981 3.25888
# Velocity P-wave (km/s) = 4.31945 4.89035 4.61374
#
# Compressibility (1/GPa) = 0.09984268
#
# Stress axis : x y z
#
# Youngs Moduli (GPa) = 60.65259 19.43551 30.05246
#
# Poissons Ratio (x) = 0.10088 0.13367
# Poissons Ratio (y) = 0.31481 -0.26903
# Poissons Ratio (z) = 0.26977 -0.17399
#
# Static dielectric constant tensor:
#      x y z
#    x 1.591300 0.000000 -0.021450 
#    y 0.000000 1.600900 0.000000 
#    z -0.021450 0.000000 1.579900 
# 
# From -- ./inp_files/39568.got.cif
#   From: 2010.05.17/outbox.cif.g08.bks.cpg/sg14_20_cif.got.tgz:39568.got - 2010.06.03 17:49:19.
