data_PCOD9240617
_publ_section_title
;
Structure prediction by ZEFSAII (Michael W. Deem and Ramdas Pophale) SiO2 
 PCOD9240617
Probable space group: P 21/C
;
_chemical_formula_sum "Si O2"
_cell_formula_units_Z 32
_cell_length_a 5.693997
_cell_length_b 18.951539
_cell_length_c 12.175281
_cell_angle_alpha 90.000000
_cell_angle_beta 66.652652
_cell_angle_gamma 90.000000
_cell_volume 1206.256813
_symmetry_space_group_name_H-M "P 21/C"
_symmetry_group_IT_number 14
_symmetry_cell_setting 'monoclinic'
loop_
_space_group_symop_operation_xyz
x,y,z
-x,1/2+y,1/2-z
-x,-y,-z
x,1/2-y,1/2+z
loop_
_atom_site_type_symbol
_atom_site_label
_atom_site_fract_x
_atom_site_fract_y
_atom_site_fract_z
Si Si1 0.108041 0.383518 0.667081
Si Si2 0.694714 0.569324 0.601280
Si Si3 0.191613 0.424366 0.076957
Si Si4 0.906206 0.335145 0.421856
Si Si5 0.403238 0.717323 0.683630
Si Si6 0.803736 0.737753 0.964877
Si Si7 0.381629 0.513155 0.837266
Si Si8 0.572133 0.145249 0.191615
O O1 0.223754 0.428548 0.542489
O O2 0.146061 0.301159 0.627718
O O3 0.799644 0.389586 0.723624
O O4 0.286632 0.386906 0.740754
O O5 0.959779 0.588690 0.610362
O O6 0.543938 0.642279 0.656961
O O7 0.533400 0.510164 0.691238
O O8 0.141825 0.341849 0.069541
O O9 0.318849 0.454899 0.941593
O O10 0.405763 0.439553 0.132103
O O11 0.905163 0.458054 0.139751
O O12 0.048717 0.271190 0.457658
O O13 0.677054 0.354784 0.547544
O O14 0.869112 0.306540 0.308038
O O15 0.510598 0.759557 0.558306
O O16 0.431621 0.771827 0.774951
#
# Coordination Sequence:
#
# PCOD9240617 Si02
#       8
#     4   4   4   4   4   4   4   4
#     4   9  20  32  45  75 100 136 172 205 267 308
#     4   9  20  31  51  71 108 135 178 219 255 325
#     4  10  23  38  53  80 112 140 188 225 262 320
#     4   9  19  34  44  80 106 135 184 210 267 328
#     4  10  20  30  51  77 103 141 180 207 276 334
#     4   9  20  33  49  70 109 139 170 223 259 323
#     4  10  23  37  55  82 104 147 190 218 263 324
#     4  10  19  31  46  69 107 131 162 216 251 314
#
# _framework density 26.528348000000001
#
# number of rings (size 3 to 8) (size 9 to 14) (size 15 to 20)
#    0.000    3.000    2.500    0.000   12.250    0.000 
#    0.000    0.000    0.000    0.000    0.000    4.375 
#    0.000    0.000    0.000    0.000    0.000    0.000 
#
# Total GULP energy -178279.638520 kJ/mol
# GULP energy per Si atom -5571.238704 kJ/mol
# Density = 2.646797 g / cm^3
# Si number density = 26.528348 Si / 1000 Ang^3
#
#
#
# Elastic Constant Matrix: (Units=GPa)
#
#
# Indices 1 2 3 4 5 6 
#
# 1 156.4595 21.1220 18.6620 0.0000 16.0410 0.0000
# 2 21.1220 79.7803 0.2434 0.0000 -0.5241 0.0000
# 3 18.6620 0.2434 65.6895 0.0000 -5.2222 0.0000
# 4 0.0000 0.0000 0.0000 31.2427 0.0000 -8.1669
# 5 16.0410 -0.5241 -5.2222 0.0000 28.6887 0.0000
# 6 0.0000 0.0000 0.0000 -8.1669 0.0000 24.1880
#
#
#
# Elastic Compliance Matrix: (Units=1/GPa)
#
#
# Indices 1 2 3 4 5 6 
#
# 1 0.007431 -0.001990 -0.002473 0.000000 -0.004641 0.000000
# 2 -0.001990 0.013069 0.000634 0.000000 0.001467 0.000000
# 3 -0.002473 0.000634 0.016270 0.000000 0.004356 0.000000
# 4 0.000000 0.000000 0.000000 0.035106 0.000000 0.011853
# 5 -0.004641 0.001467 0.004356 0.000000 0.038272 0.000000
# 6 0.000000 0.000000 0.000000 0.011853 0.000000 0.045345
#
#
# Mechanical properties :
#
#
# Convention : Reuss Voigt Hill
#
# Bulk Modulus (GPa) = 34.35152 42.44267 38.39710
# Shear Modulus (GPa) = 28.92609 34.28403 31.60506
#
# Velocity S-wave (km/s) = 3.30568 3.59883 3.45537
# Velocity P-wave (km/s) = 5.24853 5.77083 5.51587
#
# Compressibility (1/GPa) = 0.02911079
#
# Stress axis : x y z
#
# Youngs Moduli (GPa) = 134.57305 76.51657 61.46463
#
# Poissons Ratio (x) = 0.15229 0.15198
# Poissons Ratio (y) = 0.26784 -0.03895
# Poissons Ratio (z) = 0.33276 -0.04848
#
# Static dielectric constant tensor:
#      x y z
#    x 2.432180 0.000000 -0.083740 
#    y 0.000000 2.123910 0.000000 
#    z -0.083740 0.000000 2.121340 
# 
# From -- ./inp_files/38085.got.cif
#   From: 2010.05.17/outbox.cif.g08.bks.cpg/sg14_20_cif.got.tgz:38085.got - 2010.06.03 17:49:19.
