data_PCOD9240648
_publ_section_title
;
Structure prediction by ZEFSAII (Michael W. Deem and Ramdas Pophale) SiO2 
 PCOD9240648
Probable space group: P 21/C
;
_chemical_formula_sum "Si O2"
_cell_formula_units_Z 28
_cell_length_a 7.774887
_cell_length_b 30.283118
_cell_length_c 8.595690
_cell_angle_alpha 90.000000
_cell_angle_beta 143.688778
_cell_angle_gamma 90.000000
_cell_volume 1198.457305
_symmetry_space_group_name_H-M "P 21/C"
_symmetry_group_IT_number 14
_symmetry_cell_setting 'monoclinic'
loop_
_space_group_symop_operation_xyz
x,y,z
-x,1/2+y,1/2-z
-x,-y,-z
x,1/2-y,1/2+z
loop_
_atom_site_type_symbol
_atom_site_label
_atom_site_fract_x
_atom_site_fract_y
_atom_site_fract_z
Si Si1 0.609706 0.143869 0.275057
Si Si2 0.338415 0.569232 0.953504
Si Si3 0.738056 0.619966 0.781756
Si Si4 0.822820 0.230905 0.317821
Si Si5 0.510930 0.705077 0.735006
Si Si6 0.311406 0.513823 0.657944
Si Si7 0.181981 0.470928 0.254014
O O1 0.550100 0.114229 0.384769
O O2 0.694801 0.195388 0.350597
O O3 0.917248 0.124588 0.435955
O O4 0.365107 0.138136 0.964228
O O5 0.485888 0.526133 0.137239
O O6 0.371711 0.559157 0.795744
O O7 0.010962 0.561001 0.772816
O O8 0.581040 0.653152 0.785538
O O9 0.666783 0.568624 0.730216
O O10 0.669222 0.276489 0.251304
O O11 0.172416 0.228173 0.562740
O O12 0.695889 0.214946 0.061906
O O13 0.305143 0.505356 0.468941
O O14 0.000000 0.500000 0.500000
O O15 0.000000 0.500000 0.000000
#
# Coordination Sequence:
#
# PCOD9240648 Si02
#       7
#     4   4   4   4   4   4   4
#     4   9  17  32  55  79 102 142 192 226 271 346
#     4   9  17  31  51  72 100 136 182 234 268 319
#     4   9  18  33  52  80 107 145 185 227 277 344
#     4  10  20  35  61  87 115 152 191 236 292 351
#     4  10  20  36  61  86 117 150 193 239 292 347
#     4   9  17  30  50  71  98 136 180 226 274 311
#     4  10  19  31  51  76 106 144 186 225 275 339
#
# _framework density 23.363368000000001
#
# number of rings (size 3 to 8) (size 9 to 14) (size 15 to 20)
#    0.000    2.571    1.429    0.857    0.000    0.571 
#    0.000    0.000    9.429    0.000    0.000    0.000 
#    0.000    0.000    0.000    0.000    0.000    0.000 
#
# Total GULP energy -155986.459666 kJ/mol
# GULP energy per Si atom -5570.944988 kJ/mol
# Density = 2.331019 g / cm^3
# Si number density = 23.363368 Si / 1000 Ang^3
#
#
#
# Elastic Constant Matrix: (Units=GPa)
#
#
# Indices 1 2 3 4 5 6 
#
# 1 70.9003 2.7522 11.9877 0.0000 -8.4016 0.0000
# 2 2.7522 58.0769 -0.2667 0.0000 10.4585 0.0000
# 3 11.9877 -0.2667 71.1015 0.0000 2.1302 0.0000
# 4 0.0000 0.0000 0.0000 28.0552 0.0000 5.9662
# 5 -8.4016 10.4585 2.1302 0.0000 36.9913 0.0000
# 6 0.0000 0.0000 0.0000 5.9662 0.0000 36.0879
#
#
#
# Elastic Compliance Matrix: (Units=1/GPa)
#
#
# Indices 1 2 3 4 5 6 
#
# 1 0.015084 -0.001445 -0.002668 0.000000 0.003988 0.000000
# 2 -0.001445 0.018284 0.000478 0.000000 -0.005525 0.000000
# 3 -0.002668 0.000478 0.014563 0.000000 -0.001580 0.000000
# 4 0.000000 0.000000 0.000000 0.036943 0.000000 -0.006108
# 5 0.003988 -0.005525 -0.001580 0.000000 0.029592 0.000000
# 6 0.000000 0.000000 0.000000 -0.006108 0.000000 0.028720
#
#
# Mechanical properties :
#
#
# Convention : Reuss Voigt Hill
#
# Bulk Modulus (GPa) = 24.59385 25.44724 25.02055
# Shear Modulus (GPa) = 30.48568 32.60059 31.54313
#
# Velocity S-wave (km/s) = 3.61619 3.73952 3.67837
# Velocity P-wave (km/s) = 5.29011 5.43700 5.36406
#
# Compressibility (1/GPa) = 0.04066056
#
# Stress axis : x y z
#
# Youngs Moduli (GPa) = 66.29479 54.69199 68.66547
#
# Poissons Ratio (x) = 0.07905 0.18321
# Poissons Ratio (y) = 0.09581 -0.03281
# Poissons Ratio (z) = 0.17688 -0.02613
#
# Static dielectric constant tensor:
#      x y z
#    x 2.189020 0.000000 0.021680 
#    y 0.000000 1.940510 0.000000 
#    z 0.021680 0.000000 1.959160 
# 
# From -- ./inp_files/6741.got.cif
#   From: 2010.05.17/outbox.cif.g08.bks.cpg/sg14_4_cif.got.tgz:6741.got - 2010.06.03 17:49:19.
