data_PCOD9240667
_publ_section_title
;
Structure prediction by ZEFSAII (Michael W. Deem and Ramdas Pophale) SiO2 
 PCOD9240667
Probable space group: P 21/C
;
_chemical_formula_sum "Si O2"
_cell_formula_units_Z 32
_cell_length_a 12.731816
_cell_length_b 8.816006
_cell_length_c 19.948837
_cell_angle_alpha 90.000000
_cell_angle_beta 144.590854
_cell_angle_gamma 90.000000
_cell_volume 1297.378689
_symmetry_space_group_name_H-M "P 21/C"
_symmetry_group_IT_number 14
_symmetry_cell_setting 'monoclinic'
loop_
_space_group_symop_operation_xyz
x,y,z
-x,1/2+y,1/2-z
-x,-y,-z
x,1/2-y,1/2+z
loop_
_atom_site_type_symbol
_atom_site_label
_atom_site_fract_x
_atom_site_fract_y
_atom_site_fract_z
Si Si1 0.964073 0.667427 0.738603
Si Si2 0.409198 0.783446 0.389131
Si Si3 0.197370 0.209827 0.475296
Si Si4 0.327791 0.782691 0.990676
Si Si5 0.835708 0.930579 0.732002
Si Si6 0.698770 0.202079 0.808562
Si Si7 0.875304 0.480703 0.510427
Si Si8 0.389340 0.549747 0.129701
O O1 0.945967 0.747228 0.656427
O O2 0.135567 0.705028 0.873519
O O3 0.006165 0.496906 0.736581
O O4 0.808207 0.754623 0.699448
O O5 0.611952 0.782946 0.466176
O O6 0.398652 0.688724 0.452352
O O7 0.328608 0.952130 0.363699
O O8 0.287484 0.740554 0.260790
O O9 0.176215 0.342804 0.518453
O O10 0.210356 0.047215 0.516862
O O11 0.436016 0.660296 0.091607
O O12 0.276346 0.916919 0.014823
O O13 0.930942 0.950507 0.853264
O O14 0.641344 0.344003 0.823250
O O15 0.853576 0.118241 0.932412
O O16 0.543435 0.072980 0.724593
#
# Coordination Sequence:
#
# PCOD9240667 Si02
#       8
#     4   4   4   4   4   4   4   4
#     4   9  17  32  53  77 105 141 179 216 268 329
#     4  10  20  32  53  83 111 134 176 236 279 304
#     4  10  19  31  54  80 108 142 182 226 269 320
#     4   9  19  35  55  79 107 140 180 225 270 321
#     4   9  18  32  52  74 105 141 180 223 269 323
#     4  10  20  34  54  78 109 146 182 222 269 321
#     4   9  19  36  54  74 103 148 186 211 264 337
#     4  10  20  35  55  79 110 146 183 216 266 331
#
# _framework density 24.665120999999999
#
# number of rings (size 3 to 8) (size 9 to 14) (size 15 to 20)
#    0.000    2.500    0.000    3.000    0.000    5.500 
#    0.000    0.000    0.000   20.250    0.000    0.000 
#    0.000    0.000    0.000    0.000    0.000    0.000 
#
# Total GULP energy -178385.228232 kJ/mol
# GULP energy per Si atom -5574.538382 kJ/mol
# Density = 2.460898 g / cm^3
# Si number density = 24.665121 Si / 1000 Ang^3
#
#
#
# Elastic Constant Matrix: (Units=GPa)
#
#
# Indices 1 2 3 4 5 6 
#
# 1 124.1063 43.5795 22.8714 0.0000 -27.1135 0.0000
# 2 43.5795 86.4698 29.9805 0.0000 -12.3052 0.0000
# 3 22.8714 29.9805 98.4316 0.0000 -16.5161 0.0000
# 4 0.0000 0.0000 0.0000 45.8914 0.0000 -6.8507
# 5 -27.1135 -12.3052 -16.5161 0.0000 37.9473 0.0000
# 6 0.0000 0.0000 0.0000 -6.8507 0.0000 29.9672
#
#
#
# Elastic Compliance Matrix: (Units=1/GPa)
#
#
# Indices 1 2 3 4 5 6 
#
# 1 0.011104 -0.004656 -0.000091 0.000000 0.006385 0.000000
# 2 -0.004656 0.015139 -0.003521 0.000000 0.000050 0.000000
# 3 -0.000091 -0.003521 0.011921 0.000000 0.003982 0.000000
# 4 0.000000 0.000000 0.000000 0.022561 0.000000 0.005157
# 5 0.006385 0.000050 0.003982 0.000000 0.032664 0.000000
# 6 0.000000 0.000000 0.000000 0.005157 0.000000 0.034549
#
#
# Mechanical properties :
#
#
# Convention : Reuss Voigt Hill
#
# Bulk Modulus (GPa) = 46.23466 55.76340 50.99903
# Shear Modulus (GPa) = 32.96357 36.93292 34.94824
#
# Velocity S-wave (km/s) = 3.65971 3.87379 3.76827
# Velocity P-wave (km/s) = 6.05340 6.53189 6.29719
#
# Compressibility (1/GPa) = 0.02162880
#
# Stress axis : x y z
#
# Youngs Moduli (GPa) = 90.05577 66.05325 83.88608
#
# Poissons Ratio (x) = 0.30757 0.00760
# Poissons Ratio (y) = 0.41933 0.29535
# Poissons Ratio (z) = 0.00816 0.23256
#
# Static dielectric constant tensor:
#      x y z
#    x 2.064410 0.000000 0.009140 
#    y 0.000000 1.989470 0.000000 
#    z 0.009140 0.000000 1.989050 
# 
# From -- ./inp_files/68234.got.cif
#   From: 2010.05.17/outbox.cif.g08.bks.cpg/sg14_35_cif.got.tgz:68234.got - 2010.06.03 17:49:19.
