data_PCOD9240881
_publ_section_title
;
Structure prediction by ZEFSAII (Michael W. Deem and Ramdas Pophale) SiO2 
 PCOD9240881
Probable space group: P 21/C
;
_chemical_formula_sum "Si O2"
_cell_formula_units_Z 28
_cell_length_a 10.345983
_cell_length_b 9.584075
_cell_length_c 19.025253
_cell_angle_alpha 90.000000
_cell_angle_beta 51.802453
_cell_angle_gamma 90.000000
_cell_volume 1482.553938
_symmetry_space_group_name_H-M "P 21/C"
_symmetry_group_IT_number 14
_symmetry_cell_setting 'monoclinic'
loop_
_space_group_symop_operation_xyz
x,y,z
-x,1/2+y,1/2-z
-x,-y,-z
x,1/2-y,1/2+z
loop_
_atom_site_type_symbol
_atom_site_label
_atom_site_fract_x
_atom_site_fract_y
_atom_site_fract_z
Si Si1 0.245583 0.052542 0.080078
Si Si2 0.561967 0.567203 0.709588
Si Si3 0.040835 0.738657 0.492384
Si Si4 0.306462 0.289184 0.943535
Si Si5 0.090872 0.992945 0.862648
Si Si6 0.361232 0.592804 0.909843
Si Si7 0.488667 0.874249 0.905167
O O1 0.339159 0.074050 0.121405
O O2 0.049624 0.028583 0.148880
O O3 0.281764 0.186572 0.017906
O O4 0.344892 0.930701 0.005351
O O5 0.595183 0.701756 0.648996
O O6 0.720350 0.539761 0.706627
O O7 0.407919 0.580206 0.811953
O O8 0.544621 0.441641 0.659663
O O9 0.096831 0.650377 0.405266
O O10 0.180742 0.838759 0.474222
O O11 0.873697 0.816187 0.528423
O O12 0.989790 0.615379 0.562856
O O13 0.378849 0.439541 0.935835
O O14 0.478925 0.708913 0.903546
#
# Coordination Sequence:
#
# PCOD9240881 Si02
#       7
#     4   4   4   4   4   4   4
#     4   9  18  35  56  74  98 136 187 214 241 317
#     4  10  20  33  52  79 106 139 177 211 264 320
#     4   9  16  30  52  78 101 134 181 220 251 301
#     4   9  20  31  49  80 108 134 175 223 261 306
#     4   9  15  33  56  73  97 141 184 209 245 312
#     4  12  19  30  52  83 114 130 167 228 277 300
#     4  10  19  33  56  78  97 140 178 214 256 306
#
# _framework density 18.886327999999999
#
# number of rings (size 3 to 8) (size 9 to 14) (size 15 to 20)
#    0.000    2.286    2.857    3.000    0.000    0.571 
#    0.000    0.000    6.286    0.000    0.000    0.000 
#    0.000    0.000    0.000    0.000    0.000    0.000 
#
# Total GULP energy -156003.735576 kJ/mol
# GULP energy per Si atom -5571.561985 kJ/mol
# Density = 1.884334 g / cm^3
# Si number density = 18.886328 Si / 1000 Ang^3
#
#
#
# Elastic Constant Matrix: (Units=GPa)
#
#
# Indices 1 2 3 4 5 6 
#
# 1 96.0035 9.8133 0.6407 0.0000 -1.8640 0.0000
# 2 9.8133 108.5166 5.2178 0.0000 -3.5164 0.0000
# 3 0.6407 5.2178 22.5507 0.0000 -3.0681 0.0000
# 4 0.0000 0.0000 0.0000 1.0738 0.0000 -0.9745
# 5 -1.8640 -3.5164 -3.0681 0.0000 5.5344 0.0000
# 6 0.0000 0.0000 0.0000 -0.9745 0.0000 2.1127
#
#
#
# Elastic Compliance Matrix: (Units=1/GPa)
#
#
# Indices 1 2 3 4 5 6 
#
# 1 0.010565 -0.000868 0.000335 0.000000 0.003192 0.000000
# 2 -0.000868 0.009526 -0.001510 0.000000 0.004923 0.000000
# 3 0.000335 -0.001510 0.048205 0.000000 0.025877 0.000000
# 4 0.000000 0.000000 0.000000 1.601917 0.000000 0.738920
# 5 0.003192 0.004923 0.025877 0.000000 0.199237 0.000000
# 6 0.000000 0.000000 0.000000 0.738920 0.000000 0.814171
#
#
# Mechanical properties :
#
#
# Convention : Reuss Voigt Hill
#
# Bulk Modulus (GPa) = 15.57382 28.71270 22.14326
# Shear Modulus (GPa) = 1.84563 15.83744 8.84153
#
# Velocity S-wave (km/s) = 0.98962 2.89894 2.16601
# Velocity P-wave (km/s) = 3.09351 5.14209 4.24328
#
# Compressibility (1/GPa) = 0.06421034
#
# Stress axis : x y z
#
# Youngs Moduli (GPa) = 94.65427 104.97809 20.74474
#
# Poissons Ratio (x) = 0.09113 -0.00695
# Poissons Ratio (y) = 0.08216 0.03132
# Poissons Ratio (z) = -0.03171 0.15847
#
# Static dielectric constant tensor:
#      x y z
#    x 1.683920 0.000000 -0.023170 
#    y 0.000000 1.678650 0.000000 
#    z -0.023170 0.000000 1.646030 
# 
# From -- ./inp_files/66813.got.cif
#   From: 2010.05.17/outbox.cif.g08.bks.cpg/sg14_34_cif.got.tgz:66813.got - 2010.06.03 17:49:19.
