data_PCOD9240250
_publ_section_title
;
Structure prediction by ZEFSAII (Michael W. Deem and Ramdas Pophale) SiO2 
 PCOD9240250
Probable space group: P 21/C
;
_chemical_formula_sum "Si O2"
_cell_formula_units_Z 24
_cell_length_a 11.636511
_cell_length_b 18.700977
_cell_length_c 10.671362
_cell_angle_alpha 90.000000
_cell_angle_beta 153.566275
_cell_angle_gamma 90.000000
_cell_volume 1033.773366
_symmetry_space_group_name_H-M "P 21/C"
_symmetry_group_IT_number 14
_symmetry_cell_setting 'monoclinic'
loop_
_space_group_symop_operation_xyz
x,y,z
-x,1/2+y,1/2-z
-x,-y,-z
x,1/2-y,1/2+z
loop_
_atom_site_type_symbol
_atom_site_label
_atom_site_fract_x
_atom_site_fract_y
_atom_site_fract_z
Si Si1 0.862098 0.471925 0.156772
Si Si2 0.743695 0.434802 0.297427
Si Si3 0.542859 0.755461 0.666689
Si Si4 0.656910 0.611444 0.883204
Si Si5 0.081887 0.193658 0.161284
Si Si6 0.964539 0.312724 0.200861
O O1 0.660434 0.460042 0.076589
O O2 0.931581 0.397557 0.160882
O O3 0.097113 0.507157 0.465593
O O4 0.758294 0.531595 0.958624
O O5 0.542628 0.401050 0.197572
O O6 0.940696 0.370228 0.452518
O O7 0.553946 0.668906 0.684252
O O8 0.264888 0.781311 0.438029
O O9 0.649725 0.784991 0.640524
O O10 0.755504 0.791146 0.969292
O O11 0.886401 0.655575 0.173324
O O12 0.940234 0.268392 0.047390
#
# Coordination Sequence:
#
# PCOD9240250 Si02
#       6
#     4   4   4   4   4   4
#     4  10  21  32  58  87 119 152 192 248 299 343
#     4  10  18  36  56  87 116 150 194 247 299 344
#     4  11  23  39  61  86 121 158 198 243 293 351
#     4  10  21  36  57  86 120 156 192 248 298 348
#     4  10  21  37  59  87 118 156 204 239 293 352
#     4  11  23  38  60  89 119 157 198 246 292 352
#
# _framework density 23.215920000000001
#
# number of rings (size 3 to 8) (size 9 to 14) (size 15 to 20)
#    0.000    1.667    3.333    1.500    2.333    0.000 
#    0.000    0.833    0.000    1.000    0.000    0.000 
#    0.000    0.000    0.000    0.000    0.000    0.000 
#
# Total GULP energy -133838.256357 kJ/mol
# GULP energy per Si atom -5576.594015 kJ/mol
# Density = 2.316308 g / cm^3
# Si number density = 23.215920 Si / 1000 Ang^3
#
#
#
# Elastic Constant Matrix: (Units=GPa)
#
#
# Indices 1 2 3 4 5 6 
#
# 1 34.3733 31.8388 3.9319 0.0000 16.6266 0.0000
# 2 31.8388 198.4454 22.5478 0.0000 0.0934 0.0000
# 3 3.9319 22.5478 43.5982 0.0000 8.2292 0.0000
# 4 0.0000 0.0000 0.0000 30.2388 0.0000 -4.7105
# 5 16.6266 0.0934 8.2292 0.0000 19.9293 0.0000
# 6 0.0000 0.0000 0.0000 -4.7105 0.0000 46.6602
#
#
#
# Elastic Compliance Matrix: (Units=1/GPa)
#
#
# Indices 1 2 3 4 5 6 
#
# 1 0.070008 -0.012583 0.012154 0.000000 -0.063366 0.000000
# 2 -0.012583 0.007643 -0.005198 0.000000 0.012608 0.000000
# 3 0.012154 -0.005198 0.028673 0.000000 -0.021955 0.000000
# 4 0.000000 0.000000 0.000000 0.033598 0.000000 0.003392
# 5 -0.063366 0.012608 -0.021955 0.000000 0.112049 0.000000
# 6 0.000000 0.000000 0.000000 0.003392 0.000000 0.021774
#
#
# Mechanical properties :
#
#
# Convention : Reuss Voigt Hill
#
# Bulk Modulus (GPa) = 10.51854 43.67267 27.09560
# Shear Modulus (GPa) = 15.78841 33.90556 24.84699
#
# Velocity S-wave (km/s) = 2.61064 3.82572 3.27503
# Velocity P-wave (km/s) = 3.69159 6.19413 5.09878
#
# Compressibility (1/GPa) = 0.09507027
#
# Stress axis : x y z
#
# Youngs Moduli (GPa) = 14.28409 130.84418 34.87642
#
# Poissons Ratio (x) = 1.64646 -0.42390
# Poissons Ratio (y) = 0.17974 0.18127
# Poissons Ratio (z) = -0.17361 0.68007
#
# Static dielectric constant tensor:
#      x y z
#    x 1.941280 0.000000 -0.013310 
#    y 0.000000 1.950200 0.000000 
#    z -0.013310 0.000000 1.966010 
# 
# From -- ./inp_files/21152.got.cif
#   From: 2010.05.17/outbox.cif.g08.bks.cpg/sg14_11_cif.got.tgz:21152.got - 2010.06.03 17:49:19.
