data_PCOD9240750
_publ_section_title
;
Structure prediction by ZEFSAII (Michael W. Deem and Ramdas Pophale) SiO2 
 PCOD9240750
Probable space group: P 21/C
;
_chemical_formula_sum "Si O2"
_cell_formula_units_Z 32
_cell_length_a 27.284852
_cell_length_b 8.646062
_cell_length_c 14.695429
_cell_angle_alpha 90.000000
_cell_angle_beta 28.892598
_cell_angle_gamma 90.000000
_cell_volume 1675.025911
_symmetry_space_group_name_H-M "P 21/C"
_symmetry_group_IT_number 14
_symmetry_cell_setting 'monoclinic'
loop_
_space_group_symop_operation_xyz
x,y,z
-x,1/2+y,1/2-z
-x,-y,-z
x,1/2-y,1/2+z
loop_
_atom_site_type_symbol
_atom_site_label
_atom_site_fract_x
_atom_site_fract_y
_atom_site_fract_z
Si Si1 0.616952 0.940136 0.802142
Si Si2 0.884540 0.453498 0.675066
Si Si3 0.576576 0.142915 0.194431
Si Si4 0.584494 0.435344 0.068989
Si Si5 0.755205 0.264210 0.021053
Si Si6 0.293600 0.188926 0.515907
Si Si7 0.699732 0.533966 0.358810
Si Si8 0.787120 0.283972 0.668455
O O1 0.646473 0.812523 0.677839
O O2 0.661780 0.890656 0.826904
O O3 0.684251 0.090020 0.664910
O O4 0.500000 0.000000 0.000000
O O5 0.813527 0.600279 0.814099
O O6 0.859039 0.384016 0.616835
O O7 0.000000 0.500000 0.500000
O O8 0.842190 0.323013 0.812375
O O9 0.545395 0.312395 0.208615
O O10 0.676057 0.159052 0.094286
O O11 0.495254 0.023105 0.365233
O O12 0.605884 0.059947 0.052783
O O13 0.636473 0.574926 0.038508
O O14 0.673949 0.349499 0.870591
O O15 0.803262 0.200062 0.035022
O O16 0.276258 0.344046 0.601261
O O17 0.782098 0.398543 0.204089
#
# Coordination Sequence:
#
# PCOD9240750 Si02
#       8
#     4   4   4   4   4   4   4   4
#     4  10  20  35  54  84 121 166 199 230 301 355
#     4  10  20  43  69  84 112 163 200 254 322 362
#     4  11  19  34  56  84 122 166 203 236 297 352
#     4  10  19  32  54  82 120 168 203 240 288 358
#     4  10  20  38  59  85 123 156 199 252 294 363
#     4  10  20  38  56  87 121 151 206 251 295 364
#     4  10  20  34  57  81 122 158 189 256 292 346
#     4   9  20  40  58  85 123 154 203 250 311 362
#
# _framework density 19.104182000000002
#
# number of rings (size 3 to 8) (size 9 to 14) (size 15 to 20)
#    0.000    2.000    5.000    1.500    1.750    2.500 
#    4.500    4.375    0.000    0.000    0.000    0.000 
#    0.000    0.000    0.000    0.000    0.000    0.000 
#
# Total GULP energy -178224.354142 kJ/mol
# GULP energy per Si atom -5569.511067 kJ/mol
# Density = 1.906070 g / cm^3
# Si number density = 19.104182 Si / 1000 Ang^3
#
#
#
# Elastic Constant Matrix: (Units=GPa)
#
#
# Indices 1 2 3 4 5 6 
#
# 1 115.7257 46.2597 73.2340 0.0000 6.0005 0.0000
# 2 46.2597 76.3957 28.9904 0.0000 -7.9458 0.0000
# 3 73.2340 28.9904 78.7856 0.0000 -17.5798 0.0000
# 4 0.0000 0.0000 0.0000 7.5126 0.0000 1.5054
# 5 6.0005 -7.9458 -17.5798 0.0000 29.3734 0.0000
# 6 0.0000 0.0000 0.0000 1.5054 0.0000 30.5005
#
#
#
# Elastic Compliance Matrix: (Units=1/GPa)
#
#
# Indices 1 2 3 4 5 6 
#
# 1 0.046361 -0.014555 -0.047008 0.000000 -0.041542 0.000000
# 2 -0.014555 0.019804 0.009350 0.000000 0.013926 0.000000
# 3 -0.047008 0.009350 0.064233 0.000000 0.050575 0.000000
# 4 0.000000 0.000000 0.000000 0.134439 0.000000 -0.006635
# 5 -0.041542 0.013926 0.050575 0.000000 0.076567 0.000000
# 6 0.000000 0.000000 0.000000 -0.006635 0.000000 0.033114
#
#
# Mechanical properties :
#
#
# Convention : Reuss Voigt Hill
#
# Bulk Modulus (GPa) = 38.50413 63.09722 50.80068
# Shear Modulus (GPa) = 10.25431 21.63884 15.94658
#
# Velocity S-wave (km/s) = 2.31932 3.36918 2.89228
# Velocity P-wave (km/s) = 5.23172 6.94513 6.14840
#
# Compressibility (1/GPa) = 0.02597124
#
# Stress axis : x y z
#
# Youngs Moduli (GPa) = 21.56986 50.49560 15.56841
#
# Poissons Ratio (x) = 0.73497 0.73184
# Poissons Ratio (y) = 0.31395 -0.14556
# Poissons Ratio (z) = 1.01395 -0.47213
#
# Static dielectric constant tensor:
#      x y z
#    x 1.716750 0.000000 0.010850 
#    y 0.000000 1.737790 0.000000 
#    z 0.010850 0.000000 1.702610 
# 
# From -- ./inp_files/51907.got.cif
#   From: 2010.05.17/outbox.cif.g08.bks.cpg/sg14_26_cif.got.tgz:51907.got - 2010.06.03 17:49:19.
