data_PCOD9240412
_publ_section_title
;
Structure prediction by ZEFSAII (Michael W. Deem and Ramdas Pophale) SiO2 
 PCOD9240412
Probable space group: P 21/C
;
_chemical_formula_sum "Si O2"
_cell_formula_units_Z 26
_cell_length_a 12.801519
_cell_length_b 7.557469
_cell_length_c 21.230561
_cell_angle_alpha 90.000000
_cell_angle_beta 34.244245
_cell_angle_gamma 90.000000
_cell_volume 1155.827881
_symmetry_space_group_name_H-M "P 21/C"
_symmetry_group_IT_number 14
_symmetry_cell_setting 'monoclinic'
loop_
_space_group_symop_operation_xyz
x,y,z
-x,1/2+y,1/2-z
-x,-y,-z
x,1/2-y,1/2+z
loop_
_atom_site_type_symbol
_atom_site_label
_atom_site_fract_x
_atom_site_fract_y
_atom_site_fract_z
Si Si1 0.956541 0.049513 0.819614
Si Si2 0.323943 0.007112 0.938376
Si Si3 0.639745 0.083994 0.595716
Si Si4 0.000000 0.000000 0.000000
Si Si5 0.778800 0.477864 0.711733
Si Si6 0.279006 0.896210 0.301885
Si Si7 0.004846 0.952646 0.655679
O O1 0.984855 0.249494 0.828326
O O2 0.957276 0.047701 0.744685
O O3 0.772790 0.973879 0.945232
O O4 0.130538 0.949609 0.765830
O O5 0.360916 0.797284 0.910019
O O6 0.175630 0.058648 0.959369
O O7 0.517302 0.106965 0.831175
O O8 0.693100 0.038821 0.641107
O O9 0.794076 0.003159 0.473124
O O10 0.433882 0.023814 0.681564
O O11 0.094940 0.107865 0.892394
O O12 0.805339 0.304250 0.653244
O O13 0.145265 0.002771 0.322649
#
# Coordination Sequence:
#
# PCOD9240412 Si02
#       7
#     4   4   4   2   4   4   4
#     4  10  24  45  64  93 123 179 209 270 312 380
#     4  10  22  40  65  91 131 161 214 258 321 369
#     4  11  22  42  62 100 125 170 204 269 312 387
#     4  10  18  38  58  92 124 164 194 258 302 380
#     4  11  23  38  67  92 133 163 213 257 324 372
#     4  12  22  40  64 102 126 169 205 267 318 387
#     4  11  25  43  66  90 133 164 225 257 320 377
#
# _framework density 22.494698
#
# number of rings (size 3 to 8) (size 9 to 14) (size 15 to 20)
#    0.000    1.231    3.077    2.308    0.000    4.923 
#    5.538    0.000    0.000    0.000    0.000    0.000 
#    0.000    0.000    0.000    0.000    0.000    0.000 
#
# Total GULP energy -144945.916989 kJ/mol
# GULP energy per Si atom -5574.842961 kJ/mol
# Density = 2.244350 g / cm^3
# Si number density = 22.494698 Si / 1000 Ang^3
#
#
#
# Elastic Constant Matrix: (Units=GPa)
#
#
# Indices 1 2 3 4 5 6 
#
# 1 70.5009 8.0822 60.7408 0.0000 21.6765 0.0000
# 2 8.0822 29.9788 3.0303 0.0000 12.5916 0.0000
# 3 60.7408 3.0303 109.7155 0.0000 7.5774 0.0000
# 4 0.0000 0.0000 0.0000 14.5081 0.0000 4.3757
# 5 21.6765 12.5916 7.5774 0.0000 37.8197 0.0000
# 6 0.0000 0.0000 0.0000 4.3757 0.0000 24.4203
#
#
#
# Elastic Compliance Matrix: (Units=1/GPa)
#
#
# Indices 1 2 3 4 5 6 
#
# 1 0.034885 -0.000813 -0.018180 0.000000 -0.016081 0.000000
# 2 -0.000813 0.038802 0.000242 0.000000 -0.012501 0.000000
# 3 -0.018180 0.000242 0.018718 0.000000 0.006589 0.000000
# 4 0.000000 0.000000 0.000000 0.072865 0.000000 -0.013056
# 5 -0.016081 -0.012501 0.006589 0.000000 0.038500 0.000000
# 6 0.000000 0.000000 0.000000 -0.013056 0.000000 0.043289
#
#
# Mechanical properties :
#
#
# Convention : Reuss Voigt Hill
#
# Bulk Modulus (GPa) = 18.21402 39.32241 28.76822
# Shear Modulus (GPa) = 16.50917 24.57242 20.54079
#
# Velocity S-wave (km/s) = 2.71202 3.30868 3.02510
# Velocity P-wave (km/s) = 4.23336 5.66703 5.00183
#
# Compressibility (1/GPa) = 0.05490275
#
# Stress axis : x y z
#
# Youngs Moduli (GPa) = 28.66570 25.77162 53.42594
#
# Poissons Ratio (x) = 0.02095 0.97128
# Poissons Ratio (y) = 0.02330 -0.01291
# Poissons Ratio (z) = 0.52114 -0.00623
#
# Static dielectric constant tensor:
#      x y z
#    x 1.806630 0.000000 -0.010610 
#    y 0.000000 1.772640 0.000000 
#    z -0.010610 0.000000 1.613280 
# 
# From -- ./inp_files/66968.got.cif
#   From: 2010.05.17/outbox.cif.g08.bks.cpg/sg14_34_cif.got.tgz:66968.got - 2010.06.03 17:49:19.
