data_PCOD9240420
_publ_section_title
;
Structure prediction by ZEFSAII (Michael W. Deem and Ramdas Pophale) SiO2 
 PCOD9240420
Probable space group: P 21/C
;
_chemical_formula_sum "Si O2"
_cell_formula_units_Z 28
_cell_length_a 9.171557
_cell_length_b 20.916256
_cell_length_c 7.489497
_cell_angle_alpha 90.000000
_cell_angle_beta 74.970903
_cell_angle_gamma 90.000000
_cell_volume 1387.599999
_symmetry_space_group_name_H-M "P 21/C"
_symmetry_group_IT_number 14
_symmetry_cell_setting 'monoclinic'
loop_
_space_group_symop_operation_xyz
x,y,z
-x,1/2+y,1/2-z
-x,-y,-z
x,1/2-y,1/2+z
loop_
_atom_site_type_symbol
_atom_site_label
_atom_site_fract_x
_atom_site_fract_y
_atom_site_fract_z
Si Si1 0.738276 0.476914 0.959388
Si Si2 0.278404 0.387325 0.925652
Si Si3 0.393725 0.877558 0.778361
Si Si4 0.939980 0.946019 0.803841
Si Si5 0.983879 0.178103 0.616093
Si Si6 0.224452 0.929192 0.154369
Si Si7 0.095245 0.678873 0.271695
O O1 0.650938 0.432469 0.849476
O O2 0.915962 0.472367 0.852617
O O3 0.690756 0.550453 0.963704
O O4 0.720658 0.452482 0.168002
O O5 0.435086 0.358187 0.810568
O O6 0.185708 0.416071 0.787229
O O7 0.158932 0.341510 0.057601
O O8 0.358076 0.594132 0.484432
O O9 0.267473 0.824003 0.781911
O O10 0.007406 0.883117 0.880043
O O11 0.861522 0.009565 0.907938
O O12 0.917324 0.169397 0.437309
O O13 0.970217 0.252133 0.667421
O O14 0.888475 0.129710 0.768947
#
# Coordination Sequence:
#
# PCOD9240420 Si02
#       7
#     4   4   4   4   4   4   4
#     4  10  18  38  60  90 127 163 193 247 301 366
#     4  10  19  37  63  86 124 161 193 259 306 345
#     4  11  23  35  60  97 123 150 204 251 307 364
#     4   9  18  37  62  88 126 161 203 250 294 364
#     4  11  20  42  66  80 122 168 206 248 304 369
#     4  11  19  37  67  87 120 167 199 248 310 359
#     4  10  22  38  59  89 117 162 207 247 299 371
#
# _framework density 20.178725
#
# number of rings (size 3 to 8) (size 9 to 14) (size 15 to 20)
#    0.000    1.714    5.714    2.143    0.000    4.571 
#    2.571    5.714    6.286    0.000    0.000    0.000 
#    0.000    0.000    0.000    0.000    0.000    0.000 
#
# Total GULP energy -156241.294366 kJ/mol
# GULP energy per Si atom -5580.046227 kJ/mol
# Density = 2.013280 g / cm^3
# Si number density = 20.178725 Si / 1000 Ang^3
#
#
#
# Elastic Constant Matrix: (Units=GPa)
#
#
# Indices 1 2 3 4 5 6 
#
# 1 50.8742 8.6402 17.1538 0.0000 -25.3781 0.0000
# 2 8.6402 136.8058 30.1469 0.0000 -20.9134 0.0000
# 3 17.1538 30.1469 65.8073 0.0000 -3.8828 0.0000
# 4 0.0000 0.0000 0.0000 28.4538 0.0000 -1.2404
# 5 -25.3781 -20.9134 -3.8828 0.0000 34.9172 0.0000
# 6 0.0000 0.0000 0.0000 -1.2404 0.0000 10.7762
#
#
#
# Elastic Compliance Matrix: (Units=1/GPa)
#
#
# Indices 1 2 3 4 5 6 
#
# 1 0.035891 0.004041 -0.009588 0.000000 0.027440 0.000000
# 2 0.004041 0.009349 -0.004864 0.000000 0.007995 0.000000
# 3 -0.009588 -0.004864 0.019468 0.000000 -0.007717 0.000000
# 4 0.000000 0.000000 0.000000 0.035322 0.000000 0.004066
# 5 0.027440 0.007995 -0.007717 0.000000 0.052513 0.000000
# 6 0.000000 0.000000 0.000000 0.004066 0.000000 0.093265
#
#
# Mechanical properties :
#
#
# Convention : Reuss Voigt Hill
#
# Bulk Modulus (GPa) = 22.78663 40.59656 31.69159
# Shear Modulus (GPa) = 17.77725 27.99919 22.88822
#
# Velocity S-wave (km/s) = 2.97137 3.72904 3.37155
# Velocity P-wave (km/s) = 4.80510 6.22118 5.55842
#
# Compressibility (1/GPa) = 0.04388538
#
# Stress axis : x y z
#
# Youngs Moduli (GPa) = 27.86212 106.96872 51.36614
#
# Poissons Ratio (x) = -0.43223 0.49248
# Poissons Ratio (y) = -0.11258 0.24985
# Poissons Ratio (z) = 0.26713 0.52032
#
# Static dielectric constant tensor:
#      x y z
#    x 1.739360 0.000000 0.025260 
#    y 0.000000 1.754830 0.000000 
#    z 0.025260 0.000000 1.758910 
# 
# From -- ./inp_files/25761.got.cif
#   From: 2010.05.17/outbox.cif.g08.bks.cpg/sg14_13_cif.got.tgz:25761.got - 2010.06.03 17:49:19.
