data_PCOD9240163
_publ_section_title
;
Structure prediction by ZEFSAII (Michael W. Deem and Ramdas Pophale) SiO2 
 PCOD9240163
Probable space group: P 21/C
;
_chemical_formula_sum "Si O2"
_cell_formula_units_Z 28
_cell_length_a 7.225237
_cell_length_b 19.718052
_cell_length_c 11.414795
_cell_angle_alpha 90.000000
_cell_angle_beta 124.918878
_cell_angle_gamma 90.000000
_cell_volume 1333.455865
_symmetry_space_group_name_H-M "P 21/C"
_symmetry_group_IT_number 14
_symmetry_cell_setting 'monoclinic'
loop_
_space_group_symop_operation_xyz
x,y,z
-x,1/2+y,1/2-z
-x,-y,-z
x,1/2-y,1/2+z
loop_
_atom_site_type_symbol
_atom_site_label
_atom_site_fract_x
_atom_site_fract_y
_atom_site_fract_z
Si Si1 0.655722 0.917228 0.964791
Si Si2 0.831449 0.216646 0.491297
Si Si3 0.171603 0.299621 0.931185
Si Si4 0.704070 0.426488 0.465023
Si Si5 0.478218 0.185940 0.754803
Si Si6 0.137618 0.150004 0.166846
Si Si7 0.056175 0.159327 0.769333
O O1 0.446683 0.903902 0.976652
O O2 0.673023 0.867579 0.860145
O O3 0.879437 0.903652 0.125894
O O4 0.650570 0.995256 0.925348
O O5 0.603422 0.251253 0.363044
O O6 0.957902 0.177200 0.432342
O O7 0.994726 0.281639 0.583360
O O8 0.835745 0.170822 0.609914
O O9 0.388959 0.298463 0.093562
O O10 0.209317 0.341076 0.826586
O O11 0.093856 0.224615 0.864465
O O12 0.640262 0.378395 0.332544
O O13 0.960636 0.411230 0.589636
O O14 0.257041 0.165093 0.747344
#
# Coordination Sequence:
#
# PCOD9240163 Si02
#       7
#     4   4   4   4   4   4   4
#     4  10  18  35  59  78 111 139 189 227 262 326
#     4   9  18  33  52  76 106 137 178 215 273 329
#     4  10  19  33  52  78 110 139 172 224 279 318
#     4   9  20  35  57  81 101 150 187 219 270 319
#     4   9  19  34  53  76 108 140 177 226 267 324
#     4  10  19  34  54  78 108 140 180 224 269 320
#     4   9  18  32  52  78 102 140 176 221 275 314
#
# _framework density 20.998072000000001
#
# number of rings (size 3 to 8) (size 9 to 14) (size 15 to 20)
#    0.000    2.571    1.429    0.429    0.000    4.571 
#    0.000    0.714    0.000   15.429    0.000    0.000 
#    0.000    0.000    0.000    0.000    0.000    0.000 
#
# Total GULP energy -156147.087191 kJ/mol
# GULP energy per Si atom -5576.681685 kJ/mol
# Density = 2.095028 g / cm^3
# Si number density = 20.998072 Si / 1000 Ang^3
#
#
#
# Elastic Constant Matrix: (Units=GPa)
#
#
# Indices 1 2 3 4 5 6 
#
# 1 49.2920 0.4260 8.9978 0.0000 -3.5174 0.0000
# 2 0.4260 30.0069 14.3447 0.0000 -5.1493 0.0000
# 3 8.9978 14.3447 130.2339 0.0000 -15.4459 0.0000
# 4 0.0000 0.0000 0.0000 16.3389 0.0000 -8.7625
# 5 -3.5174 -5.1493 -15.4459 0.0000 24.7727 0.0000
# 6 0.0000 0.0000 0.0000 -8.7625 0.0000 20.8761
#
#
#
# Elastic Compliance Matrix: (Units=1/GPa)
#
#
# Indices 1 2 3 4 5 6 
#
# 1 0.020671 0.000691 -0.001230 0.000000 0.002312 0.000000
# 2 0.000691 0.035854 -0.003349 0.000000 0.005463 0.000000
# 3 -0.001230 -0.003349 0.008670 0.000000 0.004535 0.000000
# 4 0.000000 0.000000 0.000000 0.078983 0.000000 0.033152
# 5 0.002312 0.005463 0.004535 0.000000 0.044658 0.000000
# 6 0.000000 0.000000 0.000000 0.033152 0.000000 0.061817
#
#
# Mechanical properties :
#
#
# Convention : Reuss Voigt Hill
#
# Bulk Modulus (GPa) = 17.41568 28.56331 22.98949
# Shear Modulus (GPa) = 18.01353 24.78181 21.39767
#
# Velocity S-wave (km/s) = 2.93211 3.43912 3.19569
# Velocity P-wave (km/s) = 4.44691 5.42240 4.95870
#
# Compressibility (1/GPa) = 0.05741953
#
# Stress axis : x y z
#
# Youngs Moduli (GPa) = 48.37743 27.89064 115.33698
#
# Poissons Ratio (x) = -0.01928 0.14188
# Poissons Ratio (y) = -0.03344 0.38627
# Poissons Ratio (z) = 0.05951 0.09341
#
# Static dielectric constant tensor:
#      x y z
#    x 1.883350 0.000000 0.005460 
#    y 0.000000 1.771900 0.000000 
#    z 0.005460 0.000000 1.800580 
# 
# From -- ./inp_files/26582.got.cif
#   From: 2010.05.17/outbox.cif.g08.bks.cpg/sg14_14_cif.got.tgz:26582.got - 2010.06.03 17:49:19.
