data_PCOD9240440
_publ_section_title
;
Structure prediction by ZEFSAII (Michael W. Deem and Ramdas Pophale) SiO2 
 PCOD9240440
Probable space group: P 21/C
;
_chemical_formula_sum "Si O2"
_cell_formula_units_Z 24
_cell_length_a 7.737527
_cell_length_b 8.870773
_cell_length_c 15.737182
_cell_angle_alpha 90.000000
_cell_angle_beta 120.186960
_cell_angle_gamma 90.000000
_cell_volume 933.684124
_symmetry_space_group_name_H-M "P 21/C"
_symmetry_group_IT_number 14
_symmetry_cell_setting 'monoclinic'
loop_
_space_group_symop_operation_xyz
x,y,z
-x,1/2+y,1/2-z
-x,-y,-z
x,1/2-y,1/2+z
loop_
_atom_site_type_symbol
_atom_site_label
_atom_site_fract_x
_atom_site_fract_y
_atom_site_fract_z
Si Si1 0.196268 0.902506 0.938629
Si Si2 0.766823 0.941447 0.876385
Si Si3 0.077725 0.579237 0.855446
Si Si4 0.703497 0.851198 0.143446
Si Si5 0.796850 0.654945 0.998207
Si Si6 0.552250 0.946048 0.659226
O O1 0.182510 0.726475 0.919782
O O2 0.971347 0.970467 0.875305
O O3 0.330130 0.979284 0.898691
O O4 0.246786 0.950989 0.046263
O O5 0.807643 0.772889 0.923289
O O6 0.583232 0.964248 0.767678
O O7 0.245080 0.503919 0.836713
O O8 0.886449 0.632790 0.754763
O O9 0.034575 0.455139 0.918580
O O10 0.548761 0.733473 0.144821
O O11 0.749774 0.765899 0.065576
O O12 0.622422 0.540269 0.927363
#
# Coordination Sequence:
#
# PCOD9240440 Si02
#       6
#     4   4   4   4   4   4
#     4  10  20  36  61  94 118 159 214 272 309 368
#     4  10  21  40  60  86 132 167 208 260 322 382
#     4  11  19  37  64  95 116 165 218 259 315 370
#     4  10  18  38  62  92 119 162 213 261 309 369
#     4  10  24  39  62  90 132 169 203 259 326 383
#     4  11  22  42  63  90 128 169 210 265 315 382
#
# _framework density 25.704626000000001
#
# number of rings (size 3 to 8) (size 9 to 14) (size 15 to 20)
#    0.000    1.667    3.333    3.000    0.000    2.000 
#    0.000    9.167    0.000    0.000    0.000    0.000 
#    0.000    0.000    0.000    0.000    0.000    0.000 
#
# Total GULP energy -134167.115522 kJ/mol
# GULP energy per Si atom -5590.296480 kJ/mol
# Density = 2.564612 g / cm^3
# Si number density = 25.704626 Si / 1000 Ang^3
#
#
#
# Elastic Constant Matrix: (Units=GPa)
#
#
# Indices 1 2 3 4 5 6 
#
# 1 35.2336 6.1732 40.6674 0.0000 14.4054 0.0000
# 2 6.1732 140.1048 58.2741 0.0000 5.3060 0.0000
# 3 40.6674 58.2741 179.7580 0.0000 3.7313 0.0000
# 4 0.0000 0.0000 0.0000 51.9070 0.0000 4.0027
# 5 14.4054 5.3060 3.7313 0.0000 42.7038 0.0000
# 6 0.0000 0.0000 0.0000 4.0027 0.0000 36.9709
#
#
#
# Elastic Compliance Matrix: (Units=1/GPa)
#
#
# Indices 1 2 3 4 5 6 
#
# 1 0.047289 0.003254 -0.011434 0.000000 -0.015357 0.000000
# 2 0.003254 0.008501 -0.003453 0.000000 -0.001852 0.000000
# 3 -0.011434 -0.003453 0.009197 0.000000 0.003483 0.000000
# 4 0.000000 0.000000 0.000000 0.019427 0.000000 -0.002103
# 5 -0.015357 -0.001852 0.003483 0.000000 0.028523 0.000000
# 6 0.000000 0.000000 0.000000 -0.002103 0.000000 0.027276
#
#
# Mechanical properties :
#
#
# Convention : Reuss Voigt Hill
#
# Bulk Modulus (GPa) = 23.97011 62.81397 43.39204
# Shear Modulus (GPa) = 28.18688 42.98177 35.58432
#
# Velocity S-wave (km/s) = 3.31504 4.09362 3.72473
# Velocity P-wave (km/s) = 4.89879 6.84350 5.95112
#
# Compressibility (1/GPa) = 0.04171863
#
# Stress axis : x y z
#
# Youngs Moduli (GPa) = 21.14673 117.63742 108.72936
#
# Poissons Ratio (x) = -0.38279 1.24326
# Poissons Ratio (y) = -0.06881 0.37549
# Poissons Ratio (z) = 0.24180 0.40626
#
# Static dielectric constant tensor:
#      x y z
#    x 2.124130 0.000000 0.002950 
#    y 0.000000 2.012770 0.000000 
#    z 0.002950 0.000000 2.047140 
# 
# From -- ./inp_files/57109.got.cif
#   From: 2010.05.17/outbox.cif.g08.bks.cpg/sg14_29_cif.got.tgz:57109.got - 2010.06.03 17:49:19.
