data_PCOD9240980
_publ_section_title
;
Structure prediction by ZEFSAII (Michael W. Deem and Ramdas Pophale) SiO2 
 PCOD9240980
Probable space group: P 21/C
;
_chemical_formula_sum "Si O2"
_cell_formula_units_Z 32
_cell_length_a 13.388604
_cell_length_b 20.590894
_cell_length_c 8.540698
_cell_angle_alpha 90.000000
_cell_angle_beta 129.635944
_cell_angle_gamma 90.000000
_cell_volume 1813.253136
_symmetry_space_group_name_H-M "P 21/C"
_symmetry_group_IT_number 14
_symmetry_cell_setting 'monoclinic'
loop_
_space_group_symop_operation_xyz
x,y,z
-x,1/2+y,1/2-z
-x,-y,-z
x,1/2-y,1/2+z
loop_
_atom_site_type_symbol
_atom_site_label
_atom_site_fract_x
_atom_site_fract_y
_atom_site_fract_z
Si Si1 0.858709 0.177967 0.547029
Si Si2 0.145219 0.178291 0.331486
Si Si3 0.858709 0.177967 0.170389
Si Si4 0.648042 0.073201 0.338363
Si Si5 0.649076 0.575654 0.838683
Si Si6 0.145219 0.321709 0.458952
Si Si7 0.649076 0.924346 0.959469
Si Si8 0.648042 0.426799 0.457720
O O1 0.859257 0.179288 0.359257
O O2 0.827680 0.250000 0.577680
O O3 0.753473 0.125331 0.496863
O O4 0.003198 0.161482 0.749437
O O5 0.250864 0.126168 0.490246
O O6 0.178637 0.250000 0.428637
O O7 0.003198 0.161482 0.256960
O O8 0.137037 0.181294 0.137037
O O9 0.753473 0.125331 0.010082
O O10 0.500226 0.089150 0.236881
O O11 0.648963 0.073571 0.148963
O O12 0.677741 0.998962 0.414373
O O13 0.656060 0.579153 0.656060
O O14 0.499773 0.589150 0.736428
O O15 0.250864 0.373832 0.511482
O O16 0.677741 0.998962 0.941110
#
# Coordination Sequence:
#
# PCOD9240980 Si02
#       8
#     4   4   4   4   4   4   4   4
#     4  10  19  34  53  76 102 134 171 211 254 302
#     4  11  22  36  52  75 103 136 172 212 256 303
#     4  10  19  34  53  76 102 134 171 211 254 302
#     4   8  17  33  56  79 103 135 172 207 251 305
#     4   9  17  35  57  78 103 135 171 210 250 302
#     4  11  22  36  52  75 103 136 172 212 256 303
#     4   9  17  35  57  78 103 135 171 210 250 302
#     4   8  17  33  56  79 103 135 172 207 251 305
#
# _framework density 17.647838
#
# number of rings (size 3 to 8) (size 9 to 14) (size 15 to 20)
#    0.000    2.500    0.000    6.000    0.000    2.000 
#    0.000   15.000    0.000    0.000    0.000    0.000 
#    0.000    0.000    0.000    0.000    0.000    0.000 
#
# Total GULP energy -178530.812986 kJ/mol
# GULP energy per Si atom -5579.087906 kJ/mol
# Density = 1.760767 g / cm^3
# Si number density = 17.647838 Si / 1000 Ang^3
#
#
#
# Elastic Constant Matrix: (Units=GPa)
#
#
# Indices 1 2 3 4 5 6 
#
# 1 105.9997 96.0526 49.6001 0.0000 22.5568 0.0000
# 2 96.0526 150.7387 89.1744 0.0000 51.1105 0.0000
# 3 49.6001 89.1744 100.0706 0.0000 21.5033 0.0000
# 4 0.0000 0.0000 0.0000 35.8649 0.0000 8.2589
# 5 22.5568 51.1105 21.5033 0.0000 34.5083 0.0000
# 6 0.0000 0.0000 0.0000 8.2589 0.0000 36.9764
#
#
#
# Elastic Compliance Matrix: (Units=1/GPa)
#
#
# Indices 1 2 3 4 5 6 
#
# 1 0.028230 -0.029759 0.008106 0.000000 0.020573 0.000000
# 2 -0.029759 0.058310 -0.026363 0.000000 -0.050483 0.000000
# 3 0.008106 -0.026363 0.025650 0.000000 0.017764 0.000000
# 4 0.000000 0.000000 0.000000 0.029394 0.000000 -0.006565
# 5 0.020573 -0.050483 0.017764 0.000000 0.079232 0.000000
# 6 0.000000 0.000000 0.000000 -0.006565 0.000000 0.028511
#
#
# Mechanical properties :
#
#
# Convention : Reuss Voigt Hill
#
# Bulk Modulus (GPa) = 61.88845 91.82925 76.85885
# Shear Modulus (GPa) = 14.25538 29.60206 21.92872
#
# Velocity S-wave (km/s) = 2.84521 4.10002 3.52884
# Velocity P-wave (km/s) = 6.77778 8.63486 7.76206
#
# Compressibility (1/GPa) = 0.01615810
#
# Stress axis : x y z
#
# Youngs Moduli (GPa) = 35.42365 17.14974 38.98611
#
# Poissons Ratio (x) = 0.51037 -0.31603
# Poissons Ratio (y) = 1.05419 1.02778
# Poissons Ratio (z) = -0.28715 0.45211
#
# Static dielectric constant tensor:
#      x y z
#    x 1.593830 0.000000 -0.009640 
#    y 0.000000 1.584920 0.000000 
#    z -0.009640 0.000000 1.595130 
# 
# From -- ./inp_files/16815.got.cif
#   From: 2010.05.17/outbox.cif.g08.bks.cpg/sg14_9_cif.got.tgz:16815.got - 2010.06.03 17:49:19.
