data_PCOD9240020
_publ_section_title
;
Structure prediction by ZEFSAII (Michael W. Deem and Ramdas Pophale) SiO2 
 PCOD9240020
Probable space group: P 21/C
;
_chemical_formula_sum "Si O2"
_cell_formula_units_Z 32
_cell_length_a 9.023769
_cell_length_b 8.613931
_cell_length_c 28.444602
_cell_angle_alpha 90.000000
_cell_angle_beta 134.397035
_cell_angle_gamma 90.000000
_cell_volume 1579.780880
_symmetry_space_group_name_H-M "P 21/C"
_symmetry_group_IT_number 14
_symmetry_cell_setting 'monoclinic'
loop_
_space_group_symop_operation_xyz
x,y,z
-x,1/2+y,1/2-z
-x,-y,-z
x,1/2-y,1/2+z
loop_
_atom_site_type_symbol
_atom_site_label
_atom_site_fract_x
_atom_site_fract_y
_atom_site_fract_z
Si Si1 0.789489 0.410598 0.966480
Si Si2 0.284593 0.901531 0.447740
Si Si3 0.406807 0.867621 0.375405
Si Si4 0.375071 0.777230 0.158168
Si Si5 0.607814 0.063085 0.185465
Si Si6 0.056867 0.636388 0.161195
Si Si7 0.194537 0.128927 0.267573
Si Si8 0.123330 0.385400 0.320682
O O1 0.626946 0.552118 0.931594
O O2 0.723039 0.289168 0.911671
O O3 0.764444 0.330352 0.012111
O O4 0.000000 0.500000 0.000000
O O5 0.318718 0.810892 0.406113
O O6 0.500000 0.000000 0.500000
O O7 0.080161 0.005831 0.393494
O O8 0.429486 0.736001 0.341004
O O9 0.271839 0.012103 0.325806
O O10 0.425770 0.960591 0.167851
O O11 0.223280 0.720376 0.164975
O O12 0.601995 0.694782 0.212569
O O13 0.671284 0.966287 0.152726
O O14 0.803275 0.071718 0.264580
O O15 0.889075 0.764501 0.140377
O O16 0.040918 0.019517 0.205372
O O17 0.074745 0.272271 0.264990
#
# Coordination Sequence:
#
# PCOD9240020 Si02
#       8
#     4   4   4   4   4   4   4   4
#     4  10  20  41  66  87 119 167 217 254 302 379
#     4  10  21  38  67  91 114 165 224 256 298 371
#     4  10  19  38  61  90 118 156 206 260 309 367
#     4  10  25  38  59  92 130 164 207 258 325 378
#     4  11  24  39  62  94 132 162 201 265 334 375
#     4  12  22  37  62  91 130 163 205 259 321 386
#     4  10  18  34  55  85 118 161 198 250 304 374
#     4  11  19  34  58  84 121 161 206 248 309 372
#
# _framework density 20.255972
#
# number of rings (size 3 to 8) (size 9 to 14) (size 15 to 20)
#    0.000    1.500    5.000    0.000    3.500    0.000 
#    0.000    2.500    0.000    0.000    0.000    0.000 
#    0.000    0.000    0.000    0.000    0.000    0.000 
#
# Total GULP energy -178269.150062 kJ/mol
# GULP energy per Si atom -5570.910939 kJ/mol
# Density = 2.020987 g / cm^3
# Si number density = 20.255972 Si / 1000 Ang^3
#
#
#
# Elastic Constant Matrix: (Units=GPa)
#
#
# Indices 1 2 3 4 5 6 
#
# 1 94.1986 18.5240 17.9613 0.0000 -0.7740 0.0000
# 2 18.5240 82.2346 16.0232 0.0000 -0.6043 0.0000
# 3 17.9613 16.0232 45.0647 0.0000 3.8499 0.0000
# 4 0.0000 0.0000 0.0000 12.8283 0.0000 -0.4403
# 5 -0.7740 -0.6043 3.8499 0.0000 25.5900 0.0000
# 6 0.0000 0.0000 0.0000 -0.4403 0.0000 30.2008
#
#
#
# Elastic Compliance Matrix: (Units=1/GPa)
#
#
# Indices 1 2 3 4 5 6 
#
# 1 0.011771 -0.001843 -0.004116 0.000000 0.000932 0.000000
# 2 -0.001843 0.013380 -0.004098 0.000000 0.000877 0.000000
# 3 -0.004116 -0.004098 0.025636 0.000000 -0.004078 0.000000
# 4 0.000000 0.000000 0.000000 0.077992 0.000000 0.001137
# 5 0.000932 0.000877 -0.004078 0.000000 0.039740 0.000000
# 6 0.000000 0.000000 0.000000 0.001137 0.000000 0.033128
#
#
# Mechanical properties :
#
#
# Convention : Reuss Voigt Hill
#
# Bulk Modulus (GPa) = 32.60058 36.27945 34.44002
# Shear Modulus (GPa) = 21.55310 24.98977 23.27144
#
# Velocity S-wave (km/s) = 3.26550 3.51622 3.39317
# Velocity P-wave (km/s) = 5.50883 5.86808 5.69129
#
# Compressibility (1/GPa) = 0.03067430
#
# Stress axis : x y z
#
# Youngs Moduli (GPa) = 84.95702 74.73654 39.00728
#
# Poissons Ratio (x) = 0.13771 0.16055
# Poissons Ratio (y) = 0.15654 0.15985
# Poissons Ratio (z) = 0.34967 0.30627
#
# Static dielectric constant tensor:
#      x y z
#    x 1.763510 0.000000 -0.016350 
#    y 0.000000 1.725120 0.000000 
#    z -0.016350 0.000000 1.751700 
# 
# From -- ./inp_files/79406.got.cif
#   From: 2010.05.17/outbox.cif.g08.bks.cpg/sg14_40_cif.got.tgz:79406.got - 2010.06.03 17:49:19.
