data_PCOD9240932
_publ_section_title
;
Structure prediction by ZEFSAII (Michael W. Deem and Ramdas Pophale) SiO2 
 PCOD9240932
Probable space group: P 21/C
;
_chemical_formula_sum "Si O2"
_cell_formula_units_Z 28
_cell_length_a 27.891015
_cell_length_b 10.007809
_cell_length_c 28.169241
_cell_angle_alpha 90.000000
_cell_angle_beta 169.701453
_cell_angle_gamma 90.000000
_cell_volume 1405.693898
_symmetry_space_group_name_H-M "P 21/C"
_symmetry_group_IT_number 14
_symmetry_cell_setting 'monoclinic'
loop_
_space_group_symop_operation_xyz
x,y,z
-x,1/2+y,1/2-z
-x,-y,-z
x,1/2-y,1/2+z
loop_
_atom_site_type_symbol
_atom_site_label
_atom_site_fract_x
_atom_site_fract_y
_atom_site_fract_z
Si Si1 0.457318 0.005966 0.262313
Si Si2 0.760775 0.560724 0.200818
Si Si3 0.119137 0.619050 0.886201
Si Si4 0.994361 0.158788 0.304012
Si Si5 0.462670 0.234720 0.828522
Si Si6 0.756256 0.878868 0.801630
Si Si7 0.073646 0.346459 0.739504
O O1 0.661056 0.884557 0.472094
O O2 0.575671 0.078293 0.330804
O O3 0.494578 0.113834 0.340156
O O4 0.156209 0.955049 0.972488
O O5 0.784120 0.643084 0.272496
O O6 0.967239 0.436930 0.408178
O O7 0.844619 0.640338 0.235652
O O8 0.464581 0.497813 0.909068
O O9 0.026966 0.715913 0.753131
O O10 0.058280 0.708312 0.872814
O O11 0.981005 0.477489 0.761565
O O12 0.263179 0.167325 0.596523
O O13 0.749420 0.168443 0.101968
O O14 0.343571 0.254412 0.764626
#
# Coordination Sequence:
#
# PCOD9240932 Si02
#       7
#     4   4   4   4   4   4   4
#     4  11  23  36  57  85 116 159 187 241 294 341
#     4  10  19  34  56  93 115 155 189 251 295 351
#     4  11  26  42  59  88 119 165 197 250 282 369
#     4  11  26  38  61  83 120 154 207 232 304 341
#     4  11  21  38  59  84 120 153 193 245 295 355
#     4  10  19  33  59  86 123 145 197 242 307 341
#     4  12  22  39  61  83 126 149 201 240 300 337
#
# _framework density 19.918987999999999
#
# number of rings (size 3 to 8) (size 9 to 14) (size 15 to 20)
#    0.000    1.143    4.286    2.571    4.000    3.429 
#    0.000    0.000    0.000    1.714    0.000    0.000 
#    0.000    0.000    0.000    0.000    0.000    0.000 
#
# Total GULP energy -156367.991055 kJ/mol
# GULP energy per Si atom -5584.571109 kJ/mol
# Density = 1.987365 g / cm^3
# Si number density = 19.918988 Si / 1000 Ang^3
#
#
#
# Elastic Constant Matrix: (Units=GPa)
#
#
# Indices 1 2 3 4 5 6 
#
# 1 147.2001 39.1171 -1.7020 0.0000 18.0099 0.0000
# 2 39.1171 75.8718 5.5980 0.0000 6.4533 0.0000
# 3 -1.7020 5.5980 44.6062 0.0000 18.3896 0.0000
# 4 0.0000 0.0000 0.0000 14.9259 0.0000 0.7424
# 5 18.0099 6.4533 18.3896 0.0000 24.0115 0.0000
# 6 0.0000 0.0000 0.0000 0.7424 0.0000 25.3581
#
#
#
# Elastic Compliance Matrix: (Units=1/GPa)
#
#
# Indices 1 2 3 4 5 6 
#
# 1 0.009119 -0.004258 0.004721 0.000000 -0.009311 0.000000
# 2 -0.004258 0.015479 -0.002494 0.000000 0.000943 0.000000
# 3 0.004721 -0.002494 0.035213 0.000000 -0.029839 0.000000
# 4 0.000000 0.000000 0.000000 0.067095 0.000000 -0.001964
# 5 -0.009311 0.000943 -0.029839 0.000000 0.071230 0.000000
# 6 0.000000 0.000000 0.000000 -0.001964 0.000000 0.039493
#
#
# Mechanical properties :
#
#
# Convention : Reuss Voigt Hill
#
# Bulk Modulus (GPa) = 17.93752 39.30046 28.61899
# Shear Modulus (GPa) = 19.21056 27.83676 23.52366
#
# Velocity S-wave (km/s) = 3.10890 3.74237 3.44025
# Velocity P-wave (km/s) = 4.68101 6.20054 5.49357
#
# Compressibility (1/GPa) = 0.05574906
#
# Stress axis : x y z
#
# Youngs Moduli (GPa) = 109.66528 64.60360 28.39839
#
# Poissons Ratio (x) = 0.27506 -0.13406
# Poissons Ratio (y) = 0.46692 0.07083
# Poissons Ratio (z) = -0.51770 0.16112
#
# Static dielectric constant tensor:
#      x y z
#    x 1.749040 0.000000 -0.007600 
#    y 0.000000 1.699000 0.000000 
#    z -0.007600 0.000000 1.748810 
# 
# From -- ./inp_files/80989.got.cif
#   From: 2010.05.17/outbox.cif.g08.bks.cpg/sg14_41_cif.got.tgz:80989.got - 2010.06.03 17:49:19.
