data_PCOD9240743
_publ_section_title
;
Structure prediction by ZEFSAII (Michael W. Deem and Ramdas Pophale) SiO2 
 PCOD9240743
Probable space group: P 21/C
;
_chemical_formula_sum "Si O2"
_cell_formula_units_Z 28
_cell_length_a 9.262895
_cell_length_b 7.198181
_cell_length_c 22.272207
_cell_angle_alpha 90.000000
_cell_angle_beta 117.751298
_cell_angle_gamma 90.000000
_cell_volume 1314.210056
_symmetry_space_group_name_H-M "P 21/C"
_symmetry_group_IT_number 14
_symmetry_cell_setting 'monoclinic'
loop_
_space_group_symop_operation_xyz
x,y,z
-x,1/2+y,1/2-z
-x,-y,-z
x,1/2-y,1/2+z
loop_
_atom_site_type_symbol
_atom_site_label
_atom_site_fract_x
_atom_site_fract_y
_atom_site_fract_z
Si Si1 0.175119 0.159957 0.746490
Si Si2 0.247042 0.643443 0.034390
Si Si3 0.490539 0.624848 0.891945
Si Si4 0.621327 0.010023 0.749056
Si Si5 0.319587 0.039513 0.105998
Si Si6 0.924003 0.641257 0.906871
Si Si7 0.179878 0.736696 0.284850
O O1 0.310468 0.316446 0.763377
O O2 0.119461 0.097691 0.669667
O O3 0.011575 0.246248 0.743254
O O4 0.225628 0.978798 0.792693
O O5 0.416151 0.534735 0.054497
O O6 0.154513 0.514543 0.065529
O O7 0.281082 0.845607 0.067740
O O8 0.116705 0.653730 0.955783
O O9 0.514992 0.574050 0.824737
O O10 0.576812 0.822525 0.915941
O O11 0.295894 0.654552 0.854934
O O12 0.588077 0.993890 0.812526
O O13 0.762820 0.163274 0.765564
O O14 0.159490 0.160739 0.092360
#
# Coordination Sequence:
#
# PCOD9240743 Si02
#       7
#     4   4   4   4   4   4   4
#     4  11  19  37  56  76 104 139 176 223 252 309
#     4  10  19  37  53  77 113 138 168 218 258 308
#     4   9  22  30  50  83 104 139 168 209 269 316
#     4   9  21  31  50  81 103 135 173 208 267 310
#     4  10  19  32  54  77 107 135 174 212 262 309
#     4   9  21  35  55  79 102 141 183 205 256 317
#     4  10  20  34  53  77 106 133 174 215 266 304
#
# _framework density 21.305574
#
# number of rings (size 3 to 8) (size 9 to 14) (size 15 to 20)
#    0.857    1.429    1.429    1.286    4.000    1.143 
#    0.000    0.714    0.000    0.857    0.000    0.000 
#    0.000    0.000    0.000    0.000    0.000    0.000 
#
# Total GULP energy -156152.031919 kJ/mol
# GULP energy per Si atom -5576.858283 kJ/mol
# Density = 2.125708 g / cm^3
# Si number density = 21.305574 Si / 1000 Ang^3
#
#
#
# Elastic Constant Matrix: (Units=GPa)
#
#
# Indices 1 2 3 4 5 6 
#
# 1 44.0248 20.1254 8.8140 0.0000 10.2803 0.0000
# 2 20.1254 128.3805 14.7739 0.0000 19.0323 0.0000
# 3 8.8140 14.7739 46.3190 0.0000 22.9501 0.0000
# 4 0.0000 0.0000 0.0000 19.6137 0.0000 5.0030
# 5 10.2803 19.0323 22.9501 0.0000 22.2865 0.0000
# 6 0.0000 0.0000 0.0000 5.0030 0.0000 18.6916
#
#
#
# Elastic Compliance Matrix: (Units=1/GPa)
#
#
# Indices 1 2 3 4 5 6 
#
# 1 0.026273 -0.002594 0.001501 0.000000 -0.011450 0.000000
# 2 -0.002594 0.009257 0.001766 0.000000 -0.008528 0.000000
# 3 0.001501 0.001766 0.044574 0.000000 -0.048102 0.000000
# 4 0.000000 0.000000 0.000000 0.054721 0.000000 -0.014647
# 5 -0.011450 -0.008528 -0.048102 0.000000 0.106969 0.000000
# 6 0.000000 0.000000 0.000000 -0.014647 0.000000 0.057420
#
#
# Mechanical properties :
#
#
# Convention : Reuss Voigt Hill
#
# Bulk Modulus (GPa) = 12.27733 34.01678 23.14705
# Shear Modulus (GPa) = 15.38376 23.78576 19.58476
#
# Velocity S-wave (km/s) = 2.69002 3.34490 3.03517
# Velocity P-wave (km/s) = 3.92725 5.56045 4.81362
#
# Compressibility (1/GPa) = 0.08145096
#
# Stress axis : x y z
#
# Youngs Moduli (GPa) = 38.06120 108.02718 22.43460
#
# Poissons Ratio (x) = 0.28022 -0.03368
# Poissons Ratio (y) = 0.09873 -0.03963
# Poissons Ratio (z) = -0.05713 -0.19080
#
# Static dielectric constant tensor:
#      x y z
#    x 1.818190 0.000000 0.011300 
#    y 0.000000 1.768540 0.000000 
#    z 0.011300 0.000000 1.757630 
# 
# From -- ./inp_files/79735.got.cif
#   From: 2010.05.17/outbox.cif.g08.bks.cpg/sg14_40_cif.got.tgz:79735.got - 2010.06.03 17:49:19.
