data_PCOD9240552
_publ_section_title
;
Structure prediction by ZEFSAII (Michael W. Deem and Ramdas Pophale) SiO2 
 PCOD9240552
Probable space group: P 21/C
;
_chemical_formula_sum "Si O2"
_cell_formula_units_Z 22
_cell_length_a 7.915484
_cell_length_b 7.496023
_cell_length_c 17.774848
_cell_angle_alpha 90.000000
_cell_angle_beta 132.273034
_cell_angle_gamma 90.000000
_cell_volume 780.396554
_symmetry_space_group_name_H-M "P 21/C"
_symmetry_group_IT_number 14
_symmetry_cell_setting 'monoclinic'
loop_
_space_group_symop_operation_xyz
x,y,z
-x,1/2+y,1/2-z
-x,-y,-z
x,1/2-y,1/2+z
loop_
_atom_site_type_symbol
_atom_site_label
_atom_site_fract_x
_atom_site_fract_y
_atom_site_fract_z
Si Si1 0.718148 0.827302 0.881865
Si Si2 0.008052 0.109540 0.889696
Si Si3 0.500000 0.000000 0.000000
Si Si4 0.098982 0.014106 0.359362
Si Si5 0.373751 0.103246 0.772342
Si Si6 0.539701 0.129760 0.426809
O O1 0.658458 0.641129 0.825695
O O2 0.493709 0.930111 0.844860
O O3 0.904559 0.824329 0.001790
O O4 0.806202 0.970897 0.846351
O O5 0.982510 0.292233 0.836557
O O6 0.219532 0.995290 0.922682
O O7 0.485998 0.211844 0.970525
O O8 0.309833 0.012321 0.364606
O O9 0.230172 0.960004 0.475865
O O10 0.885861 0.888966 0.277099
O O11 0.535311 0.263441 0.848201
#
# Coordination Sequence:
#
# PCOD9240552 Si02
#       6
#     4   4   2   4   4   4
#     4  11  25  41  64 101 132 180 218 274 340 398
#     4  10  22  43  68  92 135 178 220 273 337 396
#     4  10  18  42  70  90 126 172 226 272 326 394
#     4  10  24  43  66  99 130 180 220 280 336 389
#     4  12  25  42  66 101 136 176 230 274 334 413
#     4  10  23  43  67  98 131 174 226 281 334 390
#
# _framework density 28.190795999999999
#
# number of rings (size 3 to 8) (size 9 to 14) (size 15 to 20)
#    0.000    1.455    1.818    2.182    5.091    5.091 
#    3.273    0.000    0.000    0.000    0.000    0.000 
#    0.000    0.000    0.000    0.000    0.000    0.000 
#
# Total GULP energy -122708.636784 kJ/mol
# GULP energy per Si atom -5577.665308 kJ/mol
# Density = 2.812663 g / cm^3
# Si number density = 28.190796 Si / 1000 Ang^3
#
#
#
# Elastic Constant Matrix: (Units=GPa)
#
#
# Indices 1 2 3 4 5 6 
#
# 1 39.7629 11.0678 14.6544 0.0000 22.8305 0.0000
# 2 11.0678 85.1678 17.2741 0.0000 8.8028 0.0000
# 3 14.6544 17.2741 90.1881 0.0000 11.3747 0.0000
# 4 0.0000 0.0000 0.0000 43.9767 0.0000 9.2248
# 5 22.8305 8.8028 11.3747 0.0000 53.8784 0.0000
# 6 0.0000 0.0000 0.0000 9.2248 0.0000 43.6947
#
#
#
# Elastic Compliance Matrix: (Units=1/GPa)
#
#
# Indices 1 2 3 4 5 6 
#
# 1 0.034967 -0.002421 -0.003492 0.000000 -0.013684 0.000000
# 2 -0.002421 0.012510 -0.001926 0.000000 -0.000611 0.000000
# 3 -0.003492 -0.001926 0.012121 0.000000 -0.000765 0.000000
# 4 0.000000 0.000000 0.000000 0.023793 0.000000 -0.005023
# 5 -0.013684 -0.000611 -0.000765 0.000000 0.024620 0.000000
# 6 0.000000 0.000000 0.000000 -0.005023 0.000000 0.023947
#
#
# Mechanical properties :
#
#
# Convention : Reuss Voigt Hill
#
# Bulk Modulus (GPa) = 22.76889 33.45681 28.11285
# Shear Modulus (GPa) = 30.81191 39.78482 35.29836
#
# Velocity S-wave (km/s) = 3.30961 3.76076 3.54237
# Velocity P-wave (km/s) = 4.76434 5.54541 5.16964
#
# Compressibility (1/GPa) = 0.04391958
#
# Stress axis : x y z
#
# Youngs Moduli (GPa) = 28.59841 79.93657 82.50430
#
# Poissons Ratio (x) = 0.19356 0.28811
# Poissons Ratio (y) = 0.06925 0.15886
# Poissons Ratio (z) = 0.09987 0.15392
#
# Static dielectric constant tensor:
#      x y z
#    x 3.521570 0.000000 -0.809100 
#    y 0.000000 1.983890 0.000000 
#    z -0.809100 0.000000 2.528530 
# 
# From -- ./inp_files/38772.got.cif
#   From: 2010.05.17/outbox.cif.g08.bks.cpg/sg14_20_cif.got.tgz:38772.got - 2010.06.03 17:49:19.
