data_PCOD9240498
_publ_section_title
;
Structure prediction by ZEFSAII (Michael W. Deem and Ramdas Pophale) SiO2 
 PCOD9240498
Probable space group: P 21/C
;
_chemical_formula_sum "Si O2"
_cell_formula_units_Z 28
_cell_length_a 12.418759
_cell_length_b 10.726131
_cell_length_c 9.014858
_cell_angle_alpha 90.000000
_cell_angle_beta 121.998892
_cell_angle_gamma 90.000000
_cell_volume 1018.370752
_symmetry_space_group_name_H-M "P 21/C"
_symmetry_group_IT_number 14
_symmetry_cell_setting 'monoclinic'
loop_
_space_group_symop_operation_xyz
x,y,z
-x,1/2+y,1/2-z
-x,-y,-z
x,1/2-y,1/2+z
loop_
_atom_site_type_symbol
_atom_site_label
_atom_site_fract_x
_atom_site_fract_y
_atom_site_fract_z
Si Si1 0.499472 0.414214 0.175402
Si Si2 0.859731 0.979350 0.460229
Si Si3 0.574199 0.751290 0.592497
Si Si4 0.896969 0.165192 0.734443
Si Si5 0.793610 0.390029 0.476946
Si Si6 0.404442 0.583102 0.326108
Si Si7 0.168206 0.149518 0.822248
O O1 0.436735 0.317466 0.257334
O O2 0.648713 0.408314 0.320162
O O3 0.452774 0.549086 0.200359
O O4 0.425474 0.392449 0.966040
O O5 0.865545 0.033789 0.628121
O O6 0.743466 0.052677 0.294674
O O7 0.841205 0.847015 0.367325
O O8 0.000000 0.000000 0.500000
O O9 0.441274 0.716735 0.411864
O O10 0.688438 0.696711 0.573559
O O11 0.809768 0.271831 0.597595
O O12 0.875730 0.143404 0.891633
O O13 0.039453 0.208429 0.791158
O O14 0.833215 0.517662 0.588927
O O15 0.500000 0.500000 0.500000
#
# Coordination Sequence:
#
# PCOD9240498 Si02
#       7
#     4   4   4   4   4   4   4
#     4  11  22  39  69  91 128 174 218 275 334 399
#     4  10  20  40  67  96 130 171 222 268 331 397
#     4  11  22  41  65  96 127 173 225 269 340 392
#     4  11  26  41  68  98 136 176 230 271 343 407
#     4  12  23  45  65  98 133 181 226 279 338 403
#     4  10  18  39  66  91 128 176 217 263 336 393
#     4  11  22  45  68  93 136 180 221 286 331 406
#
# _framework density 27.494897000000002
#
# number of rings (size 3 to 8) (size 9 to 14) (size 15 to 20)
#    0.000    1.143    4.286    3.857    0.000    1.143 
#    7.714    1.429    0.000    0.000    0.000    0.000 
#    0.000    0.000    0.000    0.000    0.000    0.000 
#
# Total GULP energy -155977.002515 kJ/mol
# GULP energy per Si atom -5570.607233 kJ/mol
# Density = 2.743232 g / cm^3
# Si number density = 27.494897 Si / 1000 Ang^3
#
#
#
# Elastic Constant Matrix: (Units=GPa)
#
#
# Indices 1 2 3 4 5 6 
#
# 1 189.2397 -6.4011 56.9296 0.0000 8.9411 0.0000
# 2 -6.4011 27.5623 19.9285 0.0000 -4.9565 0.0000
# 3 56.9296 19.9285 126.7707 0.0000 -12.8221 0.0000
# 4 0.0000 0.0000 0.0000 43.6016 0.0000 1.5867
# 5 8.9411 -4.9565 -12.8221 0.0000 68.9675 0.0000
# 6 0.0000 0.0000 0.0000 1.5867 0.0000 22.3209
#
#
#
# Elastic Compliance Matrix: (Units=1/GPa)
#
#
# Indices 1 2 3 4 5 6 
#
# 1 0.006597 0.003994 -0.003718 0.000000 -0.001259 0.000000
# 2 0.003994 0.043567 -0.008539 0.000000 0.001026 0.000000
# 3 -0.003718 -0.008539 0.011096 0.000000 0.001931 0.000000
# 4 0.000000 0.000000 0.000000 0.022994 0.000000 -0.001635
# 5 -0.001259 0.001026 0.001931 0.000000 0.015096 0.000000
# 6 0.000000 0.000000 0.000000 -0.001635 0.000000 0.044917
#
#
# Mechanical properties :
#
#
# Convention : Reuss Voigt Hill
#
# Bulk Modulus (GPa) = 22.35403 53.83185 38.09294
# Shear Modulus (GPa) = 28.45691 45.18570 36.82131
#
# Velocity S-wave (km/s) = 3.22061 4.05831 3.66349
# Velocity P-wave (km/s) = 4.68804 6.44835 5.63733
#
# Compressibility (1/GPa) = 0.04473467
#
# Stress axis : x y z
#
# Youngs Moduli (GPa) = 151.57502 22.95311 90.12655
#
# Poissons Ratio (x) = -0.09167 0.33509
# Poissons Ratio (y) = -0.60538 0.76955
# Poissons Ratio (z) = 0.56355 0.19599
#
# Static dielectric constant tensor:
#      x y z
#    x 2.274990 0.000000 -0.102810 
#    y 0.000000 1.720670 0.000000 
#    z -0.102810 0.000000 2.455590 
# 
# From -- ./inp_files/13413.got.cif
#   From: 2010.05.17/outbox.cif.g08.bks.cpg/sg14_7_cif.got.tgz:13413.got - 2010.06.03 17:49:19.
