data_PCOD9240871
_publ_section_title
;
Structure prediction by ZEFSAII (Michael W. Deem and Ramdas Pophale) SiO2 
 PCOD9240871
Probable space group: P 21/C
;
_chemical_formula_sum "Si O2"
_cell_formula_units_Z 26
_cell_length_a 8.891507
_cell_length_b 22.393355
_cell_length_c 5.367435
_cell_angle_alpha 90.000000
_cell_angle_beta 105.760188
_cell_angle_gamma 90.000000
_cell_volume 1028.537396
_symmetry_space_group_name_H-M "P 21/C"
_symmetry_group_IT_number 14
_symmetry_cell_setting 'monoclinic'
loop_
_space_group_symop_operation_xyz
x,y,z
-x,1/2+y,1/2-z
-x,-y,-z
x,1/2-y,1/2+z
loop_
_atom_site_type_symbol
_atom_site_label
_atom_site_fract_x
_atom_site_fract_y
_atom_site_fract_z
Si Si1 0.403218 0.950041 0.197378
Si Si2 0.732940 0.097290 0.378696
Si Si3 0.000000 0.500000 0.000000
Si Si4 0.509962 0.718520 0.704637
Si Si5 0.840857 0.233686 0.443480
Si Si6 0.173619 0.440001 0.656613
Si Si7 0.707157 0.601808 0.790483
O O1 0.382848 0.910623 0.438752
O O2 0.589259 0.954860 0.246585
O O3 0.312135 0.011402 0.195041
O O4 0.337378 0.917624 0.922544
O O5 0.793744 0.164856 0.409368
O O6 0.865733 0.049146 0.492182
O O7 0.027907 0.469881 0.730033
O O8 0.557584 0.762386 0.502621
O O9 0.319341 0.725565 0.619952
O O10 0.596857 0.657189 0.681549
O O11 0.929331 0.247308 0.736349
O O12 0.168945 0.412581 0.374237
O O13 0.221187 0.394280 0.901701
#
# Coordination Sequence:
#
# PCOD9240871 Si02
#       7
#     4   4   2   4   4   4   4
#     4  11  21  37  60  94 127 158 201 261 332 392
#     4  11  22  39  66  92 128 171 215 269 322 385
#     4  10  26  46  64  90 126 178 228 262 304 372
#     4  10  19  33  55  85 121 155 192 246 320 396
#     4  10  19  34  57  91 121 154 204 259 323 383
#     4  11  24  39  60  88 124 170 210 255 314 384
#     4  12  22  37  61  93 128 157 201 265 334 393
#
# _framework density 25.278614999999999
#
# number of rings (size 3 to 8) (size 9 to 14) (size 15 to 20)
#    0.000    1.231    0.000    9.231    0.000    5.538 
#    0.000    0.000    0.000    5.538    0.000    0.000 
#    0.000    0.000    0.000    0.000    0.000    0.000 
#
# Total GULP energy -144936.760367 kJ/mol
# GULP energy per Si atom -5574.490783 kJ/mol
# Density = 2.522108 g / cm^3
# Si number density = 25.278615 Si / 1000 Ang^3
#
#
#
# Elastic Constant Matrix: (Units=GPa)
#
#
# Indices 1 2 3 4 5 6 
#
# 1 52.0715 8.3641 26.2642 0.0000 -18.8180 0.0000
# 2 8.3641 60.1154 12.0962 0.0000 0.6975 0.0000
# 3 26.2642 12.0962 195.3767 0.0000 -38.8103 0.0000
# 4 0.0000 0.0000 0.0000 42.0499 0.0000 -4.6029
# 5 -18.8180 0.6975 -38.8103 0.0000 37.4235 0.0000
# 6 0.0000 0.0000 0.0000 -4.6029 0.0000 22.9672
#
#
#
# Elastic Compliance Matrix: (Units=1/GPa)
#
#
# Indices 1 2 3 4 5 6 
#
# 1 0.024279 -0.003354 -0.000779 0.000000 0.011463 0.000000
# 2 -0.003354 0.017400 -0.001292 0.000000 -0.003351 0.000000
# 3 -0.000779 -0.001292 0.006587 0.000000 0.006463 0.000000
# 4 0.000000 0.000000 0.000000 0.024315 0.000000 0.004873
# 5 0.011463 -0.003351 0.006463 0.000000 0.039251 0.000000
# 6 0.000000 0.000000 0.000000 0.004873 0.000000 0.044517
#
#
# Mechanical properties :
#
#
# Convention : Reuss Voigt Hill
#
# Bulk Modulus (GPa) = 26.72709 44.55697 35.64203
# Shear Modulus (GPa) = 27.82873 37.87737 32.85305
#
# Velocity S-wave (km/s) = 3.32155 3.87511 3.60896
# Velocity P-wave (km/s) = 5.03053 6.13894 5.61217
#
# Compressibility (1/GPa) = 0.03741522
#
# Stress axis : x y z
#
# Youngs Moduli (GPa) = 41.18842 57.47055 151.81558
#
# Poissons Ratio (x) = 0.19277 0.11827
# Poissons Ratio (y) = 0.13816 0.19615
# Poissons Ratio (z) = 0.03209 0.07425
#
# Static dielectric constant tensor:
#      x y z
#    x 2.103910 0.000000 0.000470 
#    y 0.000000 2.108050 0.000000 
#    z 0.000470 0.000000 2.035110 
# 
# From -- ./inp_files/1669.got.cif
#   From: 2010.05.17/outbox.cif.g08.bks.cpg/sg14_1_cif.got.tgz:1669.got - 2010.06.03 17:49:19.
