data_PCOD9240341
_publ_section_title
;
Structure prediction by ZEFSAII (Michael W. Deem and Ramdas Pophale) SiO2 
 PCOD9240341
Probable space group: P 21/C
;
_chemical_formula_sum "Si O2"
_cell_formula_units_Z 28
_cell_length_a 16.959938
_cell_length_b 14.220944
_cell_length_c 11.069503
_cell_angle_alpha 90.000000
_cell_angle_beta 146.631567
_cell_angle_gamma 90.000000
_cell_volume 1468.452295
_symmetry_space_group_name_H-M "P 21/C"
_symmetry_group_IT_number 14
_symmetry_cell_setting 'monoclinic'
loop_
_space_group_symop_operation_xyz
x,y,z
-x,1/2+y,1/2-z
-x,-y,-z
x,1/2-y,1/2+z
loop_
_atom_site_type_symbol
_atom_site_label
_atom_site_fract_x
_atom_site_fract_y
_atom_site_fract_z
Si Si1 0.962421 0.203303 0.539416
Si Si2 0.831601 0.105088 0.947650
Si Si3 0.699323 0.174272 0.028485
Si Si4 0.127595 0.433427 0.110729
Si Si5 0.674448 0.110259 0.510843
Si Si6 0.444022 0.502493 0.565773
Si Si7 0.945370 0.457655 0.211830
O O1 0.941234 0.311715 0.546878
O O2 0.812233 0.176662 0.283244
O O3 0.980453 0.135354 0.677882
O O4 0.081761 0.170580 0.594971
O O5 0.698059 0.105340 0.684680
O O6 0.776590 0.130648 0.010651
O O7 0.914537 0.006538 0.055147
O O8 0.658755 0.281371 0.952124
O O9 0.570734 0.108775 0.906305
O O10 0.282518 0.460786 0.359540
O O11 0.121421 0.462494 0.962892
O O12 0.000000 0.500000 0.000000
O O13 0.825186 0.072381 0.651921
O O14 0.547545 0.053007 0.287693
O O15 0.500000 0.500000 0.500000
#
# Coordination Sequence:
#
# PCOD9240341 Si02
#       7
#     4   4   4   4   4   4   4
#     4  10  19  38  66  97 120 173 228 259 315 400
#     4  11  23  37  69  94 138 173 213 276 335 390
#     4  11  21  42  67  92 128 183 215 264 333 395
#     4  10  18  36  68  94 122 160 230 268 310 375
#     4  11  25  39  62  97 136 169 220 264 339 397
#     4  12  23  42  71  95 131 175 226 272 319 402
#     4  11  18  39  64  98 124 168 220 270 314 390
#
# _framework density 19.067695000000001
#
# number of rings (size 3 to 8) (size 9 to 14) (size 15 to 20)
#    0.000    1.143    7.143    1.286    2.000    0.571 
#    2.571    0.000    0.000    0.000    0.000    0.000 
#    0.000    0.000    0.000    0.000    0.000    0.000 
#
# Total GULP energy -156264.045302 kJ/mol
# GULP energy per Si atom -5580.858761 kJ/mol
# Density = 1.902430 g / cm^3
# Si number density = 19.067695 Si / 1000 Ang^3
#
#
#
# Elastic Constant Matrix: (Units=GPa)
#
#
# Indices 1 2 3 4 5 6 
#
# 1 64.2276 40.5131 13.8305 0.0000 -0.4016 0.0000
# 2 40.5131 99.2903 47.6336 0.0000 1.1050 0.0000
# 3 13.8305 47.6336 90.4065 0.0000 4.2341 0.0000
# 4 0.0000 0.0000 0.0000 34.7117 0.0000 1.8119
# 5 -0.4016 1.1050 4.2341 0.0000 18.2294 0.0000
# 6 0.0000 0.0000 0.0000 1.8119 0.0000 30.8369
#
#
#
# Elastic Compliance Matrix: (Units=1/GPa)
#
#
# Indices 1 2 3 4 5 6 
#
# 1 0.021179 -0.009475 0.001722 0.000000 0.000641 0.000000
# 2 -0.009475 0.017730 -0.007918 0.000000 0.000556 0.000000
# 3 0.001722 -0.007918 0.015110 0.000000 -0.002992 0.000000
# 4 0.000000 0.000000 0.000000 0.028897 0.000000 -0.001698
# 5 0.000641 0.000556 -0.002992 0.000000 0.055532 0.000000
# 6 0.000000 0.000000 0.000000 -0.001698 0.000000 0.032528
#
#
# Mechanical properties :
#
#
# Convention : Reuss Voigt Hill
#
# Bulk Modulus (GPa) = 44.09742 50.87541 47.48642
# Shear Modulus (GPa) = 23.82336 26.88540 25.35438
#
# Velocity S-wave (km/s) = 3.53853 3.75907 3.65047
# Velocity P-wave (km/s) = 6.31442 6.75131 6.53652
#
# Compressibility (1/GPa) = 0.02267706
#
# Stress axis : x y z
#
# Youngs Moduli (GPa) = 47.21561 56.40139 66.18258
#
# Poissons Ratio (x) = 0.53441 -0.11398
# Poissons Ratio (y) = 0.44737 0.52404
# Poissons Ratio (z) = -0.08131 0.44659
#
# Static dielectric constant tensor:
#      x y z
#    x 1.700400 0.000000 -0.029920 
#    y 0.000000 1.702310 0.000000 
#    z -0.029920 0.000000 1.655700 
# 
# From -- ./inp_files/34098.got.cif
#   From: 2010.05.17/outbox.cif.g08.bks.cpg/sg14_18_cif.got.tgz:34098.got - 2010.06.03 17:49:19.
