data_PCOD9240554
_publ_section_title
;
Structure prediction by ZEFSAII (Michael W. Deem and Ramdas Pophale) SiO2 
 PCOD9240554
Probable space group: P 21/C
;
_chemical_formula_sum "Si O2"
_cell_formula_units_Z 26
_cell_length_a 15.995389
_cell_length_b 7.067834
_cell_length_c 15.348937
_cell_angle_alpha 90.000000
_cell_angle_beta 144.285833
_cell_angle_gamma 90.000000
_cell_volume 1012.932218
_symmetry_space_group_name_H-M "P 21/C"
_symmetry_group_IT_number 14
_symmetry_cell_setting 'monoclinic'
loop_
_space_group_symop_operation_xyz
x,y,z
-x,1/2+y,1/2-z
-x,-y,-z
x,1/2-y,1/2+z
loop_
_atom_site_type_symbol
_atom_site_label
_atom_site_fract_x
_atom_site_fract_y
_atom_site_fract_z
Si Si1 0.500000 0.000000 0.500000
Si Si2 0.736517 0.778732 0.991201
Si Si3 0.573345 0.290312 0.233116
Si Si4 0.182480 0.842818 0.458558
Si Si5 0.824159 0.085737 0.360479
Si Si6 0.802165 0.777386 0.733773
Si Si7 0.978416 0.351204 0.352517
O O1 0.534113 0.040323 0.635299
O O2 0.651847 0.886587 0.618670
O O3 0.751719 0.548889 0.004843
O O4 0.788367 0.837082 0.131303
O O5 0.851142 0.846979 0.016918
O O6 0.566608 0.805964 0.844289
O O7 0.691291 0.303640 0.410081
O O8 0.660661 0.152878 0.239637
O O9 0.085662 0.790194 0.295833
O O10 0.105700 0.883766 0.485466
O O11 0.902376 0.218276 0.358088
O O12 0.179174 0.126350 0.674776
O O13 0.921475 0.939974 0.826442
#
# Coordination Sequence:
#
# PCOD9240554 Si02
#       7
#     2   4   4   4   4   4   4
#     4  10  18  42  72 104 144 184 262 312 368 446
#     4  10  23  43  70 111 153 200 253 309 395 446
#     4   9  21  47  72 110 146 204 253 323 369 459
#     4   9  23  49  71 112 153 199 261 315 375 471
#     4  10  23  47  79 107 144 211 254 306 393 461
#     4  10  22  43  69 105 140 196 254 305 384 451
#     4  11  23  48  78 108 161 200 247 331 378 458
#
# _framework density 25.668054000000001
#
# number of rings (size 3 to 8) (size 9 to 14) (size 15 to 20)
#    0.923    1.231    1.538    0.000    4.308    3.077 
#   13.846    5.385    0.000    2.769    4.000    0.000 
#    0.000    0.000    0.000    0.000    0.000    0.000 
#
# Total GULP energy -144964.684454 kJ/mol
# GULP energy per Si atom -5575.564787 kJ/mol
# Density = 2.560963 g / cm^3
# Si number density = 25.668054 Si / 1000 Ang^3
#
#
#
# Elastic Constant Matrix: (Units=GPa)
#
#
# Indices 1 2 3 4 5 6 
#
# 1 202.4460 61.4769 79.6190 0.0000 18.1068 0.0000
# 2 61.4769 74.0101 39.1795 0.0000 7.2271 0.0000
# 3 79.6190 39.1795 117.6160 0.0000 3.8106 0.0000
# 4 0.0000 0.0000 0.0000 22.0082 0.0000 -1.9702
# 5 18.1068 7.2271 3.8106 0.0000 71.9569 0.0000
# 6 0.0000 0.0000 0.0000 -1.9702 0.0000 41.3301
#
#
#
# Elastic Compliance Matrix: (Units=1/GPa)
#
#
# Indices 1 2 3 4 5 6 
#
# 1 0.007908 -0.004403 -0.003843 0.000000 -0.001344 0.000000
# 2 -0.004403 0.018990 -0.003325 0.000000 -0.000623 0.000000
# 3 -0.003843 -0.003325 0.012190 0.000000 0.000655 0.000000
# 4 0.000000 0.000000 0.000000 0.045632 0.000000 0.002175
# 5 -0.001344 -0.000623 0.000655 0.000000 0.014263 0.000000
# 6 0.000000 0.000000 0.000000 0.002175 0.000000 0.024299
#
#
# Mechanical properties :
#
#
# Convention : Reuss Voigt Hill
#
# Bulk Modulus (GPa) = 62.71157 83.84699 73.27928
# Shear Modulus (GPa) = 32.95060 41.31216 37.13138
#
# Velocity S-wave (km/s) = 3.58679 4.01618 3.80754
# Velocity P-wave (km/s) = 6.45277 7.36499 6.92392
#
# Compressibility (1/GPa) = 0.01594602
#
# Stress axis : x y z
#
# Youngs Moduli (GPa) = 126.44659 52.65812 82.03332
#
# Poissons Ratio (x) = 0.23188 0.31527
# Poissons Ratio (y) = 0.55680 0.27275
# Poissons Ratio (z) = 0.48595 0.17508
#
# Static dielectric constant tensor:
#      x y z
#    x 2.028180 0.000000 -0.024270 
#    y 0.000000 2.081180 0.000000 
#    z -0.024270 0.000000 2.066980 
# 
# From -- ./inp_files/60361.got.cif
#   From: 2010.05.17/outbox.cif.g08.bks.cpg/sg14_31_cif.got.tgz:60361.got - 2010.06.03 17:49:19.
