data_PCOD9240090
_publ_section_title
;
Structure prediction by ZEFSAII (Michael W. Deem and Ramdas Pophale) SiO2 
 PCOD9240090
Probable space group: P 21/C
;
_chemical_formula_sum "Si O2"
_cell_formula_units_Z 32
_cell_length_a 8.514332
_cell_length_b 22.629550
_cell_length_c 8.068696
_cell_angle_alpha 90.000000
_cell_angle_beta 81.358478
_cell_angle_gamma 90.000000
_cell_volume 1536.991393
_symmetry_space_group_name_H-M "P 21/C"
_symmetry_group_IT_number 14
_symmetry_cell_setting 'monoclinic'
loop_
_space_group_symop_operation_xyz
x,y,z
-x,1/2+y,1/2-z
-x,-y,-z
x,1/2-y,1/2+z
loop_
_atom_site_type_symbol
_atom_site_label
_atom_site_fract_x
_atom_site_fract_y
_atom_site_fract_z
Si Si1 0.128469 0.874557 0.124388
Si Si2 0.026986 0.175727 0.400652
Si Si3 0.882782 0.793720 0.974325
Si Si4 0.667139 0.472228 0.028779
Si Si5 0.593319 0.053093 0.903473
Si Si6 0.869580 0.576233 0.887450
Si Si7 0.297694 0.837327 0.439202
Si Si8 0.386757 0.152878 0.755870
O O1 0.034005 0.826823 0.033147
O O2 0.268557 0.912717 0.018638
O O3 0.209532 0.844774 0.274150
O O4 0.995278 0.918324 0.219553
O O5 0.054371 0.110370 0.468129
O O6 0.093608 0.223657 0.519557
O O7 0.837739 0.189815 0.422671
O O8 0.115998 0.185466 0.214684
O O9 0.729354 0.810430 0.107476
O O10 0.675141 0.473922 0.226587
O O11 0.672023 0.402754 0.991576
O O12 0.500000 0.500000 0.000000
O O13 0.807573 0.511215 0.932644
O O14 0.473844 0.103317 0.855004
O O15 0.500000 0.000000 0.000000
O O16 0.719791 0.616011 0.855551
O O17 0.471998 0.813137 0.364747
#
# Coordination Sequence:
#
# PCOD9240090 Si02
#       8
#     4   4   4   4   4   4   4   4
#     4   8  19  37  57  77 116 153 187 232 288 332
#     4  11  24  38  63  85 113 148 198 241 291 343
#     4  11  22  43  59  85 114 152 192 249 288 341
#     4  10  18  34  60  84 121 153 188 231 285 341
#     4  10  21  35  56  86 122 154 182 239 285 342
#     4  10  18  37  59  86 113 155 192 236 282 349
#     4   9  19  38  60  88 113 158 190 233 284 344
#     4   9  19  39  60  83 120 152 191 233 289 336
#
# _framework density 20.819896
#
# number of rings (size 3 to 8) (size 9 to 14) (size 15 to 20)
#    0.000    2.500    2.500    2.250    1.750    5.500 
#    0.000    8.750    0.000    0.000    0.000    0.000 
#    0.000    0.000    0.000    0.000    0.000    0.000 
#
# Total GULP energy -178424.339881 kJ/mol
# GULP energy per Si atom -5575.760621 kJ/mol
# Density = 2.077251 g / cm^3
# Si number density = 20.819896 Si / 1000 Ang^3
#
#
#
# Elastic Constant Matrix: (Units=GPa)
#
#
# Indices 1 2 3 4 5 6 
#
# 1 97.9563 10.9026 2.4806 0.0000 -15.8492 0.0000
# 2 10.9026 59.6208 4.8771 0.0000 -6.7529 0.0000
# 3 2.4806 4.8771 32.2255 0.0000 -13.1990 0.0000
# 4 0.0000 0.0000 0.0000 24.6047 0.0000 -1.9586
# 5 -15.8492 -6.7529 -13.1990 0.0000 29.8316 0.0000
# 6 0.0000 0.0000 0.0000 -1.9586 0.0000 27.7392
#
#
#
# Elastic Compliance Matrix: (Units=1/GPa)
#
#
# Indices 1 2 3 4 5 6 
#
# 1 0.011396 -0.001502 0.002065 0.000000 0.006628 0.000000
# 2 -0.001502 0.017452 -0.001508 0.000000 0.002485 0.000000
# 3 0.002065 -0.001508 0.038362 0.000000 0.017729 0.000000
# 4 0.000000 0.000000 0.000000 0.040872 0.000000 0.002886
# 5 0.006628 0.002485 0.017729 0.000000 0.045450 0.000000
# 6 0.000000 0.000000 0.000000 0.002886 0.000000 0.036254
#
#
# Mechanical properties :
#
#
# Convention : Reuss Voigt Hill
#
# Bulk Modulus (GPa) = 15.30918 25.14702 20.22810
# Shear Modulus (GPa) = 23.42477 27.87125 25.64801
#
# Velocity S-wave (km/s) = 3.35791 3.66277 3.51365
# Velocity P-wave (km/s) = 4.73320 5.47654 5.11838
#
# Compressibility (1/GPa) = 0.06532029
#
# Stress axis : x y z
#
# Youngs Moduli (GPa) = 87.75046 57.29937 26.06749
#
# Poissons Ratio (x) = 0.08607 -0.05383
# Poissons Ratio (y) = 0.13181 0.03930
# Poissons Ratio (z) = -0.18119 0.08639
#
# Static dielectric constant tensor:
#      x y z
#    x 1.820100 0.000000 -0.008900 
#    y 0.000000 1.752670 0.000000 
#    z -0.008900 0.000000 1.754430 
# 
# From -- ./inp_files/10665.got.cif
#   From: 2010.05.17/outbox.cif.g08.bks.cpg/sg14_6_cif.got.tgz:10665.got - 2010.06.03 17:49:19.
