data_PCOD9240153
_publ_section_title
;
Structure prediction by ZEFSAII (Michael W. Deem and Ramdas Pophale) SiO2 
 PCOD9240153
Probable space group: P 21/C
;
_chemical_formula_sum "Si O2"
_cell_formula_units_Z 28
_cell_length_a 13.137124
_cell_length_b 16.561619
_cell_length_c 8.840979
_cell_angle_alpha 90.000000
_cell_angle_beta 47.824325
_cell_angle_gamma 90.000000
_cell_volume 1425.523005
_symmetry_space_group_name_H-M "P 21/C"
_symmetry_group_IT_number 14
_symmetry_cell_setting 'monoclinic'
loop_
_space_group_symop_operation_xyz
x,y,z
-x,1/2+y,1/2-z
-x,-y,-z
x,1/2-y,1/2+z
loop_
_atom_site_type_symbol
_atom_site_label
_atom_site_fract_x
_atom_site_fract_y
_atom_site_fract_z
Si Si1 0.937557 0.104664 0.428690
Si Si2 0.174475 0.996605 0.173146
Si Si3 0.950796 0.782638 0.179722
Si Si4 0.241015 0.266480 0.376519
Si Si5 0.752772 0.164535 0.999515
Si Si6 0.325711 0.684088 0.769072
Si Si7 0.372094 0.357992 0.513472
O O1 0.793043 0.140021 0.512882
O O2 0.043156 0.045336 0.238632
O O3 0.022929 0.186641 0.374423
O O4 0.890285 0.056533 0.625957
O O5 0.282359 0.062000 0.126963
O O6 0.254934 0.932321 0.989627
O O7 0.875993 0.812620 0.103764
O O8 0.843124 0.789120 0.422776
O O9 0.094962 0.817792 0.087901
O O10 0.332879 0.324872 0.386286
O O11 0.326541 0.210916 0.177791
O O12 0.730068 0.189300 0.846928
O O13 0.655280 0.224869 0.189454
O O14 0.465218 0.634188 0.633804
#
# Coordination Sequence:
#
# PCOD9240153 Si02
#       7
#     4   4   4   4   4   4   4
#     4   9  18  33  56  82 113 141 193 238 282 322
#     4  10  19  35  58  90 112 145 193 252 278 329
#     4  10  18  35  57  86 109 153 193 242 277 349
#     4  10  19  33  56  83 110 155 193 233 279 347
#     4  10  21  35  64  82 116 145 197 236 293 330
#     4  10  21  38  57  86 114 159 184 233 286 361
#     4  11  22  36  60  83 120 149 198 231 287 344
#
# _framework density 19.641914
#
# number of rings (size 3 to 8) (size 9 to 14) (size 15 to 20)
#    0.000    2.000    2.857    3.429    2.000    2.286 
#    0.000    0.714    0.000    1.714    0.000    0.000 
#    0.000    0.000    0.000    0.000    0.000    0.000 
#
# Total GULP energy -155897.712049 kJ/mol
# GULP energy per Si atom -5567.775430 kJ/mol
# Density = 1.959721 g / cm^3
# Si number density = 19.641914 Si / 1000 Ang^3
#
#
#
# Elastic Constant Matrix: (Units=GPa)
#
#
# Indices 1 2 3 4 5 6 
#
# 1 59.8933 26.2492 26.1986 0.0000 7.4736 0.0000
# 2 26.2492 88.3963 23.1571 0.0000 -1.6015 0.0000
# 3 26.1986 23.1571 46.4794 0.0000 -5.7647 0.0000
# 4 0.0000 0.0000 0.0000 15.0803 0.0000 5.2648
# 5 7.4736 -1.6015 -5.7647 0.0000 34.2894 0.0000
# 6 0.0000 0.0000 0.0000 5.2648 0.0000 15.7299
#
#
#
# Elastic Compliance Matrix: (Units=1/GPa)
#
#
# Indices 1 2 3 4 5 6 
#
# 1 0.025271 -0.004208 -0.013129 0.000000 -0.007912 0.000000
# 2 -0.004208 0.013720 -0.004361 0.000000 0.000825 0.000000
# 3 -0.013129 -0.004361 0.032087 0.000000 0.008052 0.000000
# 4 0.000000 0.000000 0.000000 0.075085 0.000000 -0.025131
# 5 -0.007912 0.000825 0.008052 0.000000 0.032280 0.000000
# 6 0.000000 0.000000 0.000000 -0.025131 0.000000 0.071984
#
#
# Mechanical properties :
#
#
# Convention : Reuss Voigt Hill
#
# Bulk Modulus (GPa) = 36.12613 38.44209 37.28411
# Shear Modulus (GPa) = 16.49896 20.96422 18.73159
#
# Velocity S-wave (km/s) = 2.90140 3.27053 3.09148
# Velocity P-wave (km/s) = 5.44577 5.82029 5.63614
#
# Compressibility (1/GPa) = 0.02768079
#
# Stress axis : x y z
#
# Youngs Moduli (GPa) = 39.57159 72.88779 31.16564
#
# Poissons Ratio (x) = 0.30672 0.40917
# Poissons Ratio (y) = 0.16652 0.13592
# Poissons Ratio (z) = 0.51953 0.31788
#
# Static dielectric constant tensor:
#      x y z
#    x 1.718790 0.000000 -0.001140 
#    y 0.000000 1.730540 0.000000 
#    z -0.001140 0.000000 1.722230 
# 
# From -- ./inp_files/13238.got.cif
#   From: 2010.05.17/outbox.cif.g08.bks.cpg/sg14_7_cif.got.tgz:13238.got - 2010.06.03 17:49:19.
