data_PCOD9240267
_publ_section_title
;
Structure prediction by ZEFSAII (Michael W. Deem and Ramdas Pophale) SiO2 
 PCOD9240267
Probable space group: P 21/C
;
_chemical_formula_sum "Si O2"
_cell_formula_units_Z 30
_cell_length_a 9.746801
_cell_length_b 22.430174
_cell_length_c 7.379076
_cell_angle_alpha 90.000000
_cell_angle_beta 44.270616
_cell_angle_gamma 90.000000
_cell_volume 1126.113350
_symmetry_space_group_name_H-M "P 21/C"
_symmetry_group_IT_number 14
_symmetry_cell_setting 'monoclinic'
loop_
_space_group_symop_operation_xyz
x,y,z
-x,1/2+y,1/2-z
-x,-y,-z
x,1/2-y,1/2+z
loop_
_atom_site_type_symbol
_atom_site_label
_atom_site_fract_x
_atom_site_fract_y
_atom_site_fract_z
Si Si1 0.311402 0.959089 0.790131
Si Si2 0.998806 0.689516 0.540104
Si Si3 0.500000 0.000000 0.000000
Si Si4 0.561096 0.330303 0.816060
Si Si5 0.145465 0.431318 0.319626
Si Si6 0.921956 0.182642 0.459780
Si Si7 0.520595 0.701661 0.500782
Si Si8 0.787973 0.598976 0.331723
O O1 0.418060 0.897292 0.625622
O O2 0.294236 0.012544 0.654479
O O3 0.397108 0.976450 0.904006
O O4 0.076542 0.945542 0.031000
O O5 0.842477 0.638995 0.744540
O O6 0.058999 0.679049 0.274687
O O7 0.954991 0.759365 0.595124
O O8 0.206334 0.683825 0.448118
O O9 0.339120 0.053648 0.160318
O O10 0.480406 0.273702 0.004683
O O11 0.459064 0.323693 0.719364
O O12 0.154410 0.427705 0.529803
O O13 0.015891 0.122578 0.449129
O O14 0.697666 0.187765 0.722574
O O15 0.663003 0.659678 0.483288
#
# Coordination Sequence:
#
# PCOD9240267 Si02
#       8
#     4   4   2   4   4   4   4   4
#     4   9  16  32  56  83 115 153 202 240 292 350
#     4   9  17  33  55  82 117 156 193 245 298 356
#     4  10  18  36  58  88 118 150 208 246 288 360
#     4  10  19  33  56  87 118 159 192 244 306 350
#     4   8  17  31  54  83 109 157 199 237 292 358
#     4  10  20  35  55  85 120 156 194 245 302 352
#     4  11  21  35  56  89 120 156 194 244 302 356
#     4  10  21  36  58  87 116 156 199 244 297 357
#
# _framework density 26.640301999999998
#
# number of rings (size 3 to 8) (size 9 to 14) (size 15 to 20)
#    0.000    2.400    1.333    3.200    0.000    2.133 
#    0.000    0.667    0.000    1.600    3.467   39.200 
#    0.000    0.000    0.000    0.000    0.000    0.000 
#
# Total GULP energy -167125.825834 kJ/mol
# GULP energy per Si atom -5570.860861 kJ/mol
# Density = 2.657967 g / cm^3
# Si number density = 26.640302 Si / 1000 Ang^3
#
#
#
# Elastic Constant Matrix: (Units=GPa)
#
#
# Indices 1 2 3 4 5 6 
#
# 1 167.8096 25.3983 34.8611 0.0000 -1.2459 0.0000
# 2 25.3983 105.4470 47.9595 0.0000 -8.4317 0.0000
# 3 34.8611 47.9595 74.4388 0.0000 -0.6875 0.0000
# 4 0.0000 0.0000 0.0000 40.0203 0.0000 -17.4113
# 5 -1.2459 -8.4317 -0.6875 0.0000 21.3809 0.0000
# 6 0.0000 0.0000 0.0000 -17.4113 0.0000 60.4767
#
#
#
# Elastic Compliance Matrix: (Units=1/GPa)
#
#
# Indices 1 2 3 4 5 6 
#
# 1 0.006607 -0.000239 -0.002938 0.000000 0.000196 0.000000
# 2 -0.000239 0.013983 -0.008848 0.000000 0.005216 0.000000
# 3 -0.002938 -0.008848 0.020483 0.000000 -0.003002 0.000000
# 4 0.000000 0.000000 0.000000 0.028565 0.000000 0.008224
# 5 0.000196 0.005216 -0.003002 0.000000 0.048743 0.000000
# 6 0.000000 0.000000 0.000000 0.008224 0.000000 0.018903
#
#
# Mechanical properties :
#
#
# Convention : Reuss Voigt Hill
#
# Bulk Modulus (GPa) = 58.75190 62.68147 60.71669
# Shear Modulus (GPa) = 29.93842 40.34067 35.13955
#
# Velocity S-wave (km/s) = 3.35595 3.89559 3.63580
# Velocity P-wave (km/s) = 6.09247 6.61922 6.36130
#
# Compressibility (1/GPa) = 0.01702073
#
# Stress axis : x y z
#
# Youngs Moduli (GPa) = 151.34959 71.51737 48.82081
#
# Poissons Ratio (x) = 0.01712 0.14345
# Poissons Ratio (y) = 0.03623 0.43199
# Poissons Ratio (z) = 0.44470 0.63282
#
# Static dielectric constant tensor:
#      x y z
#    x 2.078430 0.000000 -0.088720 
#    y 0.000000 2.229890 0.000000 
#    z -0.088720 0.000000 2.108520 
# 
# From -- ./inp_files/26423.got.cif
#   From: 2010.05.17/outbox.cif.g08.bks.cpg/sg14_14_cif.got.tgz:26423.got - 2010.06.03 17:49:19.
