data_PCOD9240569
_publ_section_title
;
Structure prediction by ZEFSAII (Michael W. Deem and Ramdas Pophale) SiO2 
 PCOD9240569
Probable space group: P 21/C
;
_chemical_formula_sum "Si O2"
_cell_formula_units_Z 32
_cell_length_a 26.277318
_cell_length_b 5.604243
_cell_length_c 26.629118
_cell_angle_alpha 90.000000
_cell_angle_beta 156.666256
_cell_angle_gamma 90.000000
_cell_volume 1553.261758
_symmetry_space_group_name_H-M "P 21/C"
_symmetry_group_IT_number 14
_symmetry_cell_setting 'monoclinic'
loop_
_space_group_symop_operation_xyz
x,y,z
-x,1/2+y,1/2-z
-x,-y,-z
x,1/2-y,1/2+z
loop_
_atom_site_type_symbol
_atom_site_label
_atom_site_fract_x
_atom_site_fract_y
_atom_site_fract_z
Si Si1 0.520445 0.746409 0.566831
Si Si2 0.000468 0.985045 0.370637
Si Si3 0.136770 0.970719 0.594458
Si Si4 0.221195 0.687668 0.804348
Si Si5 0.783373 0.829114 0.624129
Si Si6 0.152400 0.027519 0.146546
Si Si7 0.469838 0.257118 0.542158
Si Si8 0.064992 0.212334 0.326648
O O1 0.363738 0.734936 0.420839
O O2 0.550050 0.498937 0.621127
O O3 0.565338 0.749497 0.549638
O O4 0.538750 0.000215 0.610507
O O5 0.890517 0.124263 0.301809
O O6 0.060939 0.150748 0.381906
O O7 0.915277 0.784354 0.265817
O O8 0.104136 0.921698 0.506633
O O9 0.202891 0.731953 0.675206
O O10 0.198101 0.231335 0.661021
O O11 0.000000 0.000000 0.500000
O O12 0.218820 0.602626 0.859820
O O13 0.181856 0.470535 0.732270
O O14 0.655529 0.731471 0.535653
O O15 0.798397 0.791471 0.578606
O O16 0.000000 0.000000 0.000000
O O17 0.005699 0.475610 0.261749
#
# Coordination Sequence:
#
# PCOD9240569 Si02
#       8
#     4   4   4   4   4   4   4   4
#     4   9  18  28  41  65  82 111 142 176 210 261
#     4  11  19  29  44  61  88 120 144 178 210 253
#     4  10  19  29  41  59  84 109 142 173 213 248
#     4  11  18  28  46  61  88 118 144 170 221 253
#     4  10  19  30  45  63  87 122 148 176 213 256
#     4  10  19  28  41  61  82 110 141 173 205 262
#     4   9  17  29  43  59  87 109 143 176 212 249
#     4  10  21  31  42  63  87 113 154 180 202 249
#
# _framework density 20.601807999999998
#
# number of rings (size 3 to 8) (size 9 to 14) (size 15 to 20)
#    0.000    2.000    5.000    1.500    0.000    0.000 
#    0.000    0.000    0.000    0.000    0.000    0.000 
#    0.000    2.000    0.000    0.000    0.000    1.875 
#
# Total GULP energy -178265.687099 kJ/mol
# GULP energy per Si atom -5570.802722 kJ/mol
# Density = 2.055492 g / cm^3
# Si number density = 20.601808 Si / 1000 Ang^3
#
#
#
# Elastic Constant Matrix: (Units=GPa)
#
#
# Indices 1 2 3 4 5 6 
#
# 1 121.4404 26.0815 21.8114 0.0000 9.4200 0.0000
# 2 26.0815 153.4936 12.2421 0.0000 7.6650 0.0000
# 3 21.8114 12.2421 21.4480 0.0000 -1.9851 0.0000
# 4 0.0000 0.0000 0.0000 27.3570 0.0000 2.9986
# 5 9.4200 7.6650 -1.9851 0.0000 25.4461 0.0000
# 6 0.0000 0.0000 0.0000 2.9986 0.0000 33.1864
#
#
#
# Elastic Compliance Matrix: (Units=1/GPa)
#
#
# Indices 1 2 3 4 5 6 
#
# 1 0.010703 -0.000720 -0.010899 0.000000 -0.004596 0.000000
# 2 -0.000720 0.007020 -0.003471 0.000000 -0.002119 0.000000
# 3 -0.010899 -0.003471 0.060597 0.000000 0.009808 0.000000
# 4 0.000000 0.000000 0.000000 0.036919 0.000000 -0.003336
# 5 -0.004596 -0.002119 0.009808 0.000000 0.042403 0.000000
# 6 0.000000 0.000000 0.000000 -0.003336 0.000000 0.030434
#
#
# Mechanical properties :
#
#
# Convention : Reuss Voigt Hill
#
# Bulk Modulus (GPa) = 20.77251 46.29466 33.53359
# Shear Modulus (GPa) = 21.33991 32.94769 27.14380
#
# Velocity S-wave (km/s) = 3.22192 4.00342 3.63374
# Velocity P-wave (km/s) = 4.89344 6.62493 5.82389
#
# Compressibility (1/GPa) = 0.04814056
#
# Stress axis : x y z
#
# Youngs Moduli (GPa) = 93.43109 142.45251 16.50253
#
# Poissons Ratio (x) = 0.10255 0.17986
# Poissons Ratio (y) = 0.06726 0.05728
# Poissons Ratio (z) = 1.01829 0.49443
#
# Static dielectric constant tensor:
#      x y z
#    x 1.792510 0.000000 0.039500 
#    y 0.000000 1.953970 0.000000 
#    z 0.039500 0.000000 1.725830 
# 
# From -- ./inp_files/75109.got.cif
#   From: 2010.05.17/outbox.cif.g08.bks.cpg/sg14_38_cif.got.tgz:75109.got - 2010.06.03 17:49:19.
