data_PCOD9240428
_publ_section_title
;
Structure prediction by ZEFSAII (Michael W. Deem and Ramdas Pophale) SiO2 
 PCOD9240428
Probable space group: P 21/C
;
_chemical_formula_sum "Si O2"
_cell_formula_units_Z 24
_cell_length_a 8.192843
_cell_length_b 15.996287
_cell_length_c 9.567868
_cell_angle_alpha 90.000000
_cell_angle_beta 94.572767
_cell_angle_gamma 90.000000
_cell_volume 1249.926227
_symmetry_space_group_name_H-M "P 21/C"
_symmetry_group_IT_number 14
_symmetry_cell_setting 'monoclinic'
loop_
_space_group_symop_operation_xyz
x,y,z
-x,1/2+y,1/2-z
-x,-y,-z
x,1/2-y,1/2+z
loop_
_atom_site_type_symbol
_atom_site_label
_atom_site_fract_x
_atom_site_fract_y
_atom_site_fract_z
Si Si1 0.866987 0.429526 0.038439
Si Si2 0.153394 0.314507 0.012118
Si Si3 0.864405 0.451724 0.582289
Si Si4 0.157179 0.152491 0.190295
Si Si5 0.322730 0.031079 0.677484
Si Si6 0.309625 0.526986 0.693171
O O1 0.813920 0.441787 0.194364
O O2 0.964551 0.344041 0.022774
O O3 0.712389 0.453869 0.931494
O O4 0.000000 0.500000 0.000000
O O5 0.185381 0.225507 0.082404
O O6 0.262382 0.385115 0.096498
O O7 0.184773 0.316883 0.849564
O O8 0.787275 0.510265 0.694891
O O9 0.728437 0.429199 0.457391
O O10 0.000000 0.500000 0.500000
O O11 0.968765 0.378762 0.661515
O O12 0.270737 0.071649 0.173120
O O13 0.508083 0.037981 0.739300
#
# Coordination Sequence:
#
# PCOD9240428 Si02
#       6
#     4   4   4   4   4   4
#     4  10  18  38  62  85 111 157 206 237 281 360
#     4  11  23  38  61  88 121 158 205 249 301 350
#     4  10  21  39  62  87 117 156 205 242 285 360
#     4  11  23  39  59  90 120 160 201 252 296 353
#     4  11  21  40  65  89 119 159 201 248 299 362
#     4  11  22  38  66  92 119 157 201 250 302 356
#
# _framework density 19.201134
#
# number of rings (size 3 to 8) (size 9 to 14) (size 15 to 20)
#    0.000    1.333    5.000    4.000    7.000    0.000 
#    0.000    3.333    0.000    0.000    0.000    0.000 
#    0.000    0.000    0.000    0.000    0.000    0.000 
#
# Total GULP energy -133949.922000 kJ/mol
# GULP energy per Si atom -5581.246750 kJ/mol
# Density = 1.915743 g / cm^3
# Si number density = 19.201134 Si / 1000 Ang^3
#
#
#
# Elastic Constant Matrix: (Units=GPa)
#
#
# Indices 1 2 3 4 5 6 
#
# 1 76.9340 11.8595 26.2991 0.0000 27.9570 0.0000
# 2 11.8595 34.4919 15.4203 0.0000 -1.0283 0.0000
# 3 26.2991 15.4203 134.7698 0.0000 12.7670 0.0000
# 4 0.0000 0.0000 0.0000 33.5324 0.0000 1.8960
# 5 27.9570 -1.0283 12.7670 0.0000 37.9868 0.0000
# 6 0.0000 0.0000 0.0000 1.8960 0.0000 11.8530
#
#
#
# Elastic Compliance Matrix: (Units=1/GPa)
#
#
# Indices 1 2 3 4 5 6 
#
# 1 0.019710 -0.006401 -0.001780 0.000000 -0.014081 0.000000
# 2 -0.006401 0.032792 -0.003133 0.000000 0.006652 0.000000
# 3 -0.001780 -0.003133 0.008273 0.000000 -0.001555 0.000000
# 4 0.000000 0.000000 0.000000 0.030094 0.000000 -0.004814
# 5 -0.014081 0.006652 -0.001555 0.000000 0.037391 0.000000
# 6 0.000000 0.000000 0.000000 -0.004814 0.000000 0.085137
#
#
# Mechanical properties :
#
#
# Convention : Reuss Voigt Hill
#
# Bulk Modulus (GPa) = 26.21400 39.26148 32.73774
# Shear Modulus (GPa) = 20.10116 29.51557 24.80837
#
# Velocity S-wave (km/s) = 3.23905 3.92494 3.59838
# Velocity P-wave (km/s) = 5.26028 6.40563 5.86100
#
# Compressibility (1/GPa) = 0.03814755
#
# Stress axis : x y z
#
# Youngs Moduli (GPa) = 50.73486 30.49500 120.87184
#
# Poissons Ratio (x) = 0.19520 0.21514
# Poissons Ratio (y) = 0.32476 0.37870
# Poissons Ratio (z) = 0.09030 0.09554
#
# Static dielectric constant tensor:
#      x y z
#    x 1.712560 0.000000 0.038100 
#    y 0.000000 1.662230 0.000000 
#    z 0.038100 0.000000 1.704900 
# 
# From -- ./inp_files/9127.got.cif
#   From: 2010.05.17/outbox.cif.g08.bks.cpg/sg14_5_cif.got.tgz:9127.got - 2010.06.03 17:49:19.
