data_PCOD9240979
_publ_section_title
;
Structure prediction by ZEFSAII (Michael W. Deem and Ramdas Pophale) SiO2 
 PCOD9240979
Probable space group: P 21/C
;
_chemical_formula_sum "Si O2"
_cell_formula_units_Z 28
_cell_length_a 7.230522
_cell_length_b 28.403569
_cell_length_c 7.165559
_cell_angle_alpha 90.000000
_cell_angle_beta 58.477228
_cell_angle_gamma 90.000000
_cell_volume 1254.447836
_symmetry_space_group_name_H-M "P 21/C"
_symmetry_group_IT_number 14
_symmetry_cell_setting 'monoclinic'
loop_
_space_group_symop_operation_xyz
x,y,z
-x,1/2+y,1/2-z
-x,-y,-z
x,1/2-y,1/2+z
loop_
_atom_site_type_symbol
_atom_site_label
_atom_site_fract_x
_atom_site_fract_y
_atom_site_fract_z
Si Si1 0.779428 0.022600 0.822260
Si Si2 0.823537 0.226048 0.372217
Si Si3 0.577388 0.082060 0.214159
Si Si4 0.909627 0.700517 0.937407
Si Si5 0.573096 0.312980 0.665389
Si Si6 0.106518 0.398830 0.103663
Si Si7 0.096753 0.939815 0.627586
O O1 0.764967 0.031762 0.605914
O O2 0.965130 0.061835 0.778461
O O3 0.587203 0.039651 0.058334
O O4 0.897412 0.973346 0.791685
O O5 0.666826 0.270843 0.491099
O O6 0.712724 0.192933 0.281247
O O7 0.889463 0.200436 0.525471
O O8 0.047773 0.250539 0.188143
O O9 0.594627 0.132386 0.098113
O O10 0.352700 0.085477 0.446374
O O11 0.760598 0.074835 0.273979
O O12 0.677026 0.697034 0.156545
O O13 0.915910 0.653732 0.807083
O O14 0.009104 0.398971 0.943184
#
# Coordination Sequence:
#
# PCOD9240979 Si02
#       7
#     4   4   4   4   4   4   4
#     4   9  20  39  53  81 113 138 182 224 261 325
#     4  10  20  34  54  74 104 142 164 218 268 302
#     4  11  20  36  59  78 109 144 177 222 270 315
#     4  10  19  34  53  73 108 131 173 221 251 317
#     4  10  21  34  53  81 100 137 181 207 265 321
#     4   9  20  36  53  80 107 140 179 222 264 319
#     4   9  20  39  53  81 113 138 182 224 261 325
#
# _framework density 22.320577
#
# number of rings (size 3 to 8) (size 9 to 14) (size 15 to 20)
#    0.857    1.429    0.000    3.000    0.000    1.143 
#    2.571    0.000   12.571    0.000    0.000    0.000 
#    0.000    0.000    0.000    0.000    0.000    0.000 
#
# Total GULP energy -156085.497363 kJ/mol
# GULP energy per Si atom -5574.482049 kJ/mol
# Density = 2.226977 g / cm^3
# Si number density = 22.320577 Si / 1000 Ang^3
#
#
#
# Elastic Constant Matrix: (Units=GPa)
#
#
# Indices 1 2 3 4 5 6 
#
# 1 48.9497 -4.6453 3.9981 0.0000 1.2713 0.0000
# 2 -4.6453 63.6328 -12.6423 0.0000 -1.6350 0.0000
# 3 3.9981 -12.6423 41.7325 0.0000 -8.7329 0.0000
# 4 0.0000 0.0000 0.0000 15.8231 0.0000 4.1072
# 5 1.2713 -1.6350 -8.7329 0.0000 19.6240 0.0000
# 6 0.0000 0.0000 0.0000 4.1072 0.0000 15.6862
#
#
#
# Elastic Compliance Matrix: (Units=1/GPa)
#
#
# Indices 1 2 3 4 5 6 
#
# 1 0.020759 0.001034 -0.002138 0.000000 -0.002210 0.000000
# 2 0.001034 0.017066 0.005904 0.000000 0.003982 0.000000
# 3 -0.002138 0.005904 0.028766 0.000000 0.013432 0.000000
# 4 0.000000 0.000000 0.000000 0.067807 0.000000 -0.017754
# 5 -0.002210 0.003982 0.013432 0.000000 0.057410 0.000000
# 6 0.000000 0.000000 0.000000 -0.017754 0.000000 0.068399
#
#
# Mechanical properties :
#
#
# Convention : Reuss Voigt Hill
#
# Bulk Modulus (GPa) = 13.12480 14.19288 13.65884
# Shear Modulus (GPa) = 18.11560 21.40029 19.75795
#
# Velocity S-wave (km/s) = 2.85197 3.09976 2.97844
# Velocity P-wave (km/s) = 4.09119 4.37993 4.23802
#
# Compressibility (1/GPa) = 0.07619161
#
# Stress axis : x y z
#
# Youngs Moduli (GPa) = 48.17122 58.59606 34.76294
#
# Poissons Ratio (x) = -0.06058 0.07433
# Poissons Ratio (y) = -0.04980 -0.20525
# Poissons Ratio (z) = 0.10299 -0.34596
#
# Static dielectric constant tensor:
#      x y z
#    x 1.773440 0.000000 -0.023750 
#    y 0.000000 1.848180 0.000000 
#    z -0.023750 0.000000 1.887480 
# 
# From -- ./inp_files/6899.got.cif
#   From: 2010.05.17/outbox.cif.g08.bks.cpg/sg14_4_cif.got.tgz:6899.got - 2010.06.03 17:49:19.
