data_PCOD9240154
_publ_section_title
;
Structure prediction by ZEFSAII (Michael W. Deem and Ramdas Pophale) SiO2 
 PCOD9240154
Probable space group: P 21/C
;
_chemical_formula_sum "Si O2"
_cell_formula_units_Z 32
_cell_length_a 19.537266
_cell_length_b 8.591568
_cell_length_c 25.254132
_cell_angle_alpha 90.000000
_cell_angle_beta 21.078095
_cell_angle_gamma 90.000000
_cell_volume 1524.532817
_symmetry_space_group_name_H-M "P 21/C"
_symmetry_group_IT_number 14
_symmetry_cell_setting 'monoclinic'
loop_
_space_group_symop_operation_xyz
x,y,z
-x,1/2+y,1/2-z
-x,-y,-z
x,1/2-y,1/2+z
loop_
_atom_site_type_symbol
_atom_site_label
_atom_site_fract_x
_atom_site_fract_y
_atom_site_fract_z
Si Si1 0.745076 0.019553 0.078024
Si Si2 0.697814 0.982903 0.580218
Si Si3 0.615783 0.772631 0.054276
Si Si4 0.102361 0.525532 0.650782
Si Si5 0.963451 0.362674 0.568041
Si Si6 0.560422 0.019786 0.396062
Si Si7 0.259828 0.650443 0.058260
Si Si8 0.786798 0.342563 0.112532
O O1 0.520195 0.998227 0.244218
O O2 0.782117 0.180389 0.082789
O O3 0.852296 0.874753 0.028271
O O4 0.827316 0.035956 0.960266
O O5 0.735866 0.110421 0.507076
O O6 0.820301 0.023961 0.544148
O O7 0.699587 0.823630 0.544268
O O8 0.542579 0.654509 0.063014
O O9 0.425381 0.861707 0.210394
O O10 0.773113 0.884027 0.916670
O O11 0.164317 0.682582 0.634985
O O12 0.884265 0.475583 0.812222
O O13 0.779756 0.428820 0.732395
O O14 0.919760 0.205376 0.566523
O O15 0.000000 0.500000 0.500000
O O16 0.500000 0.000000 0.500000
O O17 0.471982 0.869855 0.428965
#
# Coordination Sequence:
#
# PCOD9240154 Si02
#       8
#     4   4   4   4   4   4   4   4
#     4  10  19  33  61  88 115 160 195 240 292 360
#     4  10  18  35  57  89 116 148 205 245 309 348
#     4   9  20  34  56  86 113 153 196 253 293 361
#     4  12  22  38  56  86 120 149 204 252 306 345
#     4   9  18  32  54  87 120 150 201 233 286 360
#     4  10  20  39  60  82 115 159 204 239 299 362
#     4  11  23  35  57  88 119 155 197 256 295 357
#     4   9  16  32  55  87 113 147 192 250 289 345
#
# _framework density 20.990036
#
# number of rings (size 3 to 8) (size 9 to 14) (size 15 to 20)
#    0.000    2.000    2.500    4.500    0.000    0.000 
#    0.000    0.625    0.000    0.750    3.250    2.625 
#    0.000    0.000    0.000    0.000    0.000    0.000 
#
# Total GULP energy -178339.946180 kJ/mol
# GULP energy per Si atom -5573.123318 kJ/mol
# Density = 2.094226 g / cm^3
# Si number density = 20.990036 Si / 1000 Ang^3
#
#
#
# Elastic Constant Matrix: (Units=GPa)
#
#
# Indices 1 2 3 4 5 6 
#
# 1 48.8535 20.9874 33.3256 0.0000 6.9907 0.0000
# 2 20.9874 44.6056 -5.7913 0.0000 -7.6189 0.0000
# 3 33.3256 -5.7913 33.3594 0.0000 23.1236 0.0000
# 4 0.0000 0.0000 0.0000 19.9435 0.0000 5.5574
# 5 6.9907 -7.6189 23.1236 0.0000 31.3807 0.0000
# 6 0.0000 0.0000 0.0000 5.5574 0.0000 12.8704
#
#
#
# Elastic Compliance Matrix: (Units=1/GPa)
#
#
# Indices 1 2 3 4 5 6 
#
# 1 -0.072964 0.039235 0.126387 0.000000 -0.067351 0.000000
# 2 0.039235 0.002291 -0.067709 0.000000 0.041709 0.000000
# 3 0.126387 -0.067709 -0.157649 0.000000 0.071573 0.000000
# 4 0.000000 0.000000 0.000000 0.057000 0.000000 -0.024612
# 5 -0.067351 0.041709 0.071573 0.000000 0.004257 0.000000
# 6 0.000000 0.000000 0.000000 -0.024612 0.000000 0.088325
#
#
# Mechanical properties :
#
#
# Convention : Reuss Voigt Hill
#
# Bulk Modulus (GPa) = -30.77350 24.87355 -2.94998
# Shear Modulus (GPa) = -17.51942 18.05871 0.26965
#
# Velocity S-wave (km/s) = -2.89217 2.93635 0.35881
# Velocity P-wave (km/s) = 5.08387 4.83447 1.11212
#
# Compressibility (1/GPa) = -0.03249549
#
# Stress axis : x y z
#
# Youngs Moduli (GPa) = -13.70544 436.44344 -6.34320
#
# Poissons Ratio (x) = -17.12405 0.80170
# Poissons Ratio (y) = 0.53774 -0.42949
# Poissons Ratio (z) = 1.73219 29.55127
#
# Static dielectric constant tensor:
#      x y z
#    x 1.789380 0.000000 -0.018470 
#    y 0.000000 1.820060 0.000000 
#    z -0.018470 0.000000 1.748410 
# 
# From -- ./inp_files/77982.got.cif
#   From: 2010.05.17/outbox.cif.g08.bks.cpg/sg14_39_cif.got.tgz:77982.got - 2010.06.03 17:49:19.
