data_PCOD9240725
_publ_section_title
;
Structure prediction by ZEFSAII (Michael W. Deem and Ramdas Pophale) SiO2 
 PCOD9240725
Probable space group: P 21/C
;
_chemical_formula_sum "Si O2"
_cell_formula_units_Z 32
_cell_length_a 12.056938
_cell_length_b 12.424401
_cell_length_c 24.665653
_cell_angle_alpha 90.000000
_cell_angle_beta 153.486937
_cell_angle_gamma 90.000000
_cell_volume 1649.419333
_symmetry_space_group_name_H-M "P 21/C"
_symmetry_group_IT_number 14
_symmetry_cell_setting 'monoclinic'
loop_
_space_group_symop_operation_xyz
x,y,z
-x,1/2+y,1/2-z
-x,-y,-z
x,1/2-y,1/2+z
loop_
_atom_site_type_symbol
_atom_site_label
_atom_site_fract_x
_atom_site_fract_y
_atom_site_fract_z
Si Si1 0.632567 0.620531 0.312553
Si Si2 0.834263 0.165333 0.329799
Si Si3 0.263806 0.583837 0.704264
Si Si4 0.142108 0.455911 0.880842
Si Si5 0.964431 0.841322 0.369022
Si Si6 0.178548 0.352370 0.078238
Si Si7 0.473178 0.711416 0.129049
Si Si8 0.330649 0.492161 0.848044
O O1 0.437118 0.614503 0.276645
O O2 0.782973 0.514876 0.358470
O O3 0.798881 0.723633 0.400529
O O4 0.472490 0.659674 0.189449
O O5 0.833282 0.294150 0.339688
O O6 0.958330 0.131120 0.327348
O O7 0.009462 0.124043 0.453904
O O8 0.555141 0.601561 0.820484
O O9 0.214359 0.544884 0.743787
O O10 0.055481 0.569868 0.867137
O O11 0.154974 0.467457 0.821885
O O12 0.428635 0.440180 0.026071
O O13 0.196732 0.761298 0.485950
O O14 0.910885 0.895654 0.403491
O O15 0.702125 0.793866 0.234154
O O16 0.564078 0.619814 0.128105
#
# Coordination Sequence:
#
# PCOD9240725 Si02
#       8
#     4   4   4   4   4   4   4   4
#     4   9  19  33  50  80 109 142 177 221 277 329
#     4  11  20  32  54  81 106 144 183 225 278 332
#     4  10  20  34  54  75 110 147 177 228 280 327
#     4  10  20  33  55  78 101 139 191 234 274 325
#     4  10  19  33  55  82 109 143 178 231 277 334
#     4  10  19  32  52  80 112 137 181 228 269 335
#     4   9  18  33  56  79 107 140 183 226 278 329
#     4   9  19  36  53  76 103 139 187 236 274 328
#
# _framework density 19.400766000000001
#
# number of rings (size 3 to 8) (size 9 to 14) (size 15 to 20)
#    0.000    2.250    2.500    0.750    0.000    2.500 
#    0.000    0.000    5.500    0.750    0.000    0.000 
#    0.000    0.000    0.000    0.000    0.000    0.000 
#
# Total GULP energy -178158.786905 kJ/mol
# GULP energy per Si atom -5567.462091 kJ/mol
# Density = 1.935661 g / cm^3
# Si number density = 19.400766 Si / 1000 Ang^3
#
#
#
# Elastic Constant Matrix: (Units=GPa)
#
#
# Indices 1 2 3 4 5 6 
#
# 1 144.6136 24.2342 16.8928 0.0000 -4.3521 0.0000
# 2 24.2342 88.0457 27.0061 0.0000 2.9722 0.0000
# 3 16.8928 27.0061 45.8964 0.0000 3.7061 0.0000
# 4 0.0000 0.0000 0.0000 0.1491 0.0000 -5.3314
# 5 -4.3521 2.9722 3.7061 0.0000 19.5080 0.0000
# 6 0.0000 0.0000 0.0000 -5.3314 0.0000 20.8368
#
#
#
# Elastic Compliance Matrix: (Units=1/GPa)
#
#
# Indices 1 2 3 4 5 6 
#
# 1 0.007476 -0.001506 -0.002050 0.000000 0.002287 0.000000
# 2 -0.001506 0.014169 -0.007699 0.000000 -0.001032 0.000000
# 3 -0.002050 -0.007699 0.027436 0.000000 -0.004497 0.000000
# 4 0.000000 0.000000 0.000000 -0.823004 0.000000 -0.210579
# 5 0.002287 -0.001032 -0.004497 0.000000 0.052783 0.000000
# 6 0.000000 0.000000 0.000000 -0.210579 0.000000 -0.005888
#
#
# Mechanical properties :
#
#
# Convention : Reuss Voigt Hill
#
# Bulk Modulus (GPa) = 37.63681 46.09134 41.86408
# Shear Modulus (GPa) = -7.18740 22.12696 7.46978
#
# Velocity S-wave (km/s) = -1.92685 3.38082 1.96433
# Velocity P-wave (km/s) = 3.80676 6.24892 5.17400
#
# Compressibility (1/GPa) = 0.02656973
#
# Stress axis : x y z
#
# Youngs Moduli (GPa) = 133.76780 70.57792 36.44808
#
# Poissons Ratio (x) = 0.10629 0.07472
# Poissons Ratio (y) = 0.20146 0.28063
# Poissons Ratio (z) = 0.27422 0.54341
#
# Static dielectric constant tensor:
#      x y z
#    x 1.685110 0.000000 0.023030 
#    y 0.000000 1.755420 0.000000 
#    z 0.023030 0.000000 1.729210 
# 
# From -- ./inp_files/33928.got.cif
#   From: 2010.05.17/outbox.cif.g08.bks.cpg/sg14_17_cif.got.tgz:33928.got - 2010.06.03 17:49:19.
