data_PCOD9240025
_publ_section_title
;
Structure prediction by ZEFSAII (Michael W. Deem and Ramdas Pophale) SiO2 
 PCOD9240025
Probable space group: P 21/C
;
_chemical_formula_sum "Si O2"
_cell_formula_units_Z 20
_cell_length_a 9.360242
_cell_length_b 10.147596
_cell_length_c 9.541850
_cell_angle_alpha 90.000000
_cell_angle_beta 83.358540
_cell_angle_gamma 90.000000
_cell_volume 900.240617
_symmetry_space_group_name_H-M "P 21/C"
_symmetry_group_IT_number 14
_symmetry_cell_setting 'monoclinic'
loop_
_space_group_symop_operation_xyz
x,y,z
-x,1/2+y,1/2-z
-x,-y,-z
x,1/2-y,1/2+z
loop_
_atom_site_type_symbol
_atom_site_label
_atom_site_fract_x
_atom_site_fract_y
_atom_site_fract_z
Si Si1 0.340220 0.017015 0.072571
Si Si2 0.114077 0.016926 0.681256
Si Si3 0.911082 0.638208 0.544672
Si Si4 0.189199 0.697013 0.405175
Si Si5 0.782035 0.010317 0.630906
O O1 0.323519 0.045006 0.239036
O O2 0.262505 0.882844 0.024211
O O3 0.500000 0.000000 0.000000
O O4 0.242139 0.127861 0.009390
O O5 0.177325 0.897143 0.770218
O O6 0.206118 0.034358 0.530914
O O7 0.112452 0.140154 0.787681
O O8 0.945425 0.990536 0.669937
O O9 0.000000 0.500000 0.500000
O O10 0.027812 0.737862 0.473853
O O11 0.259653 0.835446 0.366516
#
# Coordination Sequence:
#
# PCOD9240025 Si02
#       5
#     4   4   4   4   4
#     4  10  19  35  57  71 113 150 171 215 278 329
#     4   9  18  30  52  84 107 126 182 237 253 297
#     4   8  15  34  50  75 104 140 174 212 271 300
#     4  10  18  34  56  79 107 142 186 215 262 322
#     4  11  18  30  57  86 103 140 186 219 264 315
#
# _framework density 22.216283000000001
#
# number of rings (size 3 to 8) (size 9 to 14) (size 15 to 20)
#    0.000    2.800    6.000    1.200    0.000    0.000 
#    0.000    4.000   17.600    0.000    0.000    0.000 
#    0.000    0.000    0.000    0.000    0.000    0.000 
#
# Total GULP energy -111494.539930 kJ/mol
# GULP energy per Si atom -5574.726996 kJ/mol
# Density = 2.216572 g / cm^3
# Si number density = 22.216283 Si / 1000 Ang^3
#
#
#
# Elastic Constant Matrix: (Units=GPa)
#
#
# Indices 1 2 3 4 5 6 
#
# 1 97.8953 -4.3490 45.5114 0.0000 -31.0486 0.0000
# 2 -4.3490 31.8758 -1.5593 0.0000 3.0513 0.0000
# 3 45.5114 -1.5593 205.7743 0.0000 -33.3218 0.0000
# 4 0.0000 0.0000 0.0000 21.0271 0.0000 0.1351
# 5 -31.0486 3.0513 -33.3218 0.0000 28.8389 0.0000
# 6 0.0000 0.0000 0.0000 0.1351 0.0000 5.3653
#
#
#
# Elastic Compliance Matrix: (Units=1/GPa)
#
#
# Indices 1 2 3 4 5 6 
#
# 1 0.015657 0.000585 -0.000909 0.000000 0.015745 0.000000
# 2 0.000585 0.031738 -0.000407 0.000000 -0.003199 0.000000
# 3 -0.000909 -0.000407 0.006035 0.000000 0.006038 0.000000
# 4 0.000000 0.000000 0.000000 0.047565 0.000000 -0.001198
# 5 0.015745 -0.003199 0.006038 0.000000 0.058942 0.000000
# 6 0.000000 0.000000 0.000000 -0.001198 0.000000 0.186412
#
#
# Mechanical properties :
#
#
# Convention : Reuss Voigt Hill
#
# Bulk Modulus (GPa) = 19.24246 46.08350 32.66298
# Shear Modulus (GPa) = 13.69359 30.77575 22.23467
#
# Velocity S-wave (km/s) = 2.48539 3.72597 3.16702
# Velocity P-wave (km/s) = 4.11296 6.26886 5.30165
#
# Compressibility (1/GPa) = 0.05196840
#
# Stress axis : x y z
#
# Youngs Moduli (GPa) = 63.86854 31.50814 165.68904
#
# Poissons Ratio (x) = -0.01842 0.15059
# Poissons Ratio (y) = -0.03734 0.06739
# Poissons Ratio (z) = 0.05805 0.01282
#
# Static dielectric constant tensor:
#      x y z
#    x 1.814850 0.000000 -0.010530 
#    y 0.000000 1.999260 0.000000 
#    z -0.010530 0.000000 1.892040 
# 
# From -- ./inp_files/7921.got.cif
#   From: 2010.05.17/outbox.cif.g08.bks.cpg/sg14_4_cif.got.tgz:7921.got - 2010.06.03 17:49:19.
