data_PCOD9240863
_publ_section_title
;
Structure prediction by ZEFSAII (Michael W. Deem and Ramdas Pophale) SiO2 
 PCOD9240863
Probable space group: P 21/C
;
_chemical_formula_sum "Si O2"
_cell_formula_units_Z 20
_cell_length_a 23.996860
_cell_length_b 7.257345
_cell_length_c 5.349687
_cell_angle_alpha 90.000000
_cell_angle_beta 74.720665
_cell_angle_gamma 90.000000
_cell_volume 898.734610
_symmetry_space_group_name_H-M "P 21/C"
_symmetry_group_IT_number 14
_symmetry_cell_setting 'monoclinic'
loop_
_space_group_symop_operation_xyz
x,y,z
-x,1/2+y,1/2-z
-x,-y,-z
x,1/2-y,1/2+z
loop_
_atom_site_type_symbol
_atom_site_label
_atom_site_fract_x
_atom_site_fract_y
_atom_site_fract_z
Si Si1 0.778572 0.874680 0.148607
Si Si2 0.332588 0.629632 0.174794
Si Si3 0.978770 0.291281 0.018527
Si Si4 0.555883 0.629171 0.910349
Si Si5 0.105708 0.346921 0.338844
O O1 0.774606 0.728580 0.385189
O O2 0.842007 0.968917 0.118068
O O3 0.726691 0.016127 0.234245
O O4 0.335505 0.769956 0.403962
O O5 0.386384 0.491581 0.135538
O O6 0.945202 0.254814 0.806497
O O7 0.035832 0.157433 0.946365
O O8 0.000000 0.500000 0.000000
O O9 0.554970 0.729656 0.643642
O O10 0.500000 0.500000 0.000000
O O11 0.115464 0.181497 0.532736
#
# Coordination Sequence:
#
# PCOD9240863 Si02
#       5
#     4   4   4   4   4
#     4  10  19  36  60  81 107 151 195 231 283 349
#     4  12  24  39  59  89 121 152 194 247 294 343
#     4  10  19  33  55  81 110 145 185 230 282 342
#     4  12  24  42  64  90 122 160 200 242 293 348
#     4   8  16  30  53  75 101 140 185 224 271 336
#
# _framework density 22.253512000000001
#
# number of rings (size 3 to 8) (size 9 to 14) (size 15 to 20)
#    0.000    1.600    0.000    6.000    0.000    0.000 
#    0.000    0.000    0.000   64.800    0.000    0.000 
#    0.000    0.000    0.000    0.000    0.000    0.000 
#
# Total GULP energy -111491.923997 kJ/mol
# GULP energy per Si atom -5574.596200 kJ/mol
# Density = 2.220286 g / cm^3
# Si number density = 22.253512 Si / 1000 Ang^3
#
#
#
# Elastic Constant Matrix: (Units=GPa)
#
#
# Indices 1 2 3 4 5 6 
#
# 1 125.2887 27.7529 -13.7231 0.0000 -13.7442 0.0000
# 2 27.7529 49.2169 7.5297 0.0000 -6.1973 0.0000
# 3 -13.7231 7.5297 131.3534 0.0000 20.0889 0.0000
# 4 0.0000 0.0000 0.0000 53.4528 0.0000 -1.7184
# 5 -13.7442 -6.1973 20.0889 0.0000 35.3577 0.0000
# 6 0.0000 0.0000 0.0000 -1.7184 0.0000 41.0563
#
#
#
# Elastic Compliance Matrix: (Units=1/GPa)
#
#
# Indices 1 2 3 4 5 6 
#
# 1 0.009485 -0.005212 0.000948 0.000000 0.002235 0.000000
# 2 -0.005212 0.024090 -0.002477 0.000000 0.003603 0.000000
# 3 0.000948 -0.002477 0.008612 0.000000 -0.004959 0.000000
# 4 0.000000 0.000000 0.000000 0.018733 0.000000 0.000784
# 5 0.002235 0.003603 -0.004959 0.000000 0.032600 0.000000
# 6 0.000000 0.000000 0.000000 0.000784 0.000000 0.024390
#
#
# Mechanical properties :
#
#
# Convention : Reuss Voigt Hill
#
# Bulk Modulus (GPa) = 34.83604 38.77532 36.80568
# Shear Modulus (GPa) = 35.47087 44.92667 40.19877
#
# Velocity S-wave (km/s) = 3.99676 4.49804 4.25479
# Velocity P-wave (km/s) = 6.08169 6.66624 6.38066
#
# Compressibility (1/GPa) = 0.02870590
#
# Stress axis : x y z
#
# Youngs Moduli (GPa) = 105.42825 41.51117 116.11098
#
# Poissons Ratio (x) = 0.21636 -0.11007
# Poissons Ratio (y) = 0.54951 0.28756
# Poissons Ratio (z) = -0.09994 0.10280
#
# Static dielectric constant tensor:
#      x y z
#    x 1.859910 0.000000 -0.012090 
#    y 0.000000 1.980110 0.000000 
#    z -0.012090 0.000000 1.890940 
# 
# From -- ./inp_files/4506.got.cif
#   From: 2010.05.17/outbox.cif.g08.bks.cpg/sg14_3_cif.got.tgz:4506.got - 2010.06.03 17:49:19.
