data_PCOD9240650
_publ_section_title
;
Structure prediction by ZEFSAII (Michael W. Deem and Ramdas Pophale) SiO2 
 PCOD9240650
Probable space group: P 21/C
;
_chemical_formula_sum "Si O2"
_cell_formula_units_Z 24
_cell_length_a 11.640793
_cell_length_b 17.621990
_cell_length_c 7.683357
_cell_angle_alpha 90.000000
_cell_angle_beta 109.269929
_cell_angle_gamma 90.000000
_cell_volume 1487.814185
_symmetry_space_group_name_H-M "P 21/C"
_symmetry_group_IT_number 14
_symmetry_cell_setting 'monoclinic'
loop_
_space_group_symop_operation_xyz
x,y,z
-x,1/2+y,1/2-z
-x,-y,-z
x,1/2-y,1/2+z
loop_
_atom_site_type_symbol
_atom_site_label
_atom_site_fract_x
_atom_site_fract_y
_atom_site_fract_z
Si Si1 0.808799 0.455207 0.904399
Si Si2 0.057293 0.118890 0.528647
Si Si3 0.771473 0.668577 0.588810
Si Si4 0.359009 0.009589 0.975793
Si Si5 0.228527 0.168577 0.317338
Si Si6 0.359009 0.009589 0.383216
O O1 0.723474 0.458347 0.691993
O O2 0.912720 0.391526 0.956360
O O3 0.882140 0.535040 0.941068
O O4 0.723475 0.458347 0.031482
O O5 0.112846 0.158560 0.726965
O O6 0.112846 0.158559 0.385882
O O7 0.683435 0.596822 0.576563
O O8 0.804738 0.667235 0.402369
O O9 0.714665 0.750000 0.607332
O O10 0.339180 0.993011 0.169590
O O11 0.500000 0.000000 0.000000
O O12 0.316565 0.096822 0.393128
O O13 0.500000 0.000000 0.500000
#
# Coordination Sequence:
#
# PCOD9240650 Si02
#       6
#     4   4   4   4   4   4
#     4   9  18  32  49  72 102 131 159 208 257 291
#     4   9  18  32  49  72 102 127 163 208 253 302
#     4  10  19  31  51  78  99 131 172 214 257 300
#     4  10  19  31  51  78 104 132 172 212 251 305
#     4  10  19  31  51  78  99 131 172 214 257 300
#     4  10  19  31  51  78 104 132 172 212 251 305
#
# _framework density 16.131046999999999
#
# number of rings (size 3 to 8) (size 9 to 14) (size 15 to 20)
#    0.000    2.333    3.333    0.000    0.000    1.333 
#    0.000    6.667    0.000    2.000    0.000    0.000 
#    0.000    0.000    0.000    0.000    0.000    0.000 
#
# Total GULP energy -133667.128923 kJ/mol
# GULP energy per Si atom -5569.463705 kJ/mol
# Density = 1.609433 g / cm^3
# Si number density = 16.131047 Si / 1000 Ang^3
#
#
#
# Elastic Constant Matrix: (Units=GPa)
#
#
# Indices 1 2 3 4 5 6 
#
# 1 120.4353 36.9492 77.1679 0.0000 3.6672 0.0000
# 2 36.9492 53.3561 39.9454 0.0000 -1.9613 0.0000
# 3 77.1679 39.9454 125.5710 0.0000 -7.0279 0.0000
# 4 0.0000 0.0000 0.0000 19.5091 0.0000 -2.3612
# 5 3.6672 -1.9613 -7.0279 0.0000 25.8320 0.0000
# 6 0.0000 0.0000 0.0000 -2.3612 0.0000 15.9011
#
#
#
# Elastic Compliance Matrix: (Units=1/GPa)
#
#
# Indices 1 2 3 4 5 6 
#
# 1 0.014976 -0.004537 -0.008020 0.000000 -0.004652 0.000000
# 2 -0.004537 0.025977 -0.005411 0.000000 0.001144 0.000000
# 3 -0.008020 -0.005411 0.014881 0.000000 0.004776 0.000000
# 4 0.000000 0.000000 0.000000 0.052196 0.000000 0.007751
# 5 -0.004652 0.001144 0.004776 0.000000 0.040758 0.000000
# 6 0.000000 0.000000 0.000000 0.007751 0.000000 0.064040
#
#
# Mechanical properties :
#
#
# Convention : Reuss Voigt Hill
#
# Bulk Modulus (GPa) = 50.25996 67.49860 58.87928
# Shear Modulus (GPa) = 19.57727 21.93510 20.75618
#
# Velocity S-wave (km/s) = 3.48751 3.69156 3.59098
# Velocity P-wave (km/s) = 6.88781 7.75273 7.33303
#
# Compressibility (1/GPa) = 0.01989655
#
# Stress axis : x y z
#
# Youngs Moduli (GPa) = 66.77443 38.49504 67.19987
#
# Poissons Ratio (x) = 0.17467 0.53895
# Poissons Ratio (y) = 0.30298 0.36363
# Poissons Ratio (z) = 0.53554 0.20831
#
# Static dielectric constant tensor:
#      x y z
#    x 1.524380 0.000000 -0.015550 
#    y 0.000000 1.564470 0.000000 
#    z -0.015550 0.000000 1.548130 
# 
# From -- ./inp_files/13616.got.cif
#   From: 2010.05.17/outbox.cif.g08.bks.cpg/sg14_7_cif.got.tgz:13616.got - 2010.06.03 17:49:19.
