data_PCOD9240983
_publ_section_title
;
Structure prediction by ZEFSAII (Michael W. Deem and Ramdas Pophale) SiO2 
 PCOD9240983
Probable space group: P 21/C
;
_chemical_formula_sum "Si O2"
_cell_formula_units_Z 24
_cell_length_a 8.756334
_cell_length_b 8.114148
_cell_length_c 25.339286
_cell_angle_alpha 90.000000
_cell_angle_beta 150.970276
_cell_angle_gamma 90.000000
_cell_volume 873.649146
_symmetry_space_group_name_H-M "P 21/C"
_symmetry_group_IT_number 14
_symmetry_cell_setting 'monoclinic'
loop_
_space_group_symop_operation_xyz
x,y,z
-x,1/2+y,1/2-z
-x,-y,-z
x,1/2-y,1/2+z
loop_
_atom_site_type_symbol
_atom_site_label
_atom_site_fract_x
_atom_site_fract_y
_atom_site_fract_z
Si Si1 0.995292 0.855569 0.304238
Si Si2 0.890356 0.825304 0.007036
Si Si3 0.736588 0.532318 0.267497
Si Si4 0.635805 0.341863 0.744139
Si Si5 0.632689 0.503496 0.952099
Si Si6 0.369191 0.851999 0.058404
O O1 0.983717 0.667506 0.320583
O O2 0.744745 0.856933 0.179284
O O3 0.850918 0.000722 0.296441
O O4 0.337028 0.917046 0.391998
O O5 0.602550 0.821670 0.877724
O O6 0.893572 0.643890 0.031994
O O7 0.784680 0.981702 0.010257
O O8 0.201989 0.849908 0.066205
O O9 0.577084 0.615526 0.270055
O O10 0.793786 0.338447 0.295700
O O11 0.484137 0.526486 0.143016
O O12 0.716891 0.319519 0.995415
#
# Coordination Sequence:
#
# PCOD9240983 Si02
#       6
#     4   4   4   4   4   4
#     4  10  21  33  53  86 106 136 182 226 272 306
#     4   9  19  34  54  79 108 141 181 216 269 326
#     4  10  20  32  52  80 109 141 176 225 263 320
#     4  10  19  34  53  78 109 142 180 219 266 321
#     4  10  21  32  56  84 107 137 180 229 270 307
#     4   9  19  33  52  79 110 140 174 225 265 321
#
# _framework density 27.470984000000001
#
# number of rings (size 3 to 8) (size 9 to 14) (size 15 to 20)
#    0.000    2.333    1.667    0.500   14.000    0.000 
#    0.000    0.000    0.000    2.000    0.000    0.000 
#    0.000    0.000    0.000    0.000    0.000    0.000 
#
# Total GULP energy -134485.461947 kJ/mol
# GULP energy per Si atom -5603.560914 kJ/mol
# Density = 2.740846 g / cm^3
# Si number density = 27.470984 Si / 1000 Ang^3
#
#
#
# Elastic Constant Matrix: (Units=GPa)
#
#
# Indices 1 2 3 4 5 6 
#
# 1 58.4017 50.8645 19.1266 0.0000 13.9400 0.0000
# 2 50.8645 287.5249 55.7304 0.0000 -3.1492 0.0000
# 3 19.1266 55.7304 74.8945 0.0000 2.6279 0.0000
# 4 0.0000 0.0000 0.0000 63.0124 0.0000 -2.1532
# 5 13.9400 -3.1492 2.6279 0.0000 46.5388 0.0000
# 6 0.0000 0.0000 0.0000 -2.1532 0.0000 45.7296
#
#
#
# Elastic Compliance Matrix: (Units=1/GPa)
#
#
# Indices 1 2 3 4 5 6 
#
# 1 0.022822 -0.003541 -0.002951 0.000000 -0.006909 0.000000
# 2 -0.003541 0.004623 -0.002589 0.000000 0.001520 0.000000
# 3 -0.002951 -0.002589 0.016039 0.000000 -0.000197 0.000000
# 4 0.000000 0.000000 0.000000 0.015895 0.000000 0.000748
# 5 -0.006909 0.001520 -0.000197 0.000000 0.023671 0.000000
# 6 0.000000 0.000000 0.000000 0.000748 0.000000 0.021903
#
#
# Mechanical properties :
#
#
# Convention : Reuss Voigt Hill
#
# Bulk Modulus (GPa) = 39.49071 74.69599 57.09335
# Shear Modulus (GPa) = 38.00645 50.72947 44.36796
#
# Velocity S-wave (km/s) = 3.72360 4.30194 4.02317
# Velocity P-wave (km/s) = 5.73529 7.20593 6.51226
#
# Compressibility (1/GPa) = 0.02532241
#
# Stress axis : x y z
#
# Youngs Moduli (GPa) = 43.81647 216.31670 62.34751
#
# Poissons Ratio (x) = 0.76600 0.18399
# Poissons Ratio (y) = 0.15516 0.16141
# Poissons Ratio (z) = 0.12930 0.56003
#
# Static dielectric constant tensor:
#      x y z
#    x 2.132980 0.000000 -0.082440 
#    y 0.000000 2.195410 0.000000 
#    z -0.082440 0.000000 2.144850 
# 
# From -- ./inp_files/60108.got.cif
#   From: 2010.05.17/outbox.cif.g08.bks.cpg/sg14_31_cif.got.tgz:60108.got - 2010.06.03 17:49:19.
