data_PCOD9240048
_publ_section_title
;
Structure prediction by ZEFSAII (Michael W. Deem and Ramdas Pophale) SiO2 
 PCOD9240048
Probable space group: P 21/C
;
_chemical_formula_sum "Si O2"
_cell_formula_units_Z 32
_cell_length_a 9.449490
_cell_length_b 11.123484
_cell_length_c 14.690643
_cell_angle_alpha 90.000000
_cell_angle_beta 59.699634
_cell_angle_gamma 90.000000
_cell_volume 1333.208870
_symmetry_space_group_name_H-M "P 21/C"
_symmetry_group_IT_number 14
_symmetry_cell_setting 'monoclinic'
loop_
_space_group_symop_operation_xyz
x,y,z
-x,1/2+y,1/2-z
-x,-y,-z
x,1/2-y,1/2+z
loop_
_atom_site_type_symbol
_atom_site_label
_atom_site_fract_x
_atom_site_fract_y
_atom_site_fract_z
Si Si1 0.707936 0.549479 0.685674
Si Si2 0.852619 0.692453 0.155451
Si Si3 0.216684 0.722446 0.063809
Si Si4 0.340270 0.541649 0.760297
Si Si5 0.444523 0.386468 0.071519
Si Si6 0.168271 0.275229 0.616834
Si Si7 0.304281 0.519405 0.564757
Si Si8 0.807252 0.287731 0.708265
O O1 0.797065 0.676969 0.633902
O O2 0.536240 0.527761 0.689648
O O3 0.644121 0.575342 0.808536
O O4 0.796173 0.419605 0.665911
O O5 0.742427 0.575439 0.164387
O O6 0.836995 0.709258 0.270995
O O7 0.047219 0.671564 0.079622
O O8 0.225270 0.864825 0.046116
O O9 0.225174 0.697722 0.171286
O O10 0.387027 0.681431 0.966222
O O11 0.265182 0.534537 0.683967
O O12 0.305084 0.681401 0.796042
O O13 0.318087 0.312399 0.051724
O O14 0.500000 0.500000 0.000000
O O15 0.214979 0.402089 0.559691
O O16 0.991490 0.237162 0.641765
O O17 0.500000 0.500000 0.500000
#
# Coordination Sequence:
#
# PCOD9240048 Si02
#       8
#     4   4   4   4   4   4   4   4
#     4  11  21  38  57  80 111 151 186 218 276 334
#     4   9  20  35  57  81 109 144 185 228 266 326
#     4  10  19  34  57  85 109 136 184 233 277 312
#     4  10  22  36  57  80 109 147 185 220 269 336
#     4  11  21  33  57  84 111 143 179 232 276 323
#     4   9  19  33  56  85 106 137 186 229 271 315
#     4  10  18  34  57  83 104 139 180 230 271 315
#     4  10  20  35  58  81 108 143 185 230 264 324
#
# _framework density 24.002238999999999
#
# number of rings (size 3 to 8) (size 9 to 14) (size 15 to 20)
#    0.000    2.000    2.500    1.500    1.750    3.000 
#    0.000    0.625    2.750    1.500    0.000    0.000 
#    0.000    0.000    0.000    0.000    0.000    0.000 
#
# Total GULP energy -178650.723545 kJ/mol
# GULP energy per Si atom -5582.835111 kJ/mol
# Density = 2.394761 g / cm^3
# Si number density = 24.002239 Si / 1000 Ang^3
#
#
#
# Elastic Constant Matrix: (Units=GPa)
#
#
# Indices 1 2 3 4 5 6 
#
# 1 84.2299 39.3480 18.6363 0.0000 -17.9740 0.0000
# 2 39.3480 124.3731 26.5945 0.0000 -6.7867 0.0000
# 3 18.6363 26.5945 31.7566 0.0000 -20.2818 0.0000
# 4 0.0000 0.0000 0.0000 3.0138 0.0000 -10.5845
# 5 -17.9740 -6.7867 -20.2818 0.0000 44.9903 0.0000
# 6 0.0000 0.0000 0.0000 -10.5845 0.0000 15.5139
#
#
#
# Elastic Compliance Matrix: (Units=1/GPa)
#
#
# Indices 1 2 3 4 5 6 
#
# 1 0.015273 -0.003967 -0.002986 0.000000 0.004157 0.000000
# 2 -0.003967 0.011146 -0.009753 0.000000 -0.004300 0.000000
# 3 -0.002986 -0.009753 0.055762 0.000000 0.022474 0.000000
# 4 0.000000 0.000000 0.000000 -0.237672 0.000000 -0.162153
# 5 0.004157 -0.004300 0.022474 0.000000 0.033371 0.000000
# 6 0.000000 0.000000 0.000000 -0.162153 0.000000 -0.046172
#
#
# Mechanical properties :
#
#
# Convention : Reuss Voigt Hill
#
# Bulk Modulus (GPa) = 20.50396 45.50190 33.00293
# Shear Modulus (GPa) = -42.15008 23.08900 -9.53054
#
# Velocity S-wave (km/s) = -4.19512 3.10490 -1.99482
# Velocity P-wave (km/s) = 3.86061 5.64379 2.91102
#
# Compressibility (1/GPa) = 0.04877106
#
# Stress axis : x y z
#
# Youngs Moduli (GPa) = 65.47473 89.71853 17.93323
#
# Poissons Ratio (x) = 0.35588 0.05355
# Poissons Ratio (y) = 0.25971 0.17489
# Poissons Ratio (z) = 0.19551 0.87498
#
# Static dielectric constant tensor:
#      x y z
#    x 2.006440 0.000000 0.043840 
#    y 0.000000 1.893420 0.000000 
#    z 0.043840 0.000000 1.986200 
# 
# From -- ./inp_files/65591.got.cif
#   From: 2010.05.17/outbox.cif.g08.bks.cpg/sg14_33_cif.got.tgz:65591.got - 2010.06.03 17:49:19.
