data_PCOD9240893
_publ_section_title
;
Structure prediction by ZEFSAII (Michael W. Deem and Ramdas Pophale) SiO2 
 PCOD9240893
Probable space group: P 21/C
;
_chemical_formula_sum "Si O2"
_cell_formula_units_Z 28
_cell_length_a 13.923933
_cell_length_b 9.356681
_cell_length_c 23.288606
_cell_angle_alpha 90.000000
_cell_angle_beta 157.063009
_cell_angle_gamma 90.000000
_cell_volume 1182.437992
_symmetry_space_group_name_H-M "P 21/C"
_symmetry_group_IT_number 14
_symmetry_cell_setting 'monoclinic'
loop_
_space_group_symop_operation_xyz
x,y,z
-x,1/2+y,1/2-z
-x,-y,-z
x,1/2-y,1/2+z
loop_
_atom_site_type_symbol
_atom_site_label
_atom_site_fract_x
_atom_site_fract_y
_atom_site_fract_z
Si Si1 0.258702 0.023371 0.205806
Si Si2 0.548408 0.266689 0.392399
Si Si3 0.685950 0.973385 0.889869
Si Si4 0.663915 0.816997 0.108903
Si Si5 0.802537 0.006809 0.704140
Si Si6 0.851583 0.020513 0.604942
Si Si7 0.714088 0.801887 0.010539
O O1 0.287094 0.193712 0.232101
O O2 0.398231 0.007831 0.222281
O O3 0.336427 0.963628 0.311723
O O4 0.983046 0.964368 0.048041
O O5 0.621987 0.383754 0.388179
O O6 0.527947 0.329616 0.445094
O O7 0.737388 0.135068 0.498709
O O8 0.599231 0.847496 0.885823
O O9 0.807523 0.665080 0.198212
O O10 0.567730 0.813692 0.990530
O O11 0.865179 0.939744 0.228411
O O12 0.722514 0.053307 0.596329
O O13 0.062315 0.085214 0.857050
O O14 0.824410 0.857543 0.570643
#
# Coordination Sequence:
#
# PCOD9240893 Si02
#       7
#     4   4   4   4   4   4   4
#     4   9  20  38  58  75 103 148 187 213 259 319
#     4  11  21  35  57  82 109 142 180 223 274 325
#     4  10  21  40  59  76 110 149 179 220 268 317
#     4   9  19  35  54  79 110 142 177 221 274 325
#     4   8  16  34  57  76 105 145 180 216 270 321
#     4  10  19  33  56  84 111 137 178 230 272 322
#     4   9  18  33  55  81 108 142 179 219 273 326
#
# _framework density 23.679888999999999
#
# number of rings (size 3 to 8) (size 9 to 14) (size 15 to 20)
#    0.000    2.571    0.000    2.571    0.000    8.000 
#    0.000    8.571    0.000   12.857    0.000    0.000 
#    0.000    0.000    0.000    0.000    0.000    0.000 
#
# Total GULP energy -156099.799871 kJ/mol
# GULP energy per Si atom -5574.992853 kJ/mol
# Density = 2.362599 g / cm^3
# Si number density = 23.679889 Si / 1000 Ang^3
#
#
#
# Elastic Constant Matrix: (Units=GPa)
#
#
# Indices 1 2 3 4 5 6 
#
# 1 181.7184 46.9658 25.0713 0.0000 -56.7902 0.0000
# 2 46.9658 98.0239 14.8737 0.0000 -15.3054 0.0000
# 3 25.0713 14.8737 46.4872 0.0000 -23.7046 0.0000
# 4 0.0000 0.0000 0.0000 26.1650 0.0000 4.7719
# 5 -56.7902 -15.3054 -23.7046 0.0000 40.3521 0.0000
# 6 0.0000 0.0000 0.0000 4.7719 0.0000 21.5635
#
#
#
# Elastic Compliance Matrix: (Units=1/GPa)
#
#
# Indices 1 2 3 4 5 6 
#
# 1 0.010901 -0.003220 0.003357 0.000000 0.016093 0.000000
# 2 -0.003220 0.011921 -0.002973 0.000000 -0.001756 0.000000
# 3 0.003357 -0.002973 0.032102 0.000000 0.022455 0.000000
# 4 0.000000 0.000000 0.000000 0.039826 0.000000 -0.008813
# 5 0.016093 -0.001756 0.022455 0.000000 0.059955 0.000000
# 6 0.000000 0.000000 0.000000 -0.008813 0.000000 0.048325
#
#
# Mechanical properties :
#
#
# Convention : Reuss Voigt Hill
#
# Bulk Modulus (GPa) = 20.30345 55.56123 37.93234
# Shear Modulus (GPa) = 22.21020 33.57069 27.89045
#
# Velocity S-wave (km/s) = 3.06590 3.76930 3.43565
# Velocity P-wave (km/s) = 4.59627 6.51598 5.63842
#
# Compressibility (1/GPa) = 0.04925271
#
# Stress axis : x y z
#
# Youngs Moduli (GPa) = 91.73166 83.88423 31.15029
#
# Poissons Ratio (x) = 0.27009 -0.10457
# Poissons Ratio (y) = 0.29535 0.09262
# Poissons Ratio (z) = -0.30794 0.24942
#
# Static dielectric constant tensor:
#      x y z
#    x 1.956410 0.000000 -0.012830 
#    y 0.000000 1.907570 0.000000 
#    z -0.012830 0.000000 2.021790 
# 
# From -- ./inp_files/73657.got.cif
#   From: 2010.05.17/outbox.cif.g08.bks.cpg/sg14_37_cif.got.tgz:73657.got - 2010.06.03 17:49:19.
