data_PCOD9240941
_publ_section_title
;
Structure prediction by ZEFSAII (Michael W. Deem and Ramdas Pophale) SiO2 
 PCOD9240941
Probable space group: P 21/C
;
_chemical_formula_sum "Si O2"
_cell_formula_units_Z 32
_cell_length_a 12.196458
_cell_length_b 22.062779
_cell_length_c 7.552364
_cell_angle_alpha 90.000000
_cell_angle_beta 139.022851
_cell_angle_gamma 90.000000
_cell_volume 1332.663296
_symmetry_space_group_name_H-M "P 21/C"
_symmetry_group_IT_number 14
_symmetry_cell_setting 'monoclinic'
loop_
_space_group_symop_operation_xyz
x,y,z
-x,1/2+y,1/2-z
-x,-y,-z
x,1/2-y,1/2+z
loop_
_atom_site_type_symbol
_atom_site_label
_atom_site_fract_x
_atom_site_fract_y
_atom_site_fract_z
Si Si1 0.449009 0.829086 0.079425
Si Si2 0.068436 0.815279 0.615571
Si Si3 0.411589 0.075924 0.277251
Si Si4 0.611744 0.450119 0.365902
Si Si5 0.998207 0.936371 0.594490
Si Si6 0.088751 0.064385 0.127771
Si Si7 0.904726 0.186017 0.928705
Si Si8 0.522230 0.200850 0.468528
O O1 0.478918 0.901498 0.115910
O O2 0.466371 0.815902 0.310813
O O3 0.258488 0.821015 0.775629
O O4 0.542214 0.770030 0.117218
O O5 0.969231 0.875984 0.443235
O O6 0.999916 0.748722 0.494719
O O7 0.087060 0.818369 0.849921
O O8 0.559414 0.062536 0.598589
O O9 0.248000 0.066125 0.197277
O O10 0.426525 0.146866 0.250370
O O11 0.416045 0.021815 0.140090
O O12 0.806870 0.434140 0.610715
O O13 0.881589 0.932905 0.624347
O O14 0.000000 0.000000 0.500000
O O15 0.979344 0.123680 0.948376
O O16 0.000000 0.000000 0.000000
O O17 0.714208 0.196343 0.634485
#
# Coordination Sequence:
#
# PCOD9240941 Si02
#       8
#     4   4   4   4   4   4   4   4
#     4   8  15  30  55  78 103 136 187 224 271 328
#     4   8  16  31  54  76 106 140 181 226 272 328
#     4  10  19  33  60  83 108 146 196 235 269 328
#     4   9  18  35  60  78 111 153 187 228 279 330
#     4  10  20  37  59  84 118 150 181 234 294 332
#     4  11  21  34  55  86 110 147 193 233 271 337
#     4   9  18  33  52  80 107 141 190 231 277 333
#     4   9  17  32  57  80 104 145 185 234 276 330
#
# _framework density 24.012066000000001
#
# number of rings (size 3 to 8) (size 9 to 14) (size 15 to 20)
#    0.000    2.750    1.250    2.250    1.750    1.000 
#    0.000    6.875    5.500    0.000    0.000    0.000 
#    0.000    0.000    0.000    0.000    0.000    0.000 
#
# Total GULP energy -178364.095848 kJ/mol
# GULP energy per Si atom -5573.877995 kJ/mol
# Density = 2.395741 g / cm^3
# Si number density = 24.012066 Si / 1000 Ang^3
#
#
#
# Elastic Constant Matrix: (Units=GPa)
#
#
# Indices 1 2 3 4 5 6 
#
# 1 33.0784 57.7111 17.8665 0.0000 3.6498 0.0000
# 2 57.7111 249.0816 18.7654 0.0000 1.4432 0.0000
# 3 17.8665 18.7654 28.2696 0.0000 5.4991 0.0000
# 4 0.0000 0.0000 0.0000 33.4547 0.0000 -4.5220
# 5 3.6498 1.4432 5.4991 0.0000 16.9630 0.0000
# 6 0.0000 0.0000 0.0000 -4.5220 0.0000 36.6253
#
#
#
# Elastic Compliance Matrix: (Units=1/GPa)
#
#
# Indices 1 2 3 4 5 6 
#
# 1 0.077645 -0.015073 -0.038494 0.000000 -0.002945 0.000000
# 2 -0.015073 0.007158 0.004549 0.000000 0.001159 0.000000
# 3 -0.038494 0.004549 0.058858 0.000000 -0.011185 0.000000
# 4 0.000000 0.000000 0.000000 0.030398 0.000000 0.003753
# 5 -0.002945 0.001159 -0.011185 0.000000 0.063113 0.000000
# 6 0.000000 0.000000 0.000000 0.003753 0.000000 0.027767
#
#
# Mechanical properties :
#
#
# Convention : Reuss Voigt Hill
#
# Bulk Modulus (GPa) = 21.91741 55.45730 38.68735
# Shear Modulus (GPa) = 13.22115 31.81438 22.51776
#
# Velocity S-wave (km/s) = 2.34904 3.64391 3.06562
# Velocity P-wave (km/s) = 4.06261 6.39139 5.35512
#
# Compressibility (1/GPa) = 0.04562584
#
# Stress axis : x y z
#
# Youngs Moduli (GPa) = 12.87913 139.71149 16.99011
#
# Poissons Ratio (x) = 2.10586 0.65401
# Poissons Ratio (y) = 0.19413 -0.07729
# Poissons Ratio (z) = 0.49577 -0.63560
#
# Static dielectric constant tensor:
#      x y z
#    x 1.912330 0.000000 -0.003230 
#    y 0.000000 2.106990 0.000000 
#    z -0.003230 0.000000 1.942650 
# 
# From -- ./inp_files/16817.got.cif
#   From: 2010.05.17/outbox.cif.g08.bks.cpg/sg14_9_cif.got.tgz:16817.got - 2010.06.03 17:49:19.
