data_PCOD9240333
_publ_section_title
;
Structure prediction by ZEFSAII (Michael W. Deem and Ramdas Pophale) SiO2 
 PCOD9240333
Probable space group: P 21/C
;
_chemical_formula_sum "Si O2"
_cell_formula_units_Z 30
_cell_length_a 14.169071
_cell_length_b 8.508179
_cell_length_c 13.346402
_cell_angle_alpha 90.000000
_cell_angle_beta 53.121272
_cell_angle_gamma 90.000000
_cell_volume 1287.010162
_symmetry_space_group_name_H-M "P 21/C"
_symmetry_group_IT_number 14
_symmetry_cell_setting 'monoclinic'
loop_
_space_group_symop_operation_xyz
x,y,z
-x,1/2+y,1/2-z
-x,-y,-z
x,1/2-y,1/2+z
loop_
_atom_site_type_symbol
_atom_site_label
_atom_site_fract_x
_atom_site_fract_y
_atom_site_fract_z
Si Si1 0.209228 0.971865 0.394870
Si Si2 0.097819 0.203333 0.331903
Si Si3 0.000000 0.000000 0.000000
Si Si4 0.271587 0.034555 0.673618
Si Si5 0.107051 0.682386 0.164033
Si Si6 0.378721 0.807236 0.763705
Si Si7 0.349993 0.203785 0.434816
Si Si8 0.220882 0.977109 0.015424
O O1 0.120278 0.038538 0.369757
O O2 0.284321 0.120376 0.385193
O O3 0.150263 0.901038 0.533147
O O4 0.296597 0.842298 0.295064
O O5 0.019022 0.316911 0.451733
O O6 0.217100 0.302857 0.244572
O O7 0.032284 0.192139 0.265849
O O8 0.122198 0.007739 0.992930
O O9 0.341686 0.075491 0.528802
O O10 0.154939 0.925842 0.723441
O O11 0.350902 0.940927 0.699981
O O12 0.161888 0.856211 0.131391
O O13 0.514930 0.763083 0.677220
O O14 0.329172 0.878468 0.898234
O O15 0.279262 0.359957 0.510173
#
# Coordination Sequence:
#
# PCOD9240333 Si02
#       8
#     4   4   2   4   4   4   4   4
#     4  10  21  39  63  91 118 154 220 248 307 372
#     4  11  21  39  63  90 117 166 198 255 309 376
#     4  10  18  36  66  88 120 148 202 256 298 370
#     4  11  24  40  56  90 128 162 208 248 321 364
#     4   9  23  39  58  91 125 157 195 261 310 369
#     4  11  22  40  62  89 125 166 208 258 302 368
#     4  11  22  40  63  89 124 163 209 259 306 374
#     4  10  20  40  65  90 118 161 211 250 314 358
#
# _framework density 23.309840000000001
#
# number of rings (size 3 to 8) (size 9 to 14) (size 15 to 20)
#    0.000    1.600    2.667    1.600    0.000    4.267 
#    0.000    5.333    0.000    0.000    0.000    0.000 
#    0.000    0.000    0.000    0.000    0.000    0.000 
#
# Total GULP energy -167350.732374 kJ/mol
# GULP energy per Si atom -5578.357746 kJ/mol
# Density = 2.325679 g / cm^3
# Si number density = 23.309840 Si / 1000 Ang^3
#
#
#
# Elastic Constant Matrix: (Units=GPa)
#
#
# Indices 1 2 3 4 5 6 
#
# 1 53.8895 26.1415 23.3974 0.0000 -17.1612 0.0000
# 2 26.1415 107.9406 24.7968 0.0000 -8.1542 0.0000
# 3 23.3974 24.7968 38.6960 0.0000 -9.6398 0.0000
# 4 0.0000 0.0000 0.0000 28.9064 0.0000 0.0308
# 5 -17.1612 -8.1542 -9.6398 0.0000 28.7777 0.0000
# 6 0.0000 0.0000 0.0000 0.0308 0.0000 42.3990
#
#
#
# Elastic Compliance Matrix: (Units=1/GPa)
#
#
# Indices 1 2 3 4 5 6 
#
# 1 0.029657 -0.003323 -0.012690 0.000000 0.012493 0.000000
# 2 -0.003323 0.011254 -0.005347 0.000000 -0.000584 0.000000
# 3 -0.012690 -0.005347 0.037837 0.000000 0.003592 0.000000
# 4 0.000000 0.000000 0.000000 0.034594 0.000000 -0.000025
# 5 0.012493 -0.000584 0.003592 0.000000 0.043237 0.000000
# 6 0.000000 0.000000 0.000000 -0.000025 0.000000 0.023586
#
#
# Mechanical properties :
#
#
# Convention : Reuss Voigt Hill
#
# Bulk Modulus (GPa) = 27.75819 38.79973 33.27896
# Shear Modulus (GPa) = 21.28620 28.42930 24.85775
#
# Velocity S-wave (km/s) = 3.02517 3.49610 3.26913
# Velocity P-wave (km/s) = 4.91289 5.74268 5.34391
#
# Compressibility (1/GPa) = 0.03602540
#
# Stress axis : x y z
#
# Youngs Moduli (GPa) = 33.71921 88.86097 26.42920
#
# Poissons Ratio (x) = 0.29532 0.33539
# Poissons Ratio (y) = 0.11206 0.14133
# Poissons Ratio (z) = 0.42790 0.47518
#
# Static dielectric constant tensor:
#      x y z
#    x 1.878350 0.000000 0.011790 
#    y 0.000000 1.855030 0.000000 
#    z 0.011790 0.000000 1.940700 
# 
# From -- ./inp_files/43641.got.cif
#   From: 2010.05.17/outbox.cif.g08.bks.cpg/sg14_22_cif.got.tgz:43641.got - 2010.06.03 17:49:19.
