data_PCOD9240424
_publ_section_title
;
Structure prediction by ZEFSAII (Michael W. Deem and Ramdas Pophale) SiO2 
 PCOD9240424
Probable space group: P 21/C
;
_chemical_formula_sum "Si O2"
_cell_formula_units_Z 32
_cell_length_a 12.087138
_cell_length_b 14.997595
_cell_length_c 9.534842
_cell_angle_alpha 90.000000
_cell_angle_beta 128.116920
_cell_angle_gamma 90.000000
_cell_volume 1359.868407
_symmetry_space_group_name_H-M "P 21/C"
_symmetry_group_IT_number 14
_symmetry_cell_setting 'monoclinic'
loop_
_space_group_symop_operation_xyz
x,y,z
-x,1/2+y,1/2-z
-x,-y,-z
x,1/2-y,1/2+z
loop_
_atom_site_type_symbol
_atom_site_label
_atom_site_fract_x
_atom_site_fract_y
_atom_site_fract_z
Si Si1 0.080573 0.836006 0.627144
Si Si2 0.788565 0.111934 0.523761
Si Si3 0.447599 0.119744 0.854603
Si Si4 0.207933 0.178727 0.477788
Si Si5 0.771499 0.639780 0.329170
Si Si6 0.913990 0.120934 0.911385
Si Si7 0.474014 0.069411 0.182368
Si Si8 0.283220 0.681079 0.511382
O O1 0.089702 0.897144 0.497575
O O2 0.067862 0.729908 0.587651
O O3 0.952383 0.854278 0.630710
O O4 0.230010 0.850209 0.818156
O O5 0.844265 0.082082 0.716981
O O6 0.633261 0.080272 0.362268
O O7 0.774007 0.219179 0.519173
O O8 0.302525 0.121283 0.658301
O O9 0.549510 0.191370 0.860874
O O10 0.531909 0.030407 0.881859
O O11 0.441217 0.128228 0.017061
O O12 0.250663 0.172520 0.348672
O O13 0.217812 0.277041 0.553752
O O14 0.639327 0.585641 0.285056
O O15 0.923877 0.591296 0.448173
O O16 0.796466 0.118495 0.940523
#
# Coordination Sequence:
#
# PCOD9240424 Si02
#       8
#     4   4   4   4   4   4   4   4
#     4   9  18  35  60  88 120 149 193 251 302 359
#     4  10  20  36  63  89 119 153 199 252 301 359
#     4  11  25  42  61  83 124 170 206 251 297 353
#     4  11  23  39  65  94 121 157 195 249 307 359
#     4  11  23  40  64  94 124 153 197 249 304 364
#     4   9  20  33  60  94 117 150 193 252 309 355
#     4  11  25  43  58  86 124 167 210 247 298 358
#     4  10  18  38  61  88 118 154 197 250 303 355
#
# _framework density 23.531690000000001
#
# number of rings (size 3 to 8) (size 9 to 14) (size 15 to 20)
#    0.000    1.750    2.500    1.500    8.750    0.500 
#    0.000    2.500    0.000    0.000    0.000    0.000 
#    0.000    0.000    0.000    0.000    0.000    0.000 
#
# Total GULP energy -178598.130037 kJ/mol
# GULP energy per Si atom -5581.191564 kJ/mol
# Density = 2.347813 g / cm^3
# Si number density = 23.531690 Si / 1000 Ang^3
#
#
#
# Elastic Constant Matrix: (Units=GPa)
#
#
# Indices 1 2 3 4 5 6 
#
# 1 121.2018 18.4406 29.9232 0.0000 -4.3026 0.0000
# 2 18.4406 26.9613 8.6371 0.0000 -1.3737 0.0000
# 3 29.9232 8.6371 84.7676 0.0000 2.8486 0.0000
# 4 0.0000 0.0000 0.0000 15.0881 0.0000 0.1871
# 5 -4.3026 -1.3737 2.8486 0.0000 37.1068 0.0000
# 6 0.0000 0.0000 0.0000 0.1871 0.0000 20.2191
#
#
#
# Elastic Compliance Matrix: (Units=1/GPa)
#
#
# Indices 1 2 3 4 5 6 
#
# 1 0.009896 -0.005766 -0.002945 0.000000 0.001160 0.000000
# 2 -0.005766 0.041812 -0.002260 0.000000 0.001053 0.000000
# 3 -0.002945 -0.002260 0.013115 0.000000 -0.001432 0.000000
# 4 0.000000 0.000000 0.000000 0.066285 0.000000 -0.000613
# 5 0.001160 0.001053 -0.001432 0.000000 0.027233 0.000000
# 6 0.000000 0.000000 0.000000 -0.000613 0.000000 0.049464
#
#
# Mechanical properties :
#
#
# Convention : Reuss Voigt Hill
#
# Bulk Modulus (GPa) = 23.32064 38.54806 30.93435
# Shear Modulus (GPa) = 20.48842 26.21146 23.34994
#
# Velocity S-wave (km/s) = 2.95392 3.34110 3.15346
# Velocity P-wave (km/s) = 4.64392 5.59472 5.14135
#
# Compressibility (1/GPa) = 0.04288047
#
# Stress axis : x y z
#
# Youngs Moduli (GPa) = 101.04844 23.91675 76.24910
#
# Poissons Ratio (x) = 0.13791 0.22454
# Poissons Ratio (y) = 0.58266 0.17233
# Poissons Ratio (z) = 0.29757 0.05406
#
# Static dielectric constant tensor:
#      x y z
#    x 1.907910 0.000000 -0.020680 
#    y 0.000000 1.986390 0.000000 
#    z -0.020680 0.000000 1.879010 
# 
# From -- ./inp_files/14344.got.cif
#   From: 2010.05.17/outbox.cif.g08.bks.cpg/sg14_8_cif.got.tgz:14344.got - 2010.06.03 17:49:19.
