data_PCOD9240711
_publ_section_title
;
Structure prediction by ZEFSAII (Michael W. Deem and Ramdas Pophale) SiO2 
 PCOD9240711
Probable space group: P 21/C
;
_chemical_formula_sum "Si O2"
_cell_formula_units_Z 32
_cell_length_a 13.622883
_cell_length_b 15.488907
_cell_length_c 7.007712
_cell_angle_alpha 90.000000
_cell_angle_beta 114.608822
_cell_angle_gamma 90.000000
_cell_volume 1344.349213
_symmetry_space_group_name_H-M "P 21/C"
_symmetry_group_IT_number 14
_symmetry_cell_setting 'monoclinic'
loop_
_space_group_symop_operation_xyz
x,y,z
-x,1/2+y,1/2-z
-x,-y,-z
x,1/2-y,1/2+z
loop_
_atom_site_type_symbol
_atom_site_label
_atom_site_fract_x
_atom_site_fract_y
_atom_site_fract_z
Si Si1 0.138601 0.025694 0.410493
Si Si2 0.510078 0.573752 0.233777
Si Si3 0.504230 0.124151 0.829295
Si Si4 0.108683 0.976276 0.837496
Si Si5 0.275011 0.319358 0.143297
Si Si6 0.736900 0.324155 0.593704
Si Si7 0.283753 0.867527 0.480738
Si Si8 0.254510 0.127326 0.065310
O O1 0.205386 0.114771 0.460796
O O2 0.018258 0.032562 0.233285
O O3 0.123409 0.000979 0.623955
O O4 0.209919 0.949457 0.378348
O O5 0.503436 0.606300 0.448451
O O6 0.494577 0.470731 0.230048
O O7 0.410130 0.616206 0.042214
O O8 0.630034 0.595887 0.262308
O O9 0.401437 0.181460 0.686975
O O10 0.621886 0.165063 0.894943
O O11 0.173291 0.886990 0.921079
O O12 0.164188 0.053939 0.999099
O O13 0.272086 0.358377 0.352408
O O14 0.229229 0.223266 0.115050
O O15 0.720845 0.358402 0.793925
O O16 0.761177 0.223139 0.628988
#
# Coordination Sequence:
#
# PCOD9240711 Si02
#       8
#     4   4   4   4   4   4   4   4
#     4   9  18  33  52  72  95 129 170 202 232 283
#     4   9  15  28  51  74  95 126 165 197 232 286
#     4   9  15  28  51  74  95 126 165 197 232 286
#     4   9  18  33  52  72  95 129 170 202 232 283
#     4  10  19  32  52  75  99 127 161 201 242 287
#     4  10  19  32  52  75  99 127 161 201 242 287
#     4  10  19  32  52  75  99 127 161 201 242 287
#     4  10  19  32  52  75  99 127 161 201 242 287
#
# _framework density 23.803339000000001
#
# number of rings (size 3 to 8) (size 9 to 14) (size 15 to 20)
#    0.000    2.500    2.500    0.750    0.000    1.000 
#    0.000    1.250    0.000    3.000    0.000    0.000 
#    0.000    0.000    0.000    0.000    0.000    0.000 
#
# Total GULP energy -179111.644238 kJ/mol
# GULP energy per Si atom -5597.238882 kJ/mol
# Density = 2.374916 g / cm^3
# Si number density = 23.803339 Si / 1000 Ang^3
#
#
#
# Elastic Constant Matrix: (Units=GPa)
#
#
# Indices 1 2 3 4 5 6 
#
# 1 111.5268 74.5473 66.0958 0.0000 51.2845 0.0000
# 2 74.5473 176.9042 53.0119 0.0000 43.1710 0.0000
# 3 66.0958 53.0119 84.9854 0.0000 12.7300 0.0000
# 4 0.0000 0.0000 0.0000 27.5133 0.0000 -8.8218
# 5 51.2845 43.1710 12.7300 0.0000 43.9730 0.0000
# 6 0.0000 0.0000 0.0000 -8.8218 0.0000 12.1141
#
#
#
# Elastic Compliance Matrix: (Units=1/GPa)
#
#
# Indices 1 2 3 4 5 6 
#
# 1 0.051564 0.000605 -0.032806 0.000000 -0.051234 0.000000
# 2 0.000605 0.008754 -0.004743 0.000000 -0.007926 0.000000
# 3 -0.032806 -0.004743 0.035344 0.000000 0.032686 0.000000
# 4 0.000000 0.000000 0.000000 0.047418 0.000000 0.034531
# 5 -0.051234 -0.007926 0.032686 0.000000 0.080814 0.000000
# 6 0.000000 0.000000 0.000000 0.034531 0.000000 0.107694
#
#
# Mechanical properties :
#
#
# Convention : Reuss Voigt Hill
#
# Bulk Modulus (GPa) = 45.92961 84.52516 65.22738
# Shear Modulus (GPa) = 12.11435 28.70418 20.40926
#
# Velocity S-wave (km/s) = 2.25841 3.47636 2.93134
# Velocity P-wave (km/s) = 5.11252 7.19029 6.23852
#
# Compressibility (1/GPa) = 0.02177245
#
# Stress axis : x y z
#
# Youngs Moduli (GPa) = 19.39334 114.23861 28.29362
#
# Poissons Ratio (x) = -0.06908 0.92820
# Poissons Ratio (y) = -0.01173 0.13421
# Poissons Ratio (z) = 0.63621 0.54187
#
# Static dielectric constant tensor:
#      x y z
#    x 1.888000 0.000000 -0.076210 
#    y 0.000000 1.861010 0.000000 
#    z -0.076210 0.000000 1.957090 
# 
# From -- ./inp_files/16268.got.cif
#   From: 2010.05.17/outbox.cif.g08.bks.cpg/sg14_9_cif.got.tgz:16268.got - 2010.06.03 17:49:19.
