data_PCOD9240146
_publ_section_title
;
Structure prediction by ZEFSAII (Michael W. Deem and Ramdas Pophale) SiO2 
 PCOD9240146
Probable space group: P 21/C
;
_chemical_formula_sum "Si O2"
_cell_formula_units_Z 24
_cell_length_a 11.993015
_cell_length_b 11.815351
_cell_length_c 13.512220
_cell_angle_alpha 90.000000
_cell_angle_beta 151.799574
_cell_angle_gamma 90.000000
_cell_volume 904.807527
_symmetry_space_group_name_H-M "P 21/C"
_symmetry_group_IT_number 14
_symmetry_cell_setting 'monoclinic'
loop_
_space_group_symop_operation_xyz
x,y,z
-x,1/2+y,1/2-z
-x,-y,-z
x,1/2-y,1/2+z
loop_
_atom_site_type_symbol
_atom_site_label
_atom_site_fract_x
_atom_site_fract_y
_atom_site_fract_z
Si Si1 0.698305 0.236045 0.295947
Si Si2 0.069848 0.054671 0.844460
Si Si3 0.654062 0.328567 0.467587
Si Si4 0.664566 0.598600 0.020077
Si Si5 0.277313 0.176064 0.834483
Si Si6 0.076404 0.281862 0.948329
O O1 0.664881 0.240248 0.386619
O O2 0.508013 0.158212 0.091331
O O3 0.960360 0.204123 0.465954
O O4 0.608350 0.363137 0.192175
O O5 0.147340 0.152960 0.980250
O O6 0.240039 0.946795 0.987129
O O7 0.099892 0.094178 0.753333
O O8 0.797755 0.016233 0.647464
O O9 0.402847 0.336506 0.326611
O O10 0.837395 0.290139 0.694598
O O11 0.755147 0.634030 0.981115
O O12 0.775598 0.693008 0.180461
#
# Coordination Sequence:
#
# PCOD9240146 Si02
#       6
#     4   4   4   4   4   4
#     4   9  19  37  52  80 110 137 181 222 262 312
#     4  10  18  35  57  77 107 146 177 215 275 314
#     4  10  19  36  59  76 106 147 180 215 272 315
#     4   8  18  36  54  77 110 136 176 222 263 311
#     4   8  18  37  55  74 110 142 171 225 260 313
#     4   9  19  37  54  77 111 141 173 227 262 319
#
# _framework density 26.524978000000001
#
# number of rings (size 3 to 8) (size 9 to 14) (size 15 to 20)
#    1.000    2.000    0.000    0.500    0.000    1.333 
#   12.000    0.833    0.000    0.000    0.000    0.000 
#    0.000    0.000    0.000    0.000    0.000    0.000 
#
# Total GULP energy -133852.586720 kJ/mol
# GULP energy per Si atom -5577.191113 kJ/mol
# Density = 2.646461 g / cm^3
# Si number density = 26.524978 Si / 1000 Ang^3
#
#
#
# Elastic Constant Matrix: (Units=GPa)
#
#
# Indices 1 2 3 4 5 6 
#
# 1 5.5981 -24.6938 52.6479 0.0000 -0.5956 0.0000
# 2 -24.6938 55.5452 -0.6942 0.0000 9.5177 0.0000
# 3 52.6479 -0.6942 -58.1212 0.0000 40.9261 0.0000
# 4 0.0000 0.0000 0.0000 31.2781 0.0000 9.4275
# 5 -0.5956 9.5177 40.9261 0.0000 63.3110 0.0000
# 6 0.0000 0.0000 0.0000 9.4275 0.0000 17.9612
#
#
#
# Elastic Compliance Matrix: (Units=1/GPa)
#
#
# Indices 1 2 3 4 5 6 
#
# 1 0.042425 0.022425 0.024786 0.000000 -0.018995 0.000000
# 2 0.022425 0.030146 0.011621 0.000000 -0.011833 0.000000
# 3 0.024786 0.011621 0.002778 0.000000 -0.003309 0.000000
# 4 0.000000 0.000000 0.000000 0.037980 0.000000 -0.019935
# 5 -0.018995 -0.011833 -0.003309 0.000000 0.019535 0.000000
# 6 0.000000 0.000000 0.000000 -0.019935 0.000000 0.066139
#
#
# Mechanical properties :
#
#
# Convention : Reuss Voigt Hill
#
# Bulk Modulus (GPa) = 5.18098 6.39356 5.78727
# Shear Modulus (GPa) = 34.32321 20.89421 27.60871
#
# Velocity S-wave (km/s) = 3.60112 2.80968 3.22973
# Velocity P-wave (km/s) = 4.38728 3.59741 4.01183
#
# Compressibility (1/GPa) = 0.19301381
#
# Stress axis : x y z
#
# Youngs Moduli (GPa) = 23.57123 33.17205 360.00981
#
# Poissons Ratio (x) = -0.74389 -8.92335
# Poissons Ratio (y) = -0.52859 -4.18371
# Poissons Ratio (z) = -0.58425 -0.38550
#
# Static dielectric constant tensor:
#      x y z
#    x 2.099480 0.000000 -0.043220 
#    y 0.000000 2.039620 0.000000 
#    z -0.043220 0.000000 2.384550 
# 
# From -- ./inp_files/44831.got.cif
#   From: 2010.05.17/outbox.cif.g08.bks.cpg/sg14_23_cif.got.tgz:44831.got - 2010.06.03 17:49:19.
