data_PCOD9240360
_publ_section_title
;
Structure prediction by ZEFSAII (Michael W. Deem and Ramdas Pophale) SiO2 
 PCOD9240360
Probable space group: P 21/C
;
_chemical_formula_sum "Si O2"
_cell_formula_units_Z 24
_cell_length_a 14.596226
_cell_length_b 12.132507
_cell_length_c 9.885508
_cell_angle_alpha 90.000000
_cell_angle_beta 34.742102
_cell_angle_gamma 90.000000
_cell_volume 997.645394
_symmetry_space_group_name_H-M "P 21/C"
_symmetry_group_IT_number 14
_symmetry_cell_setting 'monoclinic'
loop_
_space_group_symop_operation_xyz
x,y,z
-x,1/2+y,1/2-z
-x,-y,-z
x,1/2-y,1/2+z
loop_
_atom_site_type_symbol
_atom_site_label
_atom_site_fract_x
_atom_site_fract_y
_atom_site_fract_z
Si Si1 0.885982 0.558362 0.443685
Si Si2 0.725473 0.462709 0.301797
Si Si3 0.279816 0.320417 0.153709
Si Si4 0.218355 0.934307 0.697663
Si Si5 0.478634 0.627486 0.700139
Si Si6 0.953580 0.636559 0.067495
O O1 0.749879 0.647363 0.652582
O O2 0.822527 0.446827 0.593292
O O3 0.924052 0.570766 0.242875
O O4 0.053703 0.584352 0.316843
O O5 0.601686 0.522702 0.553930
O O6 0.631792 0.403799 0.294746
O O7 0.828746 0.570193 0.123580
O O8 0.859928 0.376476 0.191374
O O9 0.116534 0.255074 0.318238
O O10 0.276905 0.059661 0.590969
O O11 0.423230 0.238917 0.947006
O O12 0.363855 0.861432 0.468941
#
# Coordination Sequence:
#
# PCOD9240360 Si02
#       6
#     4   4   4   4   4   4
#     4   9  19  39  61  84 121 164 208 246 303 364
#     4   9  20  32  58  88 121 158 190 255 301 344
#     4   9  21  35  60  91 117 168 201 246 309 353
#     4   9  19  39  62  89 119 168 194 255 309 360
#     4  10  18  38  60  89 126 153 204 258 307 360
#     4  10  18  37  58  91 119 161 212 246 293 377
#
# _framework density 24.056643000000001
#
# number of rings (size 3 to 8) (size 9 to 14) (size 15 to 20)
#    1.000    1.667    1.667    0.000    0.000    4.000 
#    3.000    3.333    3.667    0.000    4.333    0.000 
#    0.000    0.000    0.000    0.000    0.000    0.000 
#
# Total GULP energy -133640.383147 kJ/mol
# GULP energy per Si atom -5568.349298 kJ/mol
# Density = 2.400189 g / cm^3
# Si number density = 24.056643 Si / 1000 Ang^3
#
#
#
# Elastic Constant Matrix: (Units=GPa)
#
#
# Indices 1 2 3 4 5 6 
#
# 1 54.7186 17.4341 16.4772 0.0000 -7.1889 0.0000
# 2 17.4341 63.7214 38.4857 0.0000 -12.4038 0.0000
# 3 16.4772 38.4857 130.1588 0.0000 -12.0546 0.0000
# 4 0.0000 0.0000 0.0000 51.8137 0.0000 -8.5822
# 5 -7.1889 -12.4038 -12.0546 0.0000 37.5362 0.0000
# 6 0.0000 0.0000 0.0000 -8.5822 0.0000 17.8224
#
#
#
# Elastic Compliance Matrix: (Units=1/GPa)
#
#
# Indices 1 2 3 4 5 6 
#
# 1 0.020301 -0.004525 -0.001041 0.000000 0.002058 0.000000
# 2 -0.004525 0.020930 -0.005211 0.000000 0.004376 0.000000
# 3 -0.001041 -0.005211 0.009459 0.000000 0.001116 0.000000
# 4 0.000000 0.000000 0.000000 0.020973 0.000000 0.010099
# 5 0.002058 0.004376 0.001116 0.000000 0.028840 0.000000
# 6 0.000000 0.000000 0.000000 0.010099 0.000000 0.060972
#
#
# Mechanical properties :
#
#
# Convention : Reuss Voigt Hill
#
# Bulk Modulus (GPa) = 34.32107 43.71032 39.01570
# Shear Modulus (GPa) = 25.94161 33.18124 29.56143
#
# Velocity S-wave (km/s) = 3.28739 3.71792 3.50926
# Velocity P-wave (km/s) = 5.35789 6.05308 5.71606
#
# Compressibility (1/GPa) = 0.02913662
#
# Stress axis : x y z
#
# Youngs Moduli (GPa) = 49.25870 47.77784 105.72121
#
# Poissons Ratio (x) = 0.21618 0.11011
# Poissons Ratio (y) = 0.22288 0.55087
# Poissons Ratio (z) = 0.05130 0.24895
#
# Static dielectric constant tensor:
#      x y z
#    x 1.993780 0.000000 -0.002070 
#    y 0.000000 1.988260 0.000000 
#    z -0.002070 0.000000 2.001410 
# 
# From -- ./inp_files/33861.got.cif
#   From: 2010.05.17/outbox.cif.g08.bks.cpg/sg14_17_cif.got.tgz:33861.got - 2010.06.03 17:49:19.
