data_PCOD9240676
_publ_section_title
;
Structure prediction by ZEFSAII (Michael W. Deem and Ramdas Pophale) SiO2 
 PCOD9240676
Probable space group: P 21/C
;
_chemical_formula_sum "Si O2"
_cell_formula_units_Z 32
_cell_length_a 15.657648
_cell_length_b 7.395151
_cell_length_c 20.099681
_cell_angle_alpha 90.000000
_cell_angle_beta 38.000496
_cell_angle_gamma 90.000000
_cell_volume 1432.879031
_symmetry_space_group_name_H-M "P 21/C"
_symmetry_group_IT_number 14
_symmetry_cell_setting 'monoclinic'
loop_
_space_group_symop_operation_xyz
x,y,z
-x,1/2+y,1/2-z
-x,-y,-z
x,1/2-y,1/2+z
loop_
_atom_site_type_symbol
_atom_site_label
_atom_site_fract_x
_atom_site_fract_y
_atom_site_fract_z
Si Si1 0.921676 0.626657 0.599613
Si Si2 0.876276 0.737480 0.758612
Si Si3 0.865155 0.123977 0.571676
Si Si4 0.638860 0.266155 0.129241
Si Si5 0.185985 0.699058 0.603480
Si Si6 0.137785 0.641401 0.776247
Si Si7 0.324531 0.351357 0.348147
Si Si8 0.830302 0.725770 0.426258
O O1 0.872738 0.584800 0.703828
O O2 0.791691 0.693660 0.636081
O O3 0.000000 0.500000 0.500000
O O4 0.056678 0.750601 0.530287
O O5 0.797348 0.686368 0.874772
O O6 0.032219 0.777721 0.688283
O O7 0.834701 0.924388 0.747560
O O8 0.720179 0.088672 0.625401
O O9 0.831036 0.195013 0.666839
O O10 0.000000 0.000000 0.500000
O O11 0.475965 0.295171 0.232215
O O12 0.672219 0.068751 0.140797
O O13 0.701243 0.272907 0.016849
O O14 0.217584 0.715238 0.662438
O O15 0.163341 0.486658 0.598187
O O16 0.975401 0.693759 0.864570
O O17 0.278116 0.267250 0.447240
#
# Coordination Sequence:
#
# PCOD9240676 Si02
#       8
#     4   4   4   4   4   4   4   4
#     4  12  21  38  62  86 119 155 199 241 288 349
#     4  10  19  33  57  88 116 147 197 246 292 347
#     4  12  22  36  61  92 120 149 201 248 285 349
#     4  11  24  40  59  86 120 156 199 242 302 356
#     4   9  18  36  54  82 117 154 192 241 297 352
#     4  10  19  31  57  88 116 146 194 250 292 341
#     4  11  24  39  60  85 119 159 194 244 300 357
#     4   9  19  35  56  84 116 152 193 244 299 345
#
# _framework density 22.332657999999999
#
# number of rings (size 3 to 8) (size 9 to 14) (size 15 to 20)
#    0.000    1.500    5.000    0.750    1.750    1.000 
#    0.000    1.250    0.000    6.000    0.000    0.000 
#    0.000    0.000    0.000    0.000    0.000    0.000 
#
# Total GULP energy -178357.532606 kJ/mol
# GULP energy per Si atom -5573.672894 kJ/mol
# Density = 2.228183 g / cm^3
# Si number density = 22.332658 Si / 1000 Ang^3
#
#
#
# Elastic Constant Matrix: (Units=GPa)
#
#
# Indices 1 2 3 4 5 6 
#
# 1 126.8094 15.2074 93.1127 0.0000 30.1200 0.0000
# 2 15.2074 38.9832 18.3447 0.0000 6.3217 0.0000
# 3 93.1127 18.3447 176.3440 0.0000 25.5233 0.0000
# 4 0.0000 0.0000 0.0000 31.1956 0.0000 3.5813
# 5 30.1200 6.3217 25.5233 0.0000 54.3074 0.0000
# 6 0.0000 0.0000 0.0000 3.5813 0.0000 19.2368
#
#
#
# Elastic Compliance Matrix: (Units=1/GPa)
#
#
# Indices 1 2 3 4 5 6 
#
# 1 0.013954 -0.001636 -0.006551 0.000000 -0.004470 0.000000
# 2 -0.001636 0.027359 -0.001773 0.000000 -0.001444 0.000000
# 3 -0.006551 -0.001773 0.009398 0.000000 -0.000577 0.000000
# 4 0.000000 0.000000 0.000000 0.032756 0.000000 -0.006098
# 5 -0.004470 -0.001444 -0.000577 0.000000 0.021332 0.000000
# 6 0.000000 0.000000 0.000000 -0.006098 0.000000 0.053119
#
#
# Mechanical properties :
#
#
# Convention : Reuss Voigt Hill
#
# Bulk Modulus (GPa) = 32.47759 66.16290 49.32024
# Shear Modulus (GPa) = 26.58155 35.31274 30.94715
#
# Velocity S-wave (km/s) = 3.45375 3.98076 3.72658
# Velocity P-wave (km/s) = 5.52075 7.12875 6.37565
#
# Compressibility (1/GPa) = 0.03079046
#
# Stress axis : x y z
#
# Youngs Moduli (GPa) = 71.66547 36.55119 106.41006
#
# Poissons Ratio (x) = 0.05979 0.69706
# Poissons Ratio (y) = 0.11724 0.18870
# Poissons Ratio (z) = 0.46946 0.06482
#
# Static dielectric constant tensor:
#      x y z
#    x 1.655140 0.000000 0.026340 
#    y 0.000000 2.130720 0.000000 
#    z 0.026340 0.000000 1.793350 
# 
# From -- ./inp_files/68095.got.cif
#   From: 2010.05.17/outbox.cif.g08.bks.cpg/sg14_35_cif.got.tgz:68095.got - 2010.06.03 17:49:19.
