data_PCOD9240576
_publ_section_title
;
Structure prediction by ZEFSAII (Michael W. Deem and Ramdas Pophale) SiO2 
 PCOD9240576
Probable space group: P 21/C
;
_chemical_formula_sum "Si O2"
_cell_formula_units_Z 32
_cell_length_a 12.100625
_cell_length_b 5.195737
_cell_length_c 21.087649
_cell_angle_alpha 90.000000
_cell_angle_beta 94.323635
_cell_angle_gamma 90.000000
_cell_volume 1322.042491
_symmetry_space_group_name_H-M "P 21/C"
_symmetry_group_IT_number 14
_symmetry_cell_setting 'monoclinic'
loop_
_space_group_symop_operation_xyz
x,y,z
-x,1/2+y,1/2-z
-x,-y,-z
x,1/2-y,1/2+z
loop_
_atom_site_type_symbol
_atom_site_label
_atom_site_fract_x
_atom_site_fract_y
_atom_site_fract_z
Si Si1 0.781742 0.152559 0.344089
Si Si2 0.358238 0.817724 0.481049
Si Si3 0.537806 0.689357 0.570935
Si Si4 0.298107 0.135512 0.821844
Si Si5 0.858001 0.030508 0.737759
Si Si6 0.428372 0.694315 0.241223
Si Si7 0.905596 0.857649 0.869819
Si Si8 0.854877 0.295159 0.604429
O O1 0.837391 0.209149 0.276803
O O2 0.652669 0.152637 0.321852
O O3 0.827762 0.401187 0.382409
O O4 0.833241 0.896758 0.374081
O O5 0.408469 0.733012 0.551109
O O6 0.425153 0.604207 0.441481
O O7 0.231664 0.797374 0.452730
O O8 0.398480 0.108963 0.472078
O O9 0.595720 0.759617 0.639233
O O10 0.245870 0.330543 0.769085
O O11 0.348548 0.872985 0.796652
O O12 0.203950 0.045372 0.866923
O O13 0.934841 0.891020 0.794439
O O14 0.872055 0.094982 0.664331
O O15 0.519057 0.471665 0.251770
O O16 0.020854 0.853983 0.911410
#
# Coordination Sequence:
#
# PCOD9240576 Si02
#       8
#     4   4   4   4   4   4   4   4
#     4  10  21  37  44  68  99 129 166 203 234 286
#     4   9  18  31  45  71  94 130 167 195 231 286
#     4   9  18  31  49  64  97 129 162 204 239 280
#     4  11  20  35  48  74  99 135 168 201 251 291
#     4  10  19  29  46  65 100 134 161 194 218 296
#     4  12  23  36  53  69  96 131 174 216 254 287
#     4  10  22  30  48  68 103 133 166 186 233 291
#     4  11  21  29  50  73 103 137 163 190 234 300
#
# _framework density 24.204969999999999
#
# number of rings (size 3 to 8) (size 9 to 14) (size 15 to 20)
#    0.750    1.000    3.750    1.500    5.250    0.000 
#    0.000    0.000    0.000    0.000    0.000    0.000 
#    0.000    6.000    0.000    0.000    0.000    0.375 
#
# Total GULP energy -178309.655948 kJ/mol
# GULP energy per Si atom -5572.176748 kJ/mol
# Density = 2.414988 g / cm^3
# Si number density = 24.204970 Si / 1000 Ang^3
#
#
#
# Elastic Constant Matrix: (Units=GPa)
#
#
# Indices 1 2 3 4 5 6 
#
# 1 107.1119 30.3645 32.1682 0.0000 58.2274 0.0000
# 2 30.3645 106.7841 -0.7903 0.0000 14.8922 0.0000
# 3 32.1682 -0.7903 77.2495 0.0000 41.2116 0.0000
# 4 0.0000 0.0000 0.0000 16.6606 0.0000 4.8567
# 5 58.2274 14.8922 41.2116 0.0000 55.3103 0.0000
# 6 0.0000 0.0000 0.0000 4.8567 0.0000 22.2649
#
#
#
# Elastic Compliance Matrix: (Units=1/GPa)
#
#
# Indices 1 2 3 4 5 6 
#
# 1 0.023976 -0.002842 0.005052 0.000000 -0.028240 0.000000
# 2 -0.002842 0.010363 0.001962 0.000000 -0.001260 0.000000
# 3 0.005052 0.001962 0.023204 0.000000 -0.023136 0.000000
# 4 0.000000 0.000000 0.000000 0.064098 0.000000 -0.013982
# 5 -0.028240 -0.001260 -0.023136 0.000000 0.065387 0.000000
# 6 0.000000 0.000000 0.000000 -0.013982 0.000000 0.047963
#
#
# Mechanical properties :
#
#
# Convention : Reuss Voigt Hill
#
# Bulk Modulus (GPa) = 15.17740 46.07005 30.62373
# Shear Modulus (GPa) = 20.11189 34.14071 27.12630
#
# Velocity S-wave (km/s) = 2.88566 3.75971 3.35130
# Velocity P-wave (km/s) = 4.16973 6.15808 5.25873
#
# Compressibility (1/GPa) = 0.06588743
#
# Stress axis : x y z
#
# Youngs Moduli (GPa) = 41.70883 96.49677 43.09564
#
# Poissons Ratio (x) = 0.27423 -0.21774
# Poissons Ratio (y) = 0.11853 -0.08454
# Poissons Ratio (z) = -0.21073 -0.18930
#
# Static dielectric constant tensor:
#      x y z
#    x 1.990620 0.000000 -0.029240 
#    y 0.000000 1.903670 0.000000 
#    z -0.029240 0.000000 2.040130 
# 
# From -- ./inp_files/79783.got.cif
#   From: 2010.05.17/outbox.cif.g08.bks.cpg/sg14_40_cif.got.tgz:79783.got - 2010.06.03 17:49:19.
