data_PCOD9240340
_publ_section_title
;
Structure prediction by ZEFSAII (Michael W. Deem and Ramdas Pophale) SiO2 
 PCOD9240340
Probable space group: P 21/C
;
_chemical_formula_sum "Si O2"
_cell_formula_units_Z 30
_cell_length_a 20.470301
_cell_length_b 8.680162
_cell_length_c 19.636875
_cell_angle_alpha 90.000000
_cell_angle_beta 19.630345
_cell_angle_gamma 90.000000
_cell_volume 1172.194472
_symmetry_space_group_name_H-M "P 21/C"
_symmetry_group_IT_number 14
_symmetry_cell_setting 'monoclinic'
loop_
_space_group_symop_operation_xyz
x,y,z
-x,1/2+y,1/2-z
-x,-y,-z
x,1/2-y,1/2+z
loop_
_atom_site_type_symbol
_atom_site_label
_atom_site_fract_x
_atom_site_fract_y
_atom_site_fract_z
Si Si1 0.018065 0.097397 0.297601
Si Si2 0.500000 0.000000 0.000000
Si Si3 0.334987 0.306210 0.584367
Si Si4 0.408399 0.976594 0.255671
Si Si5 0.439426 0.178061 0.767145
Si Si6 0.742245 0.187480 0.289921
Si Si7 0.889232 0.263986 0.787000
Si Si8 0.392100 0.983198 0.692711
O O1 0.018388 0.162362 0.220302
O O2 0.085817 0.919824 0.232823
O O3 0.145959 0.190677 0.225666
O O4 0.797368 0.103791 0.540798
O O5 0.676645 0.855596 0.827040
O O6 0.321034 0.858112 0.168303
O O7 0.480876 0.459845 0.425479
O O8 0.466981 0.163953 0.435248
O O9 0.375762 0.147933 0.315095
O O10 0.554708 0.887056 0.162502
O O11 0.669721 0.186951 0.522887
O O12 0.336924 0.056868 0.818366
O O13 0.895738 0.188896 0.201160
O O14 0.777603 0.079561 0.189301
O O15 0.542886 0.105065 0.512505
#
# Coordination Sequence:
#
# PCOD9240340 Si02
#       8
#     4   2   4   4   4   4   4   4
#     4  11  24  37  62  93 123 166 199 258 315 367
#     4  10  18  36  68  86 118 164 206 254 306 368
#     4  11  21  40  63  90 121 163 204 253 311 372
#     4  11  23  37  60  90 127 158 214 257 314 372
#     4  10  20  37  57  89 122 163 209 256 312 375
#     4   9  17  34  57  94 115 156 216 251 298 383
#     4  10  21  37  57  90 125 153 209 247 313 371
#     4   9  19  33  63  87 118 163 204 250 314 361
#
# _framework density 25.593022999999999
#
# number of rings (size 3 to 8) (size 9 to 14) (size 15 to 20)
#    0.000    1.867    2.667    1.600    7.467    0.000 
#    0.000    0.667    0.000    0.800    0.000    0.000 
#    0.000    0.000    0.000    0.000    0.000    0.000 
#
# Total GULP energy -167388.641554 kJ/mol
# GULP energy per Si atom -5579.621385 kJ/mol
# Density = 2.553477 g / cm^3
# Si number density = 25.593023 Si / 1000 Ang^3
#
#
#
# Elastic Constant Matrix: (Units=GPa)
#
#
# Indices 1 2 3 4 5 6 
#
# 1 143.3614 39.7612 39.5345 0.0000 -41.3236 0.0000
# 2 39.7612 110.1499 12.5085 0.0000 -11.9291 0.0000
# 3 39.5345 12.5085 54.5520 0.0000 -21.5130 0.0000
# 4 0.0000 0.0000 0.0000 21.7595 0.0000 -6.6951
# 5 -41.3236 -11.9291 -21.5130 0.0000 54.4105 0.0000
# 6 0.0000 0.0000 0.0000 -6.6951 0.0000 42.0923
#
#
#
# Elastic Compliance Matrix: (Units=1/GPa)
#
#
# Indices 1 2 3 4 5 6 
#
# 1 0.010690 -0.002695 -0.004929 0.000000 0.005579 0.000000
# 2 -0.002695 0.010094 -0.000351 0.000000 0.000028 0.000000
# 3 -0.004929 -0.000351 0.024260 0.000000 0.005771 0.000000
# 4 0.000000 0.000000 0.000000 0.048322 0.000000 0.007686
# 5 0.005579 0.000028 0.005771 0.000000 0.024904 0.000000
# 6 0.000000 0.000000 0.000000 0.007686 0.000000 0.024980
#
#
# Mechanical properties :
#
#
# Convention : Reuss Voigt Hill
#
# Bulk Modulus (GPa) = 34.37038 54.63019 44.50028
# Shear Modulus (GPa) = 29.60368 38.06974 33.83671
#
# Velocity S-wave (km/s) = 3.40473 3.86100 3.64002
# Velocity P-wave (km/s) = 5.37727 6.42406 5.92383
#
# Compressibility (1/GPa) = 0.02909482
#
# Stress axis : x y z
#
# Youngs Moduli (GPa) = 93.54203 99.06723 41.22043
#
# Poissons Ratio (x) = 0.26698 0.20319
# Poissons Ratio (y) = 0.25209 0.01445
# Poissons Ratio (z) = 0.46109 0.03473
#
# Static dielectric constant tensor:
#      x y z
#    x 2.317250 0.000000 0.034380 
#    y 0.000000 2.019360 0.000000 
#    z 0.034380 0.000000 2.042780 
# 
# From -- ./inp_files/71909.got.cif
#   From: 2010.05.17/outbox.cif.g08.bks.cpg/sg14_36_cif.got.tgz:71909.got - 2010.06.03 17:49:19.
