data_PCOD9240338
_publ_section_title
;
Structure prediction by ZEFSAII (Michael W. Deem and Ramdas Pophale) SiO2 
 PCOD9240338
Probable space group: P 21/C
;
_chemical_formula_sum "Si O2"
_cell_formula_units_Z 32
_cell_length_a 13.318884
_cell_length_b 17.208080
_cell_length_c 11.900648
_cell_angle_alpha 90.000000
_cell_angle_beta 31.750023
_cell_angle_gamma 90.000000
_cell_volume 1435.269578
_symmetry_space_group_name_H-M "P 21/C"
_symmetry_group_IT_number 14
_symmetry_cell_setting 'monoclinic'
loop_
_space_group_symop_operation_xyz
x,y,z
-x,1/2+y,1/2-z
-x,-y,-z
x,1/2-y,1/2+z
loop_
_atom_site_type_symbol
_atom_site_label
_atom_site_fract_x
_atom_site_fract_y
_atom_site_fract_z
Si Si1 0.358840 0.800150 0.910577
Si Si2 0.659037 0.664125 0.314069
Si Si3 0.658138 0.141067 0.481640
Si Si4 0.628746 0.677529 0.943402
Si Si5 0.874628 0.528951 0.015322
Si Si6 0.166786 0.953235 0.044534
Si Si7 0.518802 0.942071 0.150165
Si Si8 0.268805 0.492469 0.203082
O O1 0.469674 0.824705 0.918812
O O2 0.529581 0.800362 0.655514
O O3 0.262558 0.717506 0.032560
O O4 0.206428 0.861442 0.009516
O O5 0.729032 0.746586 0.296051
O O6 0.812725 0.617605 0.095646
O O7 0.606445 0.607399 0.466713
O O8 0.548906 0.164718 0.472588
O O9 0.504606 0.111054 0.718070
O O10 0.778366 0.065440 0.332694
O O11 0.746931 0.596254 0.827550
O O12 0.685569 0.476677 0.188213
O O13 0.000000 0.500000 0.000000
O O14 0.992472 0.525301 0.789294
O O15 0.172239 0.989353 0.914796
O O16 0.349473 0.987866 0.936115
O O17 0.500000 0.500000 0.000000
#
# Coordination Sequence:
#
# PCOD9240338 Si02
#       8
#     4   4   4   4   4   4   4   4
#     4  11  20  37  67  95 131 170 216 274 332 391
#     4  11  23  38  65  98 129 175 222 270 334 399
#     4  10  20  35  68  99 122 172 228 256 329 403
#     4  10  19  36  67 100 126 173 224 272 329 396
#     4  12  26  40  63 102 133 174 227 270 335 402
#     4  12  22  41  69  94 134 174 217 277 331 394
#     4  12  21  43  68  94 127 175 220 270 337 397
#     4  10  18  36  67  96 128 173 223 266 327 399
#
# _framework density 22.295463000000002
#
# number of rings (size 3 to 8) (size 9 to 14) (size 15 to 20)
#    0.000    1.000    8.750    1.125    0.000    0.000 
#    0.000    1.875    2.750    0.000    0.000    0.000 
#    0.000    0.000    0.000    0.000    0.000    0.000 
#
# Total GULP energy -178784.068016 kJ/mol
# GULP energy per Si atom -5587.002126 kJ/mol
# Density = 2.224472 g / cm^3
# Si number density = 22.295463 Si / 1000 Ang^3
#
#
#
# Elastic Constant Matrix: (Units=GPa)
#
#
# Indices 1 2 3 4 5 6 
#
# 1 72.4894 32.5464 31.1923 0.0000 15.8157 0.0000
# 2 32.5464 141.7590 33.7186 0.0000 3.3862 0.0000
# 3 31.1923 33.7186 102.6245 0.0000 25.8647 0.0000
# 4 0.0000 0.0000 0.0000 23.4341 0.0000 14.9405
# 5 15.8157 3.3862 25.8647 0.0000 37.1688 0.0000
# 6 0.0000 0.0000 0.0000 14.9405 0.0000 25.4939
#
#
#
# Elastic Compliance Matrix: (Units=1/GPa)
#
#
# Indices 1 2 3 4 5 6 
#
# 1 0.017654 -0.003212 -0.003021 0.000000 -0.005117 0.000000
# 2 -0.003212 0.008287 -0.002305 0.000000 0.002216 0.000000
# 3 -0.003021 -0.002305 0.013391 0.000000 -0.007823 0.000000
# 4 0.000000 0.000000 0.000000 0.068127 0.000000 -0.039925
# 5 -0.005117 0.002216 -0.007823 0.000000 0.034324 0.000000
# 6 0.000000 0.000000 0.000000 -0.039925 0.000000 0.062623
#
#
# Mechanical properties :
#
#
# Convention : Reuss Voigt Hill
#
# Bulk Modulus (GPa) = 44.93091 56.86529 50.89810
# Shear Modulus (GPa) = 21.84350 31.84707 26.84528
#
# Velocity S-wave (km/s) = 3.13346 3.78353 3.47373
# Velocity P-wave (km/s) = 5.76954 6.68188 6.24240
#
# Compressibility (1/GPa) = 0.02225639
#
# Stress axis : x y z
#
# Youngs Moduli (GPa) = 56.64552 120.66998 74.67474
#
# Poissons Ratio (x) = 0.38764 0.22556
# Poissons Ratio (y) = 0.18197 0.17212
# Poissons Ratio (z) = 0.17110 0.27813
#
# Static dielectric constant tensor:
#      x y z
#    x 1.870330 0.000000 -0.002010 
#    y 0.000000 1.900570 0.000000 
#    z -0.002010 0.000000 1.804690 
# 
# From -- ./inp_files/33041.got.cif
#   From: 2010.05.17/outbox.cif.g08.bks.cpg/sg14_17_cif.got.tgz:33041.got - 2010.06.03 17:49:19.
