data_PCOD9240742
_publ_section_title
;
Structure prediction by ZEFSAII (Michael W. Deem and Ramdas Pophale) SiO2 
 PCOD9240742
Probable space group: P 21/C
;
_chemical_formula_sum "Si O2"
_cell_formula_units_Z 28
_cell_length_a 11.198119
_cell_length_b 20.373270
_cell_length_c 10.097738
_cell_angle_alpha 90.000000
_cell_angle_beta 26.103098
_cell_angle_gamma 90.000000
_cell_volume 1013.609048
_symmetry_space_group_name_H-M "P 21/C"
_symmetry_group_IT_number 14
_symmetry_cell_setting 'monoclinic'
loop_
_space_group_symop_operation_xyz
x,y,z
-x,1/2+y,1/2-z
-x,-y,-z
x,1/2-y,1/2+z
loop_
_atom_site_type_symbol
_atom_site_label
_atom_site_fract_x
_atom_site_fract_y
_atom_site_fract_z
Si Si1 0.053678 0.250014 0.014271
Si Si2 0.592712 0.607017 0.030100
Si Si3 0.054958 0.383848 0.083062
Si Si4 0.087046 0.389923 0.550837
Si Si5 0.456426 0.122387 0.939574
Si Si6 0.432605 0.257279 0.887061
Si Si7 0.234487 0.991917 0.492258
O O1 0.895700 0.318277 0.199523
O O2 0.186397 0.249385 0.738284
O O3 0.937743 0.178402 0.163226
O O4 0.308532 0.253132 0.864486
O O5 0.686359 0.599015 0.787437
O O6 0.426143 0.673503 0.220260
O O7 0.858558 0.627383 0.851389
O O8 0.539814 0.540161 0.163889
O O9 0.309918 0.380576 0.726718
O O10 0.014307 0.461891 0.136556
O O11 0.228015 0.384419 0.553018
O O12 0.891756 0.451617 0.760313
O O13 0.650897 0.061002 0.723477
O O14 0.594681 0.191407 0.761345
#
# Coordination Sequence:
#
# PCOD9240742 Si02
#       7
#     4   4   4   4   4   4   4
#     4   8  14  28  50  70  91 131 168 193 241 298
#     4   8  17  32  53  72 101 142 162 198 262 303
#     4   8  17  32  53  72 101 142 162 198 262 303
#     4  10  19  32  54  77 100 132 173 208 246 299
#     4  10  19  32  54  77 100 132 173 208 246 299
#     4   8  14  28  50  70  91 131 168 193 241 298
#     4  10  20  32  54  76 106 130 164 212 258 292
#
# _framework density 27.624061999999999
#
# number of rings (size 3 to 8) (size 9 to 14) (size 15 to 20)
#    0.857    2.286    0.000    0.857    0.000    1.143 
#    0.000    0.000    3.143   58.286    0.000    0.000 
#    0.000    0.000    0.000    0.000    0.000    0.000 
#
# Total GULP energy -156186.049607 kJ/mol
# GULP energy per Si atom -5578.073200 kJ/mol
# Density = 2.756119 g / cm^3
# Si number density = 27.624062 Si / 1000 Ang^3
#
#
#
# Elastic Constant Matrix: (Units=GPa)
#
#
# Indices 1 2 3 4 5 6 
#
# 1 99.6128 32.5746 38.0098 0.0000 16.1778 0.0000
# 2 32.5746 226.6323 37.1049 0.0000 3.7058 0.0000
# 3 38.0098 37.1049 118.0504 0.0000 26.9058 0.0000
# 4 0.0000 0.0000 0.0000 25.1763 0.0000 33.6726
# 5 16.1778 3.7058 26.9058 0.0000 35.8333 0.0000
# 6 0.0000 0.0000 0.0000 33.6726 0.0000 -1.1311
#
#
#
# Elastic Compliance Matrix: (Units=1/GPa)
#
#
# Indices 1 2 3 4 5 6 
#
# 1 0.012012 -0.001224 -0.002746 0.000000 -0.003235 0.000000
# 2 -0.001224 0.004793 -0.001358 0.000000 0.001076 0.000000
# 3 -0.002746 -0.001358 0.011422 0.000000 -0.007196 0.000000
# 4 0.000000 0.000000 0.000000 0.000973 0.000000 0.028970
# 5 -0.003235 0.001076 -0.007196 0.000000 0.034660 0.000000
# 6 0.000000 0.000000 0.000000 0.028970 0.000000 -0.021660
#
#
# Mechanical properties :
#
#
# Convention : Reuss Voigt Hill
#
# Bulk Modulus (GPa) = 56.90784 73.29711 65.10247
# Shear Modulus (GPa) = 85.16180 34.41614 59.78897
#
# Velocity S-wave (km/s) = 5.55840 3.53353 4.65734
# Velocity P-wave (km/s) = 7.86384 6.57565 7.24842
#
# Compressibility (1/GPa) = 0.01757227
#
# Stress axis : x y z
#
# Youngs Moduli (GPa) = 83.24855 208.63449 87.55120
#
# Poissons Ratio (x) = 0.25540 0.24038
# Poissons Ratio (y) = 0.10191 0.11887
# Poissons Ratio (z) = 0.22857 0.28327
#
# Static dielectric constant tensor:
#      x y z
#    x 2.105910 0.000000 -0.080350 
#    y 0.000000 2.423400 0.000000 
#    z -0.080350 0.000000 2.095490 
# 
# From -- ./inp_files/33095.got.cif
#   From: 2010.05.17/outbox.cif.g08.bks.cpg/sg14_17_cif.got.tgz:33095.got - 2010.06.03 17:49:19.
