data_PCOD9240519
_publ_section_title
;
Structure prediction by ZEFSAII (Michael W. Deem and Ramdas Pophale) SiO2 
 PCOD9240519
Probable space group: P 21/C
;
_chemical_formula_sum "Si O2"
_cell_formula_units_Z 32
_cell_length_a 17.080387
_cell_length_b 11.822709
_cell_length_c 13.254884
_cell_angle_alpha 90.000000
_cell_angle_beta 30.322349
_cell_angle_gamma 90.000000
_cell_volume 1351.342251
_symmetry_space_group_name_H-M "P 21/C"
_symmetry_group_IT_number 14
_symmetry_cell_setting 'monoclinic'
loop_
_space_group_symop_operation_xyz
x,y,z
-x,1/2+y,1/2-z
-x,-y,-z
x,1/2-y,1/2+z
loop_
_atom_site_type_symbol
_atom_site_label
_atom_site_fract_x
_atom_site_fract_y
_atom_site_fract_z
Si Si1 0.965797 0.933335 0.281215
Si Si2 0.506705 0.281653 0.876701
Si Si3 0.752266 0.519359 0.299360
Si Si4 0.452630 0.117908 0.790313
Si Si5 0.170239 0.138706 0.776831
Si Si6 0.305567 0.940391 0.341378
Si Si7 0.718278 0.005389 0.177143
Si Si8 0.977707 0.173879 0.576412
O O1 0.872197 0.884881 0.290844
O O2 0.980064 0.841448 0.353588
O O3 0.873714 0.039845 0.431989
O O4 0.135143 0.966339 0.055519
O O5 0.485777 0.248312 0.781155
O O6 0.621645 0.178217 0.776773
O O7 0.596604 0.393330 0.806411
O O8 0.329340 0.288625 0.110400
O O9 0.656453 0.564724 0.500163
O O10 0.669459 0.522985 0.281759
O O11 0.814227 0.390509 0.244936
O O12 0.903168 0.597504 0.120867
O O13 0.607975 0.048696 0.646490
O O14 0.374914 0.097608 0.770907
O O15 0.213819 0.026968 0.790659
O O16 0.021797 0.201292 0.991525
#
# Coordination Sequence:
#
# PCOD9240519 Si02
#       8
#     4   4   4   4   4   4   4   4
#     4  11  25  46  69 102 146 182 239 292 356 429
#     4  10  25  45  66  99 138 188 232 293 356 426
#     4  10  18  40  65 101 135 171 237 293 346 409
#     4  10  21  43  68  98 134 178 232 292 350 416
#     4  12  26  44  71 100 143 189 238 291 365 428
#     4   9  22  40  71  98 136 182 236 291 355 414
#     4  12  26  47  66 103 143 185 233 296 358 431
#     4  10  22  38  70 102 134 184 229 299 347 420
#
# _framework density 23.680160000000001
#
# number of rings (size 3 to 8) (size 9 to 14) (size 15 to 20)
#    0.750    0.750    2.500    1.875    3.500    1.000 
#    2.250    0.000    0.000    0.000    0.000    0.000 
#    0.000    0.000    0.000    0.000    0.000    0.000 
#
# Total GULP energy -178389.910510 kJ/mol
# GULP energy per Si atom -5574.684703 kJ/mol
# Density = 2.362626 g / cm^3
# Si number density = 23.680160 Si / 1000 Ang^3
#
#
#
# Elastic Constant Matrix: (Units=GPa)
#
#
# Indices 1 2 3 4 5 6 
#
# 1 130.3623 22.2934 5.6269 0.0000 9.7877 0.0000
# 2 22.2934 69.5709 12.6135 0.0000 -6.4968 0.0000
# 3 5.6269 12.6135 71.9905 0.0000 -1.3618 0.0000
# 4 0.0000 0.0000 0.0000 28.3872 0.0000 -10.1456
# 5 9.7877 -6.4968 -1.3618 0.0000 16.6020 0.0000
# 6 0.0000 0.0000 0.0000 -10.1456 0.0000 26.8853
#
#
#
# Elastic Compliance Matrix: (Units=1/GPa)
#
#
# Indices 1 2 3 4 5 6 
#
# 1 0.008744 -0.003369 -0.000216 0.000000 -0.006491 0.000000
# 2 -0.003369 0.016683 -0.002503 0.000000 0.008309 0.000000
# 3 -0.000216 -0.002503 0.014352 0.000000 0.000325 0.000000
# 4 0.000000 0.000000 0.000000 0.040719 0.000000 0.015366
# 5 -0.006491 0.008309 0.000325 0.000000 0.067339 0.000000
# 6 0.000000 0.000000 0.000000 0.015366 0.000000 0.042994
#
#
# Mechanical properties :
#
#
# Convention : Reuss Voigt Hill
#
# Bulk Modulus (GPa) = 36.22624 39.22125 37.72374
# Shear Modulus (GPa) = 23.56197 29.80089 26.68143
#
# Velocity S-wave (km/s) = 3.15780 3.55135 3.36034
# Velocity P-wave (km/s) = 5.35041 5.78057 5.56965
#
# Compressibility (1/GPa) = 0.02760430
#
# Stress axis : x y z
#
# Youngs Moduli (GPa) = 114.36800 59.94115 69.67558
#
# Poissons Ratio (x) = 0.20193 0.01505
# Poissons Ratio (y) = 0.38529 0.17437
# Poissons Ratio (z) = 0.02470 0.15000
#
# Static dielectric constant tensor:
#      x y z
#    x 1.914000 0.000000 -0.027440 
#    y 0.000000 1.967520 0.000000 
#    z -0.027440 0.000000 1.899760 
# 
# From -- ./inp_files/49006.got.cif
#   From: 2010.05.17/outbox.cif.g08.bks.cpg/sg14_25_cif.got.tgz:49006.got - 2010.06.03 17:49:19.
