data_PCOD9240130
_publ_section_title
;
Structure prediction by ZEFSAII (Michael W. Deem and Ramdas Pophale) SiO2 
 PCOD9240130
Probable space group: P 21/C
;
_chemical_formula_sum "Si O2"
_cell_formula_units_Z 28
_cell_length_a 8.275689
_cell_length_b 14.402171
_cell_length_c 11.606426
_cell_angle_alpha 90.000000
_cell_angle_beta 72.227462
_cell_angle_gamma 90.000000
_cell_volume 1317.326356
_symmetry_space_group_name_H-M "P 21/C"
_symmetry_group_IT_number 14
_symmetry_cell_setting 'monoclinic'
loop_
_space_group_symop_operation_xyz
x,y,z
-x,1/2+y,1/2-z
-x,-y,-z
x,1/2-y,1/2+z
loop_
_atom_site_type_symbol
_atom_site_label
_atom_site_fract_x
_atom_site_fract_y
_atom_site_fract_z
Si Si1 0.823446 0.411080 0.517102
Si Si2 0.973789 0.026458 0.372590
Si Si3 0.470809 0.706915 0.505245
Si Si4 0.477417 0.908446 0.227289
Si Si5 0.287800 0.064164 0.150946
Si Si6 0.614113 0.090009 0.502566
Si Si7 0.138016 0.068525 0.815243
O O1 0.685658 0.330126 0.539134
O O2 0.766952 0.493995 0.440263
O O3 0.850018 0.464255 0.631436
O O4 0.004637 0.379583 0.426489
O O5 0.798450 0.083445 0.406166
O O6 0.136334 0.073145 0.275842
O O7 0.934698 0.938959 0.297262
O O8 0.000000 0.000000 0.500000
O O9 0.435349 0.664951 0.638676
O O10 0.638412 0.657475 0.418978
O O11 0.479931 0.816320 0.511247
O O12 0.364143 0.903980 0.364660
O O13 0.671667 0.895376 0.221614
O O14 0.442050 0.009070 0.179047
O O15 0.500000 0.000000 0.500000
#
# Coordination Sequence:
#
# PCOD9240130 Si02
#       7
#     4   4   4   4   4   4   4
#     4   9  18  35  65 101 126 161 211 279 335 380
#     4  11  23  41  65  92 136 187 214 261 340 406
#     4  11  23  42  67 102 129 171 229 283 332 401
#     4  11  20  41  71  95 132 171 217 274 343 401
#     4  10  19  39  71  97 129 167 219 273 332 403
#     4  12  27  45  63  92 134 185 224 275 341 404
#     4  10  18  34  69  96 130 165 215 267 330 396
#
# _framework density 21.255175000000001
#
# number of rings (size 3 to 8) (size 9 to 14) (size 15 to 20)
#    0.000    1.429    5.714    0.857    0.000    2.286 
#    2.571    0.000    0.000    0.000    0.000    0.000 
#    0.000    0.000    0.000    0.000    0.000    0.000 
#
# Total GULP energy -156344.241237 kJ/mol
# GULP energy per Si atom -5583.722901 kJ/mol
# Density = 2.120680 g / cm^3
# Si number density = 21.255175 Si / 1000 Ang^3
#
#
#
# Elastic Constant Matrix: (Units=GPa)
#
#
# Indices 1 2 3 4 5 6 
#
# 1 86.6269 21.2254 20.6705 0.0000 -17.1039 0.0000
# 2 21.2254 111.9240 29.0327 0.0000 -11.6841 0.0000
# 3 20.6705 29.0327 126.5899 0.0000 -3.6496 0.0000
# 4 0.0000 0.0000 0.0000 10.9152 0.0000 -1.9413
# 5 -17.1039 -11.6841 -3.6496 0.0000 46.0629 0.0000
# 6 0.0000 0.0000 0.0000 -1.9413 0.0000 14.4419
#
#
#
# Elastic Compliance Matrix: (Units=1/GPa)
#
#
# Indices 1 2 3 4 5 6 
#
# 1 0.013196 -0.001617 -0.001658 0.000000 0.004358 0.000000
# 2 -0.001617 0.009935 -0.001964 0.000000 0.001764 0.000000
# 3 -0.001658 -0.001964 0.008608 0.000000 -0.000432 0.000000
# 4 0.000000 0.000000 0.000000 0.093860 0.000000 0.012616
# 5 0.004358 0.001764 -0.000432 0.000000 0.023741 0.000000
# 6 0.000000 0.000000 0.000000 0.012616 0.000000 0.070939
#
#
# Mechanical properties :
#
#
# Convention : Reuss Voigt Hill
#
# Bulk Modulus (GPa) = 47.03465 51.88868 49.46166
# Shear Modulus (GPa) = 21.02221 31.23148 26.12685
#
# Velocity S-wave (km/s) = 3.14831 3.83738 3.50980
# Velocity P-wave (km/s) = 5.94915 6.64073 6.30443
#
# Compressibility (1/GPa) = 0.02126092
#
# Stress axis : x y z
#
# Youngs Moduli (GPa) = 75.77907 100.65583 116.16876
#
# Poissons Ratio (x) = 0.16281 0.19263
# Poissons Ratio (y) = 0.12257 0.22810
# Poissons Ratio (z) = 0.12566 0.19764
#
# Static dielectric constant tensor:
#      x y z
#    x 1.825810 0.000000 0.006090 
#    y 0.000000 1.751690 0.000000 
#    z 0.006090 0.000000 1.807870 
# 
# From -- ./inp_files/25186.got.cif
#   From: 2010.05.17/outbox.cif.g08.bks.cpg/sg14_13_cif.got.tgz:25186.got - 2010.06.03 17:49:19.
