data_PCOD9240854
_publ_section_title
;
Structure prediction by ZEFSAII (Michael W. Deem and Ramdas Pophale) SiO2 
 PCOD9240854
Probable space group: P 21/C
;
_chemical_formula_sum "Si O2"
_cell_formula_units_Z 28
_cell_length_a 16.532518
_cell_length_b 18.024924
_cell_length_c 4.935440
_cell_angle_alpha 90.000000
_cell_angle_beta 70.104635
_cell_angle_gamma 90.000000
_cell_volume 1382.967555
_symmetry_space_group_name_H-M "P 21/C"
_symmetry_group_IT_number 14
_symmetry_cell_setting 'monoclinic'
loop_
_space_group_symop_operation_xyz
x,y,z
-x,1/2+y,1/2-z
-x,-y,-z
x,1/2-y,1/2+z
loop_
_atom_site_type_symbol
_atom_site_label
_atom_site_fract_x
_atom_site_fract_y
_atom_site_fract_z
Si Si1 0.495273 0.854878 0.704559
Si Si2 0.334536 0.121691 0.694443
Si Si3 0.833387 0.700180 0.395489
Si Si4 0.618129 0.364465 0.197968
Si Si5 0.618956 0.534924 0.328858
Si Si6 0.194914 0.798682 0.476043
Si Si7 0.015115 0.697338 0.322202
O O1 0.586918 0.823891 0.489777
O O2 0.431867 0.865252 0.527461
O O3 0.532229 0.932637 0.787595
O O4 0.441111 0.820712 0.014105
O O5 0.312674 0.075175 0.449563
O O6 0.252333 0.158786 0.918921
O O7 0.373690 0.067398 0.879295
O O8 0.833126 0.773724 0.586291
O O9 0.923750 0.659979 0.361741
O O10 0.628351 0.448014 0.294917
O O11 0.713732 0.333922 0.064647
O O12 0.192175 0.725110 0.667032
O O13 0.106416 0.840713 0.654011
O O14 0.014895 0.730615 0.622812
#
# Coordination Sequence:
#
# PCOD9240854 Si02
#       7
#     4   4   4   4   4   4   4
#     4  10  20  33  51  75  95 135 170 209 239 278
#     4  10  20  33  49  74 107 125 163 216 252 273
#     4  10  19  33  55  77  97 133 170 200 249 310
#     4  12  20  33  56  74  97 136 180 199 248 298
#     4  10  20  33  53  73 101 132 174 218 234 279
#     4  10  21  37  52  76 105 128 161 213 256 297
#     4   8  16  32  54  73  93 125 170 208 239 287
#
# _framework density 20.246317999999999
#
# number of rings (size 3 to 8) (size 9 to 14) (size 15 to 20)
#    0.857    1.143    1.429    3.429    0.000    0.000 
#    0.000    4.286    0.000    1.714    0.000    0.000 
#    0.000    0.000    0.000    0.000    0.000    0.000 
#
# Total GULP energy -155981.183217 kJ/mol
# GULP energy per Si atom -5570.756543 kJ/mol
# Density = 2.020024 g / cm^3
# Si number density = 20.246318 Si / 1000 Ang^3
#
#
#
# Elastic Constant Matrix: (Units=GPa)
#
#
# Indices 1 2 3 4 5 6 
#
# 1 117.8517 16.5427 26.9456 0.0000 -38.0298 0.0000
# 2 16.5427 14.2683 6.0762 0.0000 -14.3883 0.0000
# 3 26.9456 6.0762 104.6082 0.0000 -13.6908 0.0000
# 4 0.0000 0.0000 0.0000 5.5610 0.0000 8.1032
# 5 -38.0298 -14.3883 -13.6908 0.0000 46.9038 0.0000
# 6 0.0000 0.0000 0.0000 8.1032 0.0000 -2.3469
#
#
#
# Elastic Compliance Matrix: (Units=1/GPa)
#
#
# Indices 1 2 3 4 5 6 
#
# 1 0.012138 -0.005663 -0.001806 0.000000 0.007577 0.000000
# 2 -0.005663 0.104479 -0.001057 0.000000 0.027150 0.000000
# 3 -0.001806 -0.001057 0.010243 0.000000 0.001201 0.000000
# 4 0.000000 0.000000 0.000000 0.029816 0.000000 0.102946
# 5 0.007577 0.027150 0.001201 0.000000 0.036143 0.000000
# 6 0.000000 0.000000 0.000000 0.102946 0.000000 -0.070649
#
#
# Mechanical properties :
#
#
# Convention : Reuss Voigt Hill
#
# Bulk Modulus (GPa) = 9.10668 37.31746 23.21207
# Shear Modulus (GPa) = 28.43748 22.50118 25.46933
#
# Velocity S-wave (km/s) = 3.75183 3.33734 3.55064
# Velocity P-wave (km/s) = 4.82452 5.77254 5.31969
#
# Compressibility (1/GPa) = 0.10980948
#
# Stress axis : x y z
#
# Youngs Moduli (GPa) = 82.38443 9.57130 97.62473
#
# Poissons Ratio (x) = 0.05420 0.17631
# Poissons Ratio (y) = 0.46653 0.10316
# Poissons Ratio (z) = 0.14879 0.01011
#
# Static dielectric constant tensor:
#      x y z
#    x 1.782250 0.000000 -0.069800 
#    y 0.000000 1.733360 0.000000 
#    z -0.069800 0.000000 1.783410 
# 
# From -- ./inp_files/3718.got.cif
#   From: 2010.05.17/outbox.cif.g08.bks.cpg/sg14_2_cif.got.tgz:3718.got - 2010.06.03 17:49:19.
