data_PCOD9240175
_publ_section_title
;
Structure prediction by ZEFSAII (Michael W. Deem and Ramdas Pophale) SiO2 
 PCOD9240175
Probable space group: P 21/C
;
_chemical_formula_sum "Si O2"
_cell_formula_units_Z 32
_cell_length_a 8.233769
_cell_length_b 14.269441
_cell_length_c 15.224992
_cell_angle_alpha 90.000000
_cell_angle_beta 45.721134
_cell_angle_gamma 90.000000
_cell_volume 1280.694628
_symmetry_space_group_name_H-M "P 21/C"
_symmetry_group_IT_number 14
_symmetry_cell_setting 'monoclinic'
loop_
_space_group_symop_operation_xyz
x,y,z
-x,1/2+y,1/2-z
-x,-y,-z
x,1/2-y,1/2+z
loop_
_atom_site_type_symbol
_atom_site_label
_atom_site_fract_x
_atom_site_fract_y
_atom_site_fract_z
Si Si1 0.723407 0.342058 0.403134
Si Si2 0.495665 0.938810 0.376177
Si Si3 0.637200 0.906589 0.824884
Si Si4 0.040951 0.896813 0.941685
Si Si5 0.047516 0.985500 0.762179
Si Si6 0.183147 0.086175 0.431721
Si Si7 0.159550 0.773310 0.501610
Si Si8 0.461984 0.108020 0.847457
O O1 0.492674 0.347636 0.550641
O O2 0.896165 0.268158 0.381262
O O3 0.647495 0.330992 0.330451
O O4 0.859994 0.438600 0.362015
O O5 0.727964 0.954688 0.340020
O O6 0.347743 0.849473 0.457666
O O7 0.528819 0.911381 0.259848
O O8 0.362594 0.037852 0.428457
O O9 0.668943 0.884672 0.710018
O O10 0.506243 0.006076 0.872925
O O11 0.901788 0.927583 0.748130
O O12 0.198903 0.824632 0.934107
O O13 0.786879 0.856352 0.037338
O O14 0.117606 0.918457 0.815202
O O15 0.000000 0.000000 0.000000
O O16 0.011498 0.172665 0.498240
O O17 0.000000 0.000000 0.500000
#
# Coordination Sequence:
#
# PCOD9240175 Si02
#       8
#     4   4   4   4   4   4   4   4
#     4  11  20  35  59  91 129 150 197 261 319 361
#     4  10  22  41  64  87 122 171 211 249 313 376
#     4  10  19  36  66  87 116 163 203 248 317 373
#     4  12  19  36  60  90 124 153 196 258 307 359
#     4  11  20  37  62  95 120 154 201 263 315 368
#     4   9  22  45  62  82 119 173 212 250 304 370
#     4  11  24  40  59  86 127 166 211 258 304 370
#     4  10  18  35  59  90 119 154 195 256 309 363
#
# _framework density 24.986440999999999
#
# number of rings (size 3 to 8) (size 9 to 14) (size 15 to 20)
#    0.000    1.500    5.000    0.750    1.750    2.000 
#    2.250    7.500    0.000    0.000    0.000    0.000 
#    0.000    0.000    0.000    0.000    0.000    0.000 
#
# Total GULP energy -178186.381372 kJ/mol
# GULP energy per Si atom -5568.324418 kJ/mol
# Density = 2.492957 g / cm^3
# Si number density = 24.986441 Si / 1000 Ang^3
#
#
#
# Elastic Constant Matrix: (Units=GPa)
#
#
# Indices 1 2 3 4 5 6 
#
# 1 95.0360 15.2032 21.9101 0.0000 -1.8560 0.0000
# 2 15.2032 85.5451 3.0382 0.0000 0.6748 0.0000
# 3 21.9101 3.0382 68.2265 0.0000 -7.0509 0.0000
# 4 0.0000 0.0000 0.0000 16.2720 0.0000 -0.1090
# 5 -1.8560 0.6748 -7.0509 0.0000 33.0083 0.0000
# 6 0.0000 0.0000 0.0000 -0.1090 0.0000 -3.9359
#
#
#
# Elastic Compliance Matrix: (Units=1/GPa)
#
#
# Indices 1 2 3 4 5 6 
#
# 1 0.011678 -0.001944 -0.003673 0.000000 -0.000088 0.000000
# 2 -0.001944 0.012036 0.000053 0.000000 -0.000344 0.000000
# 3 -0.003673 0.000053 0.016170 0.000000 0.003246 0.000000
# 4 0.000000 0.000000 0.000000 0.061444 0.000000 -0.001702
# 5 -0.000088 -0.000344 0.003246 0.000000 0.030991 0.000000
# 6 0.000000 0.000000 0.000000 -0.001702 0.000000 -0.254025
#
#
# Mechanical properties :
#
#
# Convention : Reuss Voigt Hill
#
# Bulk Modulus (GPa) = 34.77600 36.56785 35.67193
# Shear Modulus (GPa) = -49.50885 22.97929 -13.26478
#
# Velocity S-wave (km/s) = -4.45615 3.03590 -2.30658
# Velocity P-wave (km/s) = 3.53952 5.19189 2.68584
#
# Compressibility (1/GPa) = 0.02875546
#
# Stress axis : x y z
#
# Youngs Moduli (GPa) = 85.62801 83.08314 61.84404
#
# Poissons Ratio (x) = 0.16154 0.22715
# Poissons Ratio (y) = 0.16649 -0.00327
# Poissons Ratio (z) = 0.31450 -0.00439
#
# Static dielectric constant tensor:
#      x y z
#    x 2.061810 0.000000 -0.037090 
#    y 0.000000 2.119340 0.000000 
#    z -0.037090 0.000000 2.069790 
# 
# From -- ./inp_files/65830.got.cif
#   From: 2010.05.17/outbox.cif.g08.bks.cpg/sg14_33_cif.got.tgz:65830.got - 2010.06.03 17:49:19.
