data_PCOD9240482
_publ_section_title
;
Structure prediction by ZEFSAII (Michael W. Deem and Ramdas Pophale) SiO2 
 PCOD9240482
Probable space group: P 21/C
;
_chemical_formula_sum "Si O2"
_cell_formula_units_Z 30
_cell_length_a 26.263879
_cell_length_b 5.017325
_cell_length_c 22.052519
_cell_angle_alpha 90.000000
_cell_angle_beta 27.696372
_cell_angle_gamma 90.000000
_cell_volume 1350.648460
_symmetry_space_group_name_H-M "P 21/C"
_symmetry_group_IT_number 14
_symmetry_cell_setting 'monoclinic'
loop_
_space_group_symop_operation_xyz
x,y,z
-x,1/2+y,1/2-z
-x,-y,-z
x,1/2-y,1/2+z
loop_
_atom_site_type_symbol
_atom_site_label
_atom_site_fract_x
_atom_site_fract_y
_atom_site_fract_z
Si Si1 0.852136 0.542474 0.211816
Si Si2 0.359270 0.198737 0.628945
Si Si3 0.291363 0.580002 0.534047
Si Si4 0.701952 0.919232 0.688707
Si Si5 0.000000 0.500000 0.500000
Si Si6 0.664708 0.074593 0.150299
Si Si7 0.822177 0.184624 0.139965
Si Si8 0.427460 0.424119 0.932127
O O1 0.734815 0.628598 0.306159
O O2 0.821969 0.482632 0.312347
O O3 0.884870 0.280863 0.137187
O O4 0.935258 0.774334 0.112098
O O5 0.382208 0.350466 0.667401
O O6 0.294566 0.934775 0.718538
O O7 0.443714 0.124500 0.487362
O O8 0.284562 0.600606 0.469211
O O9 0.338004 0.847250 0.515650
O O10 0.377869 0.344180 0.456453
O O11 0.723628 0.643422 0.630908
O O12 0.658517 0.136200 0.687664
O O13 0.801589 0.079793 0.615539
O O14 0.906471 0.551220 0.541508
O O15 0.537993 0.985525 0.282997
#
# Coordination Sequence:
#
# PCOD9240482 Si02
#       8
#     4   4   4   4   2   4   4   4
#     4   9  19  34  61  92 120 148 193 254 326 358
#     4   9  19  36  59  83 124 158 196 260 319 355
#     4  11  22  40  61  85 124 162 205 267 307 361
#     4  11  23  39  56  85 125 167 202 249 313 379
#     4  10  20  34  66 100 112 144 190 256 316 374
#     4  12  24  38  58  86 120 174 218 244 297 378
#     4  10  18  39  59  91 120 151 193 254 319 372
#     4  11  22  38  61  87 117 160 220 270 305 344
#
# _framework density 22.211554
#
# number of rings (size 3 to 8) (size 9 to 14) (size 15 to 20)
#    0.000    1.600    2.667    2.800    0.000    1.067 
#    0.000    0.000    0.000    1.600    0.000    0.000 
#    0.000    0.000    0.000    0.000    0.000    0.000 
#
# Total GULP energy -167137.597403 kJ/mol
# GULP energy per Si atom -5571.253247 kJ/mol
# Density = 2.216100 g / cm^3
# Si number density = 22.211554 Si / 1000 Ang^3
#
#
#
# Elastic Constant Matrix: (Units=GPa)
#
#
# Indices 1 2 3 4 5 6 
#
# 1 61.8585 24.9454 36.1934 0.0000 32.1961 0.0000
# 2 24.9454 105.7268 9.5883 0.0000 19.7931 0.0000
# 3 36.1934 9.5883 104.7101 0.0000 34.6437 0.0000
# 4 0.0000 0.0000 0.0000 23.7751 0.0000 -6.8143
# 5 32.1961 19.7931 34.6437 0.0000 42.8928 0.0000
# 6 0.0000 0.0000 0.0000 -6.8143 0.0000 36.1318
#
#
#
# Elastic Compliance Matrix: (Units=1/GPa)
#
#
# Indices 1 2 3 4 5 6 
#
# 1 0.028496 -0.003245 -0.004055 0.000000 -0.016617 0.000000
# 2 -0.003245 0.010780 0.001330 0.000000 -0.003613 0.000000
# 3 -0.004055 0.001330 0.013682 0.000000 -0.008621 0.000000
# 4 0.000000 0.000000 0.000000 0.044464 0.000000 0.008386
# 5 -0.016617 -0.003613 -0.008621 0.000000 0.044417 0.000000
# 6 0.000000 0.000000 0.000000 0.008386 0.000000 0.029258
#
#
# Mechanical properties :
#
#
# Convention : Reuss Voigt Hill
#
# Bulk Modulus (GPa) = 24.37926 45.97218 35.17572
# Shear Modulus (GPa) = 25.41821 33.99781 29.70801
#
# Velocity S-wave (km/s) = 3.38652 3.91658 3.66116
# Velocity P-wave (km/s) = 5.12749 6.41834 5.80888
#
# Compressibility (1/GPa) = 0.04101848
#
# Stress axis : x y z
#
# Youngs Moduli (GPa) = 35.09294 92.76731 73.08758
#
# Poissons Ratio (x) = 0.30100 0.29634
# Poissons Ratio (y) = 0.11387 -0.09719
# Poissons Ratio (z) = 0.14229 -0.12336
#
# Static dielectric constant tensor:
#      x y z
#    x 1.997810 0.000000 -0.196790 
#    y 0.000000 2.348800 0.000000 
#    z -0.196790 0.000000 2.168590 
# 
# From -- ./inp_files/70357.got.cif
#   From: 2010.05.17/outbox.cif.g08.bks.cpg/sg14_36_cif.got.tgz:70357.got - 2010.06.03 17:49:19.
