data_PCOD9240040
_publ_section_title
;
Structure prediction by ZEFSAII (Michael W. Deem and Ramdas Pophale) SiO2 
 PCOD9240040
Probable space group: P 21/C
;
_chemical_formula_sum "Si O2"
_cell_formula_units_Z 32
_cell_length_a 11.391156
_cell_length_b 8.165229
_cell_length_c 20.391767
_cell_angle_alpha 90.000000
_cell_angle_beta 42.517026
_cell_angle_gamma 90.000000
_cell_volume 1281.784961
_symmetry_space_group_name_H-M "P 21/C"
_symmetry_group_IT_number 14
_symmetry_cell_setting 'monoclinic'
loop_
_space_group_symop_operation_xyz
x,y,z
-x,1/2+y,1/2-z
-x,-y,-z
x,1/2-y,1/2+z
loop_
_atom_site_type_symbol
_atom_site_label
_atom_site_fract_x
_atom_site_fract_y
_atom_site_fract_z
Si Si1 0.844425 0.724427 0.042195
Si Si2 0.725650 0.834386 0.850836
Si Si3 0.971939 0.730364 0.853587
Si Si4 0.658735 0.119152 0.786759
Si Si5 0.607111 0.727957 0.259494
Si Si6 0.230027 0.593134 0.075891
Si Si7 0.496929 0.822376 0.558686
Si Si8 0.785695 0.328957 0.053018
O O1 0.719988 0.788386 0.151621
O O2 0.811947 0.526809 0.048154
O O3 0.855062 0.790204 0.963047
O O4 0.042792 0.744559 0.985436
O O5 0.590092 0.777363 0.962050
O O6 0.695523 0.734702 0.794831
O O7 0.908584 0.813724 0.812632
O O8 0.688380 0.016835 0.842248
O O9 0.168188 0.720253 0.797139
O O10 0.922205 0.538861 0.861590
O O11 0.508013 0.242444 0.867971
O O12 0.595267 0.223435 0.656329
O O13 0.619360 0.971565 0.754253
O O14 0.399100 0.490443 0.981581
O O15 0.201377 0.719188 0.029672
O O16 0.299111 0.650264 0.116902
#
# Coordination Sequence:
#
# PCOD9240040 Si02
#       8
#     4   4   4   4   4   4   4   4
#     4  10  22  41  64  93 122 172 216 262 311 392
#     4   9  21  37  55  92 122 157 205 262 322 377
#     4  10  21  39  59  90 124 160 215 260 312 387
#     4  10  21  33  60  90 125 165 204 260 328 371
#     4  10  21  40  64  92 126 164 214 265 327 377
#     4   9  18  33  59  85 118 162 202 254 300 372
#     4  10  18  34  56  88 128 153 205 257 312 372
#     4  10  19  39  65  89 122 166 217 255 314 385
#
# _framework density 24.965185000000002
#
# number of rings (size 3 to 8) (size 9 to 14) (size 15 to 20)
#    0.750    1.500    1.250    2.625    1.750    0.000 
#   13.500    0.000    0.000    2.250    0.000    0.000 
#    0.000    0.000    0.000    0.000    0.000    0.000 
#
# Total GULP energy -178525.788486 kJ/mol
# GULP energy per Si atom -5578.930890 kJ/mol
# Density = 2.490836 g / cm^3
# Si number density = 24.965185 Si / 1000 Ang^3
#
#
#
# Elastic Constant Matrix: (Units=GPa)
#
#
# Indices 1 2 3 4 5 6 
#
# 1 133.8219 0.8210 47.6372 0.0000 7.2182 0.0000
# 2 0.8210 20.2792 7.4314 0.0000 3.6549 0.0000
# 3 47.6372 7.4314 95.6579 0.0000 10.3846 0.0000
# 4 0.0000 0.0000 0.0000 30.4107 0.0000 1.8079
# 5 7.2182 3.6549 10.3846 0.0000 42.1092 0.0000
# 6 0.0000 0.0000 0.0000 1.8079 0.0000 23.8978
#
#
#
# Elastic Compliance Matrix: (Units=1/GPa)
#
#
# Indices 1 2 3 4 5 6 
#
# 1 0.009130 0.001415 -0.004596 0.000000 -0.000554 0.000000
# 2 0.001415 0.051491 -0.004309 0.000000 -0.003649 0.000000
# 3 -0.004596 -0.004309 0.013308 0.000000 -0.002120 0.000000
# 4 0.000000 0.000000 0.000000 0.033032 0.000000 -0.002499
# 5 -0.000554 -0.003649 -0.002120 0.000000 0.024682 0.000000
# 6 0.000000 0.000000 0.000000 -0.002499 0.000000 0.042034
#
#
# Mechanical properties :
#
#
# Convention : Reuss Voigt Hill
#
# Bulk Modulus (GPa) = 16.96406 40.17092 28.56749
# Shear Modulus (GPa) = 24.00304 32.20816 28.10560
#
# Velocity S-wave (km/s) = 3.10411 3.59572 3.35892
# Velocity P-wave (km/s) = 4.43364 5.77622 5.14887
#
# Compressibility (1/GPa) = 0.05894817
#
# Stress axis : x y z
#
# Youngs Moduli (GPa) = 109.52832 19.42087 75.14385
#
# Poissons Ratio (x) = -0.02747 0.34540
# Poissons Ratio (y) = -0.15495 0.32376
# Poissons Ratio (z) = 0.50344 0.08368
#
# Static dielectric constant tensor:
#      x y z
#    x 2.090700 0.000000 0.014180 
#    y 0.000000 1.960210 0.000000 
#    z 0.014180 0.000000 2.025790 
# 
# From -- ./inp_files/57557.got.cif
#   From: 2010.05.17/outbox.cif.g08.bks.cpg/sg14_29_cif.got.tgz:57557.got - 2010.06.03 17:49:19.
