data_PCOD9240470
_publ_section_title
;
Structure prediction by ZEFSAII (Michael W. Deem and Ramdas Pophale) SiO2 
 PCOD9240470
Probable space group: P 21/C
;
_chemical_formula_sum "Si O2"
_cell_formula_units_Z 16
_cell_length_a 5.368855
_cell_length_b 4.891044
_cell_length_c 23.477228
_cell_angle_alpha 90.000000
_cell_angle_beta 107.560719
_cell_angle_gamma 90.000000
_cell_volume 587.765623
_symmetry_space_group_name_H-M "P 21/C"
_symmetry_group_IT_number 14
_symmetry_cell_setting 'monoclinic'
loop_
_space_group_symop_operation_xyz
x,y,z
-x,1/2+y,1/2-z
-x,-y,-z
x,1/2-y,1/2+z
loop_
_atom_site_type_symbol
_atom_site_label
_atom_site_fract_x
_atom_site_fract_y
_atom_site_fract_z
Si Si1 0.640728 0.991274 0.846417
Si Si2 0.391320 0.516761 0.880546
Si Si3 0.856395 0.749646 0.461368
Si Si4 0.063133 0.814404 0.718702
O O1 0.564624 0.246828 0.881169
O O2 0.709697 0.130508 0.792340
O O3 0.427530 0.748849 0.833912
O O4 0.874190 0.830241 0.895332
O O5 0.108817 0.392067 0.849496
O O6 0.542137 0.677476 0.941920
O O7 0.000000 0.500000 0.500000
O O8 0.000000 0.000000 0.500000
O O9 0.901978 0.603320 0.747439
#
# Coordination Sequence:
#
# PCOD9240470 Si02
#       4
#     4   4   4   4
#     4  10  22  41  65  92 136 166 224 277 333 411
#     4  10  22  41  65  92 136 166 224 277 333 411
#     4  10  18  38  68  94 128 174 214 278 346 398
#     4  12  26  42  66  96 132 182 232 280 338 406
#
# _framework density 27.221734000000001
#
# number of rings (size 3 to 8) (size 9 to 14) (size 15 to 20)
#    1.500    0.000    2.500    3.000    0.000    4.000 
#    0.000    2.500    0.000    0.000    0.000    0.000 
#    0.000    0.000    0.000    0.000    0.000    0.000 
#
# Total GULP energy -89114.237196 kJ/mol
# GULP energy per Si atom -5569.639825 kJ/mol
# Density = 2.715978 g / cm^3
# Si number density = 27.221734 Si / 1000 Ang^3
#
#
#
# Elastic Constant Matrix: (Units=GPa)
#
#
# Indices 1 2 3 4 5 6 
#
# 1 44.7065 30.7785 7.5973 0.0000 4.2190 0.0000
# 2 30.7785 236.9715 29.3865 0.0000 5.0400 0.0000
# 3 7.5973 29.3865 83.4853 0.0000 18.9282 0.0000
# 4 0.0000 0.0000 0.0000 72.9119 0.0000 -6.2084
# 5 4.2190 5.0400 18.9282 0.0000 26.9917 0.0000
# 6 0.0000 0.0000 0.0000 -6.2084 0.0000 43.2942
#
#
#
# Elastic Compliance Matrix: (Units=1/GPa)
#
#
# Indices 1 2 3 4 5 6 
#
# 1 0.024870 -0.003105 -0.000500 0.000000 -0.002957 0.000000
# 2 -0.003105 0.004803 -0.001563 0.000000 0.000685 0.000000
# 3 -0.000500 -0.001563 0.014851 0.000000 -0.010045 0.000000
# 4 0.000000 0.000000 0.000000 0.013885 0.000000 0.001991
# 5 -0.002957 0.000685 -0.010045 0.000000 0.044426 0.000000
# 6 0.000000 0.000000 0.000000 0.001991 0.000000 0.023383
#
#
# Mechanical properties :
#
#
# Convention : Reuss Voigt Hill
#
# Bulk Modulus (GPa) = 29.25058 55.63199 42.44128
# Shear Modulus (GPa) = 33.79512 48.46628 41.13070
#
# Velocity S-wave (km/s) = 3.52728 4.22409 3.89131
# Velocity P-wave (km/s) = 5.23045 6.65368 5.98453
#
# Compressibility (1/GPa) = 0.03418736
#
# Stress axis : x y z
#
# Youngs Moduli (GPa) = 40.20915 208.22393 67.33463
#
# Poissons Ratio (x) = 0.64660 0.03365
# Poissons Ratio (y) = 0.12486 0.10525
# Poissons Ratio (z) = 0.02009 0.32548
#
# Static dielectric constant tensor:
#      x y z
#    x 2.290740 0.000000 0.007230 
#    y 0.000000 2.010110 0.000000 
#    z 0.007230 0.000000 2.307880 
# 
# From -- ./inp_files/75406.got.cif
#   From: 2010.05.17/outbox.cif.g08.bks.cpg/sg14_38_cif.got.tgz:75406.got - 2010.06.03 17:49:19.
