data_PCOD9240308
_publ_section_title
;
Structure prediction by ZEFSAII (Michael W. Deem and Ramdas Pophale) SiO2 
 PCOD9240308
Probable space group: P 21/C
;
_chemical_formula_sum "Si O2"
_cell_formula_units_Z 28
_cell_length_a 13.696265
_cell_length_b 15.449681
_cell_length_c 8.764590
_cell_angle_alpha 90.000000
_cell_angle_beta 137.017253
_cell_angle_gamma 90.000000
_cell_volume 1264.434452
_symmetry_space_group_name_H-M "P 21/C"
_symmetry_group_IT_number 14
_symmetry_cell_setting 'monoclinic'
loop_
_space_group_symop_operation_xyz
x,y,z
-x,1/2+y,1/2-z
-x,-y,-z
x,1/2-y,1/2+z
loop_
_atom_site_type_symbol
_atom_site_label
_atom_site_fract_x
_atom_site_fract_y
_atom_site_fract_z
Si Si1 0.231459 0.176760 0.530899
Si Si2 0.782707 0.223917 0.175622
Si Si3 0.270494 0.002253 0.145747
Si Si4 0.064270 0.640450 0.435872
Si Si5 0.726666 0.859132 0.077797
Si Si6 0.577768 0.308078 0.699068
Si Si7 0.539362 0.620303 0.919461
O O1 0.242445 0.277247 0.495943
O O2 0.209920 0.161613 0.684374
O O3 0.380469 0.134193 0.648440
O O4 0.103508 0.137251 0.284731
O O5 0.867270 0.167624 0.149416
O O6 0.888938 0.284271 0.394283
O O7 0.683523 0.170932 0.180796
O O8 0.677150 0.285695 0.957160
O O9 0.394625 0.933783 0.245884
O O10 0.350762 0.070905 0.345338
O O11 0.142196 0.947851 0.071770
O O12 0.217509 0.055155 0.938877
O O13 0.554156 0.867991 0.904077
O O14 0.501135 0.216295 0.569354
#
# Coordination Sequence:
#
# PCOD9240308 Si02
#       7
#     4   4   4   4   4   4   4
#     4  11  24  44  62  92 127 177 211 250 320 402
#     4  10  19  36  60  89 119 165 209 255 307 382
#     4  11  23  40  65  97 128 163 211 276 322 363
#     4  11  24  41  64  90 131 168 215 258 317 388
#     4  11  23  38  70  90 127 165 216 266 320 375
#     4  10  18  36  63  93 116 161 211 262 308 383
#     4  10  21  41  64  92 129 161 212 264 323 372
#
# _framework density 22.144286000000001
#
# number of rings (size 3 to 8) (size 9 to 14) (size 15 to 20)
#    0.000    1.429    2.857    5.143    2.000    1.714 
#    0.000    0.000    0.000    0.000    0.000    0.000 
#    0.000    0.000    0.000    0.000    0.000    0.000 
#
# Total GULP energy -156607.488970 kJ/mol
# GULP energy per Si atom -5593.124606 kJ/mol
# Density = 2.209389 g / cm^3
# Si number density = 22.144286 Si / 1000 Ang^3
#
#
#
# Elastic Constant Matrix: (Units=GPa)
#
#
# Indices 1 2 3 4 5 6 
#
# 1 45.5650 7.6842 8.6980 0.0000 0.6446 0.0000
# 2 7.6842 46.5000 -6.7929 0.0000 -2.1559 0.0000
# 3 8.6980 -6.7929 70.5973 0.0000 7.6374 0.0000
# 4 0.0000 0.0000 0.0000 10.2606 0.0000 1.1978
# 5 0.6446 -2.1559 7.6374 0.0000 35.8664 0.0000
# 6 0.0000 0.0000 0.0000 1.1978 0.0000 21.5683
#
#
#
# Elastic Compliance Matrix: (Units=1/GPa)
#
#
# Indices 1 2 3 4 5 6 
#
# 1 0.023305 -0.004331 -0.003290 0.000000 0.000022 0.000000
# 2 -0.004331 0.022644 0.002617 0.000000 0.000882 0.000000
# 3 -0.003290 0.002617 0.015148 0.000000 -0.003009 0.000000
# 4 0.000000 0.000000 0.000000 0.098097 0.000000 -0.005448
# 5 0.000022 0.000882 -0.003009 0.000000 0.028575 0.000000
# 6 0.000000 0.000000 0.000000 -0.005448 0.000000 0.046667
#
#
# Mechanical properties :
#
#
# Convention : Reuss Voigt Hill
#
# Bulk Modulus (GPa) = 19.57393 20.20455 19.88924
# Shear Modulus (GPa) = 19.12247 23.74391 21.43319
#
# Velocity S-wave (km/s) = 2.94179 3.27805 3.11446
# Velocity P-wave (km/s) = 4.51634 4.84473 4.68341
#
# Compressibility (1/GPa) = 0.05108837
#
# Stress axis : x y z
#
# Youngs Moduli (GPa) = 42.90954 44.16137 66.01715
#
# Poissons Ratio (x) = 0.19126 0.21722
# Poissons Ratio (y) = 0.18583 -0.17277
# Poissons Ratio (z) = 0.14119 -0.11557
#
# Static dielectric constant tensor:
#      x y z
#    x 1.831910 0.000000 -0.003140 
#    y 0.000000 1.787770 0.000000 
#    z -0.003140 0.000000 1.823650 
# 
# From -- ./inp_files/16279.got.cif
#   From: 2010.05.17/outbox.cif.g08.bks.cpg/sg14_9_cif.got.tgz:16279.got - 2010.06.03 17:49:19.
