data_PCOD9240873
_publ_section_title
;
Structure prediction by ZEFSAII (Michael W. Deem and Ramdas Pophale) SiO2 
 PCOD9240873
Probable space group: P 21/C
;
_chemical_formula_sum "Si O2"
_cell_formula_units_Z 24
_cell_length_a 13.303913
_cell_length_b 9.190609
_cell_length_c 23.308334
_cell_angle_alpha 90.000000
_cell_angle_beta 157.584721
_cell_angle_gamma 90.000000
_cell_volume 1086.728319
_symmetry_space_group_name_H-M "P 21/C"
_symmetry_group_IT_number 14
_symmetry_cell_setting 'monoclinic'
loop_
_space_group_symop_operation_xyz
x,y,z
-x,1/2+y,1/2-z
-x,-y,-z
x,1/2-y,1/2+z
loop_
_atom_site_type_symbol
_atom_site_label
_atom_site_fract_x
_atom_site_fract_y
_atom_site_fract_z
Si Si1 0.385065 0.851424 0.299397
Si Si2 0.681964 0.660611 0.839987
Si Si3 0.534640 0.409627 0.960353
Si Si4 0.056118 0.086278 0.086621
Si Si5 0.986773 0.717832 0.842342
Si Si6 0.193469 0.560897 0.183131
O O1 0.469911 0.830388 0.278098
O O2 0.336471 0.688648 0.293312
O O3 0.569606 0.961847 0.430962
O O4 0.124793 0.950036 0.163561
O O5 0.720775 0.799921 0.819301
O O6 0.635434 0.521470 0.775014
O O7 0.953565 0.631522 0.019286
O O8 0.273835 0.309700 0.812790
O O9 0.500000 0.500000 0.000000
O O10 0.794625 0.310722 0.090499
O O11 0.885734 0.193063 0.036335
O O12 0.000000 0.000000 0.000000
O O13 0.897906 0.565391 0.822699
#
# Coordination Sequence:
#
# PCOD9240873 Si02
#       6
#     4   4   4   4   4   4
#     4  11  21  36  61  90 128 175 220 275 323 403
#     4  10  19  33  55  86 135 170 216 254 328 402
#     4  11  26  49  71  95 128 174 230 287 345 390
#     4  10  20  33  59  97 135 175 217 256 331 408
#     4  10  24  46  69  98 137 173 219 288 338 404
#     4  10  20  36  58  93 129 174 210 264 332 405
#
# _framework density 22.084636
#
# number of rings (size 3 to 8) (size 9 to 14) (size 15 to 20)
#    0.000    1.667    3.333    1.000    0.000    6.667 
#    0.000    1.667    0.000    0.000    0.000    0.000 
#    0.000    0.000    0.000    0.000    0.000    0.000 
#
# Total GULP energy -133652.510725 kJ/mol
# GULP energy per Si atom -5568.854614 kJ/mol
# Density = 2.203437 g / cm^3
# Si number density = 22.084636 Si / 1000 Ang^3
#
#
#
# Elastic Constant Matrix: (Units=GPa)
#
#
# Indices 1 2 3 4 5 6 
#
# 1 96.2344 44.8644 26.9914 0.0000 18.5488 0.0000
# 2 44.8644 167.7815 44.9399 0.0000 11.1396 0.0000
# 3 26.9914 44.9399 57.7537 0.0000 12.7866 0.0000
# 4 0.0000 0.0000 0.0000 20.2660 0.0000 -12.1677
# 5 18.5488 11.1396 12.7866 0.0000 20.7616 0.0000
# 6 0.0000 0.0000 0.0000 -12.1677 0.0000 32.6301
#
#
#
# Elastic Compliance Matrix: (Units=1/GPa)
#
#
# Indices 1 2 3 4 5 6 
#
# 1 0.014123 -0.002450 -0.002537 0.000000 -0.009740 0.000000
# 2 -0.002450 0.007959 -0.005311 0.000000 0.001190 0.000000
# 3 -0.002537 -0.005311 0.024895 0.000000 -0.010216 0.000000
# 4 0.000000 0.000000 0.000000 0.063578 0.000000 0.023708
# 5 -0.009740 0.001190 -0.010216 0.000000 0.062521 0.000000
# 6 0.000000 0.000000 0.000000 0.023708 0.000000 0.039487
#
#
# Mechanical properties :
#
#
# Convention : Reuss Voigt Hill
#
# Bulk Modulus (GPa) = 37.90855 61.70678 49.80766
# Shear Modulus (GPa) = 20.66508 28.39646 24.53077
#
# Velocity S-wave (km/s) = 3.06228 3.58970 3.33642
# Velocity P-wave (km/s) = 5.45030 6.72183 6.11918
#
# Compressibility (1/GPa) = 0.02637927
#
# Stress axis : x y z
#
# Youngs Moduli (GPa) = 70.80892 125.64498 40.16792
#
# Poissons Ratio (x) = 0.30783 0.10192
# Poissons Ratio (y) = 0.17348 0.21335
# Poissons Ratio (z) = 0.17967 0.66736
#
# Static dielectric constant tensor:
#      x y z
#    x 1.814130 0.000000 -0.042000 
#    y 0.000000 1.808180 0.000000 
#    z -0.042000 0.000000 1.994970 
# 
# From -- ./inp_files/73149.got.cif
#   From: 2010.05.17/outbox.cif.g08.bks.cpg/sg14_37_cif.got.tgz:73149.got - 2010.06.03 17:49:19.
