data_PCOD9240215
_publ_section_title
;
Structure prediction by ZEFSAII (Michael W. Deem and Ramdas Pophale) SiO2 
 PCOD9240215
Probable space group: P 21/C
;
_chemical_formula_sum "Si O2"
_cell_formula_units_Z 24
_cell_length_a 9.800155
_cell_length_b 8.755570
_cell_length_c 14.335209
_cell_angle_alpha 90.000000
_cell_angle_beta 49.665526
_cell_angle_gamma 90.000000
_cell_volume 937.638367
_symmetry_space_group_name_H-M "P 21/C"
_symmetry_group_IT_number 14
_symmetry_cell_setting 'monoclinic'
loop_
_space_group_symop_operation_xyz
x,y,z
-x,1/2+y,1/2-z
-x,-y,-z
x,1/2-y,1/2+z
loop_
_atom_site_type_symbol
_atom_site_label
_atom_site_fract_x
_atom_site_fract_y
_atom_site_fract_z
Si Si1 0.784410 0.084509 0.032218
Si Si2 0.006110 0.220685 0.083053
Si Si3 0.697483 0.386230 0.301912
Si Si4 0.439149 0.314431 0.559422
Si Si5 0.619816 0.892441 0.272152
Si Si6 0.680143 0.910169 0.624843
O O1 0.712046 0.011193 0.161614
O O2 0.920494 0.206442 0.015994
O O3 0.620888 0.154740 0.044039
O O4 0.898239 0.942353 0.940890
O O5 0.861058 0.269993 0.224204
O O6 0.150374 0.353472 0.006702
O O7 0.518710 0.302918 0.420582
O O8 0.682122 0.536119 0.373156
O O9 0.702960 0.466307 0.198730
O O10 0.321690 0.180596 0.656152
O O11 0.608944 0.741679 0.210554
O O12 0.450300 0.989847 0.379433
#
# Coordination Sequence:
#
# PCOD9240215 Si02
#       6
#     4   4   4   4   4   4
#     4  10  20  38  59  84 115 149 195 241 280 342
#     4  10  22  36  59  88 116 150 193 238 289 337
#     4  10  20  37  55  87 116 148 192 234 290 342
#     4  10  21  36  60  82 115 155 189 238 290 341
#     4  10  18  35  63  86 107 153 201 228 280 346
#     4  10  20  36  63  87 112 158 192 241 277 351
#
# _framework density 25.596222999999998
#
# number of rings (size 3 to 8) (size 9 to 14) (size 15 to 20)
#    0.000    2.000    3.333    1.500    0.000    0.000 
#    6.000    0.833    0.000    0.000    0.000    0.000 
#    0.000    0.000    0.000    0.000    0.000    0.000 
#
# Total GULP energy -133687.661069 kJ/mol
# GULP energy per Si atom -5570.319211 kJ/mol
# Density = 2.553796 g / cm^3
# Si number density = 25.596223 Si / 1000 Ang^3
#
#
#
# Elastic Constant Matrix: (Units=GPa)
#
#
# Indices 1 2 3 4 5 6 
#
# 1 71.0287 7.6418 -4.7790 0.0000 6.6541 0.0000
# 2 7.6418 74.6264 39.3503 0.0000 -10.0218 0.0000
# 3 -4.7790 39.3503 120.5257 0.0000 -10.3236 0.0000
# 4 0.0000 0.0000 0.0000 35.9270 0.0000 -20.1610
# 5 6.6541 -10.0218 -10.3236 0.0000 22.4613 0.0000
# 6 0.0000 0.0000 0.0000 -20.1610 0.0000 35.0695
#
#
#
# Elastic Compliance Matrix: (Units=1/GPa)
#
#
# Indices 1 2 3 4 5 6 
#
# 1 0.014935 -0.002782 0.001057 0.000000 -0.005180 0.000000
# 2 -0.002782 0.017261 -0.005221 0.000000 0.006126 0.000000
# 3 0.001057 -0.005221 0.010219 0.000000 0.002054 0.000000
# 4 0.000000 0.000000 0.000000 0.041090 0.000000 0.023622
# 5 -0.005180 0.006126 0.002054 0.000000 0.049733 0.000000
# 6 0.000000 0.000000 0.000000 0.023622 0.000000 0.042095
#
#
# Mechanical properties :
#
#
# Convention : Reuss Voigt Hill
#
# Bulk Modulus (GPa) = 35.06080 38.95635 37.00858
# Shear Modulus (GPa) = 25.15941 33.62274 29.39107
#
# Velocity S-wave (km/s) = 3.13858 3.62827 3.39227
# Velocity P-wave (km/s) = 5.18282 5.72757 5.46199
#
# Compressibility (1/GPa) = 0.02852188
#
# Stress axis : x y z
#
# Youngs Moduli (GPa) = 66.95900 57.93518 97.85247
#
# Poissons Ratio (x) = 0.16119 -0.10341
# Poissons Ratio (y) = 0.18629 0.51089
# Poissons Ratio (z) = -0.07076 0.30248
#
# Static dielectric constant tensor:
#      x y z
#    x 2.189030 0.000000 -0.044440 
#    y 0.000000 2.023420 0.000000 
#    z -0.044440 0.000000 2.063240 
# 
# From -- ./inp_files/58726.got.cif
#   From: 2010.05.17/outbox.cif.g08.bks.cpg/sg14_30_cif.got.tgz:58726.got - 2010.06.03 17:49:19.
