data_PCOD9240043
_publ_section_title
;
Structure prediction by ZEFSAII (Michael W. Deem and Ramdas Pophale) SiO2 
 PCOD9240043
Probable space group: P 21/C
;
_chemical_formula_sum "Si O2"
_cell_formula_units_Z 24
_cell_length_a 10.841396
_cell_length_b 19.905056
_cell_length_c 5.275100
_cell_angle_alpha 90.000000
_cell_angle_beta 112.888234
_cell_angle_gamma 90.000000
_cell_volume 1048.730793
_symmetry_space_group_name_H-M "P 21/C"
_symmetry_group_IT_number 14
_symmetry_cell_setting 'monoclinic'
loop_
_space_group_symop_operation_xyz
x,y,z
-x,1/2+y,1/2-z
-x,-y,-z
x,1/2-y,1/2+z
loop_
_atom_site_type_symbol
_atom_site_label
_atom_site_fract_x
_atom_site_fract_y
_atom_site_fract_z
Si Si1 0.589033 0.784005 0.436459
Si Si2 0.246996 0.569510 0.043790
Si Si3 0.993335 0.335157 0.273841
Si Si4 0.100493 0.186335 0.359022
Si Si5 0.692790 0.998336 0.919455
Si Si6 0.487357 0.094289 0.978245
O O1 0.549717 0.773299 0.697390
O O2 0.750236 0.788852 0.569093
O O3 0.536890 0.847522 0.241310
O O4 0.146271 0.629204 0.892688
O O5 0.256783 0.517221 0.817892
O O6 0.216252 0.531114 0.284766
O O7 0.391101 0.601638 0.226546
O O8 0.006153 0.253416 0.303516
O O9 0.050522 0.358037 0.587421
O O10 0.086545 0.351396 0.110798
O O11 0.646339 0.925066 0.974029
O O12 0.548394 0.035949 0.842937
#
# Coordination Sequence:
#
# PCOD9240043 Si02
#       6
#     4   4   4   4   4   4
#     4  12  23  39  58  85 115 148 195 229 280 343
#     4  10  19  35  57  89 106 145 187 234 281 333
#     4  10  18  34  57  76 112 143 192 224 269 339
#     4  10  19  37  53  78 105 163 182 218 284 334
#     4   9  20  38  59  86 111 152 188 225 297 334
#     4   9  23  37  62  83 118 148 188 234 288 338
#
# _framework density 22.884806000000001
#
# number of rings (size 3 to 8) (size 9 to 14) (size 15 to 20)
#    1.000    1.000    3.333    1.500    2.333    0.000 
#    6.000    0.000    0.000    6.000    0.000    0.000 
#    0.000    0.000    0.000    0.000    0.000    0.000 
#
# Total GULP energy -133634.052743 kJ/mol
# GULP energy per Si atom -5568.085531 kJ/mol
# Density = 2.283272 g / cm^3
# Si number density = 22.884806 Si / 1000 Ang^3
#
#
#
# Elastic Constant Matrix: (Units=GPa)
#
#
# Indices 1 2 3 4 5 6 
#
# 1 12.5600 -14.4171 26.2505 0.0000 -25.5232 0.0000
# 2 -14.4171 19.1083 25.4276 0.0000 -1.2312 0.0000
# 3 26.2505 25.4276 124.6252 0.0000 2.9781 0.0000
# 4 0.0000 0.0000 0.0000 56.5274 0.0000 31.3706
# 5 -25.5232 -1.2312 2.9781 0.0000 -1.8711 0.0000
# 6 0.0000 0.0000 0.0000 31.3706 0.0000 28.8776
#
#
#
# Elastic Compliance Matrix: (Units=1/GPa)
#
#
# Indices 1 2 3 4 5 6 
#
# 1 0.002797 -0.000890 0.000472 0.000000 -0.036815 0.000000
# 2 -0.000890 0.064136 -0.011734 0.000000 -0.048734 0.000000
# 3 0.000472 -0.011734 0.009911 0.000000 0.017054 0.000000
# 4 0.000000 0.000000 0.000000 0.044546 0.000000 -0.048391
# 5 -0.036815 -0.048734 0.017054 0.000000 0.026951 0.000000
# 6 0.000000 0.000000 0.000000 -0.048391 0.000000 0.087198
#
#
# Mechanical properties :
#
#
# Convention : Reuss Voigt Hill
#
# Bulk Modulus (GPa) = 19.03281 25.64616 22.33949
# Shear Modulus (GPa) = 18.02735 24.64228 21.33482
#
# Velocity S-wave (km/s) = 2.80972 3.28502 3.05662
# Velocity P-wave (km/s) = 4.34291 5.06156 4.71595
#
# Compressibility (1/GPa) = 0.05254085
#
# Stress axis : x y z
#
# Youngs Moduli (GPa) = 357.52535 15.59184 100.89645
#
# Poissons Ratio (x) = 0.01388 -0.04764
# Poissons Ratio (y) = 0.31824 1.18390
# Poissons Ratio (z) = -0.16883 0.18295
#
# Static dielectric constant tensor:
#      x y z
#    x 1.876420 0.000000 -0.058250 
#    y 0.000000 2.028830 0.000000 
#    z -0.058250 0.000000 1.886150 
# 
# From -- ./inp_files/3117.got.cif
#   From: 2010.05.17/outbox.cif.g08.bks.cpg/sg14_2_cif.got.tgz:3117.got - 2010.06.03 17:49:19.
