data_PCOD9240005
_publ_section_title
;
Structure prediction by ZEFSAII (Michael W. Deem and Ramdas Pophale) SiO2 
 PCOD9240005
Probable space group: P 21/C
;
_chemical_formula_sum "Si O2"
_cell_formula_units_Z 32
_cell_length_a 14.293099
_cell_length_b 17.149547
_cell_length_c 14.566924
_cell_angle_alpha 90.000000
_cell_angle_beta 149.751740
_cell_angle_gamma 90.000000
_cell_volume 1798.705334
_symmetry_space_group_name_H-M "P 21/C"
_symmetry_group_IT_number 14
_symmetry_cell_setting 'monoclinic'
loop_
_space_group_symop_operation_xyz
x,y,z
-x,1/2+y,1/2-z
-x,-y,-z
x,1/2-y,1/2+z
loop_
_atom_site_type_symbol
_atom_site_label
_atom_site_fract_x
_atom_site_fract_y
_atom_site_fract_z
Si Si1 0.895317 0.781586 0.684325
Si Si2 0.737437 0.063239 0.893807
Si Si3 0.980310 0.204823 0.017115
Si Si4 0.721746 0.597679 0.313382
Si Si5 0.690925 0.175306 0.006895
Si Si6 0.401661 0.115150 0.489619
Si Si7 0.454708 0.302222 0.693423
Si Si8 0.614835 0.279613 0.641070
O O1 0.781352 0.861591 0.607976
O O2 0.751033 0.728546 0.507194
O O3 0.095801 0.794424 0.809601
O O4 0.935116 0.752248 0.822206
O O5 0.872248 0.129340 0.966726
O O6 0.546041 0.069659 0.674616
O O7 0.811649 0.977034 0.938386
O O8 0.699169 0.091296 0.964769
O O9 0.828376 0.256224 0.838332
O O10 0.137860 0.168769 0.087026
O O11 0.651185 0.576631 0.151521
O O12 0.563984 0.630604 0.247090
O O13 0.600745 0.180254 0.030599
O O14 0.575434 0.232016 0.840187
O O15 0.498661 0.198300 0.545454
O O16 0.546544 0.324403 0.674041
#
# Coordination Sequence:
#
# PCOD9240005 Si02
#       8
#     4   4   4   4   4   4   4   4
#     4   9  17  32  53  76 103 131 173 215 260 308
#     4  10  19  34  50  79 114 140 171 213 271 325
#     4   9  18  33  54  79 108 135 174 223 272 310
#     4  11  20  30  52  82 110 142 169 217 274 316
#     4  11  19  34  56  72 106 143 174 217 264 311
#     4   9  17  31  52  77 106 130 170 216 263 311
#     4  11  20  34  53  80 107 133 183 220 256 316
#     4  10  18  34  53  78 102 138 177 222 256 304
#
# _framework density 17.790573999999999
#
# number of rings (size 3 to 8) (size 9 to 14) (size 15 to 20)
#    0.000    2.000    6.250    1.500    0.000    0.000 
#    0.000    0.625    0.000    0.000    0.000    1.750 
#    0.000    0.000    0.000    0.000    0.000    0.000 
#
# Total GULP energy -178261.438915 kJ/mol
# GULP energy per Si atom -5570.669966 kJ/mol
# Density = 1.775008 g / cm^3
# Si number density = 17.790574 Si / 1000 Ang^3
#
#
#
# Elastic Constant Matrix: (Units=GPa)
#
#
# Indices 1 2 3 4 5 6 
#
# 1 102.4864 7.3987 10.4783 0.0000 -11.8737 0.0000
# 2 7.3987 9.9680 -4.0451 0.0000 -3.9261 0.0000
# 3 10.4783 -4.0451 81.6402 0.0000 6.3209 0.0000
# 4 0.0000 0.0000 0.0000 10.7086 0.0000 -0.7024
# 5 -11.8737 -3.9261 6.3209 0.0000 16.0746 0.0000
# 6 0.0000 0.0000 0.0000 -0.7024 0.0000 13.4008
#
#
#
# Elastic Compliance Matrix: (Units=1/GPa)
#
#
# Indices 1 2 3 4 5 6 
#
# 1 0.011358 -0.006331 -0.002374 0.000000 0.007777 0.000000
# 2 -0.006331 0.115510 0.004861 0.000000 0.021625 0.000000
# 3 -0.002374 0.004861 0.013241 0.000000 -0.005773 0.000000
# 4 0.000000 0.000000 0.000000 0.093705 0.000000 0.004912
# 5 0.007777 0.021625 -0.005773 0.000000 0.075506 0.000000
# 6 0.000000 0.000000 0.000000 0.004912 0.000000 0.074880
#
#
# Mechanical properties :
#
#
# Convention : Reuss Voigt Hill
#
# Bulk Modulus (GPa) = 7.55149 24.63983 16.09566
# Shear Modulus (GPa) = 11.46717 20.05431 15.76074
#
# Velocity S-wave (km/s) = 2.54158 3.36109 2.97964
# Velocity P-wave (km/s) = 3.58702 5.37983 4.57216
#
# Compressibility (1/GPa) = 0.13242415
#
# Stress axis : x y z
#
# Youngs Moduli (GPa) = 88.04291 8.65726 75.52119
#
# Poissons Ratio (x) = 0.05481 0.17925
# Poissons Ratio (y) = 0.55736 -0.36714
# Poissons Ratio (z) = 0.20898 -0.04209
#
# Static dielectric constant tensor:
#      x y z
#    x 1.643440 0.000000 0.002920 
#    y 0.000000 1.614560 0.000000 
#    z 0.002920 0.000000 1.653780 
# 
# From -- ./inp_files/30630.got.cif
#   From: 2010.05.17/outbox.cif.g08.bks.cpg/sg14_16_cif.got.tgz:30630.got - 2010.06.03 17:49:19.
