data_PCOD9240197
_publ_section_title
;
Structure prediction by ZEFSAII (Michael W. Deem and Ramdas Pophale) SiO2 
 PCOD9240197
Probable space group: P 21/C
;
_chemical_formula_sum "Si O2"
_cell_formula_units_Z 32
_cell_length_a 9.743361
_cell_length_b 7.511233
_cell_length_c 19.138178
_cell_angle_alpha 90.000000
_cell_angle_beta 100.334218
_cell_angle_gamma 90.000000
_cell_volume 1377.900185
_symmetry_space_group_name_H-M "P 21/C"
_symmetry_group_IT_number 14
_symmetry_cell_setting 'monoclinic'
loop_
_space_group_symop_operation_xyz
x,y,z
-x,1/2+y,1/2-z
-x,-y,-z
x,1/2-y,1/2+z
loop_
_atom_site_type_symbol
_atom_site_label
_atom_site_fract_x
_atom_site_fract_y
_atom_site_fract_z
Si Si1 0.679921 0.603073 0.768607
Si Si2 0.145894 0.101474 0.588232
Si Si3 0.358679 0.817502 0.259059
Si Si4 0.631467 0.856591 0.109992
Si Si5 0.912042 0.231907 0.489006
Si Si6 0.320085 0.955440 0.107189
Si Si7 0.613066 0.819983 0.468706
Si Si8 0.303517 0.775258 0.408843
O O1 0.808146 0.649110 0.830361
O O2 0.671916 0.387827 0.763331
O O3 0.526635 0.661763 0.781524
O O4 0.693638 0.678118 0.691726
O O5 0.290459 0.044324 0.563357
O O6 0.064237 0.253207 0.538013
O O7 0.061367 0.921388 0.566626
O O8 0.311564 0.942050 0.190569
O O9 0.290937 0.846108 0.328658
O O10 0.463302 0.848513 0.103149
O O11 0.673083 0.059811 0.093629
O O12 0.667458 0.727577 0.050272
O O13 0.816532 0.374548 0.440888
O O14 0.822085 0.188981 0.550681
O O15 0.357214 0.144334 0.076533
O O16 0.449109 0.850545 0.451753
#
# Coordination Sequence:
#
# PCOD9240197 Si02
#       8
#     4   4   4   4   4   4   4   4
#     4  10  20  37  57  86 117 150 183 241 291 336
#     4  11  25  38  56  84 123 154 188 236 290 347
#     4  10  20  34  61  88 114 145 189 241 290 334
#     4   9  18  33  62  87 112 141 191 249 287 326
#     4  11  22  41  57  79 119 162 183 229 299 346
#     4  10  18  35  61  85 116 151 186 235 292 340
#     4  11  19  37  60  90 110 141 205 245 270 339
#     4  10  18  36  61  86 111 147 195 237 285 336
#
# _framework density 23.223742000000001
#
# number of rings (size 3 to 8) (size 9 to 14) (size 15 to 20)
#    0.000    1.750    5.000    1.500    0.000    1.000 
#    4.500    1.250    2.750    0.000    0.000    0.000 
#    0.000    0.000    0.000    0.000    0.000    0.000 
#
# Total GULP energy -178722.969131 kJ/mol
# GULP energy per Si atom -5585.092785 kJ/mol
# Density = 2.317088 g / cm^3
# Si number density = 23.223742 Si / 1000 Ang^3
#
#
#
# Elastic Constant Matrix: (Units=GPa)
#
#
# Indices 1 2 3 4 5 6 
#
# 1 72.8671 8.3960 35.8909 0.0000 16.0695 0.0000
# 2 8.3960 55.7700 37.9829 0.0000 9.3230 0.0000
# 3 35.8909 37.9829 177.6728 0.0000 18.1209 0.0000
# 4 0.0000 0.0000 0.0000 25.5938 0.0000 -2.0025
# 5 16.0695 9.3230 18.1209 0.0000 46.2525 0.0000
# 6 0.0000 0.0000 0.0000 -2.0025 0.0000 21.5789
#
#
#
# Elastic Compliance Matrix: (Units=1/GPa)
#
#
# Indices 1 2 3 4 5 6 
#
# 1 0.016094 0.000274 -0.002847 0.000000 -0.004531 0.000000
# 2 0.000274 0.021290 -0.004332 0.000000 -0.002689 0.000000
# 3 -0.002847 -0.004332 0.007229 0.000000 -0.000969 0.000000
# 4 0.000000 0.000000 0.000000 0.039358 0.000000 0.003652
# 5 -0.004531 -0.002689 -0.000969 0.000000 0.024117 0.000000
# 6 0.000000 0.000000 0.000000 0.003652 0.000000 0.046680
#
#
# Mechanical properties :
#
#
# Convention : Reuss Voigt Hill
#
# Bulk Modulus (GPa) = 32.46731 52.31662 42.39196
# Shear Modulus (GPa) = 27.95709 33.62106 30.78908
#
# Velocity S-wave (km/s) = 3.47337 3.80900 3.64505
# Velocity P-wave (km/s) = 5.48601 6.47462 6.00071
#
# Compressibility (1/GPa) = 0.03080021
#
# Stress axis : x y z
#
# Youngs Moduli (GPa) = 62.13561 46.97103 138.33980
#
# Poissons Ratio (x) = -0.01286 0.39392
# Poissons Ratio (y) = -0.01702 0.59934
# Poissons Ratio (z) = 0.17693 0.20350
#
# Static dielectric constant tensor:
#      x y z
#    x 1.884790 0.000000 0.011450 
#    y 0.000000 1.964140 0.000000 
#    z 0.011450 0.000000 1.895070 
# 
# From -- ./inp_files/64857.got.cif
#   From: 2010.05.17/outbox.cif.g08.bks.cpg/sg14_33_cif.got.tgz:64857.got - 2010.06.03 17:49:19.
