data_PCOD9240350
_publ_section_title
;
Structure prediction by ZEFSAII (Michael W. Deem and Ramdas Pophale) SiO2 
 PCOD9240350
Probable space group: P 21/C
;
_chemical_formula_sum "Si O2"
_cell_formula_units_Z 24
_cell_length_a 11.588638
_cell_length_b 15.614675
_cell_length_c 9.595066
_cell_angle_alpha 90.000000
_cell_angle_beta 129.336812
_cell_angle_gamma 90.000000
_cell_volume 1342.876494
_symmetry_space_group_name_H-M "P 21/C"
_symmetry_group_IT_number 14
_symmetry_cell_setting 'monoclinic'
loop_
_space_group_symop_operation_xyz
x,y,z
-x,1/2+y,1/2-z
-x,-y,-z
x,1/2-y,1/2+z
loop_
_atom_site_type_symbol
_atom_site_label
_atom_site_fract_x
_atom_site_fract_y
_atom_site_fract_z
Si Si1 0.115292 0.180387 0.028526
Si Si2 0.670289 0.977579 0.796277
Si Si3 0.950544 0.404748 0.180589
Si Si4 0.066241 0.579941 0.377233
Si Si5 0.106899 0.123783 0.516539
Si Si6 0.329306 0.993784 0.537669
O O1 0.252113 0.114162 0.113716
O O2 0.155905 0.278749 0.079487
O O3 0.017412 0.141857 0.079539
O O4 0.010790 0.174703 0.812272
O O5 0.669704 0.988126 0.627835
O O6 0.499340 0.982649 0.713368
O O7 0.770622 0.052084 0.944697
O O8 0.985032 0.486988 0.305139
O O9 0.047091 0.413579 0.115613
O O10 0.775454 0.410760 0.018320
O O11 0.031632 0.617869 0.198350
O O12 0.240522 0.068717 0.551212
#
# Coordination Sequence:
#
# PCOD9240350 Si02
#       6
#     4   4   4   4   4   4
#     4  11  19  36  56  85 109 152 192 233 276 328
#     4  10  19  35  63  77 109 150 193 217 270 351
#     4  10  19  35  57  80 109 147 189 231 270 334
#     4  10  18  37  57  79 105 148 194 218 266 348
#     4  11  22  33  56  87 119 136 188 250 282 304
#     4  10  19  36  58  84 106 152 187 225 272 343
#
# _framework density 17.872081999999999
#
# number of rings (size 3 to 8) (size 9 to 14) (size 15 to 20)
#    0.000    1.667    5.000    4.000    0.000    0.000 
#    0.000   10.833    0.000    0.000    0.000    0.000 
#    0.000    0.000    0.000    0.000    0.000    0.000 
#
# Total GULP energy -133669.746771 kJ/mol
# GULP energy per Si atom -5569.572782 kJ/mol
# Density = 1.783140 g / cm^3
# Si number density = 17.872082 Si / 1000 Ang^3
#
#
#
# Elastic Constant Matrix: (Units=GPa)
#
#
# Indices 1 2 3 4 5 6 
#
# 1 117.9934 29.0468 49.5508 0.0000 20.5471 0.0000
# 2 29.0468 66.7265 20.4940 0.0000 13.5572 0.0000
# 3 49.5508 20.4940 73.2455 0.0000 18.4922 0.0000
# 4 0.0000 0.0000 0.0000 18.2019 0.0000 -3.4845
# 5 20.5471 13.5572 18.4922 0.0000 41.1231 0.0000
# 6 0.0000 0.0000 0.0000 -3.4845 0.0000 16.6770
#
#
#
# Elastic Compliance Matrix: (Units=1/GPa)
#
#
# Indices 1 2 3 4 5 6 
#
# 1 0.012549 -0.002833 -0.007163 0.000000 -0.002115 0.000000
# 2 -0.002833 0.017570 -0.002137 0.000000 -0.003416 0.000000
# 3 -0.007163 -0.002137 0.020322 0.000000 -0.004855 0.000000
# 4 0.000000 0.000000 0.000000 0.057228 0.000000 0.011957
# 5 -0.002115 -0.003416 -0.004855 0.000000 0.028683 0.000000
# 6 0.000000 0.000000 0.000000 0.011957 0.000000 0.062461
#
#
# Mechanical properties :
#
#
# Convention : Reuss Voigt Hill
#
# Bulk Modulus (GPa) = 38.20383 50.68316 44.44350
# Shear Modulus (GPa) = 21.56993 25.79199 23.68096
#
# Velocity S-wave (km/s) = 3.47782 3.80299 3.64404
# Velocity P-wave (km/s) = 6.12778 6.90682 6.52893
#
# Compressibility (1/GPa) = 0.02617538
#
# Stress axis : x y z
#
# Youngs Moduli (GPa) = 79.68988 56.91450 49.20799
#
# Poissons Ratio (x) = 0.16124 0.35245
# Poissons Ratio (y) = 0.22576 0.10517
# Poissons Ratio (z) = 0.57078 0.12164
#
# Static dielectric constant tensor:
#      x y z
#    x 1.608620 0.000000 0.000030 
#    y 0.000000 1.633440 0.000000 
#    z 0.000030 0.000000 1.672860 
# 
# From -- ./inp_files/13796.got.cif
#   From: 2010.05.17/outbox.cif.g08.bks.cpg/sg14_7_cif.got.tgz:13796.got - 2010.06.03 17:49:19.
