data_PCOD9240247
_publ_section_title
;
Structure prediction by ZEFSAII (Michael W. Deem and Ramdas Pophale) SiO2 
 PCOD9240247
Probable space group: P 21/C
;
_chemical_formula_sum "Si O2"
_cell_formula_units_Z 24
_cell_length_a 11.550753
_cell_length_b 5.154844
_cell_length_c 17.429193
_cell_angle_alpha 90.000000
_cell_angle_beta 60.607680
_cell_angle_gamma 90.000000
_cell_volume 904.191981
_symmetry_space_group_name_H-M "P 21/C"
_symmetry_group_IT_number 14
_symmetry_cell_setting 'monoclinic'
loop_
_space_group_symop_operation_xyz
x,y,z
-x,1/2+y,1/2-z
-x,-y,-z
x,1/2-y,1/2+z
loop_
_atom_site_type_symbol
_atom_site_label
_atom_site_fract_x
_atom_site_fract_y
_atom_site_fract_z
Si Si1 0.064571 0.735366 0.577545
Si Si2 0.849261 0.614276 0.744645
Si Si3 0.637712 0.776709 0.914533
Si Si4 0.453701 0.117105 0.388708
Si Si5 0.167787 0.251689 0.969434
Si Si6 0.701310 0.378848 0.273672
O O1 0.169594 0.518700 0.516365
O O2 0.002787 0.681558 0.681961
O O3 0.934123 0.695377 0.566090
O O4 0.106814 0.022276 0.541913
O O5 0.775456 0.624233 0.851218
O O6 0.810297 0.337647 0.723405
O O7 0.762868 0.845816 0.734690
O O8 0.528128 0.645641 0.892412
O O9 0.671574 0.064924 0.874525
O O10 0.584900 0.747111 0.016534
O O11 0.308944 0.126871 0.398682
O O12 0.557630 0.266281 0.299620
#
# Coordination Sequence:
#
# PCOD9240247 Si02
#       6
#     4   4   4   4   4   4
#     4  10  21  42  54  80 108 152 195 233 271 326
#     4   9  18  34  57  76 110 148 178 223 282 324
#     4   8  19  33  58  84 116 143 175 228 291 331
#     4  10  18  36  55  89 112 144 187 228 277 350
#     4  10  23  36  61  78 109 150 192 235 276 320
#     4   9  18  32  55  84 106 147 169 224 286 325
#
# _framework density 26.543037999999999
#
# number of rings (size 3 to 8) (size 9 to 14) (size 15 to 20)
#    1.000    1.667    0.000    1.500    2.333    0.000 
#    0.000    5.000    0.000    0.000    0.000    0.000 
#    0.000    0.000    0.000    0.000    0.000    0.000 
#
# Total GULP energy -133807.578096 kJ/mol
# GULP energy per Si atom -5575.315754 kJ/mol
# Density = 2.648262 g / cm^3
# Si number density = 26.543038 Si / 1000 Ang^3
#
#
#
# Elastic Constant Matrix: (Units=GPa)
#
#
# Indices 1 2 3 4 5 6 
#
# 1 89.2169 8.7194 9.9806 0.0000 -12.6753 0.0000
# 2 8.7194 125.2979 30.4495 0.0000 -2.2544 0.0000
# 3 9.9806 30.4495 88.8080 0.0000 -21.2967 0.0000
# 4 0.0000 0.0000 0.0000 31.2815 0.0000 -8.5679
# 5 -12.6753 -2.2544 -21.2967 0.0000 37.6093 0.0000
# 6 0.0000 0.0000 0.0000 -8.5679 0.0000 9.6085
#
#
#
# Elastic Compliance Matrix: (Units=1/GPa)
#
#
# Indices 1 2 3 4 5 6 
#
# 1 0.011845 -0.000716 -0.000161 0.000000 0.003858 0.000000
# 2 -0.000716 0.008810 -0.003322 0.000000 -0.001595 0.000000
# 3 -0.000161 -0.003322 0.014298 0.000000 0.007843 0.000000
# 4 0.000000 0.000000 0.000000 0.042298 0.000000 0.037717
# 5 0.003858 -0.001595 0.007843 0.000000 0.032235 0.000000
# 6 0.000000 0.000000 0.000000 0.037717 0.000000 0.137707
#
#
# Mechanical properties :
#
#
# Convention : Reuss Voigt Hill
#
# Bulk Modulus (GPa) = 37.65775 44.62463 41.14119
# Shear Modulus (GPa) = 18.90770 32.64475 25.77623
#
# Velocity S-wave (km/s) = 2.67187 3.51077 3.11965
# Velocity P-wave (km/s) = 4.87204 5.76911 5.33945
#
# Compressibility (1/GPa) = 0.02655496
#
# Stress axis : x y z
#
# Youngs Moduli (GPa) = 84.42597 113.51366 69.93827
#
# Poissons Ratio (x) = 0.08126 0.01123
# Poissons Ratio (y) = 0.06044 0.23237
# Poissons Ratio (z) = 0.01355 0.37714
#
# Static dielectric constant tensor:
#      x y z
#    x 2.300260 0.000000 0.043540 
#    y 0.000000 2.063080 0.000000 
#    z 0.043540 0.000000 2.157150 
# 
# From -- ./inp_files/72603.got.cif
#   From: 2010.05.17/outbox.cif.g08.bks.cpg/sg14_37_cif.got.tgz:72603.got - 2010.06.03 17:49:19.
