data_PCOD9240026
_publ_section_title
;
Structure prediction by ZEFSAII (Michael W. Deem and Ramdas Pophale) SiO2 
 PCOD9240026
Probable space group: P 21/C
;
_chemical_formula_sum "Si O2"
_cell_formula_units_Z 28
_cell_length_a 9.103208
_cell_length_b 7.794019
_cell_length_c 16.956807
_cell_angle_alpha 90.000000
_cell_angle_beta 103.457179
_cell_angle_gamma 90.000000
_cell_volume 1170.063185
_symmetry_space_group_name_H-M "P 21/C"
_symmetry_group_IT_number 14
_symmetry_cell_setting 'monoclinic'
loop_
_space_group_symop_operation_xyz
x,y,z
-x,1/2+y,1/2-z
-x,-y,-z
x,1/2-y,1/2+z
loop_
_atom_site_type_symbol
_atom_site_label
_atom_site_fract_x
_atom_site_fract_y
_atom_site_fract_z
Si Si1 0.873155 0.345512 0.564110
Si Si2 0.686413 0.097432 0.902170
Si Si3 0.468646 0.705122 0.412958
Si Si4 0.313044 0.610144 0.780241
Si Si5 0.990404 0.443804 0.173340
Si Si6 0.567787 0.831600 0.581379
Si Si7 0.127425 0.167862 0.836100
O O1 0.842254 0.388809 0.469337
O O2 0.700164 0.314727 0.572942
O O3 0.969378 0.173402 0.593368
O O4 0.933092 0.503761 0.623387
O O5 0.693412 0.061974 0.810751
O O6 0.591267 0.270796 0.903307
O O7 0.581076 0.953626 0.928355
O O8 0.429773 0.739176 0.316055
O O9 0.548618 0.838711 0.483969
O O10 0.140983 0.633073 0.785823
O O11 0.372664 0.479682 0.854328
O O12 0.956060 0.646793 0.160849
O O13 0.132220 0.390465 0.244609
O O14 0.702174 0.694824 0.612240
#
# Coordination Sequence:
#
# PCOD9240026 Si02
#       7
#     4   4   4   4   4   4   4
#     4  10  19  36  57  81 108 144 188 225 266 326
#     4  11  19  35  55  80 116 143 170 225 289 324
#     4  10  18  34  56  79 107 148 181 220 271 323
#     4  10  22  33  52  86 113 138 179 227 280 324
#     4  10  22  34  59  82 105 146 186 233 264 319
#     4  10  19  34  56  79 106 144 186 222 264 330
#     4  11  18  35  58  82 106 139 197 225 262 319
#
# _framework density 23.930332
#
# number of rings (size 3 to 8) (size 9 to 14) (size 15 to 20)
#    0.000    1.714    4.286    2.143    0.000    1.143 
#    0.000    0.714    0.000    0.857    0.000    0.000 
#    0.000    0.000    0.000    0.000    0.000    0.000 
#
# Total GULP energy -156066.024725 kJ/mol
# GULP energy per Si atom -5573.786597 kJ/mol
# Density = 2.387587 g / cm^3
# Si number density = 23.930332 Si / 1000 Ang^3
#
#
#
# Elastic Constant Matrix: (Units=GPa)
#
#
# Indices 1 2 3 4 5 6 
#
# 1 17.9796 -1.1634 18.9771 0.0000 2.8781 0.0000
# 2 -1.1634 95.3862 40.6847 0.0000 18.6633 0.0000
# 3 18.9771 40.6847 194.1763 0.0000 21.7206 0.0000
# 4 0.0000 0.0000 0.0000 36.6732 0.0000 14.0695
# 5 2.8781 18.6633 21.7206 0.0000 30.9966 0.0000
# 6 0.0000 0.0000 0.0000 14.0695 0.0000 12.8247
#
#
#
# Elastic Compliance Matrix: (Units=1/GPa)
#
#
# Indices 1 2 3 4 5 6 
#
# 1 0.063595 0.004388 -0.006704 0.000000 -0.003849 0.000000
# 2 0.004388 0.012820 -0.002394 0.000000 -0.006449 0.000000
# 3 -0.006704 -0.002394 0.006593 0.000000 -0.002556 0.000000
# 4 0.000000 0.000000 0.000000 0.047085 0.000000 -0.051656
# 5 -0.003849 -0.006449 -0.002556 0.000000 0.038293 0.000000
# 6 0.000000 0.000000 0.000000 -0.051656 0.000000 0.134644
#
#
# Mechanical properties :
#
#
# Convention : Reuss Voigt Hill
#
# Bulk Modulus (GPa) = 13.58908 47.17100 30.38004
# Shear Modulus (GPa) = 14.83777 32.70181 23.76979
#
# Velocity S-wave (km/s) = 2.49276 3.70069 3.15507
# Velocity P-wave (km/s) = 3.73846 6.16561 5.09857
#
# Compressibility (1/GPa) = 0.07358851
#
# Stress axis : x y z
#
# Youngs Moduli (GPa) = 15.72460 78.00316 151.68567
#
# Poissons Ratio (x) = -0.34230 1.01691
# Poissons Ratio (y) = -0.06900 0.36307
# Poissons Ratio (z) = 0.10542 0.18671
#
# Static dielectric constant tensor:
#      x y z
#    x 1.906420 0.000000 0.027970 
#    y 0.000000 2.160780 0.000000 
#    z 0.027970 0.000000 2.003420 
# 
# From -- ./inp_files/43625.got.cif
#   From: 2010.05.17/outbox.cif.g08.bks.cpg/sg14_22_cif.got.tgz:43625.got - 2010.06.03 17:49:19.
