data_PCOD9240198
_publ_section_title
;
Structure prediction by ZEFSAII (Michael W. Deem and Ramdas Pophale) SiO2 
 PCOD9240198
Probable space group: P 21/C
;
_chemical_formula_sum "Si O2"
_cell_formula_units_Z 32
_cell_length_a 9.102072
_cell_length_b 18.264918
_cell_length_c 8.499905
_cell_angle_alpha 90.000000
_cell_angle_beta 77.050423
_cell_angle_gamma 90.000000
_cell_volume 1377.158918
_symmetry_space_group_name_H-M "P 21/C"
_symmetry_group_IT_number 14
_symmetry_cell_setting 'monoclinic'
loop_
_space_group_symop_operation_xyz
x,y,z
-x,1/2+y,1/2-z
-x,-y,-z
x,1/2-y,1/2+z
loop_
_atom_site_type_symbol
_atom_site_label
_atom_site_fract_x
_atom_site_fract_y
_atom_site_fract_z
Si Si1 0.163228 0.797351 0.531866
Si Si2 0.696034 0.357474 0.489026
Si Si3 0.056540 0.290375 0.641117
Si Si4 0.727547 0.046038 0.571678
Si Si5 0.199121 0.164404 0.784028
Si Si6 0.962057 0.453790 0.266373
Si Si7 0.229827 0.537866 0.295590
Si Si8 0.547851 0.924115 0.167992
O O1 0.265834 0.727071 0.551201
O O2 0.252893 0.865843 0.443620
O O3 0.050929 0.823721 0.698064
O O4 0.054871 0.764604 0.424157
O O5 0.712178 0.382460 0.666008
O O6 0.540392 0.385596 0.452703
O O7 0.833168 0.407166 0.386752
O O8 0.176718 0.242369 0.708586
O O9 0.134887 0.333641 0.479533
O O10 0.719774 0.021429 0.394709
O O11 0.578499 0.031794 0.706108
O O12 0.872664 0.019195 0.634348
O O13 0.094655 0.106414 0.716329
O O14 0.369867 0.138183 0.750364
O O15 0.051918 0.519328 0.330694
O O16 0.316280 0.481233 0.391015
#
# Coordination Sequence:
#
# PCOD9240198 Si02
#       8
#     4   4   4   4   4   4   4   4
#     4  11  20  36  63  96 116 151 206 261 310 348
#     4  11  21  40  64  90 124 159 208 259 302 362
#     4  10  18  35  61  85 125 153 200 250 311 356
#     4  11  22  39  64  91 126 161 202 263 304 362
#     4  10  20  37  59  86 122 164 192 245 305 370
#     4  10  20  38  59  89 123 156 202 256 303 345
#     4  11  23  38  63  89 119 165 217 241 303 374
#     4  10  24  41  57  82 132 167 198 246 315 356
#
# _framework density 23.236242000000001
#
# number of rings (size 3 to 8) (size 9 to 14) (size 15 to 20)
#    0.000    1.500    3.750    3.000    0.000    1.000 
#    0.000    2.500    2.750    0.000    0.000    0.000 
#    0.000    0.000    0.000    0.000    0.000    0.000 
#
# Total GULP energy -178624.662969 kJ/mol
# GULP energy per Si atom -5582.020718 kJ/mol
# Density = 2.318336 g / cm^3
# Si number density = 23.236242 Si / 1000 Ang^3
#
#
#
# Elastic Constant Matrix: (Units=GPa)
#
#
# Indices 1 2 3 4 5 6 
#
# 1 149.9657 30.1997 18.4823 0.0000 30.5016 0.0000
# 2 30.1997 69.0419 -6.5345 0.0000 -0.0158 0.0000
# 3 18.4823 -6.5345 61.7141 0.0000 6.2772 0.0000
# 4 0.0000 0.0000 0.0000 25.2011 0.0000 3.8991
# 5 30.5016 -0.0158 6.2772 0.0000 25.9450 0.0000
# 6 0.0000 0.0000 0.0000 3.8991 0.0000 35.3857
#
#
#
# Elastic Compliance Matrix: (Units=1/GPa)
#
#
# Indices 1 2 3 4 5 6 
#
# 1 0.010245 -0.004711 -0.002401 0.000000 -0.011466 0.000000
# 2 -0.004711 0.016801 0.002692 0.000000 0.004897 0.000000
# 3 -0.002401 0.002692 0.017347 0.000000 -0.001373 0.000000
# 4 0.000000 0.000000 0.000000 0.040369 0.000000 -0.004448
# 5 -0.011466 0.004897 -0.001373 0.000000 0.052358 0.000000
# 6 0.000000 0.000000 0.000000 -0.004448 0.000000 0.028750
#
#
# Mechanical properties :
#
#
# Convention : Reuss Voigt Hill
#
# Bulk Modulus (GPa) = 28.12745 40.55743 34.34244
# Shear Modulus (GPa) = 26.80085 33.21130 30.00608
#
# Velocity S-wave (km/s) = 3.39987 3.78470 3.59743
# Velocity P-wave (km/s) = 5.24818 6.04904 5.66278
#
# Compressibility (1/GPa) = 0.03555246
#
# Stress axis : x y z
#
# Youngs Moduli (GPa) = 97.60975 59.52203 57.64559
#
# Poissons Ratio (x) = 0.28041 0.13839
# Poissons Ratio (y) = 0.45985 -0.15516
# Poissons Ratio (z) = 0.23433 -0.16021
#
# Static dielectric constant tensor:
#      x y z
#    x 1.843120 0.000000 0.008920 
#    y 0.000000 1.920540 0.000000 
#    z 0.008920 0.000000 1.983780 
# 
# From -- ./inp_files/10195.got.cif
#   From: 2010.05.17/outbox.cif.g08.bks.cpg/sg14_6_cif.got.tgz:10195.got - 2010.06.03 17:49:19.
