data_PCOD9240204
_publ_section_title
;
Structure prediction by ZEFSAII (Michael W. Deem and Ramdas Pophale) SiO2 
 PCOD9240204
Probable space group: P 21/C
;
_chemical_formula_sum "Si O2"
_cell_formula_units_Z 20
_cell_length_a 7.907878
_cell_length_b 18.048835
_cell_length_c 5.529166
_cell_angle_alpha 90.000000
_cell_angle_beta 98.525350
_cell_angle_gamma 90.000000
_cell_volume 780.446723
_symmetry_space_group_name_H-M "P 21/C"
_symmetry_group_IT_number 14
_symmetry_cell_setting 'monoclinic'
loop_
_space_group_symop_operation_xyz
x,y,z
-x,1/2+y,1/2-z
-x,-y,-z
x,1/2-y,1/2+z
loop_
_atom_site_type_symbol
_atom_site_label
_atom_site_fract_x
_atom_site_fract_y
_atom_site_fract_z
Si Si1 0.103078 0.345466 0.918884
Si Si2 0.329733 0.950263 0.971691
Si Si3 0.398703 0.782039 0.109677
Si Si4 0.013390 0.811169 0.105272
Si Si5 0.703830 0.508528 0.036737
O O1 0.014549 0.358358 0.640625
O O2 0.124676 0.255917 0.914930
O O3 0.252491 0.404816 0.965526
O O4 0.001943 0.354320 0.148877
O O5 0.239020 0.967200 0.696781
O O6 0.397720 0.866957 0.023479
O O7 0.500000 0.000000 0.000000
O O8 0.233330 0.974454 0.196021
O O9 0.467667 0.764570 0.394313
O O10 0.194941 0.770347 0.113407
O O11 0.500000 0.500000 0.000000
#
# Coordination Sequence:
#
# PCOD9240204 Si02
#       5
#     4   4   4   4   4
#     4  10  18  35  61  89 126 161 202 264 311 373
#     4  10  23  42  65  88 132 166 216 265 315 382
#     4  12  21  40  69  95 125 167 215 265 317 384
#     4  10  19  35  60  93 127 155 210 260 317 368
#     4  10  21  40  64  83 128 170 213 252 315 376
#
# _framework density 25.626348
#
# number of rings (size 3 to 8) (size 9 to 14) (size 15 to 20)
#    0.000    1.600    4.000    2.400    0.000    0.000 
#    0.000    6.000  105.600    0.000    0.000    0.000 
#    0.000    0.000    0.000    0.000    0.000    0.000 
#
# Total GULP energy -111644.137851 kJ/mol
# GULP energy per Si atom -5582.206893 kJ/mol
# Density = 2.556802 g / cm^3
# Si number density = 25.626348 Si / 1000 Ang^3
#
#
#
# Elastic Constant Matrix: (Units=GPa)
#
#
# Indices 1 2 3 4 5 6 
#
# 1 44.8599 28.1935 24.0952 0.0000 4.8266 0.0000
# 2 28.1935 130.5340 49.6166 0.0000 -11.5509 0.0000
# 3 24.0952 49.6166 305.5838 0.0000 2.5964 0.0000
# 4 0.0000 0.0000 0.0000 44.4985 0.0000 -7.2449
# 5 4.8266 -11.5509 2.5964 0.0000 7.0933 0.0000
# 6 0.0000 0.0000 0.0000 -7.2449 0.0000 49.9057
#
#
#
# Elastic Compliance Matrix: (Units=1/GPa)
#
#
# Indices 1 2 3 4 5 6 
#
# 1 0.033497 -0.010522 -0.000595 0.000000 -0.039710 0.000000
# 2 -0.010522 0.013089 -0.001542 0.000000 0.029039 0.000000
# 3 -0.000595 -0.001542 0.003599 0.000000 -0.003424 0.000000
# 4 0.000000 0.000000 0.000000 0.023017 0.000000 0.003341
# 5 -0.039710 0.029039 -0.003424 0.000000 0.216539 0.000000
# 6 0.000000 0.000000 0.000000 0.003341 0.000000 0.020523
#
#
# Mechanical properties :
#
#
# Convention : Reuss Voigt Hill
#
# Bulk Modulus (GPa) = 40.21704 76.08758 58.15231
# Shear Modulus (GPa) = 14.54027 45.57099 30.05563
#
# Velocity S-wave (km/s) = 2.38459 4.22155 3.42839
# Velocity P-wave (km/s) = 4.82798 7.31557 6.19786
#
# Compressibility (1/GPa) = 0.02486508
#
# Stress axis : x y z
#
# Youngs Moduli (GPa) = 29.85343 76.39732 277.86419
#
# Poissons Ratio (x) = 0.80389 0.16543
# Poissons Ratio (y) = 0.31413 0.42856
# Poissons Ratio (z) = 0.01777 0.11783
#
# Static dielectric constant tensor:
#      x y z
#    x 2.080320 0.000000 0.019540 
#    y 0.000000 1.996260 0.000000 
#    z 0.019540 0.000000 2.149960 
# 
# From -- ./inp_files/2449.got.cif
#   From: 2010.05.17/outbox.cif.g08.bks.cpg/sg14_2_cif.got.tgz:2449.got - 2010.06.03 17:49:19.
