data_PCOD9240852
_publ_section_title
;
Structure prediction by ZEFSAII (Michael W. Deem and Ramdas Pophale) SiO2 
 PCOD9240852
Probable space group: P 21/C
;
_chemical_formula_sum "Si O2"
_cell_formula_units_Z 32
_cell_length_a 14.635701
_cell_length_b 20.138415
_cell_length_c 5.355476
_cell_angle_alpha 90.000000
_cell_angle_beta 111.237136
_cell_angle_gamma 90.000000
_cell_volume 1471.276768
_symmetry_space_group_name_H-M "P 21/C"
_symmetry_group_IT_number 14
_symmetry_cell_setting 'monoclinic'
loop_
_space_group_symop_operation_xyz
x,y,z
-x,1/2+y,1/2-z
-x,-y,-z
x,1/2-y,1/2+z
loop_
_atom_site_type_symbol
_atom_site_label
_atom_site_fract_x
_atom_site_fract_y
_atom_site_fract_z
Si Si1 0.503649 0.919709 0.962582
Si Si2 0.712819 0.093663 0.185985
Si Si3 0.577940 0.939089 0.537191
Si Si4 0.965219 0.709219 0.243606
Si Si5 0.801683 0.209955 0.994500
Si Si6 0.908525 0.588344 0.868375
Si Si7 0.771556 0.977506 0.910363
Si Si8 0.106550 0.950218 0.344118
O O1 0.543929 0.896937 0.268633
O O2 0.393430 0.895977 0.805660
O O3 0.570444 0.902817 0.794607
O O4 0.500000 0.000000 0.000000
O O5 0.737693 0.146360 0.997498
O O6 0.802464 0.092810 0.467284
O O7 0.714722 0.022249 0.054122
O O8 0.500000 0.000000 0.500000
O O9 0.689881 0.963464 0.620335
O O10 0.944235 0.762540 0.999333
O O11 0.913105 0.643506 0.086468
O O12 0.082255 0.694380 0.365908
O O13 0.781997 0.260827 0.202776
O O14 0.817705 0.586151 0.588904
O O15 0.007324 0.589574 0.797715
O O16 0.902454 0.517056 0.999903
O O17 0.862060 0.021793 0.894154
#
# Coordination Sequence:
#
# PCOD9240852 Si02
#       8
#     4   4   4   4   4   4   4   4
#     4  10  19  33  54  83 116 143 185 227 281 349
#     4  11  21  34  59  84 117 159 188 240 302 357
#     4  10  19  34  51  81 122 141 189 224 280 348
#     4  10  22  40  62  78 110 158 203 246 279 334
#     4  10  23  39  55  83 113 153 201 242 280 346
#     4  10  22  37  51  88 116 155 197 238 293 355
#     4  11  22  32  58  84 121 160 186 242 298 363
#     4  10  21  35  53  83 126 152 187 231 305 363
#
# _framework density 21.749818000000001
#
# number of rings (size 3 to 8) (size 9 to 14) (size 15 to 20)
#    0.000    1.750    3.750    1.875    5.250    1.000 
#    0.000    0.000    0.000    0.000    0.000    5.250 
#    0.000    0.000    0.000    0.000    0.000    0.000 
#
# Total GULP energy -178729.419226 kJ/mol
# GULP energy per Si atom -5585.294351 kJ/mol
# Density = 2.170031 g / cm^3
# Si number density = 21.749818 Si / 1000 Ang^3
#
#
#
# Elastic Constant Matrix: (Units=GPa)
#
#
# Indices 1 2 3 4 5 6 
#
# 1 58.1447 16.4536 29.3394 0.0000 4.8287 0.0000
# 2 16.4536 39.8531 10.0991 0.0000 9.8911 0.0000
# 3 29.3394 10.0991 79.3107 0.0000 -8.6077 0.0000
# 4 0.0000 0.0000 0.0000 21.6531 0.0000 -4.6806
# 5 4.8287 9.8911 -8.6077 0.0000 40.4941 0.0000
# 6 0.0000 0.0000 0.0000 -4.6806 0.0000 13.7487
#
#
#
# Elastic Compliance Matrix: (Units=1/GPa)
#
#
# Indices 1 2 3 4 5 6 
#
# 1 0.023492 -0.006940 -0.008114 0.000000 -0.002831 0.000000
# 2 -0.006940 0.030207 -0.002037 0.000000 -0.006984 0.000000
# 3 -0.008114 -0.002037 0.016407 0.000000 0.004953 0.000000
# 4 0.000000 0.000000 0.000000 0.049852 0.000000 0.016972
# 5 -0.002831 -0.006984 0.004953 0.000000 0.027791 0.000000
# 6 0.000000 0.000000 0.000000 0.016972 0.000000 0.078512
#
#
# Mechanical properties :
#
#
# Convention : Reuss Voigt Hill
#
# Bulk Modulus (GPa) = 27.83663 32.12141 29.97902
# Shear Modulus (GPa) = 18.35427 23.27360 20.81393
#
# Velocity S-wave (km/s) = 2.90812 3.27473 3.09685
# Velocity P-wave (km/s) = 4.90943 5.39436 5.15760
#
# Compressibility (1/GPa) = 0.03592389
#
# Stress axis : x y z
#
# Youngs Moduli (GPa) = 42.56845 33.10503 60.94930
#
# Poissons Ratio (x) = 0.22975 0.49453
# Poissons Ratio (y) = 0.29542 0.12416
# Poissons Ratio (z) = 0.34539 0.06744
#
# Static dielectric constant tensor:
#      x y z
#    x 1.835710 0.000000 -0.155800 
#    y 0.000000 1.806710 0.000000 
#    z -0.155800 0.000000 2.545070 
# 
# From -- ./inp_files/3911.got.cif
#   From: 2010.05.17/outbox.cif.g08.bks.cpg/sg14_2_cif.got.tgz:3911.got - 2010.06.03 17:49:19.
