data_PCOD9240573
_publ_section_title
;
Structure prediction by ZEFSAII (Michael W. Deem and Ramdas Pophale) SiO2 
 PCOD9240573
Probable space group: P 21/C
;
_chemical_formula_sum "Si O2"
_cell_formula_units_Z 24
_cell_length_a 7.895625
_cell_length_b 9.578200
_cell_length_c 11.457210
_cell_angle_alpha 90.000000
_cell_angle_beta 83.835508
_cell_angle_gamma 90.000000
_cell_volume 861.451398
_symmetry_space_group_name_H-M "P 21/C"
_symmetry_group_IT_number 14
_symmetry_cell_setting 'monoclinic'
loop_
_space_group_symop_operation_xyz
x,y,z
-x,1/2+y,1/2-z
-x,-y,-z
x,1/2-y,1/2+z
loop_
_atom_site_type_symbol
_atom_site_label
_atom_site_fract_x
_atom_site_fract_y
_atom_site_fract_z
Si Si1 0.411223 0.749178 0.694533
Si Si2 0.590289 0.274422 0.554847
Si Si3 0.822930 0.524058 0.785450
Si Si4 0.790585 0.537489 0.277194
Si Si5 0.306106 0.013433 0.469453
Si Si6 0.194704 0.445277 0.467018
O O1 0.495811 0.736156 0.815487
O O2 0.503035 0.729137 0.563257
O O3 0.311669 0.895929 0.705981
O O4 0.274972 0.622095 0.699810
O O5 0.736788 0.153265 0.536355
O O6 0.677263 0.423738 0.556443
O O7 0.805412 0.613067 0.666816
O O8 0.010290 0.460069 0.763265
O O9 0.801666 0.581228 0.918848
O O10 0.704568 0.574020 0.159534
O O11 0.760610 0.608437 0.405349
O O12 0.500000 0.000000 0.500000
O O13 0.000000 0.500000 0.500000
#
# Coordination Sequence:
#
# PCOD9240573 Si02
#       6
#     4   4   4   4   4   4
#     4   8  14  24  42  66  86 110 146 182 226 280
#     4   8  14  25  41  63  88 115 146 187 229 270
#     4   9  16  28  47  69  91 117 151 196 242 280
#     4   9  16  28  47  69  91 117 151 196 242 280
#     4  10  19  29  42  64  95 131 164 189 219 277
#     4   8  14  26  48  75  92 108 150 204 248 287
#
# _framework density 27.859956
#
# number of rings (size 3 to 8) (size 9 to 14) (size 15 to 20)
#    0.000    3.333    0.000    0.500    0.000    0.000 
#    0.000    0.833    0.000   12.000    0.000    0.000 
#    0.000    0.000    0.000    0.000    0.000    0.000 
#
# Total GULP energy -133907.715081 kJ/mol
# GULP energy per Si atom -5579.488128 kJ/mol
# Density = 2.779655 g / cm^3
# Si number density = 27.859956 Si / 1000 Ang^3
#
#
#
# Elastic Constant Matrix: (Units=GPa)
#
#
# Indices 1 2 3 4 5 6 
#
# 1 90.3317 3.4733 79.3480 0.0000 -0.8094 0.0000
# 2 3.4733 87.6696 8.5623 0.0000 -4.3297 0.0000
# 3 79.3480 8.5623 397.3142 0.0000 -17.7898 0.0000
# 4 0.0000 0.0000 0.0000 30.4338 0.0000 8.2000
# 5 -0.8094 -4.3297 -17.7898 0.0000 61.6606 0.0000
# 6 0.0000 0.0000 0.0000 8.2000 0.0000 17.5751
#
#
#
# Elastic Compliance Matrix: (Units=1/GPa)
#
#
# Indices 1 2 3 4 5 6 
#
# 1 0.013456 -0.000299 -0.002709 0.000000 -0.000626 0.000000
# 2 -0.000299 0.011471 -0.000153 0.000000 0.000757 0.000000
# 3 -0.002709 -0.000153 0.003099 0.000000 0.000848 0.000000
# 4 0.000000 0.000000 0.000000 0.037583 0.000000 -0.017535
# 5 -0.000626 0.000757 0.000848 0.000000 0.016507 0.000000
# 6 0.000000 0.000000 0.000000 -0.017535 0.000000 0.065080
#
#
# Mechanical properties :
#
#
# Convention : Reuss Voigt Hill
#
# Bulk Modulus (GPa) = 46.07866 84.23142 65.15504
# Shear Modulus (GPa) = 31.10357 54.19602 42.64979
#
# Velocity S-wave (km/s) = 3.34492 4.41534 3.91687
# Velocity P-wave (km/s) = 5.61189 7.50288 6.62520
#
# Compressibility (1/GPa) = 0.02170202
#
# Stress axis : x y z
#
# Youngs Moduli (GPa) = 74.31818 87.17852 322.66931
#
# Poissons Ratio (x) = 0.02611 0.87405
# Poissons Ratio (y) = 0.02225 0.04953
# Poissons Ratio (z) = 0.20131 0.01338
#
# Static dielectric constant tensor:
#      x y z
#    x 2.092930 0.000000 0.027230 
#    y 0.000000 2.314690 0.000000 
#    z 0.027230 0.000000 2.264720 
# 
# From -- ./inp_files/24158.got.cif
#   From: 2010.05.17/outbox.cif.g08.bks.cpg/sg14_13_cif.got.tgz:24158.got - 2010.06.03 17:49:19.
