data_PCOD9240178
_publ_section_title
;
Structure prediction by ZEFSAII (Michael W. Deem and Ramdas Pophale) SiO2 
 PCOD9240178
Probable space group: P 21/C
;
_chemical_formula_sum "Si O2"
_cell_formula_units_Z 30
_cell_length_a 7.055647
_cell_length_b 9.305314
_cell_length_c 19.627882
_cell_angle_alpha 90.000000
_cell_angle_beta 69.033156
_cell_angle_gamma 90.000000
_cell_volume 1203.343016
_symmetry_space_group_name_H-M "P 21/C"
_symmetry_group_IT_number 14
_symmetry_cell_setting 'monoclinic'
loop_
_space_group_symop_operation_xyz
x,y,z
-x,1/2+y,1/2-z
-x,-y,-z
x,1/2-y,1/2+z
loop_
_atom_site_type_symbol
_atom_site_label
_atom_site_fract_x
_atom_site_fract_y
_atom_site_fract_z
Si Si1 0.560144 0.488382 0.683501
Si Si2 0.317411 0.398247 0.462988
Si Si3 0.000000 0.000000 0.500000
Si Si4 0.257913 0.172867 0.574880
Si Si5 0.869959 0.299734 0.472852
Si Si6 0.928173 0.308156 0.307419
Si Si7 0.965989 0.108186 0.189554
Si Si8 0.606003 0.671208 0.800530
O O1 0.534671 0.585979 0.620275
O O2 0.802896 0.462981 0.661009
O O3 0.494948 0.566890 0.761451
O O4 0.485320 0.328394 0.682489
O O5 0.384183 0.276921 0.508302
O O6 0.268248 0.558974 0.496316
O O7 0.100592 0.342705 0.463979
O O8 0.145547 0.848621 0.483455
O O9 0.867819 0.937310 0.453577
O O10 0.371354 0.109396 0.626186
O O11 0.101178 0.284051 0.629768
O O12 0.875381 0.271879 0.391173
O O13 0.898407 0.478368 0.298027
O O14 0.171107 0.298912 0.260552
O O15 0.846572 0.194259 0.263476
#
# Coordination Sequence:
#
# PCOD9240178 Si02
#       8
#     4   4   2   4   4   4   4   4
#     4  11  22  42  60  88 122 172 202 255 306 381
#     4  10  18  38  65  84 120 160 211 249 318 371
#     4  10  22  30  60  92 126 148 192 260 322 352
#     4  10  21  41  63  96 122 157 207 268 313 372
#     4  10  18  35  59  94 119 154 196 264 311 369
#     4  10  20  36  61  92 119 157 201 263 306 369
#     4  10  20  36  62  89 120 153 206 255 309 362
#     4  10  24  41  59  88 130 164 207 248 310 376
#
# _framework density 24.930547000000001
#
# number of rings (size 3 to 8) (size 9 to 14) (size 15 to 20)
#    0.000    1.867    4.000    1.600    5.600    2.667 
#    2.400    0.000    0.000    4.000    0.000    0.000 
#    0.000    0.000    0.000    0.000    0.000    0.000 
#
# Total GULP energy -167167.475925 kJ/mol
# GULP energy per Si atom -5572.249197 kJ/mol
# Density = 2.487380 g / cm^3
# Si number density = 24.930547 Si / 1000 Ang^3
#
#
#
# Elastic Constant Matrix: (Units=GPa)
#
#
# Indices 1 2 3 4 5 6 
#
# 1 30.9441 -10.6524 26.1306 0.0000 8.0283 0.0000
# 2 -10.6524 73.3288 53.4989 0.0000 12.8143 0.0000
# 3 26.1306 53.4989 153.2930 0.0000 39.3716 0.0000
# 4 0.0000 0.0000 0.0000 51.4090 0.0000 16.4574
# 5 8.0283 12.8143 39.3716 0.0000 25.8309 0.0000
# 6 0.0000 0.0000 0.0000 16.4574 0.0000 30.3250
#
#
#
# Elastic Compliance Matrix: (Units=1/GPa)
#
#
# Indices 1 2 3 4 5 6 
#
# 1 0.051878 0.018711 -0.014540 0.000000 -0.003244 0.000000
# 2 0.018711 0.025063 -0.011913 0.000000 -0.000091 0.000000
# 3 -0.014540 -0.011913 0.017224 0.000000 -0.015824 0.000000
# 4 0.000000 0.000000 0.000000 0.023542 0.000000 -0.012776
# 5 -0.003244 -0.000091 -0.015824 0.000000 0.063885 0.000000
# 6 0.000000 0.000000 0.000000 -0.012776 0.000000 0.039910
#
#
# Mechanical properties :
#
#
# Convention : Reuss Voigt Hill
#
# Bulk Modulus (GPa) = 12.70970 43.94666 28.32818
# Shear Modulus (GPa) = 18.99613 34.08555 26.54084
#
# Velocity S-wave (km/s) = 2.76336 3.70161 3.26635
# Velocity P-wave (km/s) = 3.91033 5.99459 5.06092
#
# Compressibility (1/GPa) = 0.07868007
#
# Stress axis : x y z
#
# Youngs Moduli (GPa) = 19.27611 39.89985 58.05933
#
# Poissons Ratio (x) = -0.74658 0.84420
# Poissons Ratio (y) = -0.36068 0.69167
# Poissons Ratio (z) = 0.28028 0.47533
#
# Static dielectric constant tensor:
#      x y z
#    x 2.072500 0.000000 0.033270 
#    y 0.000000 2.018200 0.000000 
#    z 0.033270 0.000000 2.022690 
# 
# From -- ./inp_files/64816.got.cif
#   From: 2010.05.17/outbox.cif.g08.bks.cpg/sg14_33_cif.got.tgz:64816.got - 2010.06.03 17:49:19.
