data_PCOD9240282
_publ_section_title
;
Structure prediction by ZEFSAII (Michael W. Deem and Ramdas Pophale) SiO2 
 PCOD9240282
Probable space group: P 21/C
;
_chemical_formula_sum "Si O2"
_cell_formula_units_Z 28
_cell_length_a 11.633618
_cell_length_b 14.015695
_cell_length_c 9.765119
_cell_angle_alpha 90.000000
_cell_angle_beta 117.060917
_cell_angle_gamma 90.000000
_cell_volume 1417.921809
_symmetry_space_group_name_H-M "P 21/C"
_symmetry_group_IT_number 14
_symmetry_cell_setting 'monoclinic'
loop_
_space_group_symop_operation_xyz
x,y,z
-x,1/2+y,1/2-z
-x,-y,-z
x,1/2-y,1/2+z
loop_
_atom_site_type_symbol
_atom_site_label
_atom_site_fract_x
_atom_site_fract_y
_atom_site_fract_z
Si Si1 0.666280 0.195689 0.690927
Si Si2 0.364294 0.189123 0.498239
Si Si3 0.184542 0.726094 0.466124
Si Si4 0.985156 0.095071 0.675771
Si Si5 0.784843 0.512238 0.199925
Si Si6 0.777013 0.813150 0.296127
Si Si7 0.046921 0.133448 0.026111
O O1 0.516815 0.203475 0.574791
O O2 0.698547 0.216656 0.865111
O O3 0.754804 0.267468 0.650605
O O4 0.714925 0.088468 0.683149
O O5 0.315161 0.093850 0.395145
O O6 0.292295 0.275644 0.379759
O O7 0.321542 0.175369 0.632609
O O8 0.106141 0.825066 0.441929
O O9 0.079790 0.646105 0.447796
O O10 0.125284 0.099751 0.682632
O O11 0.009208 0.127979 0.847066
O O12 0.896776 0.001853 0.645259
O O13 0.864144 0.546730 0.375788
O O14 0.868612 0.726888 0.396577
#
# Coordination Sequence:
#
# PCOD9240282 Si02
#       7
#     4   4   4   4   4   4   4
#     4  11  22  39  58  85 116 156 197 230 280 353
#     4  11  22  39  58  82 118 157 195 234 278 349
#     4  10  20  34  59  85 111 144 189 239 282 334
#     4  10  19  35  59  86 116 138 193 242 289 339
#     4  10  22  35  62  85 115 155 190 236 298 342
#     4  10  21  36  60  86 112 149 195 239 290 332
#     4  10  18  36  60  86 114 144 184 241 294 342
#
# _framework density 19.747209000000002
#
# number of rings (size 3 to 8) (size 9 to 14) (size 15 to 20)
#    0.000    1.714    4.286    1.714    0.000    0.571 
#    0.000    1.429    0.000    0.857    0.000    0.000 
#    0.000    0.000    0.000    0.000    0.000    0.000 
#
# Total GULP energy -156147.659986 kJ/mol
# GULP energy per Si atom -5576.702142 kJ/mol
# Density = 1.970226 g / cm^3
# Si number density = 19.747209 Si / 1000 Ang^3
#
#
#
# Elastic Constant Matrix: (Units=GPa)
#
#
# Indices 1 2 3 4 5 6 
#
# 1 86.3406 -1.7492 16.8581 0.0000 12.6043 0.0000
# 2 -1.7492 20.8227 7.2794 0.0000 5.6135 0.0000
# 3 16.8581 7.2794 63.1007 0.0000 15.4602 0.0000
# 4 0.0000 0.0000 0.0000 23.3118 0.0000 1.9920
# 5 12.6043 5.6135 15.4602 0.0000 34.9359 0.0000
# 6 0.0000 0.0000 0.0000 1.9920 0.0000 26.5463
#
#
#
# Elastic Compliance Matrix: (Units=1/GPa)
#
#
# Indices 1 2 3 4 5 6 
#
# 1 0.012758 0.003097 -0.002822 0.000000 -0.003852 0.000000
# 2 0.003097 0.052002 -0.005053 0.000000 -0.007237 0.000000
# 3 -0.002822 -0.005053 0.018771 0.000000 -0.006477 0.000000
# 4 0.000000 0.000000 0.000000 0.043173 0.000000 -0.003240
# 5 -0.003852 -0.007237 -0.006477 0.000000 0.034042 0.000000
# 6 0.000000 0.000000 0.000000 -0.003240 0.000000 0.037913
#
#
# Mechanical properties :
#
#
# Convention : Reuss Voigt Hill
#
# Bulk Modulus (GPa) = 13.51823 23.89339 18.70581
# Shear Modulus (GPa) = 21.47066 26.81720 24.14393
#
# Velocity S-wave (km/s) = 3.30096 3.68914 3.50043
# Velocity P-wave (km/s) = 4.62482 5.50202 5.08238
#
# Compressibility (1/GPa) = 0.07397419
#
# Stress axis : x y z
#
# Youngs Moduli (GPa) = 78.38192 19.23002 53.27242
#
# Poissons Ratio (x) = -0.05955 0.15033
# Poissons Ratio (y) = -0.24272 0.26920
# Poissons Ratio (z) = 0.22119 0.09717
#
# Static dielectric constant tensor:
#      x y z
#    x 1.706560 0.000000 -0.013650 
#    y 0.000000 1.710430 0.000000 
#    z -0.013650 0.000000 1.675730 
# 
# From -- ./inp_files/13015.got.cif
#   From: 2010.05.17/outbox.cif.g08.bks.cpg/sg14_7_cif.got.tgz:13015.got - 2010.06.03 17:49:19.
