data_PCOD9240654
_publ_section_title
;
Structure prediction by ZEFSAII (Michael W. Deem and Ramdas Pophale) SiO2 
 PCOD9240654
Probable space group: P 21/C
;
_chemical_formula_sum "Si O2"
_cell_formula_units_Z 32
_cell_length_a 8.267082
_cell_length_b 22.471195
_cell_length_c 14.222384
_cell_angle_alpha 90.000000
_cell_angle_beta 28.509622
_cell_angle_gamma 90.000000
_cell_volume 1261.095615
_symmetry_space_group_name_H-M "P 21/C"
_symmetry_group_IT_number 14
_symmetry_cell_setting 'monoclinic'
loop_
_space_group_symop_operation_xyz
x,y,z
-x,1/2+y,1/2-z
-x,-y,-z
x,1/2-y,1/2+z
loop_
_atom_site_type_symbol
_atom_site_label
_atom_site_fract_x
_atom_site_fract_y
_atom_site_fract_z
Si Si1 0.945484 0.767103 0.336235
Si Si2 0.962774 0.457452 0.200294
Si Si3 0.219067 0.643245 0.826355
Si Si4 0.847410 0.292613 0.962532
Si Si5 0.668369 0.634061 0.877254
Si Si6 0.645768 0.337552 0.591470
Si Si7 0.235966 0.415660 0.658774
Si Si8 0.027222 0.145667 0.077477
O O1 0.227736 0.814374 0.228044
O O2 0.646513 0.814790 0.470543
O O3 0.936012 0.715042 0.415672
O O4 0.978553 0.734196 0.219472
O O5 0.965368 0.418004 0.104647
O O6 0.255202 0.429339 0.116310
O O7 0.596347 0.438937 0.432029
O O8 0.954549 0.527937 0.199363
O O9 0.029881 0.683536 0.999223
O O10 0.606191 0.629927 0.654093
O O11 0.617791 0.234409 0.107223
O O12 0.640213 0.349514 0.030563
O O13 0.006711 0.648927 0.644394
O O14 0.358220 0.368923 0.675344
O O15 0.733951 0.361838 0.650282
O O16 0.028741 0.390688 0.674610
#
# Coordination Sequence:
#
# PCOD9240654 Si02
#       8
#     4   4   4   4   4   4   4   4
#     4  10  20  32  49  76 108 137 169 210 263 318
#     4   8  17  34  52  75 103 133 175 223 260 300
#     4  10  19  33  53  77 107 135 171 217 263 310
#     4  11  19  32  51  79 108 136 169 215 261 320
#     4   9  17  32  51  72 103 138 168 214 260 305
#     4  10  19  31  51  80 107 133 172 213 261 315
#     4   9  18  34  52  77 106 135 173 224 264 299
#     4  11  19  34  53  76 107 140 170 213 265 311
#
# _framework density 25.374759999999998
#
# number of rings (size 3 to 8) (size 9 to 14) (size 15 to 20)
#    0.000    2.250    2.500    3.750    0.000    0.000 
#    2.250    2.500    0.000    1.500    0.000    0.000 
#    0.000    0.000    0.000    0.000    0.000    0.000 
#
# Total GULP energy -178697.275920 kJ/mol
# GULP energy per Si atom -5584.289873 kJ/mol
# Density = 2.531701 g / cm^3
# Si number density = 25.374760 Si / 1000 Ang^3
#
#
#
# Elastic Constant Matrix: (Units=GPa)
#
#
# Indices 1 2 3 4 5 6 
#
# 1 177.1719 45.7440 22.3101 0.0000 1.3315 0.0000
# 2 45.7440 119.6317 5.7200 0.0000 15.1441 0.0000
# 3 22.3101 5.7200 64.5759 0.0000 11.4365 0.0000
# 4 0.0000 0.0000 0.0000 22.1536 0.0000 0.8413
# 5 1.3315 15.1441 11.4365 0.0000 42.4930 0.0000
# 6 0.0000 0.0000 0.0000 0.8413 0.0000 28.3026
#
#
#
# Elastic Compliance Matrix: (Units=1/GPa)
#
#
# Indices 1 2 3 4 5 6 
#
# 1 0.006587 -0.002578 -0.002282 0.000000 0.001326 0.000000
# 2 -0.002578 0.009766 0.000659 0.000000 -0.003577 0.000000
# 3 -0.002282 0.000659 0.017058 0.000000 -0.004754 0.000000
# 4 0.000000 0.000000 0.000000 0.045190 0.000000 -0.001343
# 5 0.001326 -0.003577 -0.004754 0.000000 0.026046 0.000000
# 6 0.000000 0.000000 0.000000 -0.001343 0.000000 0.035372
#
#
# Mechanical properties :
#
#
# Convention : Reuss Voigt Hill
#
# Bulk Modulus (GPa) = 39.98574 56.54752 48.26663
# Shear Modulus (GPa) = 31.89632 37.76355 34.82994
#
# Velocity S-wave (km/s) = 3.54928 3.86195 3.70891
# Velocity P-wave (km/s) = 5.70866 6.49765 6.11589
#
# Compressibility (1/GPa) = 0.02500892
#
# Stress axis : x y z
#
# Youngs Moduli (GPa) = 151.81030 102.39732 58.62422
#
# Poissons Ratio (x) = 0.26393 0.13380
# Poissons Ratio (y) = 0.39130 -0.03863
# Poissons Ratio (z) = 0.34649 -0.06748
#
# Static dielectric constant tensor:
#      x y z
#    x 2.054810 0.000000 -0.064860 
#    y 0.000000 1.966670 0.000000 
#    z -0.064860 0.000000 2.209370 
# 
# From -- ./inp_files/26917.got.cif
#   From: 2010.05.17/outbox.cif.g08.bks.cpg/sg14_14_cif.got.tgz:26917.got - 2010.06.03 17:49:19.
