data_PCOD9240945
_publ_section_title
;
Structure prediction by ZEFSAII (Michael W. Deem and Ramdas Pophale) SiO2 
 PCOD9240945
Probable space group: P 21/C
;
_chemical_formula_sum "Si O2"
_cell_formula_units_Z 28
_cell_length_a 5.377404
_cell_length_b 14.930776
_cell_length_c 18.597502
_cell_angle_alpha 90.000000
_cell_angle_beta 125.581018
_cell_angle_gamma 90.000000
_cell_volume 1214.386694
_symmetry_space_group_name_H-M "P 21/C"
_symmetry_group_IT_number 14
_symmetry_cell_setting 'monoclinic'
loop_
_space_group_symop_operation_xyz
x,y,z
-x,1/2+y,1/2-z
-x,-y,-z
x,1/2-y,1/2+z
loop_
_atom_site_type_symbol
_atom_site_label
_atom_site_fract_x
_atom_site_fract_y
_atom_site_fract_z
Si Si1 0.524465 0.199880 0.089388
Si Si2 0.948203 0.945331 0.810298
Si Si3 0.176793 0.646651 0.079159
Si Si4 0.769204 0.537670 0.122446
Si Si5 0.179905 0.050063 0.967579
Si Si6 0.443292 0.273967 0.738064
Si Si7 0.092767 0.840867 0.407801
O O1 0.773303 0.120930 0.127894
O O2 0.564810 0.235884 0.177333
O O3 0.622277 0.275047 0.050803
O O4 0.232006 0.148374 0.008833
O O5 0.949392 0.967354 0.727444
O O6 0.670621 0.878288 0.782038
O O7 0.973304 0.033848 0.862368
O O8 0.443995 0.579452 0.093230
O O9 0.346306 0.723999 0.155279
O O10 0.950353 0.599250 0.096893
O O11 0.995001 0.667080 0.974825
O O12 0.789709 0.438419 0.093793
O O13 0.500000 0.000000 0.000000
O O14 0.000000 0.000000 0.000000
O O15 0.166476 0.201694 0.688496
#
# Coordination Sequence:
#
# PCOD9240945 Si02
#       7
#     4   4   4   4   4   4   4
#     4  10  20  38  61  92 132 165 213 274 330 384
#     4   9  19  38  62  91 122 175 213 264 326 392
#     4  11  25  46  68  95 131 180 220 271 334 396
#     4  11  24  43  67  94 131 176 229 268 321 403
#     4  10  19  33  60  89 124 166 212 257 318 389
#     4  10  21  41  67  91 136 170 215 274 340 386
#     4  11  26  40  67 100 130 175 222 280 329 392
#
# _framework density 23.056905
#
# number of rings (size 3 to 8) (size 9 to 14) (size 15 to 20)
#    0.000    1.714    2.857    0.857    4.000    1.143 
#    0.000    1.429    0.000    0.000    0.000    0.000 
#    0.000    0.000    0.000    0.000    0.000    0.000 
#
# Total GULP energy -156086.172713 kJ/mol
# GULP energy per Si atom -5574.506168 kJ/mol
# Density = 2.300443 g / cm^3
# Si number density = 23.056905 Si / 1000 Ang^3
#
#
#
# Elastic Constant Matrix: (Units=GPa)
#
#
# Indices 1 2 3 4 5 6 
#
# 1 76.4077 5.2506 14.2587 0.0000 -22.6388 0.0000
# 2 5.2506 28.2855 51.2578 0.0000 -1.0509 0.0000
# 3 14.2587 51.2578 131.0136 0.0000 -25.6457 0.0000
# 4 0.0000 0.0000 0.0000 27.8011 0.0000 -7.7622
# 5 -22.6388 -1.0509 -25.6457 0.0000 40.8670 0.0000
# 6 0.0000 0.0000 0.0000 -7.7622 0.0000 13.5595
#
#
#
# Elastic Compliance Matrix: (Units=1/GPa)
#
#
# Indices 1 2 3 4 5 6 
#
# 1 0.016595 -0.012891 0.005668 0.000000 0.012419 0.000000
# 2 -0.012891 0.177225 -0.078025 0.000000 -0.051547 0.000000
# 3 0.005668 -0.078025 0.043053 0.000000 0.028151 0.000000
# 4 0.000000 0.000000 0.000000 0.042813 0.000000 0.024508
# 5 0.012419 -0.051547 0.028151 0.000000 0.047689 0.000000
# 6 0.000000 0.000000 0.000000 0.024508 0.000000 0.087779
#
#
# Mechanical properties :
#
#
# Convention : Reuss Voigt Hill
#
# Bulk Modulus (GPa) = 15.06526 41.91567 28.49047
# Shear Modulus (GPa) = 8.22672 27.44150 17.83411
#
# Velocity S-wave (km/s) = 1.89097 3.45362 2.78417
# Velocity P-wave (km/s) = 3.36390 5.84140 4.76643
#
# Compressibility (1/GPa) = 0.06637786
#
# Stress axis : x y z
#
# Youngs Moduli (GPa) = 60.25791 5.64254 23.22721
#
# Poissons Ratio (x) = 0.07274 -0.13166
# Poissons Ratio (y) = 0.77679 1.81230
# Poissons Ratio (z) = -0.34156 0.44026
#
# Static dielectric constant tensor:
#      x y z
#    x 1.894460 0.000000 0.072840 
#    y 0.000000 1.882630 0.000000 
#    z 0.072840 0.000000 1.986650 
# 
# From -- ./inp_files/53513.got.cif
#   From: 2010.05.17/outbox.cif.g08.bks.cpg/sg14_27_cif.got.tgz:53513.got - 2010.06.03 17:49:19.
