data_PCOD9240926
_publ_section_title
;
Structure prediction by ZEFSAII (Michael W. Deem and Ramdas Pophale) SiO2 
 PCOD9240926
Probable space group: P 21/C
;
_chemical_formula_sum "Si O2"
_cell_formula_units_Z 20
_cell_length_a 10.680339
_cell_length_b 15.026746
_cell_length_c 5.332854
_cell_angle_alpha 90.000000
_cell_angle_beta 93.045348
_cell_angle_gamma 90.000000
_cell_volume 854.665027
_symmetry_space_group_name_H-M "P 21/C"
_symmetry_group_IT_number 14
_symmetry_cell_setting 'monoclinic'
loop_
_space_group_symop_operation_xyz
x,y,z
-x,1/2+y,1/2-z
-x,-y,-z
x,1/2-y,1/2+z
loop_
_atom_site_type_symbol
_atom_site_label
_atom_site_fract_x
_atom_site_fract_y
_atom_site_fract_z
Si Si1 0.751249 0.797640 0.193456
Si Si2 0.918968 0.090718 0.452343
Si Si3 0.631590 0.423892 0.776006
Si Si4 0.018462 0.105162 0.963175
Si Si5 0.493752 0.616350 0.738545
O O1 0.778333 0.777272 0.486798
O O2 0.604970 0.818986 0.169347
O O3 0.839774 0.875849 0.102600
O O4 0.776858 0.069686 0.363776
O O5 0.932238 0.136186 0.724034
O O6 0.980371 0.143622 0.227920
O O7 0.000000 0.000000 0.500000
O O8 0.564279 0.520358 0.763825
O O9 0.607386 0.386355 0.495520
O O10 0.565338 0.369271 0.994097
O O11 0.000000 0.000000 0.000000
#
# Coordination Sequence:
#
# PCOD9240926 Si02
#       5
#     4   4   4   4   4
#     4  12  25  42  65  93 130 171 213 265 330 391
#     4  10  19  33  58  90 123 156 199 258 314 357
#     4  10  20  35  61  92 119 153 204 264 316 361
#     4  10  21  37  62  90 122 163 214 265 313 372
#     4  10  21  37  58  89 123 156 204 259 311 374
#
# _framework density 23.400981000000002
#
# number of rings (size 3 to 8) (size 9 to 14) (size 15 to 20)
#    0.000    1.600    0.000    6.000    0.000    9.600 
#    0.000    0.000    0.000   24.000    0.000    0.000 
#    0.000    0.000    0.000    0.000    0.000    0.000 
#
# Total GULP energy -111728.259671 kJ/mol
# GULP energy per Si atom -5586.412984 kJ/mol
# Density = 2.334772 g / cm^3
# Si number density = 23.400981 Si / 1000 Ang^3
#
#
#
# Elastic Constant Matrix: (Units=GPa)
#
#
# Indices 1 2 3 4 5 6 
#
# 1 152.0377 23.5852 65.5618 0.0000 9.5691 0.0000
# 2 23.5852 38.8386 14.7292 0.0000 -6.5544 0.0000
# 3 65.5618 14.7292 220.4118 0.0000 -5.1845 0.0000
# 4 0.0000 0.0000 0.0000 14.2330 0.0000 -3.3953
# 5 9.5691 -6.5544 -5.1845 0.0000 47.8376 0.0000
# 6 0.0000 0.0000 0.0000 -3.3953 0.0000 27.4273
#
#
#
# Elastic Compliance Matrix: (Units=1/GPa)
#
#
# Indices 1 2 3 4 5 6 
#
# 1 0.008443 -0.004706 -0.002258 0.000000 -0.002578 0.000000
# 2 -0.004706 0.029616 -0.000463 0.000000 0.004949 0.000000
# 3 -0.002258 -0.000463 0.005262 0.000000 0.000958 0.000000
# 4 0.000000 0.000000 0.000000 0.072397 0.000000 0.008962
# 5 -0.002578 0.004949 0.000958 0.000000 0.022202 0.000000
# 6 0.000000 0.000000 0.000000 0.008962 0.000000 0.037569
#
#
# Mechanical properties :
#
#
# Convention : Reuss Voigt Hill
#
# Bulk Modulus (GPa) = 35.12703 68.78227 51.95465
# Shear Modulus (GPa) = 25.02095 38.39371 31.70733
#
# Velocity S-wave (km/s) = 3.27345 4.05494 3.68497
# Velocity P-wave (km/s) = 5.41579 7.16799 6.35259
#
# Compressibility (1/GPa) = 0.02846811
#
# Stress axis : x y z
#
# Youngs Moduli (GPa) = 118.43889 33.76527 190.04331
#
# Poissons Ratio (x) = 0.15891 0.42904
# Poissons Ratio (y) = 0.55739 0.08796
# Poissons Ratio (z) = 0.26739 0.01563
#
# Static dielectric constant tensor:
#      x y z
#    x 1.844900 0.000000 -0.026110 
#    y 0.000000 1.861810 0.000000 
#    z -0.026110 0.000000 1.969980 
# 
# From -- ./inp_files/1198.got.cif
#   From: 2010.05.17/outbox.cif.g08.bks.cpg/sg14_1_cif.got.tgz:1198.got - 2010.06.03 17:49:19.
