data_PCOD9240824
_publ_section_title
;
Structure prediction by ZEFSAII (Michael W. Deem and Ramdas Pophale) SiO2 
 PCOD9240824
Probable space group: P 21/C
;
_chemical_formula_sum "Si O2"
_cell_formula_units_Z 32
_cell_length_a 16.659111
_cell_length_b 19.955468
_cell_length_c 8.576289
_cell_angle_alpha 90.000000
_cell_angle_beta 140.553239
_cell_angle_gamma 90.000000
_cell_volume 1811.480525
_symmetry_space_group_name_H-M "P 21/C"
_symmetry_group_IT_number 14
_symmetry_cell_setting 'monoclinic'
loop_
_space_group_symop_operation_xyz
x,y,z
-x,1/2+y,1/2-z
-x,-y,-z
x,1/2-y,1/2+z
loop_
_atom_site_type_symbol
_atom_site_label
_atom_site_fract_x
_atom_site_fract_y
_atom_site_fract_z
Si Si1 0.978263 0.677496 0.030660
Si Si2 0.881138 0.958404 0.258537
Si Si3 0.118862 0.458404 0.615124
Si Si4 0.021737 0.322504 0.595870
Si Si5 0.273576 0.822379 0.348092
Si Si6 0.628048 0.464220 0.001619
Si Si7 0.726424 0.177621 0.027363
Si Si8 0.628048 0.464220 0.382525
O O1 0.973005 0.676541 0.209508
O O2 0.126055 0.667455 0.205757
O O3 0.939507 0.750000 0.909261
O O4 0.896816 0.617140 0.840812
O O5 0.884662 0.959875 0.076993
O O6 0.000000 0.000000 0.500000
O O7 0.751318 0.993592 0.114874
O O8 0.248682 0.493592 0.860921
O O9 0.000000 0.500000 0.500000
O O10 0.103184 0.382860 0.650363
O O11 0.873945 0.332545 0.327592
O O12 0.352494 0.887103 0.519192
O O13 0.314795 0.750000 0.472193
O O14 0.276803 0.820226 0.165204
O O15 0.626275 0.463576 0.189413
O O16 0.500000 0.500000 0.756619
O O17 0.647506 0.112897 0.961709
#
# Coordination Sequence:
#
# PCOD9240824 Si02
#       8
#     4   4   4   4   4   4   4   4
#     4  10  19  33  52  80 109 138 177 222 270 319
#     4  11  20  33  54  80 107 140 177 220 268 315
#     4  11  20  33  54  80 107 140 177 220 268 315
#     4  10  19  33  52  80 109 138 177 222 270 319
#     4   9  17  31  51  76 101 132 173 215 259 311
#     4   9  18  34  54  76 105 141 180 217 262 319
#     4   9  17  31  51  76 101 132 173 215 259 311
#     4   9  18  34  54  76 105 141 180 217 262 319
#
# _framework density 17.665108
#
# number of rings (size 3 to 8) (size 9 to 14) (size 15 to 20)
#    0.000    2.250    2.500    1.500    0.000    1.000 
#    0.000    1.250    0.000    9.750    0.000    0.000 
#    0.000    0.000    0.000    0.000    0.000    0.000 
#
# Total GULP energy -178530.310646 kJ/mol
# GULP energy per Si atom -5579.072208 kJ/mol
# Density = 1.762490 g / cm^3
# Si number density = 17.665108 Si / 1000 Ang^3
#
#
#
# Elastic Constant Matrix: (Units=GPa)
#
#
# Indices 1 2 3 4 5 6 
#
# 1 53.3621 56.6585 32.2709 0.0000 21.5510 0.0000
# 2 56.6585 202.7413 66.0770 0.0000 31.3579 0.0000
# 3 32.2709 66.0770 67.2405 0.0000 24.6534 0.0000
# 4 0.0000 0.0000 0.0000 30.8853 0.0000 -2.4781
# 5 21.5510 31.3579 24.6534 0.0000 24.1115 0.0000
# 6 0.0000 0.0000 0.0000 -2.4781 0.0000 31.6295
#
#
#
# Elastic Compliance Matrix: (Units=1/GPa)
#
#
# Indices 1 2 3 4 5 6 
#
# 1 0.035054 -0.005306 -0.004243 0.000000 -0.020093 0.000000
# 2 -0.005306 0.008242 -0.005377 0.000000 -0.000478 0.000000
# 3 -0.004243 -0.005377 0.029176 0.000000 -0.019046 0.000000
# 4 0.000000 0.000000 0.000000 0.032583 0.000000 0.002553
# 5 -0.020093 -0.000478 -0.019046 0.000000 0.079529 0.000000
# 6 0.000000 0.000000 0.000000 0.002553 0.000000 0.031816
#
#
# Mechanical properties :
#
#
# Convention : Reuss Voigt Hill
#
# Bulk Modulus (GPa) = 23.46324 70.37295 46.91809
# Shear Modulus (GPa) = 19.19704 28.54776 23.87240
#
# Velocity S-wave (km/s) = 3.30012 4.02438 3.68011
# Velocity P-wave (km/s) = 5.27562 7.84333 6.68394
#
# Compressibility (1/GPa) = 0.04261986
#
# Stress axis : x y z
#
# Youngs Moduli (GPa) = 28.52750 121.33460 34.27526
#
# Poissons Ratio (x) = 0.64377 0.14541
# Poissons Ratio (y) = 0.15136 0.18431
# Poissons Ratio (z) = 0.12103 0.65246
#
# Static dielectric constant tensor:
#      x y z
#    x 1.597230 0.000000 -0.009590 
#    y 0.000000 1.600560 0.000000 
#    z -0.009590 0.000000 1.594350 
# 
# From -- ./inp_files/18126.got.cif
#   From: 2010.05.17/outbox.cif.g08.bks.cpg/sg14_10_cif.got.tgz:18126.got - 2010.06.03 17:49:19.
