data_PCOD9240553
_publ_section_title
;
Structure prediction by ZEFSAII (Michael W. Deem and Ramdas Pophale) SiO2 
 PCOD9240553
Probable space group: P 21/C
;
_chemical_formula_sum "Si O2"
_cell_formula_units_Z 20
_cell_length_a 23.170753
_cell_length_b 4.854932
_cell_length_c 11.068213
_cell_angle_alpha 90.000000
_cell_angle_beta 141.104773
_cell_angle_gamma 90.000000
_cell_volume 781.789912
_symmetry_space_group_name_H-M "P 21/C"
_symmetry_group_IT_number 14
_symmetry_cell_setting 'monoclinic'
loop_
_space_group_symop_operation_xyz
x,y,z
-x,1/2+y,1/2-z
-x,-y,-z
x,1/2-y,1/2+z
loop_
_atom_site_type_symbol
_atom_site_label
_atom_site_fract_x
_atom_site_fract_y
_atom_site_fract_z
Si Si1 0.284020 0.821298 0.059483
Si Si2 0.558923 0.072779 0.323354
Si Si3 0.989444 0.748150 0.391934
Si Si4 0.150601 0.516554 0.005869
Si Si5 0.740491 0.846081 0.632207
O O1 0.228206 0.641350 0.866859
O O2 0.282266 0.136608 0.016103
O O3 0.386218 0.698779 0.202589
O O4 0.231825 0.716722 0.091828
O O5 0.485412 0.833298 0.182338
O O6 0.641522 0.919573 0.529858
O O7 0.000000 0.500000 0.500000
O O8 0.895043 0.815903 0.668641
O O9 0.067117 0.796750 0.417764
O O10 0.000000 0.000000 0.500000
O O11 0.191291 0.313344 0.171989
#
# Coordination Sequence:
#
# PCOD9240553 Si02
#       5
#     4   4   4   4   4
#     4  10  23  41  69 101 139 183 236 290 355 425
#     4  10  18  42  70  96 142 184 224 296 364 417
#     4  12  28  48  72 106 146 189 246 303 359 440
#     4  12  26  48  72 105 142 194 242 297 370 426
#     4  10  23  41  69 101 139 184 236 291 355 427
#
# _framework density 25.582322999999999
#
# number of rings (size 3 to 8) (size 9 to 14) (size 15 to 20)
#    1.200    0.000    2.000    3.600    0.000    8.000 
#    0.000    2.000    0.000    0.000    0.000    0.000 
#    0.000    0.000    0.000    0.000    0.000    0.000 
#
# Total GULP energy -111861.386862 kJ/mol
# GULP energy per Si atom -5593.069343 kJ/mol
# Density = 2.552410 g / cm^3
# Si number density = 25.582323 Si / 1000 Ang^3
#
#
#
# Elastic Constant Matrix: (Units=GPa)
#
#
# Indices 1 2 3 4 5 6 
#
# 1 139.0491 35.5527 11.4404 0.0000 38.0148 0.0000
# 2 35.5527 170.1211 14.3068 0.0000 9.3935 0.0000
# 3 11.4404 14.3068 28.9536 0.0000 8.8903 0.0000
# 4 0.0000 0.0000 0.0000 34.9438 0.0000 11.3518
# 5 38.0148 9.3935 8.8903 0.0000 39.7511 0.0000
# 6 0.0000 0.0000 0.0000 11.3518 0.0000 48.9418
#
#
#
# Elastic Compliance Matrix: (Units=1/GPa)
#
#
# Indices 1 2 3 4 5 6 
#
# 1 0.010157 -0.001579 -0.000392 0.000000 -0.009253 0.000000
# 2 -0.001579 0.006404 -0.002727 0.000000 0.000606 0.000000
# 3 -0.000392 -0.002727 0.038362 0.000000 -0.007560 0.000000
# 4 0.000000 0.000000 0.000000 0.030949 0.000000 -0.007179
# 5 -0.009253 0.000606 -0.007560 0.000000 0.035553 0.000000
# 6 0.000000 0.000000 0.000000 -0.007179 0.000000 0.022097
#
#
# Mechanical properties :
#
#
# Convention : Reuss Voigt Hill
#
# Bulk Modulus (GPa) = 21.96478 51.19152 36.57815
# Shear Modulus (GPa) = 29.74529 43.18226 36.46377
#
# Velocity S-wave (km/s) = 3.41358 4.11295 3.77948
# Velocity P-wave (km/s) = 4.91338 6.52757 5.77713
#
# Compressibility (1/GPa) = 0.04552744
#
# Stress axis : x y z
#
# Youngs Moduli (GPa) = 98.45130 156.15375 26.06769
#
# Poissons Ratio (x) = 0.24654 0.01022
# Poissons Ratio (y) = 0.15544 0.07108
# Poissons Ratio (z) = 0.03861 0.42579
#
# Static dielectric constant tensor:
#      x y z
#    x 2.124980 0.000000 -0.029140 
#    y 0.000000 1.933920 0.000000 
#    z -0.029140 0.000000 2.046820 
# 
# From -- ./inp_files/33284.got.cif
#   From: 2010.05.17/outbox.cif.g08.bks.cpg/sg14_17_cif.got.tgz:33284.got - 2010.06.03 17:49:19.
