data_PCOD9240304
_publ_section_title
;
Structure prediction by ZEFSAII (Michael W. Deem and Ramdas Pophale) SiO2 
 PCOD9240304
Probable space group: P 21/C
;
_chemical_formula_sum "Si O2"
_cell_formula_units_Z 28
_cell_length_a 20.068894
_cell_length_b 10.285463
_cell_length_c 14.359012
_cell_angle_alpha 90.000000
_cell_angle_beta 23.770924
_cell_angle_gamma 90.000000
_cell_volume 1194.714387
_symmetry_space_group_name_H-M "P 21/C"
_symmetry_group_IT_number 14
_symmetry_cell_setting 'monoclinic'
loop_
_space_group_symop_operation_xyz
x,y,z
-x,1/2+y,1/2-z
-x,-y,-z
x,1/2-y,1/2+z
loop_
_atom_site_type_symbol
_atom_site_label
_atom_site_fract_x
_atom_site_fract_y
_atom_site_fract_z
Si Si1 0.208608 0.234180 0.836703
Si Si2 0.449758 0.707115 0.342880
Si Si3 0.807689 0.609011 0.831531
Si Si4 0.466868 0.866669 0.492149
Si Si5 0.138395 0.691553 0.199713
Si Si6 0.333808 0.508325 0.649212
Si Si7 0.872894 0.260587 0.065893
O O1 0.186637 0.119060 0.788829
O O2 0.373268 0.216478 0.685047
O O3 0.249546 0.370867 0.734313
O O4 0.039739 0.231494 0.111549
O O5 0.459378 0.841547 0.390854
O O6 0.306215 0.738025 0.451868
O O7 0.390964 0.591232 0.486674
O O8 0.627960 0.665516 0.081950
O O9 0.836607 0.463156 0.829945
O O10 0.953286 0.700521 0.684548
O O11 0.288808 0.820312 0.755291
O O12 0.500000 0.000000 0.500000
O O13 0.121556 0.744083 0.328208
O O14 0.500000 0.500000 0.500000
O O15 0.185060 0.594104 0.884797
#
# Coordination Sequence:
#
# PCOD9240304 Si02
#       7
#     4   4   4   4   4   4   4
#     4  11  19  35  67  83 105 164 197 228 285 352
#     4  10  23  38  56  86 124 150 183 257 299 329
#     4  11  22  37  58  87 121 146 190 250 297 333
#     4  10  18  36  63  81 109 154 203 228 278 357
#     4   9  20  38  55  86 115 146 200 233 281 356
#     4  10  19  39  60  82 117 150 201 236 276 353
#     4   9  19  36  59  83 114 153 191 234 286 349
#
# _framework density 23.436565999999999
#
# number of rings (size 3 to 8) (size 9 to 14) (size 15 to 20)
#    0.000    2.286    2.857    4.286    2.000    5.143 
#    0.000    4.286    0.000    0.000    0.000    0.000 
#    0.000    0.000    0.000    0.000    0.000    0.000 
#
# Total GULP energy -156129.144877 kJ/mol
# GULP energy per Si atom -5576.040888 kJ/mol
# Density = 2.338322 g / cm^3
# Si number density = 23.436566 Si / 1000 Ang^3
#
#
#
# Elastic Constant Matrix: (Units=GPa)
#
#
# Indices 1 2 3 4 5 6 
#
# 1 51.4155 1.2007 23.0963 0.0000 -11.1508 0.0000
# 2 1.2007 81.1204 39.1170 0.0000 -13.2049 0.0000
# 3 23.0963 39.1170 198.2415 0.0000 -49.7314 0.0000
# 4 0.0000 0.0000 0.0000 34.9511 0.0000 -15.4842
# 5 -11.1508 -13.2049 -49.7314 0.0000 33.7331 0.0000
# 6 0.0000 0.0000 0.0000 -15.4842 0.0000 25.0247
#
#
#
# Elastic Compliance Matrix: (Units=1/GPa)
#
#
# Indices 1 2 3 4 5 6 
#
# 1 0.021217 0.001226 -0.001324 0.000000 0.005542 0.000000
# 2 0.001226 0.013796 -0.002235 0.000000 0.002510 0.000000
# 3 -0.001324 -0.002235 0.008427 0.000000 0.011111 0.000000
# 4 0.000000 0.000000 0.000000 0.039416 0.000000 0.024389
# 5 0.005542 0.002510 0.011111 0.000000 0.048840 0.000000
# 6 0.000000 0.000000 0.000000 0.024389 0.000000 0.055052
#
#
# Mechanical properties :
#
#
# Convention : Reuss Voigt Hill
#
# Bulk Modulus (GPa) = 25.78980 50.84506 38.31743
# Shear Modulus (GPa) = 24.46930 36.56600 30.51765
#
# Velocity S-wave (km/s) = 3.23471 3.95424 3.61243
# Velocity P-wave (km/s) = 4.99791 6.52609 5.81244
#
# Compressibility (1/GPa) = 0.03877503
#
# Stress axis : x y z
#
# Youngs Moduli (GPa) = 47.13130 72.48625 118.66682
#
# Poissons Ratio (x) = -0.08890 0.15706
# Poissons Ratio (y) = -0.05780 0.26526
# Poissons Ratio (z) = 0.06238 0.16203
#
# Static dielectric constant tensor:
#      x y z
#    x 1.954840 0.000000 0.022150 
#    y 0.000000 1.954180 0.000000 
#    z 0.022150 0.000000 2.005510 
# 
# From -- ./inp_files/61911.got.cif
#   From: 2010.05.17/outbox.cif.g08.bks.cpg/sg14_31_cif.got.tgz:61911.got - 2010.06.03 17:49:19.
