data_PCOD9240427
_publ_section_title
;
Structure prediction by ZEFSAII (Michael W. Deem and Ramdas Pophale) SiO2 
 PCOD9240427
Probable space group: P 21/C
;
_chemical_formula_sum "Si O2"
_cell_formula_units_Z 28
_cell_length_a 11.364818
_cell_length_b 13.470810
_cell_length_c 13.218930
_cell_angle_alpha 90.000000
_cell_angle_beta 32.261873
_cell_angle_gamma 90.000000
_cell_volume 1080.246171
_symmetry_space_group_name_H-M "P 21/C"
_symmetry_group_IT_number 14
_symmetry_cell_setting 'monoclinic'
loop_
_space_group_symop_operation_xyz
x,y,z
-x,1/2+y,1/2-z
-x,-y,-z
x,1/2-y,1/2+z
loop_
_atom_site_type_symbol
_atom_site_label
_atom_site_fract_x
_atom_site_fract_y
_atom_site_fract_z
Si Si1 0.133357 0.272641 0.584799
Si Si2 0.250378 0.789455 0.768260
Si Si3 0.237943 0.062643 0.576934
Si Si4 0.568372 0.609260 0.492727
Si Si5 0.452510 0.390447 0.110278
Si Si6 0.995188 0.564671 0.102145
Si Si7 0.276975 0.734551 0.958391
O O1 0.253182 0.167679 0.509711
O O2 0.295427 0.360905 0.503244
O O3 0.006261 0.288975 0.573396
O O4 0.923519 0.258154 0.815717
O O5 0.369584 0.687054 0.641961
O O6 0.369541 0.867814 0.608934
O O7 0.282519 0.811391 0.863459
O O8 0.239187 0.088644 0.696580
O O9 0.441140 0.986349 0.414080
O O10 0.032870 0.004801 0.674002
O O11 0.500000 0.500000 0.500000
O O12 0.772504 0.628053 0.268541
O O13 0.497305 0.296970 0.150897
O O14 0.000000 0.500000 0.000000
O O15 0.198354 0.638176 0.953020
#
# Coordination Sequence:
#
# PCOD9240427 Si02
#       7
#     4   4   4   4   4   4   4
#     4  10  21  38  60  91 123 168 212 273 327 381
#     4  11  21  41  62  92 127 167 216 272 326 392
#     4  10  18  38  62  83 125 166 210 264 318 383
#     4  11  22  38  62  93 129 170 217 270 327 393
#     4   9  20  37  62  87 121 169 212 259 322 391
#     4  10  20  37  62  91 120 169 214 258 329 387
#     4   9  20  37  59  87 126 160 209 266 322 389
#
# _framework density 25.920017000000001
#
# number of rings (size 3 to 8) (size 9 to 14) (size 15 to 20)
#    0.000    2.000    1.429    3.429    0.000    0.000 
#    7.714    0.714    6.286    0.000    0.000    0.000 
#    0.000    0.000    0.000    0.000    0.000    0.000 
#
# Total GULP energy -155968.939173 kJ/mol
# GULP energy per Si atom -5570.319256 kJ/mol
# Density = 2.586102 g / cm^3
# Si number density = 25.920017 Si / 1000 Ang^3
#
#
#
# Elastic Constant Matrix: (Units=GPa)
#
#
# Indices 1 2 3 4 5 6 
#
# 1 157.8214 39.6035 39.1207 0.0000 -16.3705 0.0000
# 2 39.6035 71.3522 13.4209 0.0000 -18.8332 0.0000
# 3 39.1207 13.4209 71.4340 0.0000 -9.5215 0.0000
# 4 0.0000 0.0000 0.0000 27.5060 0.0000 -7.0537
# 5 -16.3705 -18.8332 -9.5215 0.0000 34.5235 0.0000
# 6 0.0000 0.0000 0.0000 -7.0537 0.0000 56.1964
#
#
#
# Elastic Compliance Matrix: (Units=1/GPa)
#
#
# Indices 1 2 3 4 5 6 
#
# 1 0.008269 -0.003651 -0.003722 0.000000 0.000903 0.000000
# 2 -0.003651 0.018253 -0.000346 0.000000 0.008130 0.000000
# 3 -0.003722 -0.000346 0.016447 0.000000 0.002582 0.000000
# 4 0.000000 0.000000 0.000000 0.037565 0.000000 0.004715
# 5 0.000903 0.008130 0.002582 0.000000 0.034541 0.000000
# 6 0.000000 0.000000 0.000000 0.004715 0.000000 0.018387
#
#
# Mechanical properties :
#
#
# Convention : Reuss Voigt Hill
#
# Bulk Modulus (GPa) = 36.32486 53.87752 45.10119
# Shear Modulus (GPa) = 31.63046 37.54267 34.58657
#
# Velocity S-wave (km/s) = 3.49708 3.80992 3.65685
# Velocity P-wave (km/s) = 5.50915 6.33918 5.93868
#
# Compressibility (1/GPa) = 0.02752936
#
# Stress axis : x y z
#
# Youngs Moduli (GPa) = 120.93724 54.78670 60.80317
#
# Poissons Ratio (x) = 0.20004 0.22631
# Poissons Ratio (y) = 0.44156 0.02104
# Poissons Ratio (z) = 0.45014 0.01896
#
# Static dielectric constant tensor:
#      x y z
#    x 2.246100 0.000000 0.016530 
#    y 0.000000 2.106970 0.000000 
#    z 0.016530 0.000000 2.129080 
# 
# From -- ./inp_files/44910.got.cif
#   From: 2010.05.17/outbox.cif.g08.bks.cpg/sg14_23_cif.got.tgz:44910.got - 2010.06.03 17:49:19.
