data_PCOD9240735
_publ_section_title
;
Structure prediction by ZEFSAII (Michael W. Deem and Ramdas Pophale) SiO2 
 PCOD9240735
Probable space group: P 21/C
;
_chemical_formula_sum "Si O2"
_cell_formula_units_Z 32
_cell_length_a 8.261853
_cell_length_b 12.839511
_cell_length_c 12.708202
_cell_angle_alpha 90.000000
_cell_angle_beta 110.807203
_cell_angle_gamma 90.000000
_cell_volume 1260.143331
_symmetry_space_group_name_H-M "P 21/C"
_symmetry_group_IT_number 14
_symmetry_cell_setting 'monoclinic'
loop_
_space_group_symop_operation_xyz
x,y,z
-x,1/2+y,1/2-z
-x,-y,-z
x,1/2-y,1/2+z
loop_
_atom_site_type_symbol
_atom_site_label
_atom_site_fract_x
_atom_site_fract_y
_atom_site_fract_z
Si Si1 0.801441 0.316212 0.288580
Si Si2 0.436788 0.883040 0.601436
Si Si3 0.538545 0.699946 0.329093
Si Si4 0.952656 0.472222 0.148056
Si Si5 0.716617 0.002107 0.909049
Si Si6 0.947754 0.086435 0.137601
Si Si7 0.335595 0.402030 0.046632
Si Si8 0.944052 0.290714 0.010419
O O1 0.660577 0.237005 0.208011
O O2 0.874604 0.390789 0.214524
O O3 0.687046 0.389600 0.341016
O O4 0.956050 0.268449 0.399123
O O5 0.559203 0.822916 0.709728
O O6 0.513341 0.883352 0.504079
O O7 0.251032 0.831012 0.550514
O O8 0.404575 0.001576 0.632343
O O9 0.577296 0.588453 0.388786
O O10 0.668705 0.788995 0.399934
O O11 0.034008 0.396664 0.077211
O O12 0.062695 0.551321 0.244223
O O13 0.809611 0.545685 0.061675
O O14 0.873785 0.954249 0.874887
O O15 0.794681 0.031755 0.038979
O O16 0.951159 0.205995 0.103953
#
# Coordination Sequence:
#
# PCOD9240735 Si02
#       8
#     4   4   4   4   4   4   4   4
#     4   9  18  33  53  77 104 135 169 211 260 311
#     4   9  18  33  52  77 107 137 171 213 258 311
#     4  11  18  28  54  81 106 129 167 222 264 294
#     4  10  19  34  56  77 102 136 176 216 250 302
#     4   9  18  32  52  76  99 134 176 211 251 305
#     4   9  18  34  52  71 100 137 180 213 242 300
#     4  10  19  32  53  81 103 131 177 212 253 314
#     4   9  18  31  54  77  97 134 180 212 254 302
#
# _framework density 25.393937000000001
#
# number of rings (size 3 to 8) (size 9 to 14) (size 15 to 20)
#    0.000    2.500    0.000    5.250    0.000    1.000 
#    0.000    0.000    0.000   45.750    0.000    0.000 
#    0.000    0.000    0.000    0.000    0.000    0.000 
#
# Total GULP energy -178740.127851 kJ/mol
# GULP energy per Si atom -5585.628995 kJ/mol
# Density = 2.533614 g / cm^3
# Si number density = 25.393937 Si / 1000 Ang^3
#
#
#
# Elastic Constant Matrix: (Units=GPa)
#
#
# Indices 1 2 3 4 5 6 
#
# 1 20.1873 18.2264 16.1402 0.0000 -7.9942 0.0000
# 2 18.2264 155.0701 65.1684 0.0000 -2.4356 0.0000
# 3 16.1402 65.1684 126.9358 0.0000 0.3518 0.0000
# 4 0.0000 0.0000 0.0000 55.6049 0.0000 0.4909
# 5 -7.9942 -2.4356 0.3518 0.0000 17.2044 0.0000
# 6 0.0000 0.0000 0.0000 0.4909 0.0000 43.7344
#
#
#
# Elastic Compliance Matrix: (Units=1/GPa)
#
#
# Indices 1 2 3 4 5 6 
#
# 1 0.072719 -0.005230 -0.006653 0.000000 0.033185 0.000000
# 2 -0.005230 0.008626 -0.003760 0.000000 -0.001132 0.000000
# 3 -0.006653 -0.003760 0.010665 0.000000 -0.003842 0.000000
# 4 0.000000 0.000000 0.000000 0.017986 0.000000 -0.000202
# 5 0.033185 -0.001132 -0.003842 0.000000 0.073463 0.000000
# 6 0.000000 0.000000 0.000000 -0.000202 0.000000 0.022868
#
#
# Mechanical properties :
#
#
# Convention : Reuss Voigt Hill
#
# Bulk Modulus (GPa) = 16.46829 55.69592 36.08210
# Shear Modulus (GPa) = 19.39078 36.81926 28.10502
#
# Velocity S-wave (km/s) = 2.76633 3.81192 3.33041
# Velocity P-wave (km/s) = 4.08688 6.43076 5.38782
#
# Compressibility (1/GPa) = 0.06072276
#
# Stress axis : x y z
#
# Youngs Moduli (GPa) = 13.75160 115.92962 93.76271
#
# Poissons Ratio (x) = 0.60629 0.62384
# Poissons Ratio (y) = 0.07192 0.35259
# Poissons Ratio (z) = 0.09149 0.43594
#
# Static dielectric constant tensor:
#      x y z
#    x 2.100940 0.000000 0.011880 
#    y 0.000000 2.083010 0.000000 
#    z 0.011880 0.000000 2.008980 
# 
# From -- ./inp_files/44421.got.cif
#   From: 2010.05.17/outbox.cif.g08.bks.cpg/sg14_23_cif.got.tgz:44421.got - 2010.06.03 17:49:19.
