data_PCOD9240693
_publ_section_title
;
Structure prediction by ZEFSAII (Michael W. Deem and Ramdas Pophale) SiO2 
 PCOD9240693
Probable space group: P 21/C
;
_chemical_formula_sum "Si O2"
_cell_formula_units_Z 28
_cell_length_a 13.959345
_cell_length_b 5.231217
_cell_length_c 20.394856
_cell_angle_alpha 90.000000
_cell_angle_beta 106.307881
_cell_angle_gamma 90.000000
_cell_volume 1429.401018
_symmetry_space_group_name_H-M "P 21/C"
_symmetry_group_IT_number 14
_symmetry_cell_setting 'monoclinic'
loop_
_space_group_symop_operation_xyz
x,y,z
-x,1/2+y,1/2-z
-x,-y,-z
x,1/2-y,1/2+z
loop_
_atom_site_type_symbol
_atom_site_label
_atom_site_fract_x
_atom_site_fract_y
_atom_site_fract_z
Si Si1 0.225627 0.724906 0.540018
Si Si2 0.020400 0.086424 0.394482
Si Si3 0.429994 0.762742 0.411638
Si Si4 0.201367 0.723061 0.882740
Si Si5 0.103962 0.248559 0.540430
Si Si6 0.057650 0.924344 0.750084
Si Si7 0.544389 0.258510 0.424931
O O1 0.213725 0.671184 0.459238
O O2 0.166889 0.499920 0.564585
O O3 0.342698 0.715983 0.578123
O O4 0.176920 0.001369 0.544951
O O5 0.124901 0.013797 0.379204
O O6 0.975303 0.834859 0.420455
O O7 0.045320 0.268483 0.459920
O O8 0.939863 0.168870 0.325018
O O9 0.313524 0.825212 0.380370
O O10 0.471661 0.493162 0.394136
O O11 0.446234 0.751207 0.493704
O O12 0.495912 0.991195 0.396082
O O13 0.148205 0.895568 0.817611
O O14 0.977022 0.717688 0.761289
#
# Coordination Sequence:
#
# PCOD9240693 Si02
#       7
#     4   4   4   4   4   4   4
#     4  10  19  32  50  73  99 130 165 203 247 291
#     4   9  20  34  49  72 103 132 166 202 238 291
#     4   9  17  28  45  69  96 126 154 191 247 293
#     4   9  19  32  50  73 102 131 161 199 247 299
#     4  10  20  32  50  72  99 135 167 199 242 288
#     4  10  20  33  49  69  98 134 165 199 241 287
#     4   9  17  29  45  68  97 123 156 199 240 289
#
# _framework density 19.588622000000001
#
# number of rings (size 3 to 8) (size 9 to 14) (size 15 to 20)
#    0.000    2.571    0.000    1.714    0.000   16.571 
#    0.000    0.000    0.000    0.000    0.000    4.000 
#    0.000    0.000    0.000    0.000    0.000    0.000 
#
# Total GULP energy -156032.177754 kJ/mol
# GULP energy per Si atom -5572.577777 kJ/mol
# Density = 1.954404 g / cm^3
# Si number density = 19.588622 Si / 1000 Ang^3
#
#
#
# Elastic Constant Matrix: (Units=GPa)
#
#
# Indices 1 2 3 4 5 6 
#
# 1 124.2579 45.0809 21.0914 0.0000 21.0790 0.0000
# 2 45.0809 94.2169 3.5008 0.0000 3.5245 0.0000
# 3 21.0914 3.5008 56.8146 0.0000 7.6890 0.0000
# 4 0.0000 0.0000 0.0000 10.3352 0.0000 -0.2962
# 5 21.0790 3.5245 7.6890 0.0000 17.0431 0.0000
# 6 0.0000 0.0000 0.0000 -0.2962 0.0000 22.0384
#
#
#
# Elastic Compliance Matrix: (Units=1/GPa)
#
#
# Indices 1 2 3 4 5 6 
#
# 1 0.012774 -0.005512 -0.002576 0.000000 -0.013497 0.000000
# 2 -0.005512 0.013082 0.000728 0.000000 0.003783 0.000000
# 3 -0.002576 0.000728 0.019279 0.000000 -0.005662 0.000000
# 4 0.000000 0.000000 0.000000 0.096794 0.000000 0.001301
# 5 -0.013497 0.003783 -0.005662 0.000000 0.077141 0.000000
# 6 0.000000 0.000000 0.000000 0.001301 0.000000 0.045393
#
#
# Mechanical properties :
#
#
# Convention : Reuss Voigt Hill
#
# Bulk Modulus (GPa) = 32.87690 46.07063 39.47376
# Shear Modulus (GPa) = 17.28185 23.59109 20.43647
#
# Velocity S-wave (km/s) = 2.97347 3.47411 3.23349
# Velocity P-wave (km/s) = 5.34872 6.29783 5.84258
#
# Compressibility (1/GPa) = 0.03041650
#
# Stress axis : x y z
#
# Youngs Moduli (GPa) = 78.28202 76.43830 51.87035
#
# Poissons Ratio (x) = 0.42130 0.13362
# Poissons Ratio (y) = 0.43146 -0.03776
# Poissons Ratio (z) = 0.20165 -0.05565
#
# Static dielectric constant tensor:
#      x y z
#    x 1.687800 0.000000 0.001450 
#    y 0.000000 1.732900 0.000000 
#    z 0.001450 0.000000 1.731230 
# 
# From -- ./inp_files/67738.got.cif
#   From: 2010.05.17/outbox.cif.g08.bks.cpg/sg14_34_cif.got.tgz:67738.got - 2010.06.03 17:49:19.
