data_PCOD9240085
_publ_section_title
;
Structure prediction by ZEFSAII (Michael W. Deem and Ramdas Pophale) SiO2 
 PCOD9240085
Probable space group: P 21/C
;
_chemical_formula_sum "Si O2"
_cell_formula_units_Z 28
_cell_length_a 7.509486
_cell_length_b 16.440867
_cell_length_c 14.102164
_cell_angle_alpha 90.000000
_cell_angle_beta 142.923649
_cell_angle_gamma 90.000000
_cell_volume 1049.664844
_symmetry_space_group_name_H-M "P 21/C"
_symmetry_group_IT_number 14
_symmetry_cell_setting 'monoclinic'
loop_
_space_group_symop_operation_xyz
x,y,z
-x,1/2+y,1/2-z
-x,-y,-z
x,1/2-y,1/2+z
loop_
_atom_site_type_symbol
_atom_site_label
_atom_site_fract_x
_atom_site_fract_y
_atom_site_fract_z
Si Si1 0.164362 0.807261 0.689731
Si Si2 0.918727 0.586528 0.357113
Si Si3 0.509051 0.198049 0.942362
Si Si4 0.803113 0.949231 0.121278
Si Si5 0.963152 0.973859 0.592497
Si Si6 0.268937 0.256903 0.639029
Si Si7 0.392627 0.143059 0.454138
O O1 0.213346 0.904104 0.713740
O O2 0.445857 0.750461 0.807424
O O3 0.906209 0.802280 0.656927
O O4 0.004615 0.788613 0.522280
O O5 0.213976 0.638755 0.458400
O O6 0.018952 0.492560 0.389567
O O7 0.671371 0.595468 0.169850
O O8 0.791918 0.646243 0.382977
O O9 0.297020 0.143701 0.919264
O O10 0.356097 0.220421 0.777394
O O11 0.618396 0.285296 0.029114
O O12 0.982481 0.964370 0.297382
O O13 0.500000 0.000000 0.000000
O O14 0.658822 0.923185 0.484952
O O15 0.000000 0.000000 0.500000
#
# Coordination Sequence:
#
# PCOD9240085 Si02
#       7
#     4   4   4   4   4   4   4
#     4  10  22  34  60  83 119 152 193 243 298 345
#     4   9  18  35  54  80 113 150 192 237 286 344
#     4  10  18  34  60  82 110 149 201 229 291 350
#     4   9  18  32  59  80 110 157 194 236 290 352
#     4   9  18  36  56  87 117 154 190 237 304 353
#     4  11  20  36  56  87 113 154 193 244 291 353
#     4   8  20  31  55  82 110 146 187 242 278 344
#
# _framework density 26.675179
#
# number of rings (size 3 to 8) (size 9 to 14) (size 15 to 20)
#    0.857    1.714    1.429    0.857    2.000    0.000 
#    0.000    0.000   12.571    6.000    0.000    0.000 
#    0.000    0.000    0.000    0.000    0.000    0.000 
#
# Total GULP energy -155996.762149 kJ/mol
# GULP energy per Si atom -5571.312934 kJ/mol
# Density = 2.661447 g / cm^3
# Si number density = 26.675179 Si / 1000 Ang^3
#
#
#
# Elastic Constant Matrix: (Units=GPa)
#
#
# Indices 1 2 3 4 5 6 
#
# 1 35.7146 1.3329 8.7391 0.0000 -12.8387 0.0000
# 2 1.3329 113.4434 17.4640 0.0000 1.6055 0.0000
# 3 8.7391 17.4640 91.0241 0.0000 -22.7905 0.0000
# 4 0.0000 0.0000 0.0000 26.4984 0.0000 -4.4479
# 5 -12.8387 1.6055 -22.7905 0.0000 39.7066 0.0000
# 6 0.0000 0.0000 0.0000 -4.4479 0.0000 46.7939
#
#
#
# Elastic Compliance Matrix: (Units=1/GPa)
#
#
# Indices 1 2 3 4 5 6 
#
# 1 0.031728 -0.000445 -0.000453 0.000000 0.010017 0.000000
# 2 -0.000445 0.009177 -0.002157 0.000000 -0.001753 0.000000
# 3 -0.000453 -0.002157 0.013347 0.000000 0.007601 0.000000
# 4 0.000000 0.000000 0.000000 0.038350 0.000000 0.003645
# 5 0.010017 -0.001753 0.007601 0.000000 0.032857 0.000000
# 6 0.000000 0.000000 0.000000 0.003645 0.000000 0.021717
#
#
# Mechanical properties :
#
#
# Convention : Reuss Voigt Hill
#
# Bulk Modulus (GPa) = 20.77160 32.80601 26.78880
# Shear Modulus (GPa) = 29.52768 36.77619 33.15193
#
# Velocity S-wave (km/s) = 3.33067 3.71707 3.52916
# Velocity P-wave (km/s) = 4.75341 5.54501 5.16440
#
# Compressibility (1/GPa) = 0.04814266
#
# Stress axis : x y z
#
# Youngs Moduli (GPa) = 31.51787 108.96758 74.92530
#
# Poissons Ratio (x) = 0.04847 0.03392
# Poissons Ratio (y) = 0.01402 0.16161
# Poissons Ratio (z) = 0.01427 0.23503
#
# Static dielectric constant tensor:
#      x y z
#    x 2.135690 0.000000 0.026120 
#    y 0.000000 2.086620 0.000000 
#    z 0.026120 0.000000 2.138820 
# 
# From -- ./inp_files/56051.got.cif
#   From: 2010.05.17/outbox.cif.g08.bks.cpg/sg14_29_cif.got.tgz:56051.got - 2010.06.03 17:49:19.
