data_PCOD9240859
_publ_section_title
;
Structure prediction by ZEFSAII (Michael W. Deem and Ramdas Pophale) SiO2 
 PCOD9240859
Probable space group: P 21/C
;
_chemical_formula_sum "Si O2"
_cell_formula_units_Z 32
_cell_length_a 12.990934
_cell_length_b 5.369713
_cell_length_c 27.001650
_cell_angle_alpha 90.000000
_cell_angle_beta 75.916704
_cell_angle_gamma 90.000000
_cell_volume 1826.955487
_symmetry_space_group_name_H-M "P 21/C"
_symmetry_group_IT_number 14
_symmetry_cell_setting 'monoclinic'
loop_
_space_group_symop_operation_xyz
x,y,z
-x,1/2+y,1/2-z
-x,-y,-z
x,1/2-y,1/2+z
loop_
_atom_site_type_symbol
_atom_site_label
_atom_site_fract_x
_atom_site_fract_y
_atom_site_fract_z
Si Si1 0.401872 0.419511 0.047064
Si Si2 0.141057 0.054147 0.431301
Si Si3 0.710783 0.405788 0.472317
Si Si4 0.697967 0.201370 0.656458
Si Si5 0.438231 0.776519 0.240405
Si Si6 0.501153 0.413346 0.869195
Si Si7 0.063197 0.808926 0.026857
Si Si8 0.669875 0.926082 0.078902
O O1 0.323281 0.655519 0.051293
O O2 0.438937 0.410214 0.099776
O O3 0.348618 0.158399 0.037508
O O4 0.500000 0.500000 0.000000
O O5 0.231285 0.242494 0.440214
O O6 0.029747 0.181995 0.430420
O O7 0.195644 0.914187 0.378851
O O8 0.113020 0.883107 0.481494
O O9 0.838214 0.427735 0.456060
O O10 0.677628 0.375096 0.534258
O O11 0.673074 0.206558 0.717261
O O12 0.686876 0.467655 0.631682
O O13 0.598221 0.050532 0.645036
O O14 0.500929 0.540413 0.258218
O O15 0.433234 0.708318 0.183163
O O16 0.443446 0.203975 0.908929
O O17 0.000000 0.000000 0.000000
#
# Coordination Sequence:
#
# PCOD9240859 Si02
#       8
#     4   4   4   4   4   4   4   4
#     4  12  25  36  53  76 114 158 195 212 261 330
#     4  10  20  32  53  80 111 146 178 227 293 340
#     4  12  24  36  53  80 110 152 190 227 263 335
#     4  10  19  33  55  79 112 146 185 229 283 341
#     4  10  20  34  54  81 110 146 183 232 282 325
#     4  10  22  34  52  76 116 152 187 224 270 326
#     4  11  21  34  54  77 114 144 181 237 291 326
#     4  11  18  33  53  77 113 147 185 223 271 335
#
# _framework density 17.515478999999999
#
# number of rings (size 3 to 8) (size 9 to 14) (size 15 to 20)
#    0.000    1.250    5.000    1.875    3.500    0.000 
#    0.000    0.000    0.000    0.000    0.000    0.000 
#    7.500    0.000    0.000    0.000    0.000    0.000 
#
# Total GULP energy -178461.734081 kJ/mol
# GULP energy per Si atom -5576.929190 kJ/mol
# Density = 1.747561 g / cm^3
# Si number density = 17.515479 Si / 1000 Ang^3
#
#
#
# Elastic Constant Matrix: (Units=GPa)
#
#
# Indices 1 2 3 4 5 6 
#
# 1 79.6394 25.3256 34.6042 0.0000 -13.1661 0.0000
# 2 25.3256 67.3617 4.8045 0.0000 -10.6451 0.0000
# 3 34.6042 4.8045 87.5708 0.0000 -19.7909 0.0000
# 4 0.0000 0.0000 0.0000 25.9283 0.0000 -4.5667
# 5 -13.1661 -10.6451 -19.7909 0.0000 23.6578 0.0000
# 6 0.0000 0.0000 0.0000 -4.5667 0.0000 30.0397
#
#
#
# Elastic Compliance Matrix: (Units=1/GPa)
#
#
# Indices 1 2 3 4 5 6 
#
# 1 0.017373 -0.005787 -0.006105 0.000000 0.001957 0.000000
# 2 -0.005787 0.017970 0.002960 0.000000 0.007341 0.000000
# 3 -0.006105 0.002960 0.016281 0.000000 0.011554 0.000000
# 4 0.000000 0.000000 0.000000 0.039629 0.000000 0.006025
# 5 0.001957 0.007341 0.011554 0.000000 0.056327 0.000000
# 6 0.000000 0.000000 0.000000 0.006025 0.000000 0.034205
#
#
# Mechanical properties :
#
#
# Convention : Reuss Voigt Hill
#
# Bulk Modulus (GPa) = 29.62148 40.44895 35.03522
# Shear Modulus (GPa) = 23.70756 27.24764 25.47760
#
# Velocity S-wave (km/s) = 3.68301 3.94843 3.81803
# Velocity P-wave (km/s) = 5.91899 6.62799 6.28350
#
# Compressibility (1/GPa) = 0.03375929
#
# Stress axis : x y z
#
# Youngs Moduli (GPa) = 57.55964 55.64839 61.42272
#
# Poissons Ratio (x) = 0.32204 0.37501
# Poissons Ratio (y) = 0.33310 -0.18181
# Poissons Ratio (z) = 0.35142 -0.16472
#
# Static dielectric constant tensor:
#      x y z
#    x 1.672250 0.000000 -0.011010 
#    y 0.000000 1.746960 0.000000 
#    z -0.011010 0.000000 1.612230 
# 
# From -- ./inp_files/79779.got.cif
#   From: 2010.05.17/outbox.cif.g08.bks.cpg/sg14_40_cif.got.tgz:79779.got - 2010.06.03 17:49:19.
