data_PCOD9240820
_publ_section_title
;
Structure prediction by ZEFSAII (Michael W. Deem and Ramdas Pophale) SiO2 
 PCOD9240820
Probable space group: P 21/C
;
_chemical_formula_sum "Si O2"
_cell_formula_units_Z 32
_cell_length_a 25.591168
_cell_length_b 7.385345
_cell_length_c 14.235004
_cell_angle_alpha 90.000000
_cell_angle_beta 34.381899
_cell_angle_gamma 90.000000
_cell_volume 1519.291559
_symmetry_space_group_name_H-M "P 21/C"
_symmetry_group_IT_number 14
_symmetry_cell_setting 'monoclinic'
loop_
_space_group_symop_operation_xyz
x,y,z
-x,1/2+y,1/2-z
-x,-y,-z
x,1/2-y,1/2+z
loop_
_atom_site_type_symbol
_atom_site_label
_atom_site_fract_x
_atom_site_fract_y
_atom_site_fract_z
Si Si1 0.769527 0.889522 0.736205
Si Si2 0.087789 0.259869 0.322878
Si Si3 0.753420 0.297716 0.702827
Si Si4 0.889438 0.164701 0.150707
Si Si5 0.617020 0.701955 0.605131
Si Si6 0.597279 0.119381 0.579493
Si Si7 0.264133 0.786613 0.477755
Si Si8 0.758835 0.785838 0.546006
O O1 0.850545 0.818240 0.683635
O O2 0.756768 0.771488 0.660879
O O3 0.785299 0.091223 0.675515
O O4 0.676182 0.894419 0.936402
O O5 0.086401 0.478863 0.332148
O O6 0.979334 0.217838 0.492885
O O7 0.145042 0.219631 0.143294
O O8 0.833389 0.399225 0.641545
O O9 0.743701 0.322768 0.606738
O O10 0.657044 0.329738 0.899518
O O11 0.816748 0.260677 0.328409
O O12 0.511294 0.645306 0.770397
O O13 0.674828 0.690769 0.615601
O O14 0.617113 0.911047 0.573098
O O15 0.641033 0.227105 0.603690
O O16 0.253032 0.999492 0.464432
#
# Coordination Sequence:
#
# PCOD9240820 Si02
#       8
#     4   4   4   4   4   4   4   4
#     4  10  19  33  52  74 100 131 168 207 248 294
#     4   9  18  34  53  73 101 136 169 203 248 298
#     4  10  19  33  52  74 100 131 168 207 248 294
#     4   9  18  34  53  73 101 136 169 203 248 298
#     4  10  20  36  54  74 101 132 166 203 248 298
#     4  10  20  36  54  74 101 132 166 203 248 298
#     4   8  17  33  51  71 100 135 165 200 251 301
#     4   8  17  33  51  71 100 135 165 200 251 301
#
# _framework density 21.062448
#
# number of rings (size 3 to 8) (size 9 to 14) (size 15 to 20)
#    0.000    2.750    0.000    3.000    0.000    2.500 
#    0.000   17.500    0.000    0.000    0.000    0.000 
#    0.000    0.000    0.000    0.000    0.000    0.000 
#
# Total GULP energy -178596.308168 kJ/mol
# GULP energy per Si atom -5581.134630 kJ/mol
# Density = 2.101451 g / cm^3
# Si number density = 21.062448 Si / 1000 Ang^3
#
#
#
# Elastic Constant Matrix: (Units=GPa)
#
#
# Indices 1 2 3 4 5 6 
#
# 1 101.5721 3.5375 73.3349 0.0000 7.7177 0.0000
# 2 3.5375 30.5376 0.0787 0.0000 4.8830 0.0000
# 3 73.3349 0.0787 110.8351 0.0000 -27.0063 0.0000
# 4 0.0000 0.0000 0.0000 14.9776 0.0000 2.1282
# 5 7.7177 4.8830 -27.0063 0.0000 34.2022 0.0000
# 6 0.0000 0.0000 0.0000 2.1282 0.0000 30.7740
#
#
#
# Elastic Compliance Matrix: (Units=1/GPa)
#
#
# Indices 1 2 3 4 5 6 
#
# 1 0.034117 0.001214 -0.030328 0.000000 -0.031819 0.000000
# 2 0.001214 0.033750 -0.002561 0.000000 -0.007114 0.000000
# 3 -0.030328 -0.002561 0.038197 0.000000 0.037369 0.000000
# 4 0.000000 0.000000 0.000000 0.067429 0.000000 -0.004663
# 5 -0.031819 -0.007114 0.037369 0.000000 0.066941 0.000000
# 6 0.000000 0.000000 0.000000 -0.004663 0.000000 0.032817
#
#
# Mechanical properties :
#
#
# Convention : Reuss Voigt Hill
#
# Bulk Modulus (GPa) = 23.41125 44.09410 33.75268
# Shear Modulus (GPa) = 14.25157 27.05700 20.65428
#
# Velocity S-wave (km/s) = 2.60404 3.58803 3.13488
# Velocity P-wave (km/s) = 4.49229 6.17622 5.40029
#
# Compressibility (1/GPa) = 0.04271451
#
# Stress axis : x y z
#
# Youngs Moduli (GPa) = 29.31056 29.62953 26.18041
#
# Poissons Ratio (x) = -0.03597 0.79400
# Poissons Ratio (y) = -0.03558 0.06704
# Poissons Ratio (z) = 0.88893 0.07587
#
# Static dielectric constant tensor:
#      x y z
#    x 1.758510 0.000000 -0.013460 
#    y 0.000000 1.872010 0.000000 
#    z -0.013460 0.000000 1.744550 
# 
# From -- ./inp_files/48431.got.cif
#   From: 2010.05.17/outbox.cif.g08.bks.cpg/sg14_25_cif.got.tgz:48431.got - 2010.06.03 17:49:19.
