data_PCOD9240068
_publ_section_title
;
Structure prediction by ZEFSAII (Michael W. Deem and Ramdas Pophale) SiO2 
 PCOD9240068
Probable space group: P 21/C
;
_chemical_formula_sum "Si O2"
_cell_formula_units_Z 24
_cell_length_a 15.462725
_cell_length_b 10.481034
_cell_length_c 21.804157
_cell_angle_alpha 90.000000
_cell_angle_beta 157.059232
_cell_angle_gamma 90.000000
_cell_volume 1377.362462
_symmetry_space_group_name_H-M "P 21/C"
_symmetry_group_IT_number 14
_symmetry_cell_setting 'monoclinic'
loop_
_space_group_symop_operation_xyz
x,y,z
-x,1/2+y,1/2-z
-x,-y,-z
x,1/2-y,1/2+z
loop_
_atom_site_type_symbol
_atom_site_label
_atom_site_fract_x
_atom_site_fract_y
_atom_site_fract_z
Si Si1 0.273054 0.210895 0.328900
Si Si2 0.026852 0.229374 0.864497
Si Si3 0.665200 0.390449 0.585109
Si Si4 0.987126 0.411929 0.212226
Si Si5 0.123306 0.520356 0.644096
Si Si6 0.380322 0.104528 0.535518
O O1 0.497171 0.281626 0.451705
O O2 0.337811 0.146221 0.436742
O O3 0.097438 0.321119 0.233228
O O4 0.176502 0.106272 0.219357
O O5 0.826311 0.330818 0.742631
O O6 0.961038 0.168417 0.756336
O O7 0.019290 0.119670 0.909044
O O8 0.260809 0.295932 0.003103
O O9 0.500000 0.500000 0.500000
O O10 0.845219 0.469394 0.663028
O O11 0.756403 0.474707 0.043480
O O12 0.361845 0.584445 0.787638
O O13 0.000000 0.500000 0.500000
#
# Coordination Sequence:
#
# PCOD9240068 Si02
#       6
#     4   4   4   4   4   4
#     4  10  18  34  59  82 114 144 189 236 279 326
#     4  10  19  35  56  84 112 141 188 234 282 330
#     4   9  17  30  56  87 108 132 182 247 286 317
#     4   9  18  31  57  92 104 136 187 248 277 318
#     4  12  24  39  53  82 121 160 184 219 283 349
#     4  10  19  36  61  80 108 144 192 247 277 313
#
# _framework density 17.424607999999999
#
# number of rings (size 3 to 8) (size 9 to 14) (size 15 to 20)
#    0.000    2.000    3.333    1.500    0.000    0.000 
#    3.000    0.000    0.000    9.000    0.000    0.000 
#    0.000    0.000    0.000    0.000    0.000    0.000 
#
# Total GULP energy -133648.124864 kJ/mol
# GULP energy per Si atom -5568.671869 kJ/mol
# Density = 1.738495 g / cm^3
# Si number density = 17.424608 Si / 1000 Ang^3
#
#
#
# Elastic Constant Matrix: (Units=GPa)
#
#
# Indices 1 2 3 4 5 6 
#
# 1 72.4072 49.1533 53.0935 0.0000 4.6308 0.0000
# 2 49.1533 101.9623 46.4018 0.0000 -1.5359 0.0000
# 3 53.0935 46.4018 83.5615 0.0000 0.4808 0.0000
# 4 0.0000 0.0000 0.0000 13.8446 0.0000 11.5718
# 5 4.6308 -1.5359 0.4808 0.0000 18.9190 0.0000
# 6 0.0000 0.0000 0.0000 11.5718 0.0000 32.2032
#
#
#
# Elastic Compliance Matrix: (Units=1/GPa)
#
#
# Indices 1 2 3 4 5 6 
#
# 1 0.030885 -0.008159 -0.015048 0.000000 -0.007840 0.000000
# 2 -0.008159 0.015309 -0.003336 0.000000 0.003325 0.000000
# 3 -0.015048 -0.003336 0.023365 0.000000 0.002819 0.000000
# 4 0.000000 0.000000 0.000000 0.103237 0.000000 -0.037097
# 5 -0.007840 0.003325 0.002819 0.000000 0.054974 0.000000
# 6 0.000000 0.000000 0.000000 -0.037097 0.000000 0.044383
#
#
# Mechanical properties :
#
#
# Convention : Reuss Voigt Hill
#
# Bulk Modulus (GPa) = 60.70669 61.69202 61.19936
# Shear Modulus (GPa) = 15.11808 20.27886 17.69847
#
# Velocity S-wave (km/s) = 2.94875 3.41516 3.19049
# Velocity P-wave (km/s) = 6.81973 7.14374 6.98362
#
# Compressibility (1/GPa) = 0.01647265
#
# Stress axis : x y z
#
# Youngs Moduli (GPa) = 32.37837 65.32087 42.79906
#
# Poissons Ratio (x) = 0.53293 0.64404
# Poissons Ratio (y) = 0.26416 0.14279
# Poissons Ratio (z) = 0.48723 0.21794
#
# Static dielectric constant tensor:
#      x y z
#    x 1.591440 0.000000 0.055640 
#    y 0.000000 1.684340 0.000000 
#    z 0.055640 0.000000 1.589040 
# 
# From -- ./inp_files/38989.got.cif
#   From: 2010.05.17/outbox.cif.g08.bks.cpg/sg14_20_cif.got.tgz:38989.got - 2010.06.03 17:49:19.
