data_PCOD9240348
_publ_section_title
;
Structure prediction by ZEFSAII (Michael W. Deem and Ramdas Pophale) SiO2 
 PCOD9240348
Probable space group: P 21/C
;
_chemical_formula_sum "Si O2"
_cell_formula_units_Z 28
_cell_length_a 26.916530
_cell_length_b 9.524565
_cell_length_c 21.157664
_cell_angle_alpha 90.000000
_cell_angle_beta 163.162926
_cell_angle_gamma 90.000000
_cell_volume 1571.112353
_symmetry_space_group_name_H-M "P 21/C"
_symmetry_group_IT_number 14
_symmetry_cell_setting 'monoclinic'
loop_
_space_group_symop_operation_xyz
x,y,z
-x,1/2+y,1/2-z
-x,-y,-z
x,1/2-y,1/2+z
loop_
_atom_site_type_symbol
_atom_site_label
_atom_site_fract_x
_atom_site_fract_y
_atom_site_fract_z
Si Si1 0.666715 0.829413 0.107132
Si Si2 0.304299 0.747385 0.224014
Si Si3 0.151041 0.312050 0.289191
Si Si4 0.982648 0.042583 0.144276
Si Si5 0.812982 0.142434 0.294356
Si Si6 0.016670 0.251208 0.427075
Si Si7 0.964353 0.493933 0.144936
O O1 0.682544 0.805516 0.051283
O O2 0.816587 0.744353 0.325099
O O3 0.715984 0.993798 0.175647
O O4 0.488955 0.782390 0.920502
O O5 0.295278 0.738363 0.289364
O O6 0.209199 0.891292 0.089818
O O7 0.184003 0.619154 0.052061
O O8 0.094536 0.161129 0.245363
O O9 0.138470 0.417219 0.332704
O O10 0.999058 0.368788 0.056483
O O11 0.003900 0.898632 0.132542
O O12 0.035258 0.024976 0.280920
O O13 0.861041 0.203812 0.284238
O O14 0.050552 0.133118 0.415256
#
# Coordination Sequence:
#
# PCOD9240348 Si02
#       7
#     4   4   4   4   4   4   4
#     4  11  18  34  57  80 111 131 177 231 275 315
#     4  10  22  34  55  83 106 136 173 233 275 307
#     4   9  18  34  55  79 105 140 180 219 259 312
#     4  10  22  35  52  80 108 144 183 212 264 325
#     4   9  17  32  55  81 100 133 184 215 259 319
#     4  11  18  32  60  80 103 142 180 223 263 314
#     4  10  18  37  57  74 102 145 191 209 245 331
#
# _framework density 17.821769
#
# number of rings (size 3 to 8) (size 9 to 14) (size 15 to 20)
#    0.000    2.286    4.286    3.000    0.000    5.714 
#    0.000    1.429    0.000    0.000    0.000    0.000 
#    0.000    0.000    0.000    0.000    0.000    0.000 
#
# Total GULP energy -155940.532321 kJ/mol
# GULP energy per Si atom -5569.304726 kJ/mol
# Density = 1.778121 g / cm^3
# Si number density = 17.821769 Si / 1000 Ang^3
#
#
#
# Elastic Constant Matrix: (Units=GPa)
#
#
# Indices 1 2 3 4 5 6 
#
# 1 112.6313 21.3733 34.8413 0.0000 8.4702 0.0000
# 2 21.3733 79.6559 1.7342 0.0000 -9.5695 0.0000
# 3 34.8413 1.7342 21.0768 0.0000 13.4120 0.0000
# 4 0.0000 0.0000 0.0000 17.5094 0.0000 0.2537
# 5 8.4702 -9.5695 13.4120 0.0000 31.9977 0.0000
# 6 0.0000 0.0000 0.0000 0.2537 0.0000 25.9361
#
#
#
# Elastic Compliance Matrix: (Units=1/GPa)
#
#
# Indices 1 2 3 4 5 6 
#
# 1 0.022213 -0.003652 -0.043616 0.000000 0.011310 0.000000
# 2 -0.003652 0.013995 0.002192 0.000000 0.004234 0.000000
# 3 -0.043616 0.002192 0.152195 0.000000 -0.051592 0.000000
# 4 0.000000 0.000000 0.000000 0.057120 0.000000 -0.000559
# 5 0.011310 0.004234 -0.051592 0.000000 0.051150 0.000000
# 6 0.000000 0.000000 0.000000 -0.000559 0.000000 0.038562
#
#
# Mechanical properties :
#
#
# Convention : Reuss Voigt Hill
#
# Bulk Modulus (GPa) = 10.17810 36.58464 23.38137
# Shear Modulus (GPa) = 10.91375 25.44966 18.18171
#
# Velocity S-wave (km/s) = 2.47732 3.78300 3.19752
# Velocity P-wave (km/s) = 3.72911 6.29715 5.17496
#
# Compressibility (1/GPa) = 0.09825020
#
# Stress axis : x y z
#
# Youngs Moduli (GPa) = 45.01832 71.45517 6.57052
#
# Poissons Ratio (x) = 0.26096 0.28658
# Poissons Ratio (y) = 0.16441 -0.01440
# Poissons Ratio (z) = 1.96352 -0.15660
#
# Static dielectric constant tensor:
#      x y z
#    x 1.660560 0.000000 0.011340 
#    y 0.000000 1.619620 0.000000 
#    z 0.011340 0.000000 1.617010 
# 
# From -- ./inp_files/70450.got.cif
#   From: 2010.05.17/outbox.cif.g08.bks.cpg/sg14_36_cif.got.tgz:70450.got - 2010.06.03 17:49:19.
