data_PCOD9240110
_publ_section_title
;
Structure prediction by ZEFSAII (Michael W. Deem and Ramdas Pophale) SiO2 
 PCOD9240110
Probable space group: P 21/C
;
_chemical_formula_sum "Si O2"
_cell_formula_units_Z 28
_cell_length_a 15.154975
_cell_length_b 17.135565
_cell_length_c 10.575904
_cell_angle_alpha 90.000000
_cell_angle_beta 151.833062
_cell_angle_gamma 90.000000
_cell_volume 1296.438507
_symmetry_space_group_name_H-M "P 21/C"
_symmetry_group_IT_number 14
_symmetry_cell_setting 'monoclinic'
loop_
_space_group_symop_operation_xyz
x,y,z
-x,1/2+y,1/2-z
-x,-y,-z
x,1/2-y,1/2+z
loop_
_atom_site_type_symbol
_atom_site_label
_atom_site_fract_x
_atom_site_fract_y
_atom_site_fract_z
Si Si1 0.224648 0.248192 0.787676
Si Si2 0.449716 0.594089 0.563393
Si Si3 0.253712 0.657981 0.564615
Si Si4 0.861209 0.830166 0.572164
Si Si5 0.362043 0.671957 0.196158
Si Si6 0.369420 0.095659 0.358893
Si Si7 0.466351 0.958455 0.665137
O O1 0.154151 0.262843 0.840128
O O2 0.118954 0.198948 0.547555
O O3 0.244676 0.334306 0.750857
O O4 0.429713 0.209135 0.054541
O O5 0.336281 0.635091 0.533000
O O6 0.357616 0.621296 0.317661
O O7 0.459085 0.503973 0.616656
O O8 0.664018 0.625015 0.832962
O O9 0.236023 0.751648 0.545944
O O10 0.051506 0.623216 0.338920
O O11 0.417483 0.629169 0.863477
O O12 0.341190 0.613015 0.053704
O O13 0.359608 0.069522 0.201659
O O14 0.364754 0.022858 0.448954
#
# Coordination Sequence:
#
# PCOD9240110 Si02
#       7
#     4   4   4   4   4   4   4
#     4  10  20  37  57  88 110 153 192 236 286 340
#     4  10  21  40  55  86 115 153 189 232 291 344
#     4  10  22  36  60  87 111 148 194 238 275 338
#     4  11  21  36  61  82 119 147 192 241 284 332
#     4  10  20  33  63  81 117 148 193 235 288 337
#     4   9  19  36  60  83 116 146 198 229 284 342
#     4  10  18  34  62  84 110 158 184 234 289 343
#
# _framework density 21.597629999999999
#
# number of rings (size 3 to 8) (size 9 to 14) (size 15 to 20)
#    0.000    2.000    4.286    1.286    6.000    0.000 
#    0.000    0.714   15.714    7.714    0.000    0.000 
#    0.000    0.000    0.000    0.000    0.000    0.000 
#
# Total GULP energy -156136.765381 kJ/mol
# GULP energy per Si atom -5576.313049 kJ/mol
# Density = 2.154847 g / cm^3
# Si number density = 21.597630 Si / 1000 Ang^3
#
#
#
# Elastic Constant Matrix: (Units=GPa)
#
#
# Indices 1 2 3 4 5 6 
#
# 1 66.5039 5.9673 8.8465 0.0000 -10.3048 0.0000
# 2 5.9673 74.4941 -16.6901 0.0000 -4.2833 0.0000
# 3 8.8465 -16.6901 42.4785 0.0000 15.7122 0.0000
# 4 0.0000 0.0000 0.0000 7.4494 0.0000 -6.9154
# 5 -10.3048 -4.2833 15.7122 0.0000 21.0923 0.0000
# 6 0.0000 0.0000 0.0000 -6.9154 0.0000 22.8656
#
#
#
# Elastic Compliance Matrix: (Units=1/GPa)
#
#
# Indices 1 2 3 4 5 6 
#
# 1 0.019696 -0.003236 -0.011994 0.000000 0.017901 0.000000
# 2 -0.003236 0.015302 0.008450 0.000000 -0.004768 0.000000
# 3 -0.011994 0.008450 0.042641 0.000000 -0.035908 0.000000
# 4 0.000000 0.000000 0.000000 0.186639 0.000000 0.056447
# 5 0.017901 -0.004768 -0.035908 0.000000 0.081937 0.000000
# 6 0.000000 0.000000 0.000000 0.056447 0.000000 0.060806
#
#
# Mechanical properties :
#
#
# Convention : Reuss Voigt Hill
#
# Bulk Modulus (GPa) = 15.60587 19.96934 17.78761
# Shear Modulus (GPa) = 11.31371 22.63832 16.97602
#
# Velocity S-wave (km/s) = 2.29124 3.24108 2.80663
# Velocity P-wave (km/s) = 3.77374 4.82414 4.33090
#
# Compressibility (1/GPa) = 0.06407845
#
# Stress axis : x y z
#
# Youngs Moduli (GPa) = 50.77107 65.35063 23.45152
#
# Poissons Ratio (x) = 0.21146 0.28129
# Poissons Ratio (y) = 0.16429 -0.19816
# Poissons Ratio (z) = 0.60897 -0.55219
#
# Static dielectric constant tensor:
#      x y z
#    x 1.824700 0.000000 -0.009650 
#    y 0.000000 1.831990 0.000000 
#    z -0.009650 0.000000 1.803880 
# 
# From -- ./inp_files/32946.got.cif
#   From: 2010.05.17/outbox.cif.g08.bks.cpg/sg14_17_cif.got.tgz:32946.got - 2010.06.03 17:49:19.
