data_PCOD9240133
_publ_section_title
;
Structure prediction by ZEFSAII (Michael W. Deem and Ramdas Pophale) SiO2 
 PCOD9240133
Probable space group: P 21/C
;
_chemical_formula_sum "Si O2"
_cell_formula_units_Z 28
_cell_length_a 11.244973
_cell_length_b 13.193880
_cell_length_c 14.144864
_cell_angle_alpha 90.000000
_cell_angle_beta 144.504205
_cell_angle_gamma 90.000000
_cell_volume 1218.537983
_symmetry_space_group_name_H-M "P 21/C"
_symmetry_group_IT_number 14
_symmetry_cell_setting 'monoclinic'
loop_
_space_group_symop_operation_xyz
x,y,z
-x,1/2+y,1/2-z
-x,-y,-z
x,1/2-y,1/2+z
loop_
_atom_site_type_symbol
_atom_site_label
_atom_site_fract_x
_atom_site_fract_y
_atom_site_fract_z
Si Si1 0.417032 0.126643 0.359574
Si Si2 0.625272 0.182610 0.049964
Si Si3 0.773605 0.329481 0.444527
Si Si4 0.163709 0.964733 0.303214
Si Si5 0.716366 0.988869 0.023640
Si Si6 0.048874 0.760855 0.115397
Si Si7 0.613867 0.785608 0.869375
O O1 0.454493 0.231119 0.442107
O O2 0.238396 0.060276 0.289955
O O3 0.385440 0.157796 0.231507
O O4 0.632643 0.065467 0.507404
O O5 0.572180 0.070173 0.982266
O O6 0.777458 0.185755 0.235860
O O7 0.760852 0.213362 0.043044
O O8 0.762766 0.450149 0.454557
O O9 0.949652 0.280747 0.495437
O O10 0.571469 0.292415 0.257268
O O11 0.946985 0.983301 0.215194
O O12 0.110309 0.869367 0.200899
O O13 0.621772 0.878782 0.947942
O O14 0.830254 0.729393 0.013589
#
# Coordination Sequence:
#
# PCOD9240133 Si02
#       7
#     4   4   4   4   4   4   4
#     4   9  16  30  48  82 107 125 172 229 268 317
#     4   8  19  34  46  76 113 135 175 221 261 332
#     4   9  19  34  54  80 106 145 177 224 271 317
#     4   9  17  29  55  80 102 136 172 228 284 319
#     4   9  18  35  50  78 112 143 173 224 275 314
#     4  10  18  35  53  77 111 138 180 228 271 317
#     4  10  19  33  56  80 108 142 182 226 265 324
#
# _framework density 22.978355000000001
#
# number of rings (size 3 to 8) (size 9 to 14) (size 15 to 20)
#    0.857    2.000    0.000    1.714    0.000    2.286 
#   10.286    0.714    0.000    0.857    0.000    0.000 
#    0.000    0.000    0.000    0.000    0.000    0.000 
#
# Total GULP energy -156056.421234 kJ/mol
# GULP energy per Si atom -5573.443616 kJ/mol
# Density = 2.292606 g / cm^3
# Si number density = 22.978355 Si / 1000 Ang^3
#
#
#
# Elastic Constant Matrix: (Units=GPa)
#
#
# Indices 1 2 3 4 5 6 
#
# 1 28.6877 -1.0756 1.6181 0.0000 4.0956 0.0000
# 2 -1.0756 63.8658 11.9334 0.0000 16.3346 0.0000
# 3 1.6181 11.9334 73.5946 0.0000 17.4156 0.0000
# 4 0.0000 0.0000 0.0000 22.4264 0.0000 6.0182
# 5 4.0956 16.3346 17.4156 0.0000 33.4901 0.0000
# 6 0.0000 0.0000 0.0000 6.0182 0.0000 30.6655
#
#
#
# Elastic Compliance Matrix: (Units=1/GPa)
#
#
# Indices 1 2 3 4 5 6 
#
# 1 0.035694 0.001951 0.000179 0.000000 -0.005410 0.000000
# 2 0.001951 0.018055 -0.000947 0.000000 -0.008553 0.000000
# 3 0.000179 -0.000947 0.015547 0.000000 -0.007645 0.000000
# 4 0.000000 0.000000 0.000000 0.047069 0.000000 -0.009237
# 5 -0.005410 -0.008553 -0.007645 0.000000 0.038668 0.000000
# 6 0.000000 0.000000 0.000000 -0.009237 0.000000 0.034423
#
#
# Mechanical properties :
#
#
# Convention : Reuss Voigt Hill
#
# Bulk Modulus (GPa) = 13.95426 21.23332 17.59379
# Shear Modulus (GPa) = 23.69944 27.56120 25.63032
#
# Velocity S-wave (km/s) = 3.21500 3.46705 3.34340
# Velocity P-wave (km/s) = 4.45730 5.02871 4.75160
#
# Compressibility (1/GPa) = 0.07166271
#
# Stress axis : x y z
#
# Youngs Moduli (GPa) = 28.01621 55.38624 64.32282
#
# Poissons Ratio (x) = -0.10808 -0.01151
# Poissons Ratio (y) = -0.05467 0.06089
# Poissons Ratio (z) = -0.00502 0.05243
#
# Static dielectric constant tensor:
#      x y z
#    x 1.983450 0.000000 0.007920 
#    y 0.000000 1.860160 0.000000 
#    z 0.007920 0.000000 1.851310 
# 
# From -- ./inp_files/50582.got.cif
#   From: 2010.05.17/outbox.cif.g08.bks.cpg/sg14_26_cif.got.tgz:50582.got - 2010.06.03 17:49:19.
