data_PCOD9240012
_publ_section_title
;
Structure prediction by ZEFSAII (Michael W. Deem and Ramdas Pophale) SiO2 
 PCOD9240012
Probable space group: P 21/C
;
_chemical_formula_sum "Si O2"
_cell_formula_units_Z 28
_cell_length_a 19.297026
_cell_length_b 7.788922
_cell_length_c 25.003157
_cell_angle_alpha 90.000000
_cell_angle_beta 20.252093
_cell_angle_gamma 90.000000
_cell_volume 1300.854093
_symmetry_space_group_name_H-M "P 21/C"
_symmetry_group_IT_number 14
_symmetry_cell_setting 'monoclinic'
loop_
_space_group_symop_operation_xyz
x,y,z
-x,1/2+y,1/2-z
-x,-y,-z
x,1/2-y,1/2+z
loop_
_atom_site_type_symbol
_atom_site_label
_atom_site_fract_x
_atom_site_fract_y
_atom_site_fract_z
Si Si1 0.499101 0.574215 0.914892
Si Si2 0.443680 0.212415 0.840010
Si Si3 0.019739 0.312019 0.616791
Si Si4 0.674390 0.550368 0.680053
Si Si5 0.411286 0.775095 0.083943
Si Si6 0.917693 0.567823 0.787109
Si Si7 0.294675 0.430334 0.554773
O O1 0.632909 0.627243 0.768074
O O2 0.566151 0.394367 0.893653
O O3 0.487322 0.708377 0.971519
O O4 0.277826 0.535356 0.051505
O O5 0.612079 0.351645 0.728790
O O6 0.467068 0.120999 0.765843
O O7 0.214936 0.285182 0.998935
O O8 0.414589 0.088741 0.911975
O O9 0.107084 0.402967 0.500388
O O10 0.826192 0.197947 0.747456
O O11 0.967784 0.465868 0.695830
O O12 0.544017 0.920212 0.015574
O O13 0.839040 0.759742 0.838101
O O14 0.122479 0.570252 0.672310
#
# Coordination Sequence:
#
# PCOD9240012 Si02
#       7
#     4   4   4   4   4   4   4
#     4   9  17  30  53  79 107 132 172 228 255 302
#     4   9  19  34  50  79 107 136 175 216 263 304
#     4   8  19  30  51  79 105 135 168 215 266 307
#     4  10  18  34  54  80 105 141 172 221 259 312
#     4   9  16  32  54  79 108 131 176 223 266 302
#     4   9  17  32  53  79 102 139 174 216 262 306
#     4  10  18  34  55  82 104 135 175 226 259 307
#
# _framework density 21.524319999999999
#
# number of rings (size 3 to 8) (size 9 to 14) (size 15 to 20)
#    0.857    2.000    2.857    0.857    0.000    1.714 
#    0.000    0.000    0.000    8.571    3.714    0.000 
#    0.000    0.000    0.000    0.000    0.000    0.000 
#
# Total GULP energy -156033.869422 kJ/mol
# GULP energy per Si atom -5572.638194 kJ/mol
# Density = 2.147533 g / cm^3
# Si number density = 21.524320 Si / 1000 Ang^3
#
#
#
# Elastic Constant Matrix: (Units=GPa)
#
#
# Indices 1 2 3 4 5 6 
#
# 1 123.6025 14.0993 39.7952 0.0000 14.6351 0.0000
# 2 14.0993 38.8894 2.7962 0.0000 -5.0368 0.0000
# 3 39.7952 2.7962 83.3792 0.0000 15.2899 0.0000
# 4 0.0000 0.0000 0.0000 18.8388 0.0000 -10.7448
# 5 14.6351 -5.0368 15.2899 0.0000 41.6170 0.0000
# 6 0.0000 0.0000 0.0000 -10.7448 0.0000 26.2606
#
#
#
# Elastic Compliance Matrix: (Units=1/GPa)
#
#
# Indices 1 2 3 4 5 6 
#
# 1 0.010183 -0.003702 -0.004286 0.000000 -0.002454 0.000000
# 2 -0.003702 0.027660 -0.000014 0.000000 0.004655 0.000000
# 3 -0.004286 -0.000014 0.014758 0.000000 -0.003916 0.000000
# 4 0.000000 0.000000 0.000000 0.069241 0.000000 0.028331
# 5 -0.002454 0.004655 -0.003916 0.000000 0.026894 0.000000
# 6 0.000000 0.000000 0.000000 0.028331 0.000000 0.049672
#
#
# Mechanical properties :
#
#
# Convention : Reuss Voigt Hill
#
# Bulk Modulus (GPa) = 27.32494 39.91693 33.62093
# Shear Modulus (GPa) = 22.06434 29.95531 26.00983
#
# Velocity S-wave (km/s) = 3.20517 3.73459 3.47997
# Velocity P-wave (km/s) = 5.14004 6.09767 5.63922
#
# Compressibility (1/GPa) = 0.03659660
#
# Stress axis : x y z
#
# Youngs Moduli (GPa) = 98.20062 36.15352 67.76116
#
# Poissons Ratio (x) = 0.13383 0.29043
# Poissons Ratio (y) = 0.36350 0.00098
# Poissons Ratio (z) = 0.42089 0.00052
#
# Static dielectric constant tensor:
#      x y z
#    x 1.864060 0.000000 -0.001380 
#    y 0.000000 1.833080 0.000000 
#    z -0.001380 0.000000 1.793990 
# 
# From -- ./inp_files/77909.got.cif
#   From: 2010.05.17/outbox.cif.g08.bks.cpg/sg14_39_cif.got.tgz:77909.got - 2010.06.03 17:49:19.
