data_PCOD9240124
_publ_section_title
;
Structure prediction by ZEFSAII (Michael W. Deem and Ramdas Pophale) SiO2 
 PCOD9240124
Probable space group: P 21/C
;
_chemical_formula_sum "Si O2"
_cell_formula_units_Z 32
_cell_length_a 19.085639
_cell_length_b 9.256998
_cell_length_c 21.622310
_cell_angle_alpha 90.000000
_cell_angle_beta 152.829215
_cell_angle_gamma 90.000000
_cell_volume 1744.444106
_symmetry_space_group_name_H-M "P 21/C"
_symmetry_group_IT_number 14
_symmetry_cell_setting 'monoclinic'
loop_
_space_group_symop_operation_xyz
x,y,z
-x,1/2+y,1/2-z
-x,-y,-z
x,1/2-y,1/2+z
loop_
_atom_site_type_symbol
_atom_site_label
_atom_site_fract_x
_atom_site_fract_y
_atom_site_fract_z
Si Si1 0.367614 0.996541 0.446551
Si Si2 0.882831 0.253160 0.254914
Si Si3 0.660579 0.620806 0.858459
Si Si4 0.883607 0.749141 0.252483
Si Si5 0.546357 0.378389 0.851198
Si Si6 0.189478 0.846466 0.937232
Si Si7 0.011193 0.007816 0.435447
Si Si8 0.808452 0.654000 0.558179
O O1 0.260997 0.140242 0.355536
O O2 0.500000 0.000000 0.500000
O O3 0.255170 0.862427 0.344458
O O4 0.439369 0.959747 0.571071
O O5 0.855695 0.165500 0.170160
O O6 0.912197 0.142381 0.332605
O O7 0.038531 0.339225 0.362995
O O8 0.551211 0.496903 0.800553
O O9 0.581808 0.750160 0.755921
O O10 0.714968 0.708923 0.961971
O O11 0.812683 0.545896 0.947794
O O12 0.853391 0.832650 0.164694
O O13 0.037352 0.660254 0.358504
O O14 0.934549 0.864711 0.344460
O O15 0.704312 0.289538 0.966900
O O16 0.267604 0.999396 0.009445
O O17 0.000000 0.000000 0.500000
#
# Coordination Sequence:
#
# PCOD9240124 Si02
#       8
#     4   4   4   4   4   4   4   4
#     4  11  24  42  63  90 126 167 206 255 312 374
#     4   9  20  36  60  90 119 154 206 256 303 360
#     4  11  23  41  61  94 130 163 204 255 317 374
#     4  11  20  38  66  90 117 162 218 254 305 374
#     4  11  23  41  61  94 130 163 204 255 317 374
#     4  10  18  34  65  93 117 152 208 266 301 350
#     4  11  24  42  63  90 126 167 206 255 312 374
#     4  10  18  34  65  93 117 152 208 266 301 350
#
# _framework density 18.343951000000001
#
# number of rings (size 3 to 8) (size 9 to 14) (size 15 to 20)
#    0.000    1.500    5.000    0.750    1.750    0.000 
#    2.250    1.250    0.000    0.000    0.000    0.000 
#    0.000    0.000    0.000    0.000    0.000    0.000 
#
# Total GULP energy -178168.185174 kJ/mol
# GULP energy per Si atom -5567.755787 kJ/mol
# Density = 1.830220 g / cm^3
# Si number density = 18.343951 Si / 1000 Ang^3
#
#
#
# Elastic Constant Matrix: (Units=GPa)
#
#
# Indices 1 2 3 4 5 6 
#
# 1 89.6008 64.3404 38.3719 0.0000 -15.6828 0.0000
# 2 64.3404 126.7011 42.9464 0.0000 -14.9733 0.0000
# 3 38.3719 42.9464 83.7546 0.0000 -19.5480 0.0000
# 4 0.0000 0.0000 0.0000 47.1543 0.0000 -2.8166
# 5 -15.6828 -14.9733 -19.5480 0.0000 27.7198 0.0000
# 6 0.0000 0.0000 0.0000 -2.8166 0.0000 25.9399
#
#
#
# Elastic Compliance Matrix: (Units=1/GPa)
#
#
# Indices 1 2 3 4 5 6 
#
# 1 0.019218 -0.008017 -0.003791 0.000000 0.003869 0.000000
# 2 -0.008017 0.012995 -0.002886 0.000000 0.000449 0.000000
# 3 -0.003791 -0.002886 0.017107 0.000000 0.008361 0.000000
# 4 0.000000 0.000000 0.000000 0.021345 0.000000 0.002318
# 5 0.003869 0.000449 0.008361 0.000000 0.044403 0.000000
# 6 0.000000 0.000000 0.000000 0.002318 0.000000 0.038802
#
#
# Mechanical properties :
#
#
# Convention : Reuss Voigt Hill
#
# Bulk Modulus (GPa) = 50.16703 65.70821 57.93762
# Shear Modulus (GPa) = 26.32936 30.45599 28.39267
#
# Velocity S-wave (km/s) = 3.79267 4.07907 3.93847
# Velocity P-wave (km/s) = 6.82543 7.62121 7.23427
#
# Compressibility (1/GPa) = 0.01993341
#
# Stress axis : x y z
#
# Youngs Moduli (GPa) = 52.03424 76.95349 58.45421
#
# Poissons Ratio (x) = 0.61694 0.22159
# Poissons Ratio (y) = 0.41716 0.16868
# Poissons Ratio (z) = 0.19725 0.22206
#
# Static dielectric constant tensor:
#      x y z
#    x 1.590970 0.000000 0.000870 
#    y 0.000000 1.669790 0.000000 
#    z 0.000870 0.000000 1.674750 
# 
# From -- ./inp_files/69178.got.cif
#   From: 2010.05.17/outbox.cif.g08.bks.cpg/sg14_35_cif.got.tgz:69178.got - 2010.06.03 17:49:19.
