data_PCOD9240602
_publ_section_title
;
Structure prediction by ZEFSAII (Michael W. Deem and Ramdas Pophale) SiO2 
 PCOD9240602
Probable space group: P 21/C
;
_chemical_formula_sum "Si O2"
_cell_formula_units_Z 24
_cell_length_a 12.382144
_cell_length_b 13.469734
_cell_length_c 11.622873
_cell_angle_alpha 90.000000
_cell_angle_beta 148.624516
_cell_angle_gamma 90.000000
_cell_volume 1009.275039
_symmetry_space_group_name_H-M "P 21/C"
_symmetry_group_IT_number 14
_symmetry_cell_setting 'monoclinic'
loop_
_space_group_symop_operation_xyz
x,y,z
-x,1/2+y,1/2-z
-x,-y,-z
x,1/2-y,1/2+z
loop_
_atom_site_type_symbol
_atom_site_label
_atom_site_fract_x
_atom_site_fract_y
_atom_site_fract_z
Si Si1 0.115214 0.845892 0.873492
Si Si2 0.197282 0.927016 0.716996
Si Si3 0.341388 0.121991 0.764616
Si Si4 0.486960 0.960222 0.310267
Si Si5 0.387410 0.833668 0.673130
Si Si6 0.691084 0.795364 0.609858
O O1 0.062116 0.883144 0.697453
O O2 0.919463 0.816606 0.771054
O O3 0.252767 0.928488 0.065447
O O4 0.264406 0.750816 0.993946
O O5 0.222176 0.876413 0.615858
O O6 0.188834 0.045724 0.692672
O O7 0.429516 0.906101 0.979092
O O8 0.371243 0.092174 0.659965
O O9 0.299549 0.234778 0.762313
O O10 0.564423 0.899322 0.492083
O O11 0.528728 0.075611 0.326332
O O12 0.567441 0.779531 0.911008
#
# Coordination Sequence:
#
# PCOD9240602 Si02
#       6
#     4   4   4   4   4   4
#     4  10  19  30  50  79 104 127 162 208 252 292
#     4   8  15  31  53  74  98 128 163 204 247 292
#     4   8  15  31  53  74  98 128 163 204 247 292
#     4   9  19  35  53  74 101 132 166 205 248 294
#     4   9  19  35  53  74 101 132 166 205 248 294
#     4  10  19  30  50  79 104 127 162 208 252 292
#
# _framework density 23.779443000000001
#
# number of rings (size 3 to 8) (size 9 to 14) (size 15 to 20)
#    0.000    3.000    0.000    3.000    0.000    4.000 
#    0.000    3.333    0.000   27.000    0.000   60.667 
#    0.000    0.000    0.000    0.000    0.000    0.000 
#
# Total GULP energy -134083.820616 kJ/mol
# GULP energy per Si atom -5586.825859 kJ/mol
# Density = 2.372532 g / cm^3
# Si number density = 23.779443 Si / 1000 Ang^3
#
#
#
# Elastic Constant Matrix: (Units=GPa)
#
#
# Indices 1 2 3 4 5 6 
#
# 1 68.5077 -3.8308 14.3399 0.0000 16.2974 0.0000
# 2 -3.8308 86.5545 26.6187 0.0000 7.9191 0.0000
# 3 14.3399 26.6187 56.6910 0.0000 12.0190 0.0000
# 4 0.0000 0.0000 0.0000 35.0384 0.0000 8.2714
# 5 16.2974 7.9191 12.0190 0.0000 29.1799 0.0000
# 6 0.0000 0.0000 0.0000 8.2714 0.0000 38.7229
#
#
#
# Elastic Compliance Matrix: (Units=1/GPa)
#
#
# Indices 1 2 3 4 5 6 
#
# 1 0.017721 0.002806 -0.003879 0.000000 -0.009061 0.000000
# 2 0.002806 0.013983 -0.006726 0.000000 -0.002592 0.000000
# 3 -0.003879 -0.006726 0.022935 0.000000 -0.005455 0.000000
# 4 0.000000 0.000000 0.000000 0.030056 0.000000 -0.006420
# 5 -0.009061 -0.002592 -0.005455 0.000000 0.042281 0.000000
# 6 0.000000 0.000000 0.000000 -0.006420 0.000000 0.027196
#
#
# Mechanical properties :
#
#
# Convention : Reuss Voigt Hill
#
# Bulk Modulus (GPa) = 25.61321 31.77875 28.69598
# Shear Modulus (GPa) = 27.35456 32.22994 29.79225
#
# Velocity S-wave (km/s) = 3.39535 3.68553 3.54341
# Velocity P-wave (km/s) = 5.11525 5.61282 5.36980
#
# Compressibility (1/GPa) = 0.03904235
#
# Stress axis : x y z
#
# Youngs Moduli (GPa) = 56.42882 71.51405 43.60077
#
# Poissons Ratio (x) = -0.20070 0.16914
# Poissons Ratio (y) = -0.15836 0.29326
# Poissons Ratio (z) = 0.21890 0.48101
#
# Static dielectric constant tensor:
#      x y z
#    x 1.937270 0.000000 0.010430 
#    y 0.000000 1.914530 0.000000 
#    z 0.010430 0.000000 2.034460 
# 
# From -- ./inp_files/47067.got.cif
#   From: 2010.05.17/outbox.cif.g08.bks.cpg/sg14_24_cif.got.tgz:47067.got - 2010.06.03 17:49:19.
