data_PCOD9240776
_publ_section_title
;
Structure prediction by ZEFSAII (Michael W. Deem and Ramdas Pophale) SiO2 
 PCOD9240776
Probable space group: P 21/C
;
_chemical_formula_sum "Si O2"
_cell_formula_units_Z 32
_cell_length_a 9.168134
_cell_length_b 14.737233
_cell_length_c 12.403188
_cell_angle_alpha 90.000000
_cell_angle_beta 49.464145
_cell_angle_gamma 90.000000
_cell_volume 1273.630580
_symmetry_space_group_name_H-M "P 21/C"
_symmetry_group_IT_number 14
_symmetry_cell_setting 'monoclinic'
loop_
_space_group_symop_operation_xyz
x,y,z
-x,1/2+y,1/2-z
-x,-y,-z
x,1/2-y,1/2+z
loop_
_atom_site_type_symbol
_atom_site_label
_atom_site_fract_x
_atom_site_fract_y
_atom_site_fract_z
Si Si1 0.293035 0.118187 0.742197
Si Si2 0.385562 0.688621 0.053346
Si Si3 0.882823 0.431021 0.924010
Si Si4 0.158020 0.841227 0.030657
Si Si5 0.226852 0.940463 0.189074
Si Si6 0.955462 0.290017 0.080523
Si Si7 0.543950 0.516786 0.233641
Si Si8 0.609376 0.721247 0.147095
O O1 0.425939 0.131843 0.574383
O O2 0.070564 0.142684 0.832343
O O3 0.351173 0.024349 0.772785
O O4 0.384070 0.195790 0.774716
O O5 0.216698 0.614965 0.131062
O O6 0.460499 0.734597 0.123945
O O7 0.294716 0.763207 0.016822
O O8 0.058589 0.489868 0.800452
O O9 0.954522 0.355344 0.974838
O O10 0.719149 0.484646 0.069558
O O11 0.133923 0.804313 0.919982
O O12 0.245648 0.927828 0.051632
O O13 0.404354 0.971651 0.176637
O O14 0.147398 0.845965 0.277097
O O15 0.176398 0.279099 0.004039
O O16 0.558221 0.625310 0.227315
#
# Coordination Sequence:
#
# PCOD9240776 Si02
#       8
#     4   4   4   4   4   4   4   4
#     4  10  23  37  55  86 116 149 191 232 284 335
#     4  10  22  36  54  84 115 144 188 233 282 338
#     4   9  17  30  53  84 113 136 174 236 295 333
#     4  10  22  34  54  83 113 152 184 227 280 338
#     4  11  17  32  57  83 115 146 176 232 291 336
#     4   9  17  33  49  83 112 142 181 227 277 336
#     4  10  19  32  56  84 113 145 184 234 293 334
#     4  11  19  34  57  81 115 148 183 234 282 335
#
# _framework density 25.125026999999999
#
# number of rings (size 3 to 8) (size 9 to 14) (size 15 to 20)
#    0.000    2.000    2.500    3.000    1.750    1.000 
#    0.000    0.000    0.000    3.750    6.500    0.000 
#    0.000    0.000    0.000    0.000    0.000    0.000 
#
# Total GULP energy -178748.796935 kJ/mol
# GULP energy per Si atom -5585.899904 kJ/mol
# Density = 2.506784 g / cm^3
# Si number density = 25.125027 Si / 1000 Ang^3
#
#
#
# Elastic Constant Matrix: (Units=GPa)
#
#
# Indices 1 2 3 4 5 6 
#
# 1 175.3752 30.4154 38.3146 0.0000 -3.4136 0.0000
# 2 30.4154 61.7009 15.9656 0.0000 -3.7631 0.0000
# 3 38.3146 15.9656 54.4002 0.0000 -23.8937 0.0000
# 4 0.0000 0.0000 0.0000 33.6684 0.0000 -4.9443
# 5 -3.4136 -3.7631 -23.8937 0.0000 25.7697 0.0000
# 6 0.0000 0.0000 0.0000 -4.9443 0.0000 49.0706
#
#
#
# Elastic Compliance Matrix: (Units=1/GPa)
#
#
# Indices 1 2 3 4 5 6 
#
# 1 0.007583 -0.002197 -0.007415 0.000000 -0.006192 0.000000
# 2 -0.002197 0.018391 -0.004721 0.000000 -0.001983 0.000000
# 3 -0.007415 -0.004721 0.040922 0.000000 0.036271 0.000000
# 4 0.000000 0.000000 0.000000 0.030148 0.000000 0.003038
# 5 -0.006192 -0.001983 0.036271 0.000000 0.071326 0.000000
# 6 0.000000 0.000000 0.000000 0.003038 0.000000 0.020685
#
#
# Mechanical properties :
#
#
# Convention : Reuss Voigt Hill
#
# Bulk Modulus (GPa) = 26.15865 51.20752 38.68308
# Shear Modulus (GPa) = 21.69549 35.48710 28.59130
#
# Velocity S-wave (km/s) = 2.94173 3.76230 3.37703
# Velocity P-wave (km/s) = 4.68747 6.26885 5.53493
#
# Compressibility (1/GPa) = 0.03822827
#
# Stress axis : x y z
#
# Youngs Moduli (GPa) = 131.88144 54.37508 24.43699
#
# Poissons Ratio (x) = 0.11944 0.18121
# Poissons Ratio (y) = 0.28970 0.11537
# Poissons Ratio (z) = 0.97796 0.25672
#
# Static dielectric constant tensor:
#      x y z
#    x 1.935960 0.000000 0.042240 
#    y 0.000000 2.015830 0.000000 
#    z 0.042240 0.000000 2.042370 
# 
# From -- ./inp_files/41226.got.cif
#   From: 2010.05.17/outbox.cif.g08.bks.cpg/sg14_21_cif.got.tgz:41226.got - 2010.06.03 17:49:19.
