data_PCOD9240383
_publ_section_title
;
Structure prediction by ZEFSAII (Michael W. Deem and Ramdas Pophale) SiO2 
 PCOD9240383
Probable space group: P 21/C
;
_chemical_formula_sum "Si O2"
_cell_formula_units_Z 24
_cell_length_a 13.820089
_cell_length_b 11.059389
_cell_length_c 20.720773
_cell_angle_alpha 90.000000
_cell_angle_beta 157.815141
_cell_angle_gamma 90.000000
_cell_volume 1195.846482
_symmetry_space_group_name_H-M "P 21/C"
_symmetry_group_IT_number 14
_symmetry_cell_setting 'monoclinic'
loop_
_space_group_symop_operation_xyz
x,y,z
-x,1/2+y,1/2-z
-x,-y,-z
x,1/2-y,1/2+z
loop_
_atom_site_type_symbol
_atom_site_label
_atom_site_fract_x
_atom_site_fract_y
_atom_site_fract_z
Si Si1 0.281701 0.971469 0.648005
Si Si2 0.258234 0.923141 0.998861
Si Si3 0.871810 0.293350 0.451516
Si Si4 0.401971 0.205636 0.329819
Si Si5 0.475570 0.067725 0.635831
Si Si6 0.726325 0.906641 0.621393
O O1 0.280077 0.829938 0.628725
O O2 0.500550 0.991814 0.837079
O O3 0.340139 0.054732 0.621712
O O4 0.000000 0.000000 0.500000
O O5 0.158102 0.885982 0.007876
O O6 0.373838 0.802236 0.038264
O O7 0.007668 0.964102 0.805416
O O8 0.742106 0.360878 0.311358
O O9 0.171312 0.261217 0.638365
O O10 0.302659 0.198269 0.342575
O O11 0.479096 0.070622 0.357276
O O12 0.317994 0.127545 0.480289
O O13 0.500000 0.000000 0.500000
#
# Coordination Sequence:
#
# PCOD9240383 Si02
#       6
#     4   4   4   4   4   4
#     4  11  21  37  59  89 123 148 196 247 298 349
#     4  10  20  37  60  86 120 160 190 242 300 348
#     4  10  20  36  59  87 116 155 194 245 294 341
#     4  10  18  37  63  82 117 156 195 239 295 350
#     4  10  21  39  58  87 115 155 203 240 282 359
#     4   9  21  41  58  85 116 161 202 233 288 359
#
# _framework density 20.069465000000001
#
# number of rings (size 3 to 8) (size 9 to 14) (size 15 to 20)
#    0.000    2.000    3.333    0.500    0.000    1.333 
#    9.000    0.833    0.000    0.000    0.000    0.000 
#    0.000    0.000    0.000    0.000    0.000    0.000 
#
# Total GULP energy -133721.698935 kJ/mol
# GULP energy per Si atom -5571.737456 kJ/mol
# Density = 2.002379 g / cm^3
# Si number density = 20.069465 Si / 1000 Ang^3
#
#
#
# Elastic Constant Matrix: (Units=GPa)
#
#
# Indices 1 2 3 4 5 6 
#
# 1 67.2584 -2.2694 41.2031 0.0000 -10.3692 0.0000
# 2 -2.2694 28.8210 24.3857 0.0000 -0.0066 0.0000
# 3 41.2031 24.3857 177.2140 0.0000 -6.8238 0.0000
# 4 0.0000 0.0000 0.0000 22.1177 0.0000 4.6419
# 5 -10.3692 -0.0066 -6.8238 0.0000 35.6151 0.0000
# 6 0.0000 0.0000 0.0000 4.6419 0.0000 10.9011
#
#
#
# Elastic Compliance Matrix: (Units=1/GPa)
#
#
# Indices 1 2 3 4 5 6 
#
# 1 0.018811 0.005699 -0.004984 0.000000 0.004523 0.000000
# 2 0.005699 0.041033 -0.006959 0.000000 0.000334 0.000000
# 3 -0.004984 -0.006959 0.007760 0.000000 0.000035 0.000000
# 4 0.000000 0.000000 0.000000 0.049650 0.000000 -0.021142
# 5 0.004523 0.000334 0.000035 0.000000 0.029401 0.000000
# 6 0.000000 0.000000 0.000000 -0.021142 0.000000 0.100736
#
#
# Mechanical properties :
#
#
# Convention : Reuss Voigt Hill
#
# Bulk Modulus (GPa) = 18.14293 44.43692 31.28993
# Shear Modulus (GPa) = 17.96937 27.72506 22.84721
#
# Velocity S-wave (km/s) = 2.99550 3.72082 3.37769
# Velocity P-wave (km/s) = 4.58516 6.37566 5.55305
#
# Compressibility (1/GPa) = 0.05511789
#
# Stress axis : x y z
#
# Youngs Moduli (GPa) = 53.16144 24.37035 128.85773
#
# Poissons Ratio (x) = -0.13888 0.64218
# Poissons Ratio (y) = -0.30296 0.89667
# Poissons Ratio (z) = 0.26494 0.16958
#
# Static dielectric constant tensor:
#      x y z
#    x 1.756680 0.000000 -0.000780 
#    y 0.000000 1.747730 0.000000 
#    z -0.000780 0.000000 1.770260 
# 
# From -- ./inp_files/24077.got.cif
#   From: 2010.05.17/outbox.cif.g08.bks.cpg/sg14_13_cif.got.tgz:24077.got - 2010.06.03 17:49:19.
