data_PCOD9240691
_publ_section_title
;
Structure prediction by ZEFSAII (Michael W. Deem and Ramdas Pophale) SiO2 
 PCOD9240691
Probable space group: P 21/C
;
_chemical_formula_sum "Si O2"
_cell_formula_units_Z 32
_cell_length_a 24.458803
_cell_length_b 9.013873
_cell_length_c 7.581334
_cell_angle_alpha 90.000000
_cell_angle_beta 65.082625
_cell_angle_gamma 90.000000
_cell_volume 1515.861310
_symmetry_space_group_name_H-M "P 21/C"
_symmetry_group_IT_number 14
_symmetry_cell_setting 'monoclinic'
loop_
_space_group_symop_operation_xyz
x,y,z
-x,1/2+y,1/2-z
-x,-y,-z
x,1/2-y,1/2+z
loop_
_atom_site_type_symbol
_atom_site_label
_atom_site_fract_x
_atom_site_fract_y
_atom_site_fract_z
Si Si1 0.944799 0.459739 0.819548
Si Si2 0.824376 0.883581 0.454227
Si Si3 0.937392 0.377852 0.415640
Si Si4 0.688947 0.943417 0.250685
Si Si5 0.818558 0.540355 0.545669
Si Si6 0.436156 0.076932 0.128336
Si Si7 0.438022 0.424139 0.040180
Si Si8 0.693654 0.908009 0.665919
O O1 0.885494 0.551864 0.952035
O O2 0.940474 0.432323 0.613855
O O3 0.944127 0.298125 0.904751
O O4 0.006746 0.548031 0.762929
O O5 0.826480 0.704906 0.455399
O O6 0.821012 0.932650 0.254324
O O7 0.762440 0.940080 0.631064
O O8 0.873365 0.432200 0.426060
O O9 0.750587 0.014089 0.096660
O O10 0.621823 0.994570 0.291004
O O11 0.692400 0.945555 0.459385
O O12 0.690030 0.770566 0.191618
O O13 0.430599 0.061720 0.343489
O O14 0.367788 0.031188 0.159061
O O15 0.441923 0.250095 0.075598
O O16 0.500000 0.000000 0.000000
O O17 0.500000 0.500000 0.000000
#
# Coordination Sequence:
#
# PCOD9240691 Si02
#       8
#     4   4   4   4   4   4   4   4
#     4  10  21  35  51  73 100 129 161 197 236 280
#     4   9  17  31  51  74  98 124 158 198 239 284
#     4  10  21  35  51  73 100 129 161 197 236 280
#     4   8  15  28  47  69  94 124 158 197 238 284
#     4   9  17  31  51  74  98 124 158 198 239 284
#     4  10  19  32  50  72  98 129 165 204 247 293
#     4  10  19  32  50  72  98 129 165 204 247 293
#     4   8  15  28  47  69  94 124 158 197 238 284
#
# _framework density 21.110111
#
# number of rings (size 3 to 8) (size 9 to 14) (size 15 to 20)
#    0.000    2.750    0.000    1.500    0.000    2.500 
#    0.000    1.250    0.000    3.000    0.000    0.000 
#    0.000    0.000    0.000    0.000    0.000    0.000 
#
# Total GULP energy -178291.776412 kJ/mol
# GULP energy per Si atom -5571.618013 kJ/mol
# Density = 2.106206 g / cm^3
# Si number density = 21.110111 Si / 1000 Ang^3
#
#
#
# Elastic Constant Matrix: (Units=GPa)
#
#
# Indices 1 2 3 4 5 6 
#
# 1 129.4206 34.8104 57.2532 0.0000 -73.5007 0.0000
# 2 34.8104 40.6681 17.7171 0.0000 -31.9410 0.0000
# 3 57.2532 17.7171 61.9238 0.0000 -34.2765 0.0000
# 4 0.0000 0.0000 0.0000 49.6137 0.0000 -49.3681
# 5 -73.5007 -31.9410 -34.2765 0.0000 55.4666 0.0000
# 6 0.0000 0.0000 0.0000 -49.3681 0.0000 101.3000
#
#
#
# Elastic Compliance Matrix: (Units=1/GPa)
#
#
# Indices 1 2 3 4 5 6 
#
# 1 0.037849 0.011826 -0.010405 0.000000 0.050535 0.000000
# 2 0.011826 0.048793 -0.001014 0.000000 0.043143 0.000000
# 3 -0.010405 -0.001014 0.027516 0.000000 0.002632 0.000000
# 4 0.000000 0.000000 0.000000 0.039132 0.000000 0.019071
# 5 0.050535 0.043143 0.002632 0.000000 0.111465 0.000000
# 6 0.000000 0.000000 0.000000 0.019071 0.000000 0.019166
#
#
# Mechanical properties :
#
#
# Convention : Reuss Voigt Hill
#
# Bulk Modulus (GPa) = 8.69777 50.17488 29.43632
# Shear Modulus (GPa) = 15.55552 49.42483 32.49017
#
# Velocity S-wave (km/s) = 2.71749 4.84393 3.92737
# Velocity P-wave (km/s) = 3.73838 7.42325 5.87708
#
# Compressibility (1/GPa) = 0.11497201
#
# Stress axis : x y z
#
# Youngs Moduli (GPa) = 26.42108 20.49494 36.34221
#
# Poissons Ratio (x) = -0.24238 0.37815
# Poissons Ratio (y) = -0.31246 0.03684
# Poissons Ratio (z) = 0.27492 0.02078
#
# Static dielectric constant tensor:
#      x y z
#    x 1.899040 0.000000 -0.034210 
#    y 0.000000 1.691270 0.000000 
#    z -0.034210 0.000000 1.809730 
# 
# From -- ./inp_files/19358.got.cif
#   From: 2010.05.17/outbox.cif.g08.bks.cpg/sg14_10_cif.got.tgz:19358.got - 2010.06.03 17:49:19.
