data_PCOD9240527
_publ_section_title
;
Structure prediction by ZEFSAII (Michael W. Deem and Ramdas Pophale) SiO2 
 PCOD9240527
Probable space group: P 21/C
;
_chemical_formula_sum "Si O2"
_cell_formula_units_Z 30
_cell_length_a 14.616967
_cell_length_b 8.673111
_cell_length_c 10.925508
_cell_angle_alpha 90.000000
_cell_angle_beta 122.898926
_cell_angle_gamma 90.000000
_cell_volume 1162.951978
_symmetry_space_group_name_H-M "P 21/C"
_symmetry_group_IT_number 14
_symmetry_cell_setting 'monoclinic'
loop_
_space_group_symop_operation_xyz
x,y,z
-x,1/2+y,1/2-z
-x,-y,-z
x,1/2-y,1/2+z
loop_
_atom_site_type_symbol
_atom_site_label
_atom_site_fract_x
_atom_site_fract_y
_atom_site_fract_z
Si Si1 0.395755 0.720540 0.606431
Si Si2 0.000000 0.000000 0.000000
Si Si3 0.886721 0.672194 0.162053
Si Si4 0.250408 0.969632 0.623659
Si Si5 0.512195 0.667411 0.950408
Si Si6 0.782530 0.974474 0.984855
Si Si7 0.273660 0.285714 0.774378
Si Si8 0.946746 0.149369 0.390783
O O1 0.342942 0.880283 0.617370
O O2 0.454354 0.730993 0.516593
O O3 0.294700 0.603920 0.516132
O O4 0.468584 0.677186 0.779809
O O5 0.000229 0.814592 0.045758
O O6 0.886659 0.038132 0.991324
O O7 0.843630 0.644979 0.266172
O O8 0.012126 0.641310 0.220659
O O9 0.826086 0.549637 0.033158
O O10 0.834772 0.841499 0.107535
O O11 0.177585 0.859328 0.657643
O O12 0.280545 0.112748 0.730979
O O13 0.640249 0.699776 0.054706
O O14 0.500000 0.500000 0.000000
O O15 0.704450 0.889702 0.828230
O O16 0.000000 0.000000 0.500000
#
# Coordination Sequence:
#
# PCOD9240527 Si02
#       8
#     4   2   4   4   4   4   4   4
#     4  12  27  47  75 111 144 196 253 320 376 455
#     4  10  18  40  70  98 142 188 232 318 376 460
#     4   9  21  41  67  96 142 185 230 304 372 461
#     4  10  22  41  68 100 142 184 242 310 371 463
#     4  12  29  48  76 108 153 200 261 320 389 456
#     4  10  22  42  70 100 139 183 241 301 376 459
#     4  11  24  43  68  98 143 192 245 305 387 445
#     4   9  18  38  65 100 133 186 240 296 379 459
#
# _framework density 25.796420999999999
#
# number of rings (size 3 to 8) (size 9 to 14) (size 15 to 20)
#    0.000    1.600    2.667    1.600    7.467    0.533 
#    4.800    0.000    0.000    0.000    0.000    0.000 
#    0.000    0.000    0.000    0.000    0.000    0.000 
#
# Total GULP energy -167083.276796 kJ/mol
# GULP energy per Si atom -5569.442560 kJ/mol
# Density = 2.573771 g / cm^3
# Si number density = 25.796421 Si / 1000 Ang^3
#
#
#
# Elastic Constant Matrix: (Units=GPa)
#
#
# Indices 1 2 3 4 5 6 
#
# 1 137.9116 5.4584 8.8111 0.0000 -25.2531 0.0000
# 2 5.4584 95.9427 15.5247 0.0000 -16.9718 0.0000
# 3 8.8111 15.5247 108.4986 0.0000 -3.6792 0.0000
# 4 0.0000 0.0000 0.0000 2.0900 0.0000 -31.0536
# 5 -25.2531 -16.9718 -3.6792 0.0000 14.3392 0.0000
# 6 0.0000 0.0000 0.0000 -31.0536 0.0000 15.5387
#
#
#
# Elastic Compliance Matrix: (Units=1/GPa)
#
#
# Indices 1 2 3 4 5 6 
#
# 1 0.011732 0.003875 -0.000657 0.000000 0.025079 0.000000
# 2 0.003875 0.014668 -0.001607 0.000000 0.023773 0.000000
# 3 -0.000657 -0.001607 0.009479 0.000000 -0.000627 0.000000
# 4 0.000000 0.000000 0.000000 -0.016675 0.000000 -0.033325
# 5 0.025079 0.023773 -0.000627 0.000000 0.141883 0.000000
# 6 0.000000 0.000000 0.000000 -0.033325 0.000000 -0.002243
#
#
# Mechanical properties :
#
#
# Convention : Reuss Voigt Hill
#
# Bulk Modulus (GPa) = 25.57490 44.66016 35.11753
# Shear Modulus (GPa) = 29.64629 27.23086 28.43858
#
# Velocity S-wave (km/s) = 3.39372 3.25253 3.32388
# Velocity P-wave (km/s) = 5.02913 5.60851 5.32670
#
# Compressibility (1/GPa) = 0.03910083
#
# Stress axis : x y z
#
# Youngs Moduli (GPa) = 85.23749 68.17639 105.49897
#
# Poissons Ratio (x) = -0.26420 0.06929
# Poissons Ratio (y) = -0.33032 0.16957
# Poissons Ratio (z) = 0.05598 0.10958
#
# Static dielectric constant tensor:
#      x y z
#    x 2.167850 0.000000 -0.073460 
#    y 0.000000 2.072300 0.000000 
#    z -0.073460 0.000000 2.133090 
# 
# From -- ./inp_files/31872.got.cif
#   From: 2010.05.17/outbox.cif.g08.bks.cpg/sg14_16_cif.got.tgz:31872.got - 2010.06.03 17:49:19.
