data_PCOD9240404
_publ_section_title
;
Structure prediction by ZEFSAII (Michael W. Deem and Ramdas Pophale) SiO2 
 PCOD9240404
Probable space group: P 21/C
;
_chemical_formula_sum "Si O2"
_cell_formula_units_Z 28
_cell_length_a 14.338173
_cell_length_b 8.070763
_cell_length_c 17.394769
_cell_angle_alpha 90.000000
_cell_angle_beta 32.510582
_cell_angle_gamma 90.000000
_cell_volume 1081.856053
_symmetry_space_group_name_H-M "P 21/C"
_symmetry_group_IT_number 14
_symmetry_cell_setting 'monoclinic'
loop_
_space_group_symop_operation_xyz
x,y,z
-x,1/2+y,1/2-z
-x,-y,-z
x,1/2-y,1/2+z
loop_
_atom_site_type_symbol
_atom_site_label
_atom_site_fract_x
_atom_site_fract_y
_atom_site_fract_z
Si Si1 0.756986 0.962699 0.381598
Si Si2 0.318125 0.001603 0.172691
Si Si3 0.844254 0.662154 0.665088
Si Si4 0.253915 0.048171 0.931099
Si Si5 0.843339 0.113347 0.573585
Si Si6 0.082191 0.401495 0.704107
Si Si7 0.411296 0.097061 0.357695
O O1 0.774923 0.965753 0.277530
O O2 0.842797 0.782298 0.339588
O O3 0.588385 0.956607 0.552632
O O4 0.877807 0.099431 0.336342
O O5 0.288793 0.181582 0.233128
O O6 0.162755 0.996141 0.218463
O O7 0.283382 0.868086 0.263897
O O8 0.500000 0.000000 0.000000
O O9 0.841525 0.595751 0.580943
O O10 0.040065 0.736082 0.540337
O O11 0.353309 0.216156 0.886372
O O12 0.401647 0.918569 0.809574
O O13 0.143441 0.015142 0.082783
O O14 0.729461 0.015395 0.590352
O O15 0.000000 0.000000 0.500000
#
# Coordination Sequence:
#
# PCOD9240404 Si02
#       7
#     4   4   4   4   4   4   4
#     4  10  22  42  61  90 123 162 213 260 309 374
#     4  10  19  36  62  92 121 158 215 257 294 369
#     4  10  22  40  62  89 128 166 206 261 317 378
#     4  11  24  40  62  90 130 165 207 260 319 381
#     4  10  18  37  68  88 115 169 216 249 303 377
#     4  10  23  38  64  91 122 158 208 261 307 374
#     4  11  22  40  65  91 126 167 209 263 318 373
#
# _framework density 25.881447000000001
#
# number of rings (size 3 to 8) (size 9 to 14) (size 15 to 20)
#    0.000    1.714    2.857    3.429    2.000    3.429 
#    0.000    0.000    0.000    0.000    0.000    0.000 
#    0.000    0.000    0.000    0.000    0.000    0.000 
#
# Total GULP energy -156609.590245 kJ/mol
# GULP energy per Si atom -5593.199652 kJ/mol
# Density = 2.582254 g / cm^3
# Si number density = 25.881447 Si / 1000 Ang^3
#
#
#
# Elastic Constant Matrix: (Units=GPa)
#
#
# Indices 1 2 3 4 5 6 
#
# 1 78.5424 12.2743 10.1597 0.0000 17.1893 0.0000
# 2 12.2743 48.8385 9.3307 0.0000 4.9792 0.0000
# 3 10.1597 9.3307 134.4518 0.0000 21.4745 0.0000
# 4 0.0000 0.0000 0.0000 14.8432 0.0000 -9.7044
# 5 17.1893 4.9792 21.4745 0.0000 55.8538 0.0000
# 6 0.0000 0.0000 0.0000 -9.7044 0.0000 28.4793
#
#
#
# Elastic Compliance Matrix: (Units=1/GPa)
#
#
# Indices 1 2 3 4 5 6 
#
# 1 0.014117 -0.003100 -0.000215 0.000000 -0.003985 0.000000
# 2 -0.003100 0.021532 -0.001178 0.000000 -0.000512 0.000000
# 3 -0.000215 -0.001178 0.008000 0.000000 -0.002904 0.000000
# 4 0.000000 0.000000 0.000000 0.086682 0.000000 0.029537
# 5 -0.003985 -0.000512 -0.002904 0.000000 0.020293 0.000000
# 6 0.000000 0.000000 0.000000 0.029537 0.000000 0.045178
#
#
# Mechanical properties :
#
#
# Convention : Reuss Voigt Hill
#
# Bulk Modulus (GPa) = 28.85085 36.15134 32.50109
# Shear Modulus (GPa) = 23.11153 35.17314 29.14233
#
# Velocity S-wave (km/s) = 2.99151 3.69047 3.35922
# Velocity P-wave (km/s) = 4.80663 5.67079 5.25650
#
# Compressibility (1/GPa) = 0.03466103
#
# Stress axis : x y z
#
# Youngs Moduli (GPa) = 70.83898 46.44211 125.00761
#
# Poissons Ratio (x) = 0.14399 0.02688
# Poissons Ratio (y) = 0.21963 0.14728
# Poissons Ratio (z) = 0.01523 0.05472
#
# Static dielectric constant tensor:
#      x y z
#    x 2.045370 0.000000 -0.001250 
#    y 0.000000 2.132920 0.000000 
#    z -0.001250 0.000000 2.091740 
# 
# From -- ./inp_files/60301.got.cif
#   From: 2010.05.17/outbox.cif.g08.bks.cpg/sg14_31_cif.got.tgz:60301.got - 2010.06.03 17:49:19.
