data_PCOD9240603
_publ_section_title
;
Structure prediction by ZEFSAII (Michael W. Deem and Ramdas Pophale) SiO2 
 PCOD9240603
Probable space group: P 21/C
;
_chemical_formula_sum "Si O2"
_cell_formula_units_Z 28
_cell_length_a 16.169895
_cell_length_b 13.191511
_cell_length_c 9.673991
_cell_angle_alpha 90.000000
_cell_angle_beta 31.572670
_cell_angle_gamma 90.000000
_cell_volume 1080.413788
_symmetry_space_group_name_H-M "P 21/C"
_symmetry_group_IT_number 14
_symmetry_cell_setting 'monoclinic'
loop_
_space_group_symop_operation_xyz
x,y,z
-x,1/2+y,1/2-z
-x,-y,-z
x,1/2-y,1/2+z
loop_
_atom_site_type_symbol
_atom_site_label
_atom_site_fract_x
_atom_site_fract_y
_atom_site_fract_z
Si Si1 0.856576 0.663731 0.975700
Si Si2 0.247619 0.942192 0.090689
Si Si3 0.822970 0.379042 0.792952
Si Si4 0.407253 0.743985 0.228076
Si Si5 0.989289 0.686675 0.078451
Si Si6 0.463994 0.148224 0.210260
Si Si7 0.898385 0.511118 0.450685
O O1 0.898271 0.767815 0.838512
O O2 0.988638 0.582173 0.750670
O O3 0.870650 0.677889 0.118541
O O4 0.694839 0.622958 0.141947
O O5 0.411636 0.942932 0.940460
O O6 0.107638 0.910006 0.394664
O O7 0.198536 0.029381 0.052997
O O8 0.284071 0.847245 0.933279
O O9 0.974751 0.412226 0.666527
O O10 0.884733 0.277568 0.630202
O O11 0.792147 0.469778 0.728703
O O12 0.675640 0.344306 0.093571
O O13 0.550473 0.703656 0.120298
O O14 0.453632 0.768374 0.007059
#
# Coordination Sequence:
#
# PCOD9240603 Si02
#       7
#     4   4   4   4   4   4   4
#     4  10  19  32  50  76  98 127 157 209 242 293
#     4   8  18  29  52  69  96 125 161 203 234 287
#     4   9  17  30  55  71  96 129 172 201 240 294
#     4   9  18  30  51  74  93 129 162 201 235 301
#     4   9  18  30  52  72  96 120 168 202 241 277
#     4  10  19  30  51  71 103 124 163 195 258 284
#     4   9  17  33  51  74  96 131 166 205 244 284
#
# _framework density 25.915994999999999
#
# number of rings (size 3 to 8) (size 9 to 14) (size 15 to 20)
#    0.857    2.000    0.000    1.714    6.000    0.000 
#    0.000    1.429    3.143    2.571    0.000    0.000 
#    0.000    0.000    0.000    0.000    0.000    0.000 
#
# Total GULP energy -156381.011486 kJ/mol
# GULP energy per Si atom -5585.036124 kJ/mol
# Density = 2.585701 g / cm^3
# Si number density = 25.915995 Si / 1000 Ang^3
#
#
#
# Elastic Constant Matrix: (Units=GPa)
#
#
# Indices 1 2 3 4 5 6 
#
# 1 148.7867 5.8825 25.9914 0.0000 -15.4683 0.0000
# 2 5.8825 52.9440 0.7145 0.0000 9.4823 0.0000
# 3 25.9914 0.7145 36.4932 0.0000 -22.4025 0.0000
# 4 0.0000 0.0000 0.0000 -4.5018 0.0000 3.3663
# 5 -15.4683 9.4823 -22.4025 0.0000 43.3716 0.0000
# 6 0.0000 0.0000 0.0000 3.3663 0.0000 39.0658
#
#
#
# Elastic Compliance Matrix: (Units=1/GPa)
#
#
# Indices 1 2 3 4 5 6 
#
# 1 0.007709 -0.000810 -0.005386 0.000000 0.000144 0.000000
# 2 -0.000810 0.020243 -0.003974 0.000000 -0.006767 0.000000
# 3 -0.005386 -0.003974 0.044911 0.000000 0.022146 0.000000
# 4 0.000000 0.000000 0.000000 -0.208686 0.000000 0.017982
# 5 0.000144 -0.006767 0.022146 0.000000 0.036026 0.000000
# 6 0.000000 0.000000 0.000000 0.017982 0.000000 0.024048
#
#
# Mechanical properties :
#
#
# Convention : Reuss Voigt Hill
#
# Bulk Modulus (GPa) = 19.03887 33.71118 26.37502
# Shear Modulus (GPa) = -131.92337 29.29616 -51.31360
#
# Velocity S-wave (km/s) = -7.14246 3.36583 -4.45454
# Velocity P-wave (km/s) = 7.78828 5.30483 4.03213
#
# Compressibility (1/GPa) = 0.05252414
#
# Stress axis : x y z
#
# Youngs Moduli (GPa) = 129.71960 49.39859 22.26626
#
# Poissons Ratio (x) = 0.04000 0.11993
# Poissons Ratio (y) = 0.10503 0.08848
# Poissons Ratio (z) = 0.69867 0.19631
#
# Static dielectric constant tensor:
#      x y z
#    x 2.083620 0.000000 0.022680 
#    y 0.000000 2.156920 0.000000 
#    z 0.022680 0.000000 2.057700 
# 
# From -- ./inp_files/34285.got.cif
#   From: 2010.05.17/outbox.cif.g08.bks.cpg/sg14_18_cif.got.tgz:34285.got - 2010.06.03 17:49:19.
