data_PCOD9240984
_publ_section_title
;
Structure prediction by ZEFSAII (Michael W. Deem and Ramdas Pophale) SiO2 
 PCOD9240984
Probable space group: P 21/C
;
_chemical_formula_sum "Si O2"
_cell_formula_units_Z 26
_cell_length_a 21.732299
_cell_length_b 6.854361
_cell_length_c 6.770182
_cell_angle_alpha 90.000000
_cell_angle_beta 123.060907
_cell_angle_gamma 90.000000
_cell_volume 845.209232
_symmetry_space_group_name_H-M "P 21/C"
_symmetry_group_IT_number 14
_symmetry_cell_setting 'monoclinic'
loop_
_space_group_symop_operation_xyz
x,y,z
-x,1/2+y,1/2-z
-x,-y,-z
x,1/2-y,1/2+z
loop_
_atom_site_type_symbol
_atom_site_label
_atom_site_fract_x
_atom_site_fract_y
_atom_site_fract_z
Si Si1 0.568007 0.939505 0.867212
Si Si2 0.742483 0.545111 0.347765
Si Si3 0.000000 0.500000 0.500000
Si Si4 0.715718 0.007655 0.256884
Si Si5 0.123432 0.536303 0.901650
Si Si6 0.096283 0.084670 0.799784
Si Si7 0.594521 0.489678 0.958364
O O1 0.593301 0.717265 0.900361
O O2 0.577573 0.025859 0.664957
O O3 0.482165 0.918289 0.768040
O O4 0.627044 0.045803 0.115311
O O5 0.726619 0.777847 0.325906
O O6 0.727291 0.475250 0.541715
O O7 0.827745 0.538723 0.450027
O O8 0.681856 0.442259 0.101214
O O9 0.969177 0.519946 0.678729
O O10 0.933113 0.340870 0.322600
O O11 0.791436 0.093519 0.476778
O O12 0.113519 0.490091 0.112529
O O13 0.090382 0.323952 0.756851
#
# Coordination Sequence:
#
# PCOD9240984 Si02
#       7
#     4   4   2   4   4   4   4
#     4   9  17  30  49  76 106 138 174 217 262 310
#     4   8  15  27  47  72  99 127 165 217 266 307
#     4  12  22  32  56  80 102 140 168 220 282 320
#     4   8  15  27  47  72  99 127 165 217 266 307
#     4  10  19  34  53  79 107 135 176 226 270 318
#     4  10  19  34  53  79 107 135 176 226 270 318
#     4   9  17  30  49  76 106 138 174 217 262 310
#
# _framework density 30.761614000000002
#
# number of rings (size 3 to 8) (size 9 to 14) (size 15 to 20)
#    0.000    2.769    1.538    0.462    2.154    0.615 
#    0.000    0.000    0.000    1.846    8.000    0.000 
#    0.000    0.000    0.000    0.000    0.000    0.000 
#
# Total GULP energy -145135.934196 kJ/mol
# GULP energy per Si atom -5582.151315 kJ/mol
# Density = 3.069160 g / cm^3
# Si number density = 30.761614 Si / 1000 Ang^3
#
#
#
# Elastic Constant Matrix: (Units=GPa)
#
#
# Indices 1 2 3 4 5 6 
#
# 1 192.8403 25.1968 28.4464 0.0000 41.1938 0.0000
# 2 25.1968 111.4498 -17.5719 0.0000 -14.0063 0.0000
# 3 28.4464 -17.5719 187.9792 0.0000 37.1022 0.0000
# 4 0.0000 0.0000 0.0000 -54.6291 0.0000 2.9813
# 5 41.1938 -14.0063 37.1022 0.0000 66.1088 0.0000
# 6 0.0000 0.0000 0.0000 2.9813 0.0000 19.4501
#
#
#
# Elastic Compliance Matrix: (Units=1/GPa)
#
#
# Indices 1 2 3 4 5 6 
#
# 1 0.006404 -0.002032 -0.000322 0.000000 -0.004240 0.000000
# 2 -0.002032 0.009911 0.000641 0.000000 0.003006 0.000000
# 3 -0.000322 0.000641 0.006030 0.000000 -0.003048 0.000000
# 4 0.000000 0.000000 0.000000 -0.018153 0.000000 0.002783
# 5 -0.004240 0.003006 -0.003048 0.000000 0.020116 0.000000
# 6 0.000000 0.000000 0.000000 0.002783 0.000000 0.050987
#
#
# Mechanical properties :
#
#
# Convention : Reuss Voigt Hill
#
# Bulk Modulus (GPa) = 52.85797 62.71243 57.78520
# Shear Modulus (GPa) = 58.80440 36.59916 47.70178
#
# Velocity S-wave (km/s) = 4.37695 3.45304 3.94215
# Velocity P-wave (km/s) = 6.53941 6.02734 6.28859
#
# Compressibility (1/GPa) = 0.01891862
#
# Stress axis : x y z
#
# Youngs Moduli (GPa) = 156.14201 100.90048 165.84020
#
# Poissons Ratio (x) = 0.20499 0.05342
# Poissons Ratio (y) = 0.31722 -0.10623
# Poissons Ratio (z) = 0.05030 -0.06463
#
# Static dielectric constant tensor:
#      x y z
#    x 2.273250 0.000000 -0.130820 
#    y 0.000000 2.220830 0.000000 
#    z -0.130820 0.000000 1.930330 
# 
# From -- ./inp_files/17686.got.cif
#   From: 2010.05.17/outbox.cif.g08.bks.cpg/sg14_9_cif.got.tgz:17686.got - 2010.06.03 17:49:19.
