data_PCOD9240729
_publ_section_title
;
Structure prediction by ZEFSAII (Michael W. Deem and Ramdas Pophale) SiO2 
 PCOD9240729
Probable space group: P 21/C
;
_chemical_formula_sum "Si O2"
_cell_formula_units_Z 32
_cell_length_a 15.755807
_cell_length_b 11.408807
_cell_length_c 13.543921
_cell_angle_alpha 90.000000
_cell_angle_beta 26.872083
_cell_angle_gamma 90.000000
_cell_volume 1100.433645
_symmetry_space_group_name_H-M "P 21/C"
_symmetry_group_IT_number 14
_symmetry_cell_setting 'monoclinic'
loop_
_space_group_symop_operation_xyz
x,y,z
-x,1/2+y,1/2-z
-x,-y,-z
x,1/2-y,1/2+z
loop_
_atom_site_type_symbol
_atom_site_label
_atom_site_fract_x
_atom_site_fract_y
_atom_site_fract_z
Si Si1 0.788264 0.977160 0.966807
Si Si2 0.781840 0.534898 0.240252
Si Si3 0.387110 0.415217 0.049375
Si Si4 0.922050 0.776302 0.132382
Si Si5 0.243813 0.516366 0.997264
Si Si6 0.829154 0.728961 0.965514
Si Si7 0.350483 0.713938 0.655571
Si Si8 0.263801 0.770982 0.021655
O O1 0.739208 0.969463 0.901520
O O2 0.718264 0.109077 0.059425
O O3 0.015880 0.978989 0.741142
O O4 0.731855 0.855646 0.077627
O O5 0.809363 0.672804 0.194437
O O6 0.664250 0.427991 0.313857
O O7 0.000000 0.500000 0.000000
O O8 0.173165 0.393551 0.307518
O O9 0.353873 0.480705 0.981113
O O10 0.500000 0.500000 0.000000
O O11 0.499127 0.292295 0.942809
O O12 0.865426 0.774022 0.307492
O O13 0.141823 0.761829 0.895372
O O14 0.266499 0.396316 0.911041
O O15 0.299380 0.651823 0.924179
O O16 0.042857 0.731107 0.782318
O O17 0.370208 0.728167 0.515807
#
# Coordination Sequence:
#
# PCOD9240729 Si02
#       8
#     4   4   4   4   4   4   4   4
#     4   8  14  25  47  72  93 129 167 206 255 300
#     4   8  15  30  52  80  98 123 172 214 263 304
#     4  11  21  33  47  73 107 138 171 204 254 308
#     4   9  19  34  52  75 103 133 171 217 257 307
#     4   9  16  28  44  69  99 132 167 205 248 303
#     4   8  15  28  47  71  97 128 167 210 253 302
#     4  10  19  32  53  77 103 135 170 214 258 308
#     4   9  15  27  48  72  97 130 167 208 254 299
#
# _framework density 29.079445
#
# number of rings (size 3 to 8) (size 9 to 14) (size 15 to 20)
#    0.000    3.000    1.250    0.000    0.000    1.000 
#    0.000    0.000    0.000    7.500    0.000    0.000 
#    0.000    0.000    0.000    0.000    0.000    0.000 
#
# Total GULP energy -178969.008219 kJ/mol
# GULP energy per Si atom -5592.781507 kJ/mol
# Density = 2.901326 g / cm^3
# Si number density = 29.079445 Si / 1000 Ang^3
#
#
#
# Elastic Constant Matrix: (Units=GPa)
#
#
# Indices 1 2 3 4 5 6 
#
# 1 76.0120 -1.9591 14.6756 0.0000 -14.4195 0.0000
# 2 -1.9591 244.8877 83.1097 0.0000 -6.3307 0.0000
# 3 14.6756 83.1097 118.0868 0.0000 -15.2594 0.0000
# 4 0.0000 0.0000 0.0000 52.8024 0.0000 -15.4745
# 5 -14.4195 -6.3307 -15.2594 0.0000 27.9091 0.0000
# 6 0.0000 0.0000 0.0000 -15.4745 0.0000 37.3334
#
#
#
# Elastic Compliance Matrix: (Units=1/GPa)
#
#
# Indices 1 2 3 4 5 6 
#
# 1 0.014796 0.000810 -0.001503 0.000000 0.007006 0.000000
# 2 0.000810 0.005431 -0.003992 0.000000 -0.000532 0.000000
# 3 -0.001503 -0.003992 0.012102 0.000000 0.004935 0.000000
# 4 0.000000 0.000000 0.000000 0.021557 0.000000 0.008935
# 5 0.007006 -0.000532 0.004935 0.000000 0.042028 0.000000
# 6 0.000000 0.000000 0.000000 0.008935 0.000000 0.030489
#
#
# Mechanical properties :
#
#
# Convention : Reuss Voigt Hill
#
# Bulk Modulus (GPa) = 43.55688 70.07099 56.81394
# Shear Modulus (GPa) = 34.86098 46.48635 40.67366
#
# Velocity S-wave (km/s) = 3.46615 4.00259 3.74399
# Velocity P-wave (km/s) = 5.57046 6.74608 6.18626
#
# Compressibility (1/GPa) = 0.02295849
#
# Stress axis : x y z
#
# Youngs Moduli (GPa) = 67.58583 184.13090 82.62948
#
# Poissons Ratio (x) = -0.14909 0.12422
# Poissons Ratio (y) = -0.05472 0.32983
# Poissons Ratio (z) = 0.10160 0.73499
#
# Static dielectric constant tensor:
#      x y z
#    x 2.326190 0.000000 0.042890 
#    y 0.000000 2.346300 0.000000 
#    z 0.042890 0.000000 2.203640 
# 
# From -- ./inp_files/69913.got.cif
#   From: 2010.05.17/outbox.cif.g08.bks.cpg/sg14_35_cif.got.tgz:69913.got - 2010.06.03 17:49:19.
