data_PCOD9240295
_publ_section_title
;
Structure prediction by ZEFSAII (Michael W. Deem and Ramdas Pophale) SiO2 
 PCOD9240295
Probable space group: P 21/C
;
_chemical_formula_sum "Si O2"
_cell_formula_units_Z 30
_cell_length_a 16.886986
_cell_length_b 17.473584
_cell_length_c 5.104321
_cell_angle_alpha 90.000000
_cell_angle_beta 112.168282
_cell_angle_gamma 90.000000
_cell_volume 1394.827290
_symmetry_space_group_name_H-M "P 21/C"
_symmetry_group_IT_number 14
_symmetry_cell_setting 'monoclinic'
loop_
_space_group_symop_operation_xyz
x,y,z
-x,1/2+y,1/2-z
-x,-y,-z
x,1/2-y,1/2+z
loop_
_atom_site_type_symbol
_atom_site_label
_atom_site_fract_x
_atom_site_fract_y
_atom_site_fract_z
Si Si1 0.408812 0.199889 0.583009
Si Si2 0.253577 0.092770 0.213629
Si Si3 0.897476 0.196147 0.813386
Si Si4 0.563096 0.101807 0.561861
Si Si5 0.500000 0.500000 0.500000
Si Si6 0.659445 0.504039 0.583249
Si Si7 0.743495 0.082817 0.577440
Si Si8 0.906308 0.802449 0.905946
O O1 0.405339 0.228813 0.875307
O O2 0.324860 0.150148 0.409455
O O3 0.498932 0.159910 0.617464
O O4 0.284563 0.070571 0.961309
O O5 0.251071 0.005866 0.323769
O O6 0.162728 0.132496 0.127728
O O7 0.885038 0.247807 0.542216
O O8 0.829018 0.128632 0.726906
O O9 0.995983 0.168978 0.944911
O O10 0.580472 0.034703 0.809411
O O11 0.661087 0.121910 0.610188
O O12 0.521440 0.074597 0.238255
O O13 0.593350 0.535529 0.711908
O O14 0.716781 0.433109 0.743380
O O15 0.895187 0.735629 0.107859
#
# Coordination Sequence:
#
# PCOD9240295 Si02
#       8
#     4   4   4   4   2   4   4   4
#     4  12  29  42  62  94 135 184 227 274 332 393
#     4  11  24  41  66  98 136 171 228 279 334 402
#     4  10  24  47  72  97 133 174 221 274 344 415
#     4  10  23  39  59  89 127 169 222 271 329 390
#     4  10  18  36  62  82 120 166 218 266 324 380
#     4  10  22  36  63  92 124 175 217 279 332 386
#     4  10  25  40  68  99 131 174 222 281 339 392
#     4  10  23  45  71  98 134 182 220 271 340 405
#
# _framework density 21.508039
#
# number of rings (size 3 to 8) (size 9 to 14) (size 15 to 20)
#    0.000    1.600    1.333    1.200   14.933    1.600 
#    0.000    0.667    0.000    0.000    0.000    0.000 
#    0.000    0.000    0.000    0.000    0.000    0.000 
#
# Total GULP energy -167062.633316 kJ/mol
# GULP energy per Si atom -5568.754444 kJ/mol
# Density = 2.145909 g / cm^3
# Si number density = 21.508039 Si / 1000 Ang^3
#
#
#
# Elastic Constant Matrix: (Units=GPa)
#
#
# Indices 1 2 3 4 5 6 
#
# 1 145.8130 71.7976 16.9371 0.0000 38.7046 0.0000
# 2 71.7976 69.3655 21.8107 0.0000 26.9217 0.0000
# 3 16.9371 21.8107 63.3147 0.0000 3.0888 0.0000
# 4 0.0000 0.0000 0.0000 33.3914 0.0000 7.0464
# 5 38.7046 26.9217 3.0888 0.0000 38.7275 0.0000
# 6 0.0000 0.0000 0.0000 7.0464 0.0000 63.7057
#
#
#
# Elastic Compliance Matrix: (Units=1/GPa)
#
#
# Indices 1 2 3 4 5 6 
#
# 1 0.014900 -0.013580 0.000962 0.000000 -0.005528 0.000000
# 2 -0.013580 0.034838 -0.007880 0.000000 -0.010018 0.000000
# 3 0.000962 -0.007880 0.018101 0.000000 0.003073 0.000000
# 4 0.000000 0.000000 0.000000 0.030664 0.000000 -0.003392
# 5 -0.005528 -0.010018 0.003073 0.000000 0.038065 0.000000
# 6 0.000000 0.000000 0.000000 -0.003392 0.000000 0.016072
#
#
# Mechanical properties :
#
#
# Convention : Reuss Voigt Hill
#
# Bulk Modulus (GPa) = 37.25171 55.50934 46.38053
# Shear Modulus (GPa) = 24.68116 38.36142 31.52129
#
# Velocity S-wave (km/s) = 3.39120 4.22783 3.83241
# Velocity P-wave (km/s) = 5.71762 7.04964 6.41828
#
# Compressibility (1/GPa) = 0.02684440
#
# Stress axis : x y z
#
# Youngs Moduli (GPa) = 67.11256 28.70455 55.24455
#
# Poissons Ratio (x) = 0.38979 -0.05313
# Poissons Ratio (y) = 0.91136 0.43530
# Poissons Ratio (z) = -0.06454 0.22618
#
# Static dielectric constant tensor:
#      x y z
#    x -7.042820 0.000000 3.324180 
#    y 0.000000 1.334760 0.000000 
#    z 3.324180 0.000000 0.650850 
# 
# From -- ./inp_files/4209.got.cif
#   From: 2010.05.17/outbox.cif.g08.bks.cpg/sg14_3_cif.got.tgz:4209.got - 2010.06.03 17:49:19.
