data_PCOD9240568
_publ_section_title
;
Structure prediction by ZEFSAII (Michael W. Deem and Ramdas Pophale) SiO2 
 PCOD9240568
Probable space group: P 21/C
;
_chemical_formula_sum "Si O2"
_cell_formula_units_Z 24
_cell_length_a 5.167213
_cell_length_b 17.724204
_cell_length_c 15.602767
_cell_angle_alpha 90.000000
_cell_angle_beta 41.625573
_cell_angle_gamma 90.000000
_cell_volume 949.211021
_symmetry_space_group_name_H-M "P 21/C"
_symmetry_group_IT_number 14
_symmetry_cell_setting 'monoclinic'
loop_
_space_group_symop_operation_xyz
x,y,z
-x,1/2+y,1/2-z
-x,-y,-z
x,1/2-y,1/2+z
loop_
_atom_site_type_symbol
_atom_site_label
_atom_site_fract_x
_atom_site_fract_y
_atom_site_fract_z
Si Si1 0.297643 0.466045 0.792165
Si Si2 0.181955 0.094744 0.864363
Si Si3 0.410050 0.278818 0.420622
Si Si4 0.615536 0.169289 0.124343
Si Si5 0.614498 0.951666 0.367212
Si Si6 0.773740 0.302922 0.982921
O O1 0.655232 0.511726 0.656916
O O2 0.328634 0.382047 0.748710
O O3 0.392403 0.483067 0.868000
O O4 0.920385 0.511196 0.854835
O O5 0.182788 0.093413 0.761797
O O6 0.480544 0.155647 0.832851
O O7 0.771154 0.120155 0.004310
O O8 0.706777 0.238537 0.409356
O O9 0.036712 0.314674 0.565736
O O10 0.194380 0.214262 0.418790
O O11 0.506875 0.250469 0.113453
O O12 0.354067 0.888728 0.477516
#
# Coordination Sequence:
#
# PCOD9240568 Si02
#       6
#     4   4   4   4   4   4
#     4  10  19  27  45  67  94 116 146 178 218 255
#     4   7  19  27  44  66  92 115 149 172 215 260
#     4   8  18  28  46  56  88 119 151 169 208 262
#     4   8  19  29  46  63  92 123 148 169 215 271
#     4  10  20  28  43  64  96 116 147 185 211 254
#     4   9  18  31  42  59  89 127 147 174 214 252
#
# _framework density 25.284155999999999
#
# number of rings (size 3 to 8) (size 9 to 14) (size 15 to 20)
#    3.000    0.000    0.000    1.500    7.000    0.667 
#    0.000    0.000    0.000    0.000    0.000    0.000 
#    0.000   18.667    0.000    0.000    0.000    0.000 
#
# Total GULP energy -133678.041628 kJ/mol
# GULP energy per Si atom -5569.918401 kJ/mol
# Density = 2.522661 g / cm^3
# Si number density = 25.284156 Si / 1000 Ang^3
#
#
#
# Elastic Constant Matrix: (Units=GPa)
#
#
# Indices 1 2 3 4 5 6 
#
# 1 124.5441 17.3041 6.1723 0.0000 2.6756 0.0000
# 2 17.3041 112.7248 15.7950 0.0000 15.3134 0.0000
# 3 6.1723 15.7950 69.9015 0.0000 12.0518 0.0000
# 4 0.0000 0.0000 0.0000 54.4619 0.0000 5.8913
# 5 2.6756 15.3134 12.0518 0.0000 19.8478 0.0000
# 6 0.0000 0.0000 0.0000 5.8913 0.0000 39.0041
#
#
#
# Elastic Compliance Matrix: (Units=1/GPa)
#
#
# Indices 1 2 3 4 5 6 
#
# 1 0.008218 -0.001211 -0.000472 0.000000 0.000113 0.000000
# 2 -0.001211 0.010155 -0.000966 0.000000 -0.007085 0.000000
# 3 -0.000472 -0.000966 0.016113 0.000000 -0.008975 0.000000
# 4 0.000000 0.000000 0.000000 0.018666 0.000000 -0.002819
# 5 0.000113 -0.007085 -0.008975 0.000000 0.061284 0.000000
# 6 0.000000 0.000000 0.000000 -0.002819 0.000000 0.026064
#
#
# Mechanical properties :
#
#
# Convention : Reuss Voigt Hill
#
# Bulk Modulus (GPa) = 34.25877 42.85701 38.55789
# Shear Modulus (GPa) = 32.14846 40.52270 36.33558
#
# Velocity S-wave (km/s) = 3.56966 4.00771 3.79501
# Velocity P-wave (km/s) = 5.52891 6.19698 5.87245
#
# Compressibility (1/GPa) = 0.02918961
#
# Stress axis : x y z
#
# Youngs Moduli (GPa) = 121.67720 98.47461 62.06090
#
# Poissons Ratio (x) = 0.11924 0.02926
# Poissons Ratio (y) = 0.14733 0.05996
# Poissons Ratio (z) = 0.05737 0.09514
#
# Static dielectric constant tensor:
#      x y z
#    x 1.932470 0.000000 -0.012180 
#    y 0.000000 1.980440 0.000000 
#    z -0.012180 0.000000 2.202740 
# 
# From -- ./inp_files/63900.got.cif
#   From: 2010.05.17/outbox.cif.g08.bks.cpg/sg14_32_cif.got.tgz:63900.got - 2010.06.03 17:49:19.
