data_PCOD9240582
_publ_section_title
;
Structure prediction by ZEFSAII (Michael W. Deem and Ramdas Pophale) SiO2 
 PCOD9240582
Probable space group: P 21/C
;
_chemical_formula_sum "Si O2"
_cell_formula_units_Z 32
_cell_length_a 9.824330
_cell_length_b 18.322196
_cell_length_c 9.294672
_cell_angle_alpha 90.000000
_cell_angle_beta 107.088363
_cell_angle_gamma 90.000000
_cell_volume 1599.210062
_symmetry_space_group_name_H-M "P 21/C"
_symmetry_group_IT_number 14
_symmetry_cell_setting 'monoclinic'
loop_
_space_group_symop_operation_xyz
x,y,z
-x,1/2+y,1/2-z
-x,-y,-z
x,1/2-y,1/2+z
loop_
_atom_site_type_symbol
_atom_site_label
_atom_site_fract_x
_atom_site_fract_y
_atom_site_fract_z
Si Si1 0.574969 0.350257 0.849809
Si Si2 0.547113 0.992329 0.852857
Si Si3 0.290669 0.222730 0.223886
Si Si4 0.188359 0.159226 0.487178
Si Si5 0.118622 0.906906 0.557819
Si Si6 0.991516 0.512848 0.751157
Si Si7 0.543738 0.926519 0.431403
Si Si8 0.846002 0.923450 0.936483
O O1 0.522565 0.420898 0.742461
O O2 0.462294 0.287721 0.771161
O O3 0.744624 0.354548 0.889644
O O4 0.536835 0.364315 0.005408
O O5 0.714944 0.979746 0.897666
O O6 0.500455 0.061554 0.744958
O O7 0.500000 0.000000 0.000000
O O8 0.229362 0.209361 0.364184
O O9 0.241930 0.298478 0.143853
O O10 0.218348 0.156231 0.112046
O O11 0.289477 0.088802 0.500941
O O12 0.025859 0.136980 0.452847
O O13 0.096159 0.944723 0.394191
O O14 0.120178 0.971907 0.677536
O O15 0.924906 0.567859 0.613317
O O16 0.059974 0.450461 0.669745
O O17 0.500000 0.000000 0.500000
#
# Coordination Sequence:
#
# PCOD9240582 Si02
#       8
#     4   4   4   4   4   4   4   4
#     4   9  20  38  58  82 118 156 198 256 300 367
#     4  10  19  29  56  87 119 151 197 253 308 355
#     4  10  23  43  62  83 118 171 212 252 308 389
#     4  11  24  40  64  89 123 171 211 255 316 384
#     4  11  22  36  63  95 122 158 209 258 316 380
#     4  10  22  33  61  93 127 157 200 258 331 368
#     4   9  20  36  59  85 120 158 203 251 313 367
#     4  10  20  39  56  88 127 162 199 263 316 374
#
# _framework density 20.009879000000002
#
# number of rings (size 3 to 8) (size 9 to 14) (size 15 to 20)
#    0.000    2.000    1.250    2.250   10.500    1.000 
#    0.000    2.500    5.500    0.000    0.000    0.000 
#    0.000    0.000    0.000    0.000    0.000    0.000 
#
# Total GULP energy -178523.664151 kJ/mol
# GULP energy per Si atom -5578.864505 kJ/mol
# Density = 1.996434 g / cm^3
# Si number density = 20.009879 Si / 1000 Ang^3
#
#
#
# Elastic Constant Matrix: (Units=GPa)
#
#
# Indices 1 2 3 4 5 6 
#
# 1 121.0033 21.0965 25.8439 0.0000 0.9211 0.0000
# 2 21.0965 28.9425 11.8201 0.0000 2.0656 0.0000
# 3 25.8439 11.8201 126.1421 0.0000 -14.6866 0.0000
# 4 0.0000 0.0000 0.0000 26.8050 0.0000 9.3211
# 5 0.9211 2.0656 -14.6866 0.0000 19.6426 0.0000
# 6 0.0000 0.0000 0.0000 9.3211 0.0000 10.7889
#
#
#
# Elastic Compliance Matrix: (Units=1/GPa)
#
#
# Indices 1 2 3 4 5 6 
#
# 1 0.009706 -0.006401 -0.001493 0.000000 -0.000899 0.000000
# 2 -0.006401 0.041021 -0.003286 0.000000 -0.006470 0.000000
# 3 -0.001493 -0.003286 0.009409 0.000000 0.007451 0.000000
# 4 0.000000 0.000000 0.000000 0.053328 0.000000 -0.046073
# 5 -0.000899 -0.006470 0.007451 0.000000 0.057203 0.000000
# 6 0.000000 0.000000 0.000000 -0.046073 0.000000 0.132493
#
#
# Mechanical properties :
#
#
# Convention : Reuss Voigt Hill
#
# Bulk Modulus (GPa) = 26.47213 43.73431 35.10322
# Shear Modulus (GPa) = 14.78807 25.93580 20.36193
#
# Velocity S-wave (km/s) = 2.72148 3.60411 3.19344
# Velocity P-wave (km/s) = 4.80973 6.26285 5.58376
#
# Compressibility (1/GPa) = 0.03777558
#
# Stress axis : x y z
#
# Youngs Moduli (GPa) = 103.02919 24.37803 106.28257
#
# Poissons Ratio (x) = 0.15604 0.15872
# Poissons Ratio (y) = 0.65947 0.34922
# Poissons Ratio (z) = 0.15386 0.08010
#
# Static dielectric constant tensor:
#      x y z
#    x 1.754040 0.000000 -0.005100 
#    y 0.000000 1.727890 0.000000 
#    z -0.005100 0.000000 1.746920 
# 
# From -- ./inp_files/10257.got.cif
#   From: 2010.05.17/outbox.cif.g08.bks.cpg/sg14_6_cif.got.tgz:10257.got - 2010.06.03 17:49:19.
