data_PCOD9240971
_publ_section_title
;
Structure prediction by ZEFSAII (Michael W. Deem and Ramdas Pophale) SiO2 
 PCOD9240971
Probable space group: P 21/C
;
_chemical_formula_sum "Si O2"
_cell_formula_units_Z 28
_cell_length_a 15.872337
_cell_length_b 18.943116
_cell_length_c 5.376468
_cell_angle_alpha 90.000000
_cell_angle_beta 119.903639
_cell_angle_gamma 90.000000
_cell_volume 1401.331459
_symmetry_space_group_name_H-M "P 21/C"
_symmetry_group_IT_number 14
_symmetry_cell_setting 'monoclinic'
loop_
_space_group_symop_operation_xyz
x,y,z
-x,1/2+y,1/2-z
-x,-y,-z
x,1/2-y,1/2+z
loop_
_atom_site_type_symbol
_atom_site_label
_atom_site_fract_x
_atom_site_fract_y
_atom_site_fract_z
Si Si1 0.992213 0.572662 0.272060
Si Si2 0.963855 0.728576 0.108721
Si Si3 0.697990 0.205335 0.633080
Si Si4 0.375508 0.002006 0.098677
Si Si5 0.437257 0.921839 0.688189
Si Si6 0.157475 0.518726 0.187633
Si Si7 0.114988 0.649298 0.828143
O O1 0.078510 0.524786 0.289867
O O2 0.028762 0.601580 0.588197
O O3 0.984042 0.646048 0.106613
O O4 0.892936 0.530710 0.093620
O O5 0.911335 0.739756 0.293678
O O6 0.061490 0.776354 0.302971
O O7 0.696476 0.237560 0.906453
O O8 0.609082 0.153178 0.444202
O O9 0.799557 0.163863 0.742980
O O10 0.397712 0.971537 0.405701
O O11 0.446468 0.068457 0.157484
O O12 0.404033 0.948757 0.912577
O O13 0.260726 0.011762 0.911603
O O14 0.165805 0.599788 0.105975
#
# Coordination Sequence:
#
# PCOD9240971 Si02
#       7
#     4   4   4   4   4   4   4
#     4  10  22  35  53  82 122 159 192 247 292 347
#     4  10  19  34  51  72 106 151 184 225 284 339
#     4  12  24  35  60  91 121 154 192 245 309 368
#     4  10  21  38  63  85 115 158 191 254 290 371
#     4  10  21  40  60  87 120 148 198 240 316 351
#     4  11  21  36  56  86 117 154 204 244 296 347
#     4  11  21  34  55  81 120 153 194 243 296 354
#
# _framework density 19.980998
#
# number of rings (size 3 to 8) (size 9 to 14) (size 15 to 20)
#    0.000    1.429    2.857    3.857    2.000    0.000 
#    0.000    0.000    0.000    3.429    0.000    0.000 
#    0.000    0.000    0.000    0.000    0.000    0.000 
#
# Total GULP energy -156136.135458 kJ/mol
# GULP energy per Si atom -5576.290552 kJ/mol
# Density = 1.993552 g / cm^3
# Si number density = 19.980998 Si / 1000 Ang^3
#
#
#
# Elastic Constant Matrix: (Units=GPa)
#
#
# Indices 1 2 3 4 5 6 
#
# 1 37.5014 14.7442 16.1694 0.0000 13.8330 0.0000
# 2 14.7442 74.9959 14.8519 0.0000 10.6267 0.0000
# 3 16.1694 14.8519 76.0541 0.0000 1.1762 0.0000
# 4 0.0000 0.0000 0.0000 38.1639 0.0000 -3.1755
# 5 13.8330 10.6267 1.1762 0.0000 38.8580 0.0000
# 6 0.0000 0.0000 0.0000 -3.1755 0.0000 30.5802
#
#
#
# Elastic Compliance Matrix: (Units=1/GPa)
#
#
# Indices 1 2 3 4 5 6 
#
# 1 0.035209 -0.004039 -0.006523 0.000000 -0.011232 0.000000
# 2 -0.004039 0.014891 -0.002009 0.000000 -0.002574 0.000000
# 3 -0.006523 -0.002009 0.014890 0.000000 0.002421 0.000000
# 4 0.000000 0.000000 0.000000 0.026431 0.000000 0.002745
# 5 -0.011232 -0.002574 0.002421 0.000000 0.030364 0.000000
# 6 0.000000 0.000000 0.000000 0.002745 0.000000 0.032986
#
#
# Mechanical properties :
#
#
# Convention : Reuss Voigt Hill
#
# Bulk Modulus (GPa) = 25.09558 31.12026 28.10792
# Shear Modulus (GPa) = 25.88034 31.03946 28.45990
#
# Velocity S-wave (km/s) = 3.60286 3.94566 3.77815
# Velocity P-wave (km/s) = 5.46758 6.03045 5.75590
#
# Compressibility (1/GPa) = 0.03984765
#
# Stress axis : x y z
#
# Youngs Moduli (GPa) = 28.40150 67.15595 67.15754
#
# Poissons Ratio (x) = 0.27123 0.43809
# Poissons Ratio (y) = 0.11471 0.13495
# Poissons Ratio (z) = 0.18527 0.13494
#
# Static dielectric constant tensor:
#      x y z
#    x 1.737170 0.000000 -0.072970 
#    y 0.000000 1.764960 0.000000 
#    z -0.072970 0.000000 1.765610 
# 
# From -- ./inp_files/3753.got.cif
#   From: 2010.05.17/outbox.cif.g08.bks.cpg/sg14_2_cif.got.tgz:3753.got - 2010.06.03 17:49:19.
