data_PCOD9240570
_publ_section_title
;
Structure prediction by ZEFSAII (Michael W. Deem and Ramdas Pophale) SiO2 
 PCOD9240570
Probable space group: P 21/C
;
_chemical_formula_sum "Si O2"
_cell_formula_units_Z 28
_cell_length_a 6.350881
_cell_length_b 8.595907
_cell_length_c 20.708048
_cell_angle_alpha 90.000000
_cell_angle_beta 121.337550
_cell_angle_gamma 90.000000
_cell_volume 965.567872
_symmetry_space_group_name_H-M "P 21/C"
_symmetry_group_IT_number 14
_symmetry_cell_setting 'monoclinic'
loop_
_space_group_symop_operation_xyz
x,y,z
-x,1/2+y,1/2-z
-x,-y,-z
x,1/2-y,1/2+z
loop_
_atom_site_type_symbol
_atom_site_label
_atom_site_fract_x
_atom_site_fract_y
_atom_site_fract_z
Si Si1 0.369669 0.714513 0.582423
Si Si2 0.879856 0.422636 0.847910
Si Si3 0.677880 0.659803 0.021373
Si Si4 0.886596 0.012960 0.066213
Si Si5 0.851196 0.730917 0.723752
Si Si6 0.332000 0.745732 0.861796
Si Si7 0.408667 0.065407 0.209122
O O1 0.251223 0.812688 0.620377
O O2 0.482070 0.831787 0.547505
O O3 0.191780 0.606025 0.511071
O O4 0.620368 0.641854 0.654560
O O5 0.649432 0.516887 0.780717
O O6 0.115870 0.468549 0.928588
O O7 0.008175 0.319833 0.812051
O O8 0.779963 0.839560 0.040953
O O9 0.541946 0.651743 0.931933
O O10 0.173579 0.998656 0.132798
O O11 0.762430 0.121289 0.102656
O O12 0.729203 0.852591 0.753112
O O13 0.083620 0.656367 0.799069
O O14 0.463700 0.816636 0.820297
#
# Coordination Sequence:
#
# PCOD9240570 Si02
#       7
#     4   4   4   4   4   4   4
#     4   9  16  27  41  59  87 119 149 181 220 264
#     4   9  17  29  43  58  85 124 158 186 221 268
#     4  10  19  28  42  68  97 121 149 186 228 275
#     4  10  19  28  42  68  97 121 149 186 228 275
#     4   8  16  28  40  56  80 116 156 188 214 256
#     4   9  16  27  41  59  87 119 149 181 220 264
#     4   9  17  29  43  58  85 124 158 186 221 268
#
# _framework density 28.998479
#
# number of rings (size 3 to 8) (size 9 to 14) (size 15 to 20)
#    0.000    2.857    0.000    2.571    0.000    3.429 
#    0.000    0.000    0.000    0.000    0.000    0.000 
#    0.000   43.429    0.000  837.429    0.000  429.143 
#
# Total GULP energy -156697.847184 kJ/mol
# GULP energy per Si atom -5596.351685 kJ/mol
# Density = 2.893248 g / cm^3
# Si number density = 28.998479 Si / 1000 Ang^3
#
#
#
# Elastic Constant Matrix: (Units=GPa)
#
#
# Indices 1 2 3 4 5 6 
#
# 1 165.2740 32.9117 78.7522 0.0000 4.0456 0.0000
# 2 32.9117 88.9676 54.6991 0.0000 20.5539 0.0000
# 3 78.7522 54.6991 256.1294 0.0000 48.9463 0.0000
# 4 0.0000 0.0000 0.0000 47.8555 0.0000 15.0463
# 5 4.0456 20.5539 48.9463 0.0000 81.9049 0.0000
# 6 0.0000 0.0000 0.0000 15.0463 0.0000 25.0310
#
#
#
# Elastic Compliance Matrix: (Units=1/GPa)
#
#
# Indices 1 2 3 4 5 6 
#
# 1 0.007391 -0.001717 -0.002166 0.000000 0.001360 0.000000
# 2 -0.001717 0.013578 -0.001961 0.000000 -0.002151 0.000000
# 3 -0.002166 -0.001961 0.005503 0.000000 -0.002690 0.000000
# 4 0.000000 0.000000 0.000000 0.025766 0.000000 -0.015488
# 5 0.001360 -0.002151 -0.002690 0.000000 0.014289 0.000000
# 6 0.000000 0.000000 0.000000 -0.015488 0.000000 0.049260
#
#
# Mechanical properties :
#
#
# Convention : Reuss Voigt Hill
#
# Bulk Modulus (GPa) = 67.63699 93.67743 80.65721
# Shear Modulus (GPa) = 37.76378 53.89215 45.82797
#
# Velocity S-wave (km/s) = 3.61261 4.31565 3.97968
# Velocity P-wave (km/s) = 6.38563 7.56356 6.99942
#
# Compressibility (1/GPa) = 0.01478481
#
# Stress axis : x y z
#
# Youngs Moduli (GPa) = 135.29706 73.65112 181.72221
#
# Poissons Ratio (x) = 0.12645 0.39358
# Poissons Ratio (y) = 0.23228 0.35631
# Poissons Ratio (z) = 0.29303 0.14441
#
# Static dielectric constant tensor:
#      x y z
#    x 2.313350 0.000000 0.057340 
#    y 0.000000 2.182090 0.000000 
#    z 0.057340 0.000000 2.343350 
# 
# From -- ./inp_files/37530.got.cif
#   From: 2010.05.17/outbox.cif.g08.bks.cpg/sg14_19_cif.got.tgz:37530.got - 2010.06.03 17:49:19.
