data_PCOD9240480
_publ_section_title
;
Structure prediction by ZEFSAII (Michael W. Deem and Ramdas Pophale) SiO2 
 PCOD9240480
Probable space group: P 21/C
;
_chemical_formula_sum "Si O2"
_cell_formula_units_Z 28
_cell_length_a 9.396786
_cell_length_b 15.965503
_cell_length_c 11.329459
_cell_angle_alpha 90.000000
_cell_angle_beta 113.562406
_cell_angle_gamma 90.000000
_cell_volume 1557.983719
_symmetry_space_group_name_H-M "P 21/C"
_symmetry_group_IT_number 14
_symmetry_cell_setting 'monoclinic'
loop_
_space_group_symop_operation_xyz
x,y,z
-x,1/2+y,1/2-z
-x,-y,-z
x,1/2-y,1/2+z
loop_
_atom_site_type_symbol
_atom_site_label
_atom_site_fract_x
_atom_site_fract_y
_atom_site_fract_z
Si Si1 0.517319 0.569209 0.351763
Si Si2 0.470748 0.682900 0.565410
Si Si3 0.253229 0.033203 0.469614
Si Si4 0.790711 0.062944 0.941710
Si Si5 0.729010 0.580775 0.756539
Si Si6 0.996171 0.012953 0.797049
Si Si7 0.465244 0.623163 0.070807
O O1 0.497288 0.632281 0.452754
O O2 0.678491 0.518487 0.409258
O O3 0.383654 0.498052 0.312430
O O4 0.503311 0.613936 0.221766
O O5 0.322079 0.641319 0.579017
O O6 0.622982 0.661469 0.694399
O O7 0.444126 0.780125 0.534940
O O8 0.227778 0.068517 0.592346
O O9 0.391236 0.085864 0.455362
O O10 0.103616 0.031966 0.337135
O O11 0.319511 0.938114 0.499391
O O12 0.881341 0.060867 0.848433
O O13 0.911250 0.051971 0.088684
O O14 0.879127 0.572739 0.724534
#
# Coordination Sequence:
#
# PCOD9240480 Si02
#       7
#     4   4   4   4   4   4   4
#     4  10  18  39  58  84 116 145 201 235 280 347
#     4  11  21  37  62  88 113 147 201 245 283 331
#     4  10  22  39  58  84 120 156 194 230 294 349
#     4  10  20  35  63  86 112 153 194 236 286 346
#     4  10  20  36  62  87 111 152 191 239 291 344
#     4  11  19  36  62  85 117 155 190 231 292 356
#     4  10  23  37  60  86 113 157 195 241 282 346
#
# _framework density 17.971947
#
# number of rings (size 3 to 8) (size 9 to 14) (size 15 to 20)
#    0.000    1.714    4.286    1.286    4.000    0.000 
#    0.000    1.429    9.429    0.000    0.000    0.000 
#    0.000    0.000    0.000    0.000    0.000    0.000 
#
# Total GULP energy -156321.650285 kJ/mol
# GULP energy per Si atom -5582.916082 kJ/mol
# Density = 1.793104 g / cm^3
# Si number density = 17.971947 Si / 1000 Ang^3
#
#
#
# Elastic Constant Matrix: (Units=GPa)
#
#
# Indices 1 2 3 4 5 6 
#
# 1 120.9212 25.2586 35.5682 0.0000 -18.5784 0.0000
# 2 25.2586 72.6966 8.0215 0.0000 -7.0302 0.0000
# 3 35.5682 8.0215 112.6467 0.0000 -5.8298 0.0000
# 4 0.0000 0.0000 0.0000 6.2749 0.0000 -1.7238
# 5 -18.5784 -7.0302 -5.8298 0.0000 29.6759 0.0000
# 6 0.0000 0.0000 0.0000 -1.7238 0.0000 5.1118
#
#
#
# Elastic Compliance Matrix: (Units=1/GPa)
#
#
# Indices 1 2 3 4 5 6 
#
# 1 0.010519 -0.002823 -0.002843 0.000000 0.005358 0.000000
# 2 -0.002823 0.014915 -0.000080 0.000000 0.001750 0.000000
# 3 -0.002843 -0.000080 0.009787 0.000000 0.000124 0.000000
# 4 0.000000 0.000000 0.000000 0.175635 0.000000 0.059227
# 5 0.005358 0.001750 0.000124 0.000000 0.037491 0.000000
# 6 0.000000 0.000000 0.000000 0.059227 0.000000 0.215599
#
#
# Mechanical properties :
#
#
# Convention : Reuss Voigt Hill
#
# Bulk Modulus (GPa) = 42.14335 49.32898 45.73617
# Shear Modulus (GPa) = 10.34453 24.04027 17.19240
#
# Velocity S-wave (km/s) = 2.40176 3.66136 3.09629
# Velocity P-wave (km/s) = 5.58495 6.73658 6.18761
#
# Compressibility (1/GPa) = 0.02372853
#
# Stress axis : x y z
#
# Youngs Moduli (GPa) = 95.06599 67.04775 102.17506
#
# Poissons Ratio (x) = 0.18927 0.29049
# Poissons Ratio (y) = 0.26837 0.00819
# Poissons Ratio (z) = 0.27028 0.00537
#
# Static dielectric constant tensor:
#      x y z
#    x 1.616590 0.000000 0.001680 
#    y 0.000000 1.583270 0.000000 
#    z 0.001680 0.000000 1.639630 
# 
# From -- ./inp_files/25576.got.cif
#   From: 2010.05.17/outbox.cif.g08.bks.cpg/sg14_13_cif.got.tgz:25576.got - 2010.06.03 17:49:19.
