data_PCOD9240104
_publ_section_title
;
Structure prediction by ZEFSAII (Michael W. Deem and Ramdas Pophale) SiO2 
 PCOD9240104
Probable space group: P 21/C
;
_chemical_formula_sum "Si O2"
_cell_formula_units_Z 28
_cell_length_a 8.678291
_cell_length_b 7.938839
_cell_length_c 24.147010
_cell_angle_alpha 90.000000
_cell_angle_beta 139.145901
_cell_angle_gamma 90.000000
_cell_volume 1088.233272
_symmetry_space_group_name_H-M "P 21/C"
_symmetry_group_IT_number 14
_symmetry_cell_setting 'monoclinic'
loop_
_space_group_symop_operation_xyz
x,y,z
-x,1/2+y,1/2-z
-x,-y,-z
x,1/2-y,1/2+z
loop_
_atom_site_type_symbol
_atom_site_label
_atom_site_fract_x
_atom_site_fract_y
_atom_site_fract_z
Si Si1 0.128956 0.337553 0.300758
Si Si2 0.459482 0.442455 0.551313
Si Si3 0.147587 0.298774 0.182781
Si Si4 0.575940 0.339240 0.748501
Si Si5 0.025713 0.284622 0.404113
Si Si6 0.610606 0.109808 0.649337
Si Si7 0.701550 0.047074 0.509528
O O1 0.376078 0.435516 0.369093
O O2 0.126804 0.248246 0.240754
O O3 0.088305 0.278388 0.354034
O O4 0.883519 0.436308 0.223396
O O5 0.500000 0.500000 0.500000
O O6 0.176957 0.425284 0.476911
O O7 0.562989 0.257898 0.591509
O O8 0.286777 0.481816 0.219804
O O9 0.313947 0.159374 0.200467
O O10 0.892675 0.319204 0.083709
O O11 0.556710 0.218571 0.689340
O O12 0.748885 0.229960 0.834827
O O13 0.130529 0.111509 0.455077
O O14 0.451546 0.950177 0.588644
O O15 0.500000 0.000000 0.500000
#
# Coordination Sequence:
#
# PCOD9240104 Si02
#       7
#     4   4   4   4   4   4   4
#     4  10  18  34  61  88 112 155 200 252 299 356
#     4   9  17  34  59  85 115 152 200 250 310 358
#     4  11  22  41  60  87 127 161 204 247 302 371
#     4  10  22  41  58  86 124 169 200 246 302 367
#     4   8  19  36  59  84 118 151 199 251 309 353
#     4  10  19  35  62  86 119 158 200 257 311 357
#     4  10  19  36  61  90 118 147 203 260 306 350
#
# _framework density 25.729778
#
# number of rings (size 3 to 8) (size 9 to 14) (size 15 to 20)
#    0.000    2.286    2.857    0.000    0.000    0.571 
#   10.286    0.714    0.000    0.000    0.000    0.000 
#    0.000    0.000    0.000    0.000    0.000    0.000 
#
# Total GULP energy -155973.169096 kJ/mol
# GULP energy per Si atom -5570.470325 kJ/mol
# Density = 2.567122 g / cm^3
# Si number density = 25.729778 Si / 1000 Ang^3
#
#
#
# Elastic Constant Matrix: (Units=GPa)
#
#
# Indices 1 2 3 4 5 6 
#
# 1 53.4910 15.8940 18.8367 0.0000 14.7955 0.0000
# 2 15.8940 87.7536 33.2749 0.0000 6.5969 0.0000
# 3 18.8367 33.2749 158.5364 0.0000 16.0631 0.0000
# 4 0.0000 0.0000 0.0000 13.1063 0.0000 3.5578
# 5 14.7955 6.5969 16.0631 0.0000 29.4219 0.0000
# 6 0.0000 0.0000 0.0000 3.5578 0.0000 20.7667
#
#
#
# Elastic Compliance Matrix: (Units=1/GPa)
#
#
# Indices 1 2 3 4 5 6 
#
# 1 0.022768 -0.002958 -0.001050 0.000000 -0.010213 0.000000
# 2 -0.002958 0.012823 -0.002328 0.000000 -0.000117 0.000000
# 3 -0.001050 -0.002328 0.007214 0.000000 -0.002889 0.000000
# 4 0.000000 0.000000 0.000000 0.080021 0.000000 -0.013709
# 5 -0.010213 -0.000117 -0.002889 0.000000 0.040727 0.000000
# 6 0.000000 0.000000 0.000000 -0.013709 0.000000 0.050503
#
#
# Mechanical properties :
#
#
# Convention : Reuss Voigt Hill
#
# Bulk Modulus (GPa) = 33.18573 48.42136 40.80354
# Shear Modulus (GPa) = 21.11740 28.11068 24.61404
#
# Velocity S-wave (km/s) = 2.86796 3.30894 3.09631
# Velocity P-wave (km/s) = 4.88802 5.78436 5.35498
#
# Compressibility (1/GPa) = 0.03013344
#
# Stress axis : x y z
#
# Youngs Moduli (GPa) = 43.92080 77.98586 138.62482
#
# Poissons Ratio (x) = 0.23069 0.14550
# Poissons Ratio (y) = 0.12992 0.32273
# Poissons Ratio (z) = 0.04610 0.18156
#
# Static dielectric constant tensor:
#      x y z
#    x 2.043870 0.000000 -0.020880 
#    y 0.000000 2.074600 0.000000 
#    z -0.020880 0.000000 2.117290 
# 
# From -- ./inp_files/72297.got.cif
#   From: 2010.05.17/outbox.cif.g08.bks.cpg/sg14_37_cif.got.tgz:72297.got - 2010.06.03 17:49:19.
