data_PCOD9240217
_publ_section_title
;
Structure prediction by ZEFSAII (Michael W. Deem and Ramdas Pophale) SiO2 
 PCOD9240217
Probable space group: P 21/C
;
_chemical_formula_sum "Si O2"
_cell_formula_units_Z 28
_cell_length_a 10.116545
_cell_length_b 9.201685
_cell_length_c 18.736608
_cell_angle_alpha 90.000000
_cell_angle_beta 130.677550
_cell_angle_gamma 90.000000
_cell_volume 1322.766010
_symmetry_space_group_name_H-M "P 21/C"
_symmetry_group_IT_number 14
_symmetry_cell_setting 'monoclinic'
loop_
_space_group_symop_operation_xyz
x,y,z
-x,1/2+y,1/2-z
-x,-y,-z
x,1/2-y,1/2+z
loop_
_atom_site_type_symbol
_atom_site_label
_atom_site_fract_x
_atom_site_fract_y
_atom_site_fract_z
Si Si1 0.989017 0.940718 0.293011
Si Si2 0.198839 0.933895 0.563823
Si Si3 0.442723 0.655503 0.449136
Si Si4 0.737597 0.866742 0.538538
Si Si5 0.100965 0.806980 0.923683
Si Si6 0.015862 0.621521 0.637233
Si Si7 0.297536 0.842988 0.748890
O O1 0.968630 0.803113 0.337822
O O2 0.977757 0.896305 0.207914
O O3 0.169980 0.021585 0.374741
O O4 0.847515 0.059951 0.262271
O O5 0.169991 0.776582 0.517342
O O6 0.305475 0.917845 0.674439
O O7 0.299263 0.036285 0.543630
O O8 0.000000 0.000000 0.500000
O O9 0.500000 0.500000 0.500000
O O10 0.578022 0.781699 0.516568
O O11 0.257497 0.682821 0.421136
O O12 0.440773 0.660287 0.361512
O O13 0.879751 0.744834 0.564797
O O14 0.021870 0.965056 0.909644
O O15 0.209435 0.687005 0.702018
#
# Coordination Sequence:
#
# PCOD9240217 Si02
#       7
#     4   4   4   4   4   4   4
#     4  10  18  35  63  90 117 157 209 254 305 362
#     4  11  22  43  63  88 124 171 200 256 314 375
#     4  12  23  41  64  95 126 166 207 266 309 365
#     4  10  22  38  62  84 133 160 199 253 320 366
#     4  11  21  35  67  93 122 153 211 256 315 365
#     4  11  18  36  63  99 110 155 214 268 296 357
#     4  11  22  40  65  85 129 165 207 260 316 364
#
# _framework density 21.167763999999998
#
# number of rings (size 3 to 8) (size 9 to 14) (size 15 to 20)
#    0.000    1.143    8.571    0.857    0.000    2.857 
#    2.571    0.000    0.000    0.000    0.000    0.000 
#    0.000    0.000    0.000    0.000    0.000    0.000 
#
# Total GULP energy -156273.770862 kJ/mol
# GULP energy per Si atom -5581.206102 kJ/mol
# Density = 2.111959 g / cm^3
# Si number density = 21.167764 Si / 1000 Ang^3
#
#
#
# Elastic Constant Matrix: (Units=GPa)
#
#
# Indices 1 2 3 4 5 6 
#
# 1 21.1153 8.4173 5.0617 0.0000 -13.7275 0.0000
# 2 8.4173 136.0003 31.0291 0.0000 -4.6863 0.0000
# 3 5.0617 31.0291 77.2415 0.0000 -28.5819 0.0000
# 4 0.0000 0.0000 0.0000 24.2822 0.0000 -14.0773
# 5 -13.7275 -4.6863 -28.5819 0.0000 31.8553 0.0000
# 6 0.0000 0.0000 0.0000 -14.0773 0.0000 10.3010
#
#
#
# Elastic Compliance Matrix: (Units=1/GPa)
#
#
# Indices 1 2 3 4 5 6 
#
# 1 0.075034 -0.006287 0.013820 0.000000 0.043809 0.000000
# 2 -0.006287 0.008766 -0.005442 0.000000 -0.006302 0.000000
# 3 0.013820 -0.005442 0.024153 0.000000 0.026826 0.000000
# 4 0.000000 0.000000 0.000000 0.198250 0.000000 0.270929
# 5 0.043809 -0.006302 0.026826 0.000000 0.073413 0.000000
# 6 0.000000 0.000000 0.000000 0.270929 0.000000 0.467328
#
#
# Mechanical properties :
#
#
# Convention : Reuss Voigt Hill
#
# Bulk Modulus (GPa) = 8.91784 35.93034 22.42409
# Shear Modulus (GPa) = 5.68090 25.94430 15.81260
#
# Velocity S-wave (km/s) = 1.63999 3.50473 2.73612
# Velocity P-wave (km/s) = 2.79431 5.77827 4.53854
#
# Compressibility (1/GPa) = 0.11213478
#
# Stress axis : x y z
#
# Youngs Moduli (GPa) = 13.32730 114.07153 41.40212
#
# Poissons Ratio (x) = 0.71721 -0.57216
# Poissons Ratio (y) = 0.08379 0.22529
# Poissons Ratio (z) = -0.18418 0.62073
#
# Static dielectric constant tensor:
#      x y z
#    x 1.773960 0.000000 0.008080 
#    y 0.000000 1.784980 0.000000 
#    z 0.008080 0.000000 1.925790 
# 
# From -- ./inp_files/59022.got.cif
#   From: 2010.05.17/outbox.cif.g08.bks.cpg/sg14_30_cif.got.tgz:59022.got - 2010.06.03 17:49:19.
