data_PCOD9240714
_publ_section_title
;
Structure prediction by ZEFSAII (Michael W. Deem and Ramdas Pophale) SiO2 
 PCOD9240714
Probable space group: P 21/C
;
_chemical_formula_sum "Si O2"
_cell_formula_units_Z 32
_cell_length_a 18.850451
_cell_length_b 7.570011
_cell_length_c 25.802947
_cell_angle_alpha 90.000000
_cell_angle_beta 158.603042
_cell_angle_gamma 90.000000
_cell_volume 1343.306006
_symmetry_space_group_name_H-M "P 21/C"
_symmetry_group_IT_number 14
_symmetry_cell_setting 'monoclinic'
loop_
_space_group_symop_operation_xyz
x,y,z
-x,1/2+y,1/2-z
-x,-y,-z
x,1/2-y,1/2+z
loop_
_atom_site_type_symbol
_atom_site_label
_atom_site_fract_x
_atom_site_fract_y
_atom_site_fract_z
Si Si1 0.551651 0.357258 0.460396
Si Si2 0.521448 0.636357 0.304524
Si Si3 0.759024 0.867445 0.323898
Si Si4 0.659426 0.007475 0.418093
Si Si5 0.611462 0.240968 0.113912
Si Si6 0.137016 0.444922 0.394847
Si Si7 0.761751 0.919781 0.594022
Si Si8 0.002294 0.142362 0.423826
O O1 0.389295 0.267200 0.313989
O O2 0.451191 0.541684 0.411472
O O3 0.607296 0.253675 0.549281
O O4 0.735134 0.425120 0.553602
O O5 0.373639 0.512831 0.235931
O O6 0.520602 0.834884 0.325498
O O7 0.450068 0.636605 0.196433
O O8 0.739616 0.568685 0.467656
O O9 0.873044 0.765560 0.446131
O O10 0.907628 0.973660 0.388600
O O11 0.725378 0.051779 0.520886
O O12 0.853218 0.937971 0.520486
O O13 0.829437 0.258501 0.283315
O O14 0.444015 0.364514 0.022224
O O15 0.153245 0.255439 0.377153
O O16 0.919221 0.515672 0.242680
#
# Coordination Sequence:
#
# PCOD9240714 Si02
#       8
#     4   4   4   4   4   4   4   4
#     4   8  14  27  46  67  93 122 161 206 244 280
#     4   9  19  34  51  74 105 133 166 211 254 296
#     4   8  15  28  47  72  96 121 164 217 249 277
#     4  10  19  32  52  76 103 136 168 206 253 304
#     4   9  16  27  45  71  96 122 161 206 242 285
#     4   9  18  33  51  74 101 131 164 208 254 300
#     4  10  20  33  51  75 105 134 166 208 254 300
#     4   9  15  26  47  70  93 125 164 202 246 288
#
# _framework density 23.821826999999999
#
# number of rings (size 3 to 8) (size 9 to 14) (size 15 to 20)
#    0.000    3.000    0.000    3.000    0.000    2.000 
#    0.000    6.250    0.000    9.750    0.000    1.750 
#    0.000    0.000    0.000    0.000    0.000    0.000 
#
# Total GULP energy -178803.916192 kJ/mol
# GULP energy per Si atom -5587.622381 kJ/mol
# Density = 2.376761 g / cm^3
# Si number density = 23.821827 Si / 1000 Ang^3
#
#
#
# Elastic Constant Matrix: (Units=GPa)
#
#
# Indices 1 2 3 4 5 6 
#
# 1 69.5435 2.6205 51.8009 0.0000 -8.0990 0.0000
# 2 2.6205 50.7375 28.6199 0.0000 0.3384 0.0000
# 3 51.8009 28.6199 182.9253 0.0000 -7.4281 0.0000
# 4 0.0000 0.0000 0.0000 34.2706 0.0000 3.3269
# 5 -8.0990 0.3384 -7.4281 0.0000 37.4407 0.0000
# 6 0.0000 0.0000 0.0000 3.3269 0.0000 20.5038
#
#
#
# Elastic Compliance Matrix: (Units=1/GPa)
#
#
# Indices 1 2 3 4 5 6 
#
# 1 0.018758 0.002128 -0.005525 0.000000 0.002942 0.000000
# 2 0.002128 0.021887 -0.004049 0.000000 -0.000541 0.000000
# 3 -0.005525 -0.004049 0.007680 0.000000 0.000365 0.000000
# 4 0.000000 0.000000 0.000000 0.029647 0.000000 -0.004810
# 5 0.002942 -0.000541 0.000365 0.000000 0.027423 0.000000
# 6 0.000000 0.000000 0.000000 -0.004810 0.000000 0.049552
#
#
# Mechanical properties :
#
#
# Convention : Reuss Voigt Hill
#
# Bulk Modulus (GPa) = 29.91133 52.14321 41.02727
# Shear Modulus (GPa) = 27.62713 33.12068 30.37391
#
# Velocity S-wave (km/s) = 3.40919 3.73279 3.57465
# Velocity P-wave (km/s) = 5.29909 6.36511 5.85640
#
# Compressibility (1/GPa) = 0.03343215
#
# Stress axis : x y z
#
# Youngs Moduli (GPa) = 53.31182 45.68934 130.21365
#
# Poissons Ratio (x) = -0.09724 0.71947
# Poissons Ratio (y) = -0.11346 0.52724
# Poissons Ratio (z) = 0.29456 0.18500
#
# Static dielectric constant tensor:
#      x y z
#    x 1.919380 0.000000 -0.037550 
#    y 0.000000 1.926970 0.000000 
#    z -0.037550 0.000000 1.944460 
# 
# From -- ./inp_files/78017.got.cif
#   From: 2010.05.17/outbox.cif.g08.bks.cpg/sg14_40_cif.got.tgz:78017.got - 2010.06.03 17:49:19.
