data_PCOD9240203
_publ_section_title
;
Structure prediction by ZEFSAII (Michael W. Deem and Ramdas Pophale) SiO2 
 PCOD9240203
Probable space group: P 21/C
;
_chemical_formula_sum "Si O2"
_cell_formula_units_Z 32
_cell_length_a 15.530303
_cell_length_b 10.664527
_cell_length_c 22.859010
_cell_angle_alpha 90.000000
_cell_angle_beta 156.124331
_cell_angle_gamma 90.000000
_cell_volume 1532.390145
_symmetry_space_group_name_H-M "P 21/C"
_symmetry_group_IT_number 14
_symmetry_cell_setting 'monoclinic'
loop_
_space_group_symop_operation_xyz
x,y,z
-x,1/2+y,1/2-z
-x,-y,-z
x,1/2-y,1/2+z
loop_
_atom_site_type_symbol
_atom_site_label
_atom_site_fract_x
_atom_site_fract_y
_atom_site_fract_z
Si Si1 0.054098 0.830082 0.917579
Si Si2 0.384207 0.486051 0.864872
Si Si3 0.736757 0.308071 0.058624
Si Si4 0.669937 0.574203 0.428976
Si Si5 0.773323 0.129059 0.394063
Si Si6 0.516469 0.946438 0.075035
Si Si7 0.898112 0.295134 0.285617
Si Si8 0.931363 0.457741 0.866176
O O1 0.113876 0.738735 0.900620
O O2 0.822002 0.893489 0.765243
O O3 0.109021 0.751623 0.009276
O O4 0.227919 0.941800 0.025911
O O5 0.279757 0.623595 0.789785
O O6 0.500000 0.500000 0.000000
O O7 0.572684 0.421969 0.944150
O O8 0.868875 0.333866 0.199751
O O9 0.595271 0.186887 0.987787
O O10 0.478697 0.625982 0.270964
O O11 0.584241 0.544770 0.441232
O O12 0.867042 0.666675 0.550035
O O13 0.866103 0.100307 0.387805
O O14 0.841525 0.018208 0.480996
O O15 0.761769 0.934319 0.246149
O O16 0.500000 0.000000 0.000000
O O17 0.891157 0.147700 0.292871
#
# Coordination Sequence:
#
# PCOD9240203 Si02
#       8
#     4   4   4   4   4   4   4   4
#     4  10  21  41  60  89 122 158 204 252 302 364
#     4   9  20  40  61  86 125 157 190 252 314 361
#     4  10  20  37  63  91 117 157 195 251 313 365
#     4   9  22  37  56  84 124 153 195 257 291 352
#     4  10  22  40  58  84 116 159 206 247 290 355
#     4  10  18  35  61  88 114 151 200 244 303 356
#     4  10  20  39  57  87 122 153 194 247 308 361
#     4  10  21  38  61  84 112 159 204 245 294 359
#
# _framework density 20.88241
#
# number of rings (size 3 to 8) (size 9 to 14) (size 15 to 20)
#    0.000    2.250    1.250    0.750    1.750    3.000 
#    9.000    1.250    0.000    0.000    0.000    0.000 
#    0.000    0.000    0.000    0.000    0.000    0.000 
#
# Total GULP energy -178397.408841 kJ/mol
# GULP energy per Si atom -5574.919026 kJ/mol
# Density = 2.083488 g / cm^3
# Si number density = 20.882410 Si / 1000 Ang^3
#
#
#
# Elastic Constant Matrix: (Units=GPa)
#
#
# Indices 1 2 3 4 5 6 
#
# 1 18.8625 -2.8379 18.6819 0.0000 -5.6075 0.0000
# 2 -2.8379 36.3266 23.4200 0.0000 0.2942 0.0000
# 3 18.6819 23.4200 142.5148 0.0000 3.3074 0.0000
# 4 0.0000 0.0000 0.0000 30.3582 0.0000 -5.1807
# 5 -5.6075 0.2942 3.3074 0.0000 21.9574 0.0000
# 6 0.0000 0.0000 0.0000 -5.1807 0.0000 20.8039
#
#
#
# Elastic Compliance Matrix: (Units=1/GPa)
#
#
# Indices 1 2 3 4 5 6 
#
# 1 0.073283 0.013487 -0.012296 0.000000 0.020386 0.000000
# 2 0.013487 0.033275 -0.007331 0.000000 0.004103 0.000000
# 3 -0.012296 -0.007331 0.009939 0.000000 -0.004539 0.000000
# 4 0.000000 0.000000 0.000000 0.034402 0.000000 0.008567
# 5 0.020386 0.004103 -0.004539 0.000000 0.051378 0.000000
# 6 0.000000 0.000000 0.000000 0.008567 0.000000 0.050201
#
#
# Mechanical properties :
#
#
# Convention : Reuss Voigt Hill
#
# Bulk Modulus (GPa) = 9.59538 30.69243 20.14390
# Shear Modulus (GPa) = 16.69461 25.18655 20.94058
#
# Velocity S-wave (km/s) = 2.83054 3.47668 3.17011
# Velocity P-wave (km/s) = 3.90993 5.55392 4.80279
#
# Compressibility (1/GPa) = 0.10421681
#
# Stress axis : x y z
#
# Youngs Moduli (GPa) = 13.64566 30.05253 100.61556
#
# Poissons Ratio (x) = -0.40533 1.23718
# Poissons Ratio (y) = -0.18404 0.73766
# Poissons Ratio (z) = 0.16779 0.22033
#
# Static dielectric constant tensor:
#      x y z
#    x 1.770640 0.000000 0.017380 
#    y 0.000000 1.792970 0.000000 
#    z 0.017380 0.000000 1.752330 
# 
# From -- ./inp_files/74411.got.cif
#   From: 2010.05.17/outbox.cif.g08.bks.cpg/sg14_38_cif.got.tgz:74411.got - 2010.06.03 17:49:19.
