data_PCOD9240726
_publ_section_title
;
Structure prediction by ZEFSAII (Michael W. Deem and Ramdas Pophale) SiO2 
 PCOD9240726
Probable space group: P 21/C
;
_chemical_formula_sum "Si O2"
_cell_formula_units_Z 32
_cell_length_a 10.149849
_cell_length_b 26.728272
_cell_length_c 5.348836
_cell_angle_alpha 90.000000
_cell_angle_beta 87.819149
_cell_angle_gamma 90.000000
_cell_volume 1450.023591
_symmetry_space_group_name_H-M "P 21/C"
_symmetry_group_IT_number 14
_symmetry_cell_setting 'monoclinic'
loop_
_space_group_symop_operation_xyz
x,y,z
-x,1/2+y,1/2-z
-x,-y,-z
x,1/2-y,1/2+z
loop_
_atom_site_type_symbol
_atom_site_label
_atom_site_fract_x
_atom_site_fract_y
_atom_site_fract_z
Si Si1 0.143332 0.764610 0.054655
Si Si2 0.125315 0.452884 0.246927
Si Si3 0.441723 0.724231 0.953316
Si Si4 0.526267 0.120302 0.360703
Si Si5 0.034291 0.564402 0.226344
Si Si6 0.633455 0.559564 0.442683
Si Si7 0.636216 0.045855 0.735127
Si Si8 0.772504 0.127570 0.019306
O O1 0.073413 0.740345 0.294190
O O2 0.283660 0.735908 0.991398
O O3 0.170970 0.822632 0.101629
O O4 0.115643 0.512510 0.194270
O O5 0.269721 0.437229 0.328961
O O6 0.042677 0.441341 0.505390
O O7 0.060242 0.429268 0.005039
O O8 0.494170 0.747910 0.205968
O O9 0.472837 0.665288 0.942021
O O10 0.389763 0.106400 0.237669
O O11 0.585018 0.069304 0.479870
O O12 0.630740 0.139546 0.148154
O O13 0.135438 0.609012 0.263190
O O14 0.488735 0.551550 0.570733
O O15 0.674477 0.511856 0.268893
O O16 0.750568 0.081786 0.831006
#
# Coordination Sequence:
#
# PCOD9240726 Si02
#       8
#     4   4   4   4   4   4   4   4
#     4  10  19  32  52  81 119 147 175 235 299 359
#     4  10  22  42  56  79 115 153 205 234 281 324
#     4  10  19  35  53  81 118 149 181 231 292 361
#     4  11  22  32  59  85 121 156 186 237 303 360
#     4  10  23  37  61  81 106 160 195 247 277 335
#     4  10  22  37  53  83 119 163 194 242 282 351
#     4  10  21  35  53  84 120 157 193 235 294 349
#     4  11  21  34  56  88 118 148 196 237 302 356
#
# _framework density 22.068604000000001
#
# number of rings (size 3 to 8) (size 9 to 14) (size 15 to 20)
#    0.000    1.750    3.750    1.875    5.250    1.000 
#    0.000    0.000    0.000    0.000    0.000    5.250 
#    0.000    0.000    0.000    0.000    0.000    0.000 
#
# Total GULP energy -178755.758036 kJ/mol
# GULP energy per Si atom -5586.117439 kJ/mol
# Density = 2.201837 g / cm^3
# Si number density = 22.068604 Si / 1000 Ang^3
#
#
#
# Elastic Constant Matrix: (Units=GPa)
#
#
# Indices 1 2 3 4 5 6 
#
# 1 44.0099 28.9652 28.1209 0.0000 26.0436 0.0000
# 2 28.9652 72.8132 26.3671 0.0000 23.6496 0.0000
# 3 28.1209 26.3671 139.6899 0.0000 30.7782 0.0000
# 4 0.0000 0.0000 0.0000 33.7741 0.0000 10.0723
# 5 26.0436 23.6496 30.7782 0.0000 41.0531 0.0000
# 6 0.0000 0.0000 0.0000 10.0723 0.0000 5.3791
#
#
#
# Elastic Compliance Matrix: (Units=1/GPa)
#
#
# Indices 1 2 3 4 5 6 
#
# 1 0.041978 -0.009554 -0.002387 0.000000 -0.019338 0.000000
# 2 -0.009554 0.019254 -0.000722 0.000000 -0.004490 0.000000
# 3 -0.002387 -0.000722 0.008805 0.000000 -0.004671 0.000000
# 4 0.000000 0.000000 0.000000 0.067051 0.000000 -0.125551
# 5 -0.019338 -0.004490 -0.004671 0.000000 0.042715 0.000000
# 6 0.000000 0.000000 0.000000 -0.125551 0.000000 0.420995
#
#
# Mechanical properties :
#
#
# Convention : Reuss Voigt Hill
#
# Bulk Modulus (GPa) = 22.36527 47.04660 34.70593
# Shear Modulus (GPa) = 7.79999 27.57858 17.68929
#
# Velocity S-wave (km/s) = 1.88205 3.53891 2.83425
# Velocity P-wave (km/s) = 3.85736 6.16953 5.14502
#
# Compressibility (1/GPa) = 0.04471219
#
# Stress axis : x y z
#
# Youngs Moduli (GPa) = 23.82176 51.93738 113.57704
#
# Poissons Ratio (x) = 0.49621 0.27107
# Poissons Ratio (y) = 0.22759 0.08197
# Poissons Ratio (z) = 0.05685 0.03749
#
# Static dielectric constant tensor:
#      x y z
#    x 1.831020 0.000000 0.011140 
#    y 0.000000 1.810500 0.000000 
#    z 0.011140 0.000000 1.908600 
# 
# From -- ./inp_files/3295.got.cif
#   From: 2010.05.17/outbox.cif.g08.bks.cpg/sg14_2_cif.got.tgz:3295.got - 2010.06.03 17:49:19.
