data_PCOD9240880
_publ_section_title
;
Structure prediction by ZEFSAII (Michael W. Deem and Ramdas Pophale) SiO2 
 PCOD9240880
Probable space group: P 21/C
;
_chemical_formula_sum "Si O2"
_cell_formula_units_Z 32
_cell_length_a 5.023450
_cell_length_b 10.833551
_cell_length_c 20.862654
_cell_angle_alpha 90.000000
_cell_angle_beta 89.283331
_cell_angle_gamma 90.000000
_cell_volume 1135.294403
_symmetry_space_group_name_H-M "P 21/C"
_symmetry_group_IT_number 14
_symmetry_cell_setting 'monoclinic'
loop_
_space_group_symop_operation_xyz
x,y,z
-x,1/2+y,1/2-z
-x,-y,-z
x,1/2-y,1/2+z
loop_
_atom_site_type_symbol
_atom_site_label
_atom_site_fract_x
_atom_site_fract_y
_atom_site_fract_z
Si Si1 0.162871 0.572017 0.915335
Si Si2 0.172398 0.652386 0.431420
Si Si3 0.337129 0.572017 0.084665
Si Si4 0.461259 0.849418 0.720741
Si Si5 0.672400 0.152386 0.931420
Si Si6 0.038739 0.650583 0.779259
Si Si7 0.304550 0.358108 0.654549
Si Si8 0.195452 0.141892 0.845451
O O1 0.078725 0.706081 0.940965
O O2 0.453866 0.532007 0.934408
O O3 0.167945 0.578418 0.837449
O O4 0.953866 0.467993 0.934408
O O5 0.250000 0.597910 0.500000
O O6 0.439307 0.666081 0.389344
O O7 0.935978 0.591744 0.389680
O O8 0.332054 0.578418 0.162551
O O9 0.421275 0.706081 0.059035
O O10 0.249999 0.750001 0.750000
O O11 0.590436 0.921571 0.780248
O O12 0.686657 0.768558 0.683995
O O13 0.435980 0.091744 0.889680
O O14 0.939309 0.166081 0.889344
O O15 0.813341 0.731442 0.816006
O O16 0.909564 0.578429 0.719752
#
# Coordination Sequence:
#
# PCOD9240880 Si02
#       8
#     4   4   4   4   4   4   4   4
#     4  11  23  34  51  80 113 145 181 217 266 319
#     4  11  22  36  52  76 113 152 186 215 248 316
#     4  11  23  34  51  80 113 145 181 217 266 319
#     4  10  19  35  59  74 101 141 185 232 278 308
#     4  11  22  36  52  76 113 152 186 215 248 316
#     4  10  19  35  59  74 101 141 185 232 278 308
#     4  10  19  33  56  78  95 139 188 230 268 297
#     4  10  19  33  56  78  95 139 188 230 268 297
#
# _framework density 28.186520999999999
#
# number of rings (size 3 to 8) (size 9 to 14) (size 15 to 20)
#    0.000    1.500    5.000    3.750    3.500    1.000 
#    0.000    0.000    0.000    0.000    0.000    0.000 
#    0.000   20.000    0.000    0.000    0.000    0.000 
#
# Total GULP energy -179510.734906 kJ/mol
# GULP energy per Si atom -5609.710466 kJ/mol
# Density = 2.812237 g / cm^3
# Si number density = 28.186521 Si / 1000 Ang^3
#
#
#
# Elastic Constant Matrix: (Units=GPa)
#
#
# Indices 1 2 3 4 5 6 
#
# 1 182.9733 2.9635 72.8821 0.0000 14.2799 0.0000
# 2 2.9635 90.9488 4.5274 0.0000 6.1058 0.0000
# 3 72.8821 4.5274 237.1723 0.0000 73.6018 0.0000
# 4 0.0000 0.0000 0.0000 42.0636 0.0000 10.9535
# 5 14.2799 6.1058 73.6018 0.0000 47.1353 0.0000
# 6 0.0000 0.0000 0.0000 10.9535 0.0000 28.9368
#
#
#
# Elastic Compliance Matrix: (Units=1/GPa)
#
#
# Indices 1 2 3 4 5 6 
#
# 1 0.006345 -0.000225 -0.002635 0.000000 0.002221 0.000000
# 2 -0.000225 0.011125 0.000549 0.000000 -0.002230 0.000000
# 3 -0.002635 0.000549 0.009293 0.000000 -0.013784 0.000000
# 4 0.000000 0.000000 0.000000 0.026373 0.000000 -0.009983
# 5 0.002221 -0.002230 -0.013784 0.000000 0.042355 0.000000
# 6 0.000000 0.000000 0.000000 -0.009983 0.000000 0.038337
#
#
# Mechanical properties :
#
#
# Convention : Reuss Voigt Hill
#
# Bulk Modulus (GPa) = 45.16418 74.64892 59.90655
# Shear Modulus (GPa) = 34.28628 52.34189 43.31408
#
# Velocity S-wave (km/s) = 3.49149 4.31395 3.92432
# Velocity P-wave (km/s) = 5.68437 7.16624 6.46788
#
# Compressibility (1/GPa) = 0.02214144
#
# Stress axis : x y z
#
# Youngs Moduli (GPa) = 157.60268 89.88849 107.60595
#
# Poissons Ratio (x) = 0.02020 0.28352
# Poissons Ratio (y) = 0.03541 -0.05904
# Poissons Ratio (z) = 0.41525 -0.04932
#
# Static dielectric constant tensor:
#      x y z
#    x 2.131610 0.000000 0.088020 
#    y 0.000000 2.172600 0.000000 
#    z 0.088020 0.000000 2.262980 
# 
# From -- ./inp_files/63697.got.cif
#   From: 2010.05.17/outbox.cif.g08.bks.cpg/sg14_32_cif.got.tgz:63697.got - 2010.06.03 17:49:19.
