data_PCOD9240145
_publ_section_title
;
Structure prediction by ZEFSAII (Michael W. Deem and Ramdas Pophale) SiO2 
 PCOD9240145
Probable space group: P 21/C
;
_chemical_formula_sum "Si O2"
_cell_formula_units_Z 32
_cell_length_a 5.625769
_cell_length_b 18.589677
_cell_length_c 16.415204
_cell_angle_alpha 90.000000
_cell_angle_beta 59.307942
_cell_angle_gamma 90.000000
_cell_volume 1476.248960
_symmetry_space_group_name_H-M "P 21/C"
_symmetry_group_IT_number 14
_symmetry_cell_setting 'monoclinic'
loop_
_space_group_symop_operation_xyz
x,y,z
-x,1/2+y,1/2-z
-x,-y,-z
x,1/2-y,1/2+z
loop_
_atom_site_type_symbol
_atom_site_label
_atom_site_fract_x
_atom_site_fract_y
_atom_site_fract_z
Si Si1 0.185887 0.402956 0.665541
Si Si2 0.800543 0.464765 0.137528
Si Si3 0.782586 0.085404 0.466869
Si Si4 0.668386 0.062100 0.841882
Si Si5 0.236176 0.310652 0.805534
Si Si6 0.748473 0.665261 0.518094
Si Si7 0.579891 0.098011 0.338823
Si Si8 0.865563 0.311809 0.406642
O O1 0.342603 0.478434 0.633956
O O2 0.316101 0.347727 0.706905
O O3 0.155161 0.367582 0.583624
O O4 0.891772 0.417957 0.758720
O O5 0.774320 0.430902 0.230874
O O6 0.590985 0.532468 0.169357
O O7 0.090523 0.506120 0.073612
O O8 0.737808 0.414185 0.071092
O O9 0.544567 0.097018 0.442219
O O10 0.007397 0.143868 0.397562
O O11 0.375963 0.101279 0.904075
O O12 0.856671 0.107315 0.872139
O O13 0.499697 0.324341 0.816340
O O14 0.084323 0.235941 0.818176
O O15 0.002928 0.695624 0.526042
O O16 0.461154 0.708790 0.546858
#
# Coordination Sequence:
#
# PCOD9240145 Si02
#       8
#     4   4   4   4   4   4   4   4
#     4  11  22  41  69 100 122 177 224 270 332 397
#     4  10  18  35  56  98 129 164 212 272 339 386
#     4   9  19  34  59  90 130 168 216 269 325 402
#     4  10  22  40  66  97 137 169 219 282 331 390
#     4  10  22  42  63  91 132 178 221 278 327 410
#     4  10  26  43  67  95 135 171 220 277 330 398
#     4  10  19  32  68  94 132 164 223 270 328 403
#     4  10  26  44  64  91 140 172 217 280 339 382
#
# _framework density 21.676561
#
# number of rings (size 3 to 8) (size 9 to 14) (size 15 to 20)
#    0.750    1.250    3.750    0.750    7.000    0.500 
#    2.250    1.250    0.000    0.000    0.000    0.000 
#    0.000    0.000    0.000    0.000    0.000    0.000 
#
# Total GULP energy -178156.881900 kJ/mol
# GULP energy per Si atom -5567.402559 kJ/mol
# Density = 2.162722 g / cm^3
# Si number density = 21.676561 Si / 1000 Ang^3
#
#
#
# Elastic Constant Matrix: (Units=GPa)
#
#
# Indices 1 2 3 4 5 6 
#
# 1 69.9175 -0.9790 17.2757 0.0000 25.3562 0.0000
# 2 -0.9790 38.7727 7.1462 0.0000 5.9950 0.0000
# 3 17.2757 7.1462 87.1842 0.0000 29.1176 0.0000
# 4 0.0000 0.0000 0.0000 19.0089 0.0000 2.0166
# 5 25.3562 5.9950 29.1176 0.0000 29.4705 0.0000
# 6 0.0000 0.0000 0.0000 2.0166 0.0000 21.2681
#
#
#
# Elastic Compliance Matrix: (Units=1/GPa)
#
#
# Indices 1 2 3 4 5 6 
#
# 1 0.021685 0.003452 0.002815 0.000000 -0.022141 0.000000
# 2 0.003452 0.027197 -0.000110 0.000000 -0.008394 0.000000
# 3 0.002815 -0.000110 0.017496 0.000000 -0.019686 0.000000
# 4 0.000000 0.000000 0.000000 0.053141 0.000000 -0.005039
# 5 -0.022141 -0.008394 -0.019686 0.000000 0.074140 0.000000
# 6 0.000000 0.000000 0.000000 -0.005039 0.000000 0.047496
#
#
# Mechanical properties :
#
#
# Convention : Reuss Voigt Hill
#
# Bulk Modulus (GPa) = 12.70782 26.97333 19.84058
# Shear Modulus (GPa) = 19.60233 25.44495 22.52364
#
# Velocity S-wave (km/s) = 3.01044 3.42986 3.22697
# Velocity P-wave (km/s) = 4.23779 5.30621 4.80181
#
# Compressibility (1/GPa) = 0.07869167
#
# Stress axis : x y z
#
# Youngs Moduli (GPa) = 46.11476 36.76926 57.15636
#
# Poissons Ratio (x) = -0.12693 -0.16088
# Poissons Ratio (y) = -0.15920 0.00628
# Poissons Ratio (z) = -0.12980 0.00404
#
# Static dielectric constant tensor:
#      x y z
#    x 1.922460 0.000000 0.026230 
#    y 0.000000 1.836180 0.000000 
#    z 0.026230 0.000000 1.782910 
# 
# From -- ./inp_files/38080.got.cif
#   From: 2010.05.17/outbox.cif.g08.bks.cpg/sg14_20_cif.got.tgz:38080.got - 2010.06.03 17:49:19.
