data_PCOD9240931
_publ_section_title
;
Structure prediction by ZEFSAII (Michael W. Deem and Ramdas Pophale) SiO2 
 PCOD9240931
Probable space group: P 21/C
;
_chemical_formula_sum "Si O2"
_cell_formula_units_Z 32
_cell_length_a 12.583477
_cell_length_b 22.512294
_cell_length_c 19.413770
_cell_angle_alpha 90.000000
_cell_angle_beta 162.184885
_cell_angle_gamma 90.000000
_cell_volume 1682.580074
_symmetry_space_group_name_H-M "P 21/C"
_symmetry_group_IT_number 14
_symmetry_cell_setting 'monoclinic'
loop_
_space_group_symop_operation_xyz
x,y,z
-x,1/2+y,1/2-z
-x,-y,-z
x,1/2-y,1/2+z
loop_
_atom_site_type_symbol
_atom_site_label
_atom_site_fract_x
_atom_site_fract_y
_atom_site_fract_z
Si Si1 0.293315 0.818049 0.718173
Si Si2 0.676744 0.417454 0.434286
Si Si3 0.162320 0.225450 0.435353
Si Si4 0.179331 0.465531 0.548382
Si Si5 0.092427 0.934860 0.529821
Si Si6 0.948550 0.301954 0.650680
Si Si7 0.222960 0.255241 0.687434
Si Si8 0.809161 0.141810 0.867393
O O1 0.678273 0.791038 0.955101
O O2 0.240262 0.888242 0.677224
O O3 0.104385 0.793591 0.669985
O O4 0.081164 0.789717 0.523167
O O5 0.787740 0.486193 0.492701
O O6 0.926523 0.373175 0.629713
O O7 0.677022 0.390727 0.356240
O O8 0.289763 0.412606 0.227551
O O9 0.495167 0.181941 0.647352
O O10 0.008584 0.217837 0.265012
O O11 0.571143 0.445053 0.810149
O O12 0.000000 0.500000 0.500000
O O13 0.948134 0.406612 0.399374
O O14 0.000000 0.000000 0.500000
O O15 0.584399 0.276570 0.396313
O O16 0.220703 0.273857 0.765774
O O17 0.123912 0.314934 0.584849
#
# Coordination Sequence:
#
# PCOD9240931 Si02
#       8
#     4   4   4   4   4   4   4   4
#     4  11  21  38  58  87 113 153 197 241 291 351
#     4   9  17  36  54  80 108 146 188 238 281 340
#     4  11  23  35  55  84 121 150 183 237 301 351
#     4   9  19  32  56  87 109 138 192 248 287 329
#     4  10  19  33  59  86 109 145 201 250 283 334
#     4  11  21  36  53  83 118 152 185 234 296 350
#     4  10  20  33  57  78 111 146 191 232 285 342
#     4   9  18  33  54  81 108 142 189 236 282 342
#
# _framework density 19.018412000000001
#
# number of rings (size 3 to 8) (size 9 to 14) (size 15 to 20)
#    0.000    2.000    2.500    2.250    5.250    0.000 
#    0.000    0.625    0.000    3.000    0.000    0.000 
#    0.000    0.000    0.000    0.000    0.000    0.000 
#
# Total GULP energy -178268.366941 kJ/mol
# GULP energy per Si atom -5570.886467 kJ/mol
# Density = 1.897512 g / cm^3
# Si number density = 19.018412 Si / 1000 Ang^3
#
#
#
# Elastic Constant Matrix: (Units=GPa)
#
#
# Indices 1 2 3 4 5 6 
#
# 1 78.5832 27.2153 20.9379 0.0000 6.2210 0.0000
# 2 27.2153 102.9667 12.7987 0.0000 1.4672 0.0000
# 3 20.9379 12.7987 36.2562 0.0000 0.5817 0.0000
# 4 0.0000 0.0000 0.0000 25.9317 0.0000 11.8073
# 5 6.2210 1.4672 0.5817 0.0000 32.5905 0.0000
# 6 0.0000 0.0000 0.0000 11.8073 0.0000 28.2214
#
#
#
# Elastic Compliance Matrix: (Units=1/GPa)
#
#
# Indices 1 2 3 4 5 6 
#
# 1 0.016253 -0.003237 -0.008199 0.000000 -0.002810 0.000000
# 2 -0.003237 0.010807 -0.001948 0.000000 0.000166 0.000000
# 3 -0.008199 -0.001948 0.032987 0.000000 0.001064 0.000000
# 4 0.000000 0.000000 0.000000 0.047638 0.000000 -0.019931
# 5 -0.002810 0.000166 0.001064 0.000000 0.031194 0.000000
# 6 0.000000 0.000000 0.000000 -0.019931 0.000000 0.043773
#
#
# Mechanical properties :
#
#
# Convention : Reuss Voigt Hill
#
# Bulk Modulus (GPa) = 30.04822 37.74552 33.89687
# Shear Modulus (GPa) = 22.67445 27.80564 25.24005
#
# Velocity S-wave (km/s) = 3.45662 3.82781 3.64694
# Velocity P-wave (km/s) = 5.63603 6.27902 5.96619
#
# Compressibility (1/GPa) = 0.03327984
#
# Stress axis : x y z
#
# Youngs Moduli (GPa) = 61.52603 92.53064 30.31508
#
# Poissons Ratio (x) = 0.29951 0.24854
# Poissons Ratio (y) = 0.19915 0.05907
# Poissons Ratio (z) = 0.50442 0.18029
#
# Static dielectric constant tensor:
#      x y z
#    x 1.673030 0.000000 0.048200 
#    y 0.000000 1.726330 0.000000 
#    z 0.048200 0.000000 1.657790 
# 
# From -- ./inp_files/14554.got.cif
#   From: 2010.05.17/outbox.cif.g08.bks.cpg/sg14_8_cif.got.tgz:14554.got - 2010.06.03 17:49:19.
