data_PCOD9240998
_publ_section_title
;
Structure prediction by ZEFSAII (Michael W. Deem and Ramdas Pophale) SiO2 
 PCOD9240998
Probable space group: P 21/C
;
_chemical_formula_sum "Si O2"
_cell_formula_units_Z 32
_cell_length_a 13.506822
_cell_length_b 20.672413
_cell_length_c 5.654835
_cell_angle_alpha 90.000000
_cell_angle_beta 91.381662
_cell_angle_gamma 90.000000
_cell_volume 1578.476065
_symmetry_space_group_name_H-M "P 21/C"
_symmetry_group_IT_number 14
_symmetry_cell_setting 'monoclinic'
loop_
_space_group_symop_operation_xyz
x,y,z
-x,1/2+y,1/2-z
-x,-y,-z
x,1/2-y,1/2+z
loop_
_atom_site_type_symbol
_atom_site_label
_atom_site_fract_x
_atom_site_fract_y
_atom_site_fract_z
Si Si1 0.039766 0.425151 0.996759
Si Si2 0.227155 0.265550 0.687168
Si Si3 0.541644 0.079567 0.774223
Si Si4 0.964184 0.424341 0.491249
Si Si5 0.748536 0.912666 0.698667
Si Si6 0.745828 0.461225 0.514511
Si Si7 0.449277 0.281363 0.208021
Si Si8 0.376753 0.494259 0.120420
O O1 0.008267 0.397124 0.249304
O O2 0.156843 0.418286 0.967354
O O3 0.000000 0.500000 0.000000
O O4 0.997770 0.396629 0.746874
O O5 0.175806 0.249782 0.435024
O O6 0.256155 0.341257 0.696244
O O7 0.328767 0.222876 0.696986
O O8 0.644613 0.071915 0.918397
O O9 0.499119 0.150597 0.764381
O O10 0.445945 0.035062 0.828147
O O11 0.569276 0.050479 0.518850
O O12 0.845659 0.423176 0.473585
O O13 0.000000 0.500000 0.500000
O O14 0.652125 0.934724 0.549475
O O15 0.760088 0.968956 0.892912
O O16 0.723984 0.475702 0.785869
O O17 0.477923 0.239363 0.442404
#
# Coordination Sequence:
#
# PCOD9240998 Si02
#       8
#     4   4   4   4   4   4   4   4
#     4  10  19  34  54  89 122 152 184 234 296 366
#     4  10  23  39  56  86 114 159 205 247 291 351
#     4  10  23  37  53  86 119 163 201 252 303 363
#     4  10  19  34  54  84 126 148 189 228 295 365
#     4  11  22  34  62  88 122 160 200 250 308 377
#     4  11  22  33  59  87 124 161 195 250 307 380
#     4  10  22  39  60  77 109 157 207 250 285 345
#     4  10  21  36  54  85 126 160 195 244 316 367
#
# _framework density 20.272715999999999
#
# number of rings (size 3 to 8) (size 9 to 14) (size 15 to 20)
#    0.000    1.750    2.500    3.375    8.750    0.000 
#    0.000    0.000    0.000    0.000    0.000    5.250 
#    0.000    0.000    0.000    0.000    0.000    0.000 
#
# Total GULP energy -178361.561309 kJ/mol
# GULP energy per Si atom -5573.798791 kJ/mol
# Density = 2.022657 g / cm^3
# Si number density = 20.272716 Si / 1000 Ang^3
#
#
#
# Elastic Constant Matrix: (Units=GPa)
#
#
# Indices 1 2 3 4 5 6 
#
# 1 90.7809 7.4412 12.6562 0.0000 -4.6482 0.0000
# 2 7.4412 28.7649 6.5970 0.0000 0.1348 0.0000
# 3 12.6562 6.5970 117.2249 0.0000 0.4773 0.0000
# 4 0.0000 0.0000 0.0000 11.6414 0.0000 -2.1705
# 5 -4.6482 0.1348 0.4773 0.0000 30.4463 0.0000
# 6 0.0000 0.0000 0.0000 -2.1705 0.0000 9.4234
#
#
#
# Elastic Compliance Matrix: (Units=1/GPa)
#
#
# Indices 1 2 3 4 5 6 
#
# 1 0.011483 -0.002728 -0.001093 0.000000 0.001782 0.000000
# 2 -0.002728 0.035868 -0.001722 0.000000 -0.000548 0.000000
# 3 -0.001093 -0.001722 0.008747 0.000000 -0.000296 0.000000
# 4 0.000000 0.000000 0.000000 0.089755 0.000000 0.020673
# 5 0.001782 -0.000548 -0.000296 0.000000 0.033124 0.000000
# 6 0.000000 0.000000 0.000000 0.020673 0.000000 0.110880
#
#
# Mechanical properties :
#
#
# Convention : Reuss Voigt Hill
#
# Bulk Modulus (GPa) = 22.21692 32.23996 27.22844
# Shear Modulus (GPa) = 15.82549 24.30732 20.06640
#
# Velocity S-wave (km/s) = 2.79701 3.46644 3.14956
# Velocity P-wave (km/s) = 4.62751 5.65325 5.16590
#
# Compressibility (1/GPa) = 0.04501074
#
# Stress axis : x y z
#
# Youngs Moduli (GPa) = 87.08633 27.88024 114.32794
#
# Poissons Ratio (x) = 0.07606 0.12502
# Poissons Ratio (y) = 0.23758 0.19684
# Poissons Ratio (z) = 0.09523 0.04800
#
# Static dielectric constant tensor:
#      x y z
#    x 1.732970 0.000000 0.011230 
#    y 0.000000 1.673870 0.000000 
#    z 0.011230 0.000000 1.828870 
# 
# From -- ./inp_files/3811.got.cif
#   From: 2010.05.17/outbox.cif.g08.bks.cpg/sg14_2_cif.got.tgz:3811.got - 2010.06.03 17:49:19.
