data_PCOD9240974
_publ_section_title
;
Structure prediction by ZEFSAII (Michael W. Deem and Ramdas Pophale) SiO2 
 PCOD9240974
Probable space group: P 21/C
;
_chemical_formula_sum "Si O2"
_cell_formula_units_Z 32
_cell_length_a 11.856386
_cell_length_b 24.877868
_cell_length_c 5.704985
_cell_angle_alpha 90.000000
_cell_angle_beta 113.805535
_cell_angle_gamma 90.000000
_cell_volume 1539.584180
_symmetry_space_group_name_H-M "P 21/C"
_symmetry_group_IT_number 14
_symmetry_cell_setting 'monoclinic'
loop_
_space_group_symop_operation_xyz
x,y,z
-x,1/2+y,1/2-z
-x,-y,-z
x,1/2-y,1/2+z
loop_
_atom_site_type_symbol
_atom_site_label
_atom_site_fract_x
_atom_site_fract_y
_atom_site_fract_z
Si Si1 0.761852 0.734304 0.981825
Si Si2 0.419289 0.623341 0.409456
Si Si3 0.807909 0.972947 0.274414
Si Si4 0.487009 0.940920 0.585484
Si Si5 0.752477 0.075212 0.917692
Si Si6 0.048312 0.543343 0.725802
Si Si7 0.654882 0.617967 0.907139
Si Si8 0.520901 0.273543 0.787152
O O1 0.820197 0.744600 0.773994
O O2 0.737703 0.670680 0.993244
O O3 0.627821 0.764815 0.845466
O O4 0.458273 0.566013 0.333407
O O5 0.286038 0.616599 0.411156
O O6 0.527972 0.637918 0.679917
O O7 0.435224 0.665941 0.217348
O O8 0.716245 0.929402 0.306435
O O9 0.927238 0.941495 0.270508
O O10 0.859354 0.012196 0.521980
O O11 0.759835 0.015262 0.038919
O O12 0.363790 0.922089 0.350147
O O13 0.608555 0.908058 0.610903
O O14 0.500000 0.000000 0.500000
O O15 0.874379 0.084538 0.867183
O O16 0.000000 0.500000 0.500000
O O17 0.564002 0.245417 0.579721
#
# Coordination Sequence:
#
# PCOD9240974 Si02
#       8
#     4   4   4   4   4   4   4   4
#     4  10  19  35  52  75 110 146 186 232 271 328
#     4  11  21  31  51  75 112 146 181 219 275 334
#     4  10  20  36  54  77 106 142 183 231 272 331
#     4  11  21  31  46  75 115 147 173 216 263 335
#     4  10  20  33  50  76 104 144 176 223 266 323
#     4   9  19  37  55  72 104 135 184 227 268 315
#     4  11  21  31  52  79 107 148 183 217 280 333
#     4  10  19  34  52  73 108 147 189 232 268 327
#
# _framework density 20.784832000000002
#
# number of rings (size 3 to 8) (size 9 to 14) (size 15 to 20)
#    0.000    1.750    2.500    4.500    1.750    3.000 
#    0.000    0.000    0.000    0.000    0.000    1.750 
#    0.000    0.000    0.000    0.000    0.000    0.000 
#
# Total GULP energy -178388.759469 kJ/mol
# GULP energy per Si atom -5574.648733 kJ/mol
# Density = 2.073752 g / cm^3
# Si number density = 20.784832 Si / 1000 Ang^3
#
#
#
# Elastic Constant Matrix: (Units=GPa)
#
#
# Indices 1 2 3 4 5 6 
#
# 1 90.4580 22.3527 23.4110 0.0000 -23.2371 0.0000
# 2 22.3527 42.6199 2.2871 0.0000 -8.4002 0.0000
# 3 23.4110 2.2871 70.0718 0.0000 -21.1804 0.0000
# 4 0.0000 0.0000 0.0000 25.2959 0.0000 -16.7446
# 5 -23.2371 -8.4002 -21.1804 0.0000 29.6831 0.0000
# 6 0.0000 0.0000 0.0000 -16.7446 0.0000 19.2904
#
#
#
# Elastic Compliance Matrix: (Units=1/GPa)
#
#
# Indices 1 2 3 4 5 6 
#
# 1 0.015426 -0.006263 -0.002340 0.000000 0.008634 0.000000
# 2 -0.006263 0.027547 0.002636 0.000000 0.004774 0.000000
# 3 -0.002340 0.002636 0.018664 0.000000 0.012232 0.000000
# 4 0.000000 0.000000 0.000000 0.092927 0.000000 0.080663
# 5 0.008634 0.004774 0.012232 0.000000 0.050528 0.000000
# 6 0.000000 0.000000 0.000000 0.080663 0.000000 0.121857
#
#
# Mechanical properties :
#
#
# Convention : Reuss Voigt Hill
#
# Bulk Modulus (GPa) = 20.11867 33.25014 26.68441
# Shear Modulus (GPa) = 14.06668 25.19379 19.63023
#
# Velocity S-wave (km/s) = 2.60431 3.48533 3.07652
# Velocity P-wave (km/s) = 4.32941 5.67704 5.04839
#
# Compressibility (1/GPa) = 0.04970507
#
# Stress axis : x y z
#
# Youngs Moduli (GPa) = 64.82572 36.30099 53.57868
#
# Poissons Ratio (x) = 0.22736 0.12535
# Poissons Ratio (y) = 0.40601 -0.14125
# Poissons Ratio (z) = 0.15166 -0.09570
#
# Static dielectric constant tensor:
#      x y z
#    x 1.787340 0.000000 -0.060160 
#    y 0.000000 1.813390 0.000000 
#    z -0.060160 0.000000 1.847960 
# 
# From -- ./inp_files/3215.got.cif
#   From: 2010.05.17/outbox.cif.g08.bks.cpg/sg14_2_cif.got.tgz:3215.got - 2010.06.03 17:49:19.
