data_PCOD9240612
_publ_section_title
;
Structure prediction by ZEFSAII (Michael W. Deem and Ramdas Pophale) SiO2 
 PCOD9240612
Probable space group: P 21/C
;
_chemical_formula_sum "Si O2"
_cell_formula_units_Z 28
_cell_length_a 5.188322
_cell_length_b 13.260814
_cell_length_c 17.217662
_cell_angle_alpha 90.000000
_cell_angle_beta 106.435759
_cell_angle_gamma 90.000000
_cell_volume 1136.193207
_symmetry_space_group_name_H-M "P 21/C"
_symmetry_group_IT_number 14
_symmetry_cell_setting 'monoclinic'
loop_
_space_group_symop_operation_xyz
x,y,z
-x,1/2+y,1/2-z
-x,-y,-z
x,1/2-y,1/2+z
loop_
_atom_site_type_symbol
_atom_site_label
_atom_site_fract_x
_atom_site_fract_y
_atom_site_fract_z
Si Si1 0.161508 0.560975 0.740145
Si Si2 0.559924 0.235103 0.265915
Si Si3 0.091572 0.240113 0.091800
Si Si4 0.500402 0.073018 0.373194
Si Si5 0.961509 0.040701 0.595415
Si Si6 0.277840 0.443310 0.532642
Si Si7 0.252226 0.592629 0.336523
O O1 0.284424 0.660508 0.715124
O O2 0.395542 0.486761 0.787856
O O3 0.019875 0.577734 0.812173
O O4 0.941477 0.501925 0.673381
O O5 0.325145 0.246853 0.179618
O O6 0.765653 0.153466 0.245334
O O7 0.480206 0.187879 0.342058
O O8 0.981551 0.349202 0.058677
O O9 0.851144 0.173588 0.108771
O O10 0.207171 0.176158 0.028642
O O11 0.298181 0.031700 0.421345
O O12 0.793218 0.027651 0.411250
O O13 0.500000 0.500000 0.500000
O O14 0.445204 0.445687 0.627150
O O15 0.000000 0.500000 0.500000
#
# Coordination Sequence:
#
# PCOD9240612 Si02
#       7
#     4   4   4   4   4   4   4
#     4  10  20  30  51  77 112 147 193 215 270 345
#     4  11  19  31  50  80 113 157 182 224 273 344
#     4  11  19  33  57  76 108 149 189 228 290 339
#     4  10  19  31  45  69 113 144 177 220 256 313
#     4  10  19  32  47  75 105 143 182 223 260 334
#     4  11  24  39  55  78 109 147 198 251 290 337
#     4  11  20  34  55  79 110 161 183 229 288 337
#
# _framework density 24.643698000000001
#
# number of rings (size 3 to 8) (size 9 to 14) (size 15 to 20)
#    0.857    0.571    7.143    0.000    2.000    0.000 
#    0.000    0.000    0.000    0.000    0.000    0.000 
#    0.000    6.857    0.000    1.571    0.000    0.000 
#
# Total GULP energy -156154.190604 kJ/mol
# GULP energy per Si atom -5576.935379 kJ/mol
# Density = 2.458761 g / cm^3
# Si number density = 24.643698 Si / 1000 Ang^3
#
#
#
# Elastic Constant Matrix: (Units=GPa)
#
#
# Indices 1 2 3 4 5 6 
#
# 1 152.5052 52.8759 20.4884 0.0000 16.6438 0.0000
# 2 52.8759 130.5166 33.6781 0.0000 12.0295 0.0000
# 3 20.4884 33.6781 46.5745 0.0000 2.0107 0.0000
# 4 0.0000 0.0000 0.0000 23.0263 0.0000 -7.6061
# 5 16.6438 12.0295 2.0107 0.0000 38.5861 0.0000
# 6 0.0000 0.0000 0.0000 -7.6061 0.0000 48.5344
#
#
#
# Elastic Compliance Matrix: (Units=1/GPa)
#
#
# Indices 1 2 3 4 5 6 
#
# 1 0.007935 -0.002592 -0.001507 0.000000 -0.002536 0.000000
# 2 -0.002592 0.010531 -0.006396 0.000000 -0.001832 0.000000
# 3 -0.001507 -0.006396 0.026705 0.000000 0.001252 0.000000
# 4 0.000000 0.000000 0.000000 0.045799 0.000000 0.007178
# 5 -0.002536 -0.001832 0.001252 0.000000 0.027516 0.000000
# 6 0.000000 0.000000 0.000000 0.007178 0.000000 0.021729
#
#
# Mechanical properties :
#
#
# Convention : Reuss Voigt Hill
#
# Bulk Modulus (GPa) = 41.35408 60.40902 50.88155
# Shear Modulus (GPa) = 29.53951 36.86627 33.20289
#
# Velocity S-wave (km/s) = 3.46593 3.87198 3.67456
# Velocity P-wave (km/s) = 5.73011 6.67501 6.22053
#
# Compressibility (1/GPa) = 0.02418141
#
# Stress axis : x y z
#
# Youngs Moduli (GPa) = 126.02210 94.95600 37.44684
#
# Poissons Ratio (x) = 0.24614 0.05642
# Poissons Ratio (y) = 0.32667 0.23950
# Poissons Ratio (z) = 0.18989 0.60731
#
# Static dielectric constant tensor:
#      x y z
#    x 2.000020 0.000000 -0.026930 
#    y 0.000000 1.976740 0.000000 
#    z -0.026930 0.000000 2.051400 
# 
# From -- ./inp_files/75768.got.cif
#   From: 2010.05.17/outbox.cif.g08.bks.cpg/sg14_38_cif.got.tgz:75768.got - 2010.06.03 17:49:19.
