data_PCOD9240066
_publ_section_title
;
Structure prediction by ZEFSAII (Michael W. Deem and Ramdas Pophale) SiO2 
 PCOD9240066
Probable space group: P 21/C
;
_chemical_formula_sum "Si O2"
_cell_formula_units_Z 32
_cell_length_a 15.918688
_cell_length_b 5.543107
_cell_length_c 22.718269
_cell_angle_alpha 90.000000
_cell_angle_beta 124.184011
_cell_angle_gamma 90.000000
_cell_volume 1658.310803
_symmetry_space_group_name_H-M "P 21/C"
_symmetry_group_IT_number 14
_symmetry_cell_setting 'monoclinic'
loop_
_space_group_symop_operation_xyz
x,y,z
-x,1/2+y,1/2-z
-x,-y,-z
x,1/2-y,1/2+z
loop_
_atom_site_type_symbol
_atom_site_label
_atom_site_fract_x
_atom_site_fract_y
_atom_site_fract_z
Si Si1 0.246289 0.355995 0.334206
Si Si2 0.902790 0.252429 0.776789
Si Si3 0.711176 0.327200 0.026657
Si Si4 0.105685 0.481636 0.844631
Si Si5 0.593358 0.284368 0.595354
Si Si6 0.559863 0.594082 0.286368
Si Si7 0.283732 0.530701 0.751514
Si Si8 0.370939 0.181016 0.052764
O O1 0.169942 0.567448 0.287424
O O2 0.357017 0.452651 0.392528
O O3 0.192122 0.215169 0.364961
O O4 0.258416 0.200180 0.280774
O O5 0.928214 0.060287 0.734943
O O6 0.826721 0.155765 0.796804
O O7 0.006297 0.378387 0.836301
O O8 0.829126 0.325896 0.093433
O O9 0.641094 0.350827 0.058107
O O10 0.688395 0.565176 0.978794
O O11 0.683151 0.069682 0.987051
O O12 0.642549 0.182650 0.675493
O O13 0.474372 0.291648 0.555729
O O14 0.506692 0.844730 0.243068
O O15 0.656035 0.535488 0.282751
O O16 0.593833 0.645799 0.366102
#
# Coordination Sequence:
#
# PCOD9240066 Si02
#       8
#     4   4   4   4   4   4   4   4
#     4  10  18  34  58  92 125 155 207 259 321 374
#     4  10  20  34  59  94 121 166 210 265 327 368
#     4  12  25  40  60  91 136 170 203 253 317 408
#     4  11  20  34  60  87 132 164 205 259 319 384
#     4  11  21  38  59  90 130 165 206 251 326 381
#     4  12  25  46  71  90 125 168 225 276 305 364
#     4  10  22  37  64  95 120 164 211 281 316 365
#     4  12  27  41  61  93 125 179 210 248 324 381
#
# _framework density 19.296742999999999
#
# number of rings (size 3 to 8) (size 9 to 14) (size 15 to 20)
#    0.000    1.000    6.250    3.000    3.500    0.000 
#    0.000    0.000    0.000    1.500    0.000    0.000 
#    0.000    0.000    0.000    0.000    0.000    0.000 
#
# Total GULP energy -178471.512315 kJ/mol
# GULP energy per Si atom -5577.234760 kJ/mol
# Density = 1.925282 g / cm^3
# Si number density = 19.296743 Si / 1000 Ang^3
#
#
#
# Elastic Constant Matrix: (Units=GPa)
#
#
# Indices 1 2 3 4 5 6 
#
# 1 105.0399 29.8303 31.6638 0.0000 1.3200 0.0000
# 2 29.8303 78.9270 25.3163 0.0000 9.9953 0.0000
# 3 31.6638 25.3163 81.1197 0.0000 -3.4330 0.0000
# 4 0.0000 0.0000 0.0000 26.8321 0.0000 -3.4052
# 5 1.3200 9.9953 -3.4330 0.0000 17.8420 0.0000
# 6 0.0000 0.0000 0.0000 -3.4052 0.0000 7.9917
#
#
#
# Elastic Compliance Matrix: (Units=1/GPa)
#
#
# Indices 1 2 3 4 5 6 
#
# 1 0.011486 -0.003276 -0.003447 0.000000 0.000322 0.000000
# 2 -0.003276 0.016534 -0.004298 0.000000 -0.009847 0.000000
# 3 -0.003447 -0.004298 0.015251 0.000000 0.005597 0.000000
# 4 0.000000 0.000000 0.000000 0.039399 0.000000 0.016788
# 5 0.000322 -0.009847 0.005597 0.000000 0.062617 0.000000
# 6 0.000000 0.000000 0.000000 0.016788 0.000000 0.132283
#
#
# Mechanical properties :
#
#
# Convention : Reuss Voigt Hill
#
# Bulk Modulus (GPa) = 47.10706 48.74527 47.92616
# Shear Modulus (GPa) = 16.30320 22.41824 19.36072
#
# Velocity S-wave (km/s) = 2.90981 3.41216 3.17095
# Velocity P-wave (km/s) = 5.97949 6.39058 6.18845
#
# Compressibility (1/GPa) = 0.02122824
#
# Stress axis : x y z
#
# Youngs Moduli (GPa) = 87.06514 60.48247 65.56857
#
# Poissons Ratio (x) = 0.19815 0.22603
# Poissons Ratio (y) = 0.28523 0.28181
# Poissons Ratio (z) = 0.30013 0.25995
#
# Static dielectric constant tensor:
#      x y z
#    x 1.660680 0.000000 0.018650 
#    y 0.000000 1.799860 0.000000 
#    z 0.018650 0.000000 1.682340 
# 
# From -- ./inp_files/67879.got.cif
#   From: 2010.05.17/outbox.cif.g08.bks.cpg/sg14_34_cif.got.tgz:67879.got - 2010.06.03 17:49:19.
