data_PCOD9240958
_publ_section_title
;
Structure prediction by ZEFSAII (Michael W. Deem and Ramdas Pophale) SiO2 
 PCOD9240958
Probable space group: P 21/C
;
_chemical_formula_sum "Si O2"
_cell_formula_units_Z 24
_cell_length_a 11.381529
_cell_length_b 12.528458
_cell_length_c 14.039311
_cell_angle_alpha 90.000000
_cell_angle_beta 30.352283
_cell_angle_gamma 90.000000
_cell_volume 1011.594475
_symmetry_space_group_name_H-M "P 21/C"
_symmetry_group_IT_number 14
_symmetry_cell_setting 'monoclinic'
loop_
_space_group_symop_operation_xyz
x,y,z
-x,1/2+y,1/2-z
-x,-y,-z
x,1/2-y,1/2+z
loop_
_atom_site_type_symbol
_atom_site_label
_atom_site_fract_x
_atom_site_fract_y
_atom_site_fract_z
Si Si1 0.986379 0.809134 0.778983
Si Si2 0.703016 0.611318 0.051787
Si Si3 0.408914 0.841764 0.585633
Si Si4 0.707111 0.132644 0.711460
Si Si5 0.893165 0.555958 0.182893
Si Si6 0.548597 0.236393 0.641337
O O1 0.154454 0.879995 0.728425
O O2 0.180673 0.751689 0.576837
O O3 0.849851 0.717209 0.925642
O O4 0.825955 0.878851 0.822726
O O5 0.545034 0.590304 0.068620
O O6 0.885529 0.517810 0.941472
O O7 0.548024 0.653734 0.248423
O O8 0.345416 0.731392 0.683968
O O9 0.547251 0.810691 0.391494
O O10 0.551236 0.151008 0.726298
O O11 0.703974 0.022177 0.771036
O O12 0.977049 0.131480 0.484863
#
# Coordination Sequence:
#
# PCOD9240958 Si02
#       6
#     4   4   4   4   4   4
#     4   9  20  39  52  86 122 142 197 247 280 348
#     4  11  20  37  62  82 116 163 186 237 310 331
#     4   9  19  38  57  85 120 152 193 241 284 354
#     4   9  17  35  56  86 116 144 197 244 270 346
#     4  10  19  33  62  88 112 157 196 237 295 340
#     4   8  19  36  54  84 114 150 192 232 284 349
#
# _framework density 23.724920999999998
#
# number of rings (size 3 to 8) (size 9 to 14) (size 15 to 20)
#    1.000    1.667    1.667    0.000    0.000    4.667 
#    0.000   14.167    0.000    1.000    0.000    0.000 
#    0.000    0.000    0.000    0.000    0.000    0.000 
#
# Total GULP energy -133778.076475 kJ/mol
# GULP energy per Si atom -5574.086520 kJ/mol
# Density = 2.367092 g / cm^3
# Si number density = 23.724921 Si / 1000 Ang^3
#
#
#
# Elastic Constant Matrix: (Units=GPa)
#
#
# Indices 1 2 3 4 5 6 
#
# 1 130.0558 33.0959 18.9842 0.0000 19.0862 0.0000
# 2 33.0959 63.6847 19.5942 0.0000 5.3803 0.0000
# 3 18.9842 19.5942 55.8381 0.0000 5.6664 0.0000
# 4 0.0000 0.0000 0.0000 31.0595 0.0000 -7.6131
# 5 19.0862 5.3803 5.6664 0.0000 35.4185 0.0000
# 6 0.0000 0.0000 0.0000 -7.6131 0.0000 50.9053
#
#
#
# Elastic Compliance Matrix: (Units=1/GPa)
#
#
# Indices 1 2 3 4 5 6 
#
# 1 0.009588 -0.004204 -0.001347 0.000000 -0.004313 0.000000
# 2 -0.004204 0.019549 -0.005448 0.000000 0.000167 0.000000
# 3 -0.001347 -0.005448 0.020453 0.000000 -0.001719 0.000000
# 4 0.000000 0.000000 0.000000 0.033421 0.000000 0.004998
# 5 -0.004313 0.000167 -0.001719 0.000000 0.030807 0.000000
# 6 0.000000 0.000000 0.000000 0.004998 0.000000 0.020392
#
#
# Mechanical properties :
#
#
# Convention : Reuss Voigt Hill
#
# Bulk Modulus (GPa) = 36.24117 43.65859 39.94988
# Shear Modulus (GPa) = 30.22859 35.33695 32.78277
#
# Velocity S-wave (km/s) = 3.57337 3.86352 3.72127
# Velocity P-wave (km/s) = 5.68630 6.19228 5.94467
#
# Compressibility (1/GPa) = 0.02759293
#
# Stress axis : x y z
#
# Youngs Moduli (GPa) = 104.29263 51.15313 48.89279
#
# Poissons Ratio (x) = 0.21506 0.06586
# Poissons Ratio (y) = 0.43846 0.26635
# Poissons Ratio (z) = 0.14048 0.27866
#
# Static dielectric constant tensor:
#      x y z
#    x 2.063070 0.000000 0.029040 
#    y 0.000000 1.905740 0.000000 
#    z 0.029040 0.000000 1.912910 
# 
# From -- ./inp_files/44747.got.cif
#   From: 2010.05.17/outbox.cif.g08.bks.cpg/sg14_23_cif.got.tgz:44747.got - 2010.06.03 17:49:19.
