data_PCOD9240246
_publ_section_title
;
Structure prediction by ZEFSAII (Michael W. Deem and Ramdas Pophale) SiO2 
 PCOD9240246
Probable space group: P 21/C
;
_chemical_formula_sum "Si O2"
_cell_formula_units_Z 28
_cell_length_a 10.704898
_cell_length_b 16.607525
_cell_length_c 8.080165
_cell_angle_alpha 90.000000
_cell_angle_beta 132.513822
_cell_angle_gamma 90.000000
_cell_volume 1058.869736
_symmetry_space_group_name_H-M "P 21/C"
_symmetry_group_IT_number 14
_symmetry_cell_setting 'monoclinic'
loop_
_space_group_symop_operation_xyz
x,y,z
-x,1/2+y,1/2-z
-x,-y,-z
x,1/2-y,1/2+z
loop_
_atom_site_type_symbol
_atom_site_label
_atom_site_fract_x
_atom_site_fract_y
_atom_site_fract_z
Si Si1 0.196923 0.071409 0.803237
Si Si2 0.601921 0.203741 0.617906
Si Si3 0.251277 0.143424 0.310895
Si Si4 0.870434 0.710164 0.975746
Si Si5 0.230842 0.836589 0.918728
Si Si6 0.156565 0.988332 0.406065
Si Si7 0.432552 0.883225 0.798684
O O1 0.156947 0.164215 0.721298
O O2 0.185042 0.031915 0.609867
O O3 0.387817 0.071688 0.041765
O O4 0.040358 0.037719 0.769324
O O5 0.439839 0.155976 0.410378
O O6 0.718939 0.245944 0.588712
O O7 0.538972 0.287015 0.653040
O O8 0.711583 0.152436 0.843963
O O9 0.264652 0.184870 0.506507
O O10 0.133585 0.197210 0.085184
O O11 0.199031 0.052412 0.301176
O O12 0.034656 0.667906 0.203394
O O13 0.333880 0.894466 0.889016
O O14 0.294443 0.916763 0.544646
#
# Coordination Sequence:
#
# PCOD9240246 Si02
#       7
#     4   4   4   4   4   4   4
#     4  10  18  36  55  87 117 157 190 247 304 350
#     4  10  20  36  59  86 120 156 204 240 299 356
#     4  11  22  38  61  91 117 159 200 250 299 357
#     4  11  20  37  60  87 122 157 198 249 296 360
#     4  10  20  35  59  92 114 155 204 245 295 356
#     4  10  21  34  58  90 121 146 206 252 297 349
#     4  10  20  36  60  85 123 158 194 251 308 339
#
# _framework density 26.443290999999999
#
# number of rings (size 3 to 8) (size 9 to 14) (size 15 to 20)
#    0.857    0.857    2.857    3.857    0.000    0.000 
#    2.571    0.000    0.000    6.857    0.000    0.000 
#    0.000    0.000    0.000    0.000    0.000    0.000 
#
# Total GULP energy -156427.882733 kJ/mol
# GULP energy per Si atom -5586.710098 kJ/mol
# Density = 2.638310 g / cm^3
# Si number density = 26.443291 Si / 1000 Ang^3
#
#
#
# Elastic Constant Matrix: (Units=GPa)
#
#
# Indices 1 2 3 4 5 6 
#
# 1 47.8216 15.4307 19.7828 0.0000 14.4053 0.0000
# 2 15.4307 99.4788 24.3805 0.0000 6.8496 0.0000
# 3 19.7828 24.3805 111.0352 0.0000 14.8069 0.0000
# 4 0.0000 0.0000 0.0000 41.7601 0.0000 -3.8982
# 5 14.4053 6.8496 14.8069 0.0000 54.5273 0.0000
# 6 0.0000 0.0000 0.0000 -3.8982 0.0000 38.7260
#
#
#
# Elastic Compliance Matrix: (Units=1/GPa)
#
#
# Indices 1 2 3 4 5 6 
#
# 1 0.024669 -0.002702 -0.003090 0.000000 -0.005339 0.000000
# 2 -0.002702 0.010948 -0.001903 0.000000 -0.000145 0.000000
# 3 -0.003090 -0.001903 0.010203 0.000000 -0.001715 0.000000
# 4 0.000000 0.000000 0.000000 0.024173 0.000000 0.002433
# 5 -0.005339 -0.000145 -0.001715 0.000000 0.020234 0.000000
# 6 0.000000 0.000000 0.000000 0.002433 0.000000 0.026067
#
#
# Mechanical properties :
#
#
# Convention : Reuss Voigt Hill
#
# Bulk Modulus (GPa) = 32.86170 41.94705 37.40438
# Shear Modulus (GPa) = 35.25378 40.25211 37.75295
#
# Velocity S-wave (km/s) = 3.65524 3.90578 3.78258
# Velocity P-wave (km/s) = 5.50169 6.01977 5.76655
#
# Compressibility (1/GPa) = 0.03043057
#
# Stress axis : x y z
#
# Youngs Moduli (GPa) = 40.53615 91.34195 98.00705
#
# Poissons Ratio (x) = 0.24678 0.30285
# Poissons Ratio (y) = 0.10952 0.18653
# Poissons Ratio (z) = 0.12526 0.17384
#
# Static dielectric constant tensor:
#      x y z
#    x 2.120260 0.000000 -0.014870 
#    y 0.000000 2.168750 0.000000 
#    z -0.014870 0.000000 2.076610 
# 
# From -- ./inp_files/32937.got.cif
#   From: 2010.05.17/outbox.cif.g08.bks.cpg/sg14_17_cif.got.tgz:32937.got - 2010.06.03 17:49:19.
