data_PCOD9240621
_publ_section_title
;
Structure prediction by ZEFSAII (Michael W. Deem and Ramdas Pophale) SiO2 
 PCOD9240621
Probable space group: P 21/C
;
_chemical_formula_sum "Si O2"
_cell_formula_units_Z 24
_cell_length_a 20.011187
_cell_length_b 6.950883
_cell_length_c 14.897266
_cell_angle_alpha 90.000000
_cell_angle_beta 154.779755
_cell_angle_gamma 90.000000
_cell_volume 882.937361
_symmetry_space_group_name_H-M "P 21/C"
_symmetry_group_IT_number 14
_symmetry_cell_setting 'monoclinic'
loop_
_space_group_symop_operation_xyz
x,y,z
-x,1/2+y,1/2-z
-x,-y,-z
x,1/2-y,1/2+z
loop_
_atom_site_type_symbol
_atom_site_label
_atom_site_fract_x
_atom_site_fract_y
_atom_site_fract_z
Si Si1 0.003619 0.691032 0.176893
Si Si2 0.324667 0.231574 0.544677
Si Si3 0.670736 0.174945 0.895080
Si Si4 0.670885 0.275428 0.687556
Si Si5 0.669046 0.812654 0.253897
Si Si6 0.999570 0.249910 0.114159
O O1 0.178330 0.767710 0.371439
O O2 0.004029 0.673486 0.286568
O O3 0.990538 0.480804 0.117112
O O4 0.838740 0.788354 0.948536
O O5 0.496697 0.219891 0.714881
O O6 0.304873 0.449108 0.556049
O O7 0.321151 0.107333 0.631950
O O8 0.175984 0.197899 0.299446
O O9 0.676132 0.217380 0.797354
O O10 0.499466 0.207226 0.447792
O O11 0.660840 0.510053 0.673698
O O12 0.843956 0.208830 0.867013
#
# Coordination Sequence:
#
# PCOD9240621 Si02
#       6
#     4   4   4   4   4   4
#     4   8  15  28  46  67  89 117 152 186 223 269
#     4  10  19  31  48  69  94 123 155 190 226 268
#     4  10  19  31  48  69  94 123 155 190 226 268
#     4   9  17  31  51  72  93 118 150 189 232 276
#     4   9  17  31  51  72  93 118 150 189 232 276
#     4   8  15  28  46  67  89 117 152 186 223 269
#
# _framework density 27.181996000000002
#
# number of rings (size 3 to 8) (size 9 to 14) (size 15 to 20)
#    0.000    3.000    0.000    1.000    0.000    2.000 
#    0.000    1.667    0.000   10.000    0.000    0.000 
#    0.000    0.000    0.000    0.000    0.000    0.000 
#
# Total GULP energy -133848.532950 kJ/mol
# GULP energy per Si atom -5577.022206 kJ/mol
# Density = 2.712013 g / cm^3
# Si number density = 27.181996 Si / 1000 Ang^3
#
#
#
# Elastic Constant Matrix: (Units=GPa)
#
#
# Indices 1 2 3 4 5 6 
#
# 1 42.8488 -2.9269 35.6078 0.0000 2.5727 0.0000
# 2 -2.9269 76.1552 18.5931 0.0000 0.8164 0.0000
# 3 35.6078 18.5931 354.6090 0.0000 56.7964 0.0000
# 4 0.0000 0.0000 0.0000 18.4871 0.0000 2.1942
# 5 2.5727 0.8164 56.7964 0.0000 45.0241 0.0000
# 6 0.0000 0.0000 0.0000 2.1942 0.0000 19.0119
#
#
#
# Elastic Compliance Matrix: (Units=1/GPa)
#
#
# Indices 1 2 3 4 5 6 
#
# 1 0.025860 0.001717 -0.003064 0.000000 0.002357 0.000000
# 2 0.001717 0.013438 -0.001030 0.000000 0.000958 0.000000
# 3 -0.003064 -0.001030 0.003948 0.000000 -0.004787 0.000000
# 4 0.000000 0.000000 0.000000 0.054843 0.000000 -0.006330
# 5 0.002357 0.000958 -0.004787 0.000000 0.028097 0.000000
# 6 0.000000 0.000000 0.000000 -0.006330 0.000000 0.053329
#
#
# Mechanical properties :
#
#
# Convention : Reuss Voigt Hill
#
# Bulk Modulus (GPa) = 25.98005 64.01788 44.99897
# Shear Modulus (GPa) = 25.36755 44.66054 35.01405
#
# Velocity S-wave (km/s) = 3.05823 4.05781 3.59295
# Velocity P-wave (km/s) = 4.69562 6.74961 5.81404
#
# Compressibility (1/GPa) = 0.03849107
#
# Stress axis : x y z
#
# Youngs Moduli (GPa) = 38.66976 74.41379 253.26399
#
# Poissons Ratio (x) = -0.12775 0.77604
# Poissons Ratio (y) = -0.06639 0.26098
# Poissons Ratio (z) = 0.11849 0.07668
#
# Static dielectric constant tensor:
#      x y z
#    x 2.178170 0.000000 0.108080 
#    y 0.000000 2.193280 0.000000 
#    z 0.108080 0.000000 2.215510 
# 
# From -- ./inp_files/54474.got.cif
#   From: 2010.05.17/outbox.cif.g08.bks.cpg/sg14_28_cif.got.tgz:54474.got - 2010.06.03 17:49:19.
