data_PCOD9240468
_publ_section_title
;
Structure prediction by ZEFSAII (Michael W. Deem and Ramdas Pophale) SiO2 
 PCOD9240468
Probable space group: P 21/C
;
_chemical_formula_sum "Si O2"
_cell_formula_units_Z 24
_cell_length_a 22.711597
_cell_length_b 4.968244
_cell_length_c 17.890528
_cell_angle_alpha 90.000000
_cell_angle_beta 37.780038
_cell_angle_gamma 90.000000
_cell_volume 1236.725258
_symmetry_space_group_name_H-M "P 21/C"
_symmetry_group_IT_number 14
_symmetry_cell_setting 'monoclinic'
loop_
_space_group_symop_operation_xyz
x,y,z
-x,1/2+y,1/2-z
-x,-y,-z
x,1/2-y,1/2+z
loop_
_atom_site_type_symbol
_atom_site_label
_atom_site_fract_x
_atom_site_fract_y
_atom_site_fract_z
Si Si1 0.104870 0.139527 0.980680
Si Si2 0.998869 0.978508 0.305918
Si Si3 0.435695 0.300788 0.313828
Si Si4 0.253451 0.541687 0.442147
Si Si5 0.900056 0.671506 0.685855
Si Si6 0.251788 0.068495 0.545837
O O1 0.123416 0.219059 0.876855
O O2 0.190383 0.966137 0.931168
O O3 0.087545 0.390181 0.053081
O O4 0.001979 0.986107 0.086170
O O5 0.792095 0.681312 0.456561
O O6 0.976787 0.231162 0.273874
O O7 0.077585 0.063159 0.288290
O O8 0.498893 0.552126 0.277410
O O9 0.362031 0.424767 0.326233
O O10 0.360742 0.174477 0.449242
O O11 0.257555 0.816380 0.484388
O O12 0.813867 0.525603 0.816363
#
# Coordination Sequence:
#
# PCOD9240468 Si02
#       6
#     4   4   4   4   4   4
#     4  11  26  42  60  93 137 177 214 262 320 378
#     4  12  25  40  65  84 124 172 224 266 303 366
#     4  10  18  38  66  96 118 150 210 278 332 372
#     4  10  23  37  64  94 119 164 211 261 318 383
#     4  11  26  42  60  93 137 177 214 262 320 378
#     4  10  23  37  64  94 119 164 211 261 318 383
#
# _framework density 19.406086999999999
#
# number of rings (size 3 to 8) (size 9 to 14) (size 15 to 20)
#    1.000    0.333    3.333    1.500    9.333    0.000 
#    0.000    0.000    0.000    2.000    0.000    0.000 
#    0.000    0.000    0.000    0.000    0.000    0.000 
#
# Total GULP energy -133713.253163 kJ/mol
# GULP energy per Si atom -5571.385548 kJ/mol
# Density = 1.936192 g / cm^3
# Si number density = 19.406087 Si / 1000 Ang^3
#
#
#
# Elastic Constant Matrix: (Units=GPa)
#
#
# Indices 1 2 3 4 5 6 
#
# 1 95.4203 37.0781 54.1527 0.0000 6.3274 0.0000
# 2 37.0781 124.8530 27.3139 0.0000 -0.7256 0.0000
# 3 54.1527 27.3139 86.0218 0.0000 -17.7124 0.0000
# 4 0.0000 0.0000 0.0000 23.2417 0.0000 -7.1543
# 5 6.3274 -0.7256 -17.7124 0.0000 28.8870 0.0000
# 6 0.0000 0.0000 0.0000 -7.1543 0.0000 13.8522
#
#
#
# Elastic Compliance Matrix: (Units=1/GPa)
#
#
# Indices 1 2 3 4 5 6 
#
# 1 0.021337 -0.003054 -0.015383 0.000000 -0.014182 0.000000
# 2 -0.003054 0.009115 -0.000901 0.000000 0.000345 0.000000
# 3 -0.015383 -0.000901 0.025504 0.000000 0.018985 0.000000
# 4 0.000000 0.000000 0.000000 0.051159 0.000000 0.026422
# 5 -0.014182 0.000345 0.018985 0.000000 0.049374 0.000000
# 6 0.000000 0.000000 0.000000 0.026422 0.000000 0.085837
#
#
# Mechanical properties :
#
#
# Convention : Reuss Voigt Hill
#
# Bulk Modulus (GPa) = 57.86476 60.37604 59.12040
# Shear Modulus (GPa) = 17.43612 25.71289 21.57450
#
# Velocity S-wave (km/s) = 3.00073 3.64399 3.33789
# Velocity P-wave (km/s) = 6.47213 6.99173 6.73694
#
# Compressibility (1/GPa) = 0.01728167
#
# Stress axis : x y z
#
# Youngs Moduli (GPa) = 46.86708 109.70487 39.20973
#
# Poissons Ratio (x) = 0.33500 0.60315
# Poissons Ratio (y) = 0.14312 0.03532
# Poissons Ratio (z) = 0.72094 0.09883
#
# Static dielectric constant tensor:
#      x y z
#    x 1.684790 0.000000 -0.052720 
#    y 0.000000 1.769170 0.000000 
#    z -0.052720 0.000000 1.741800 
# 
# From -- ./inp_files/69996.got.cif
#   From: 2010.05.17/outbox.cif.g08.bks.cpg/sg14_35_cif.got.tgz:69996.got - 2010.06.03 17:49:19.
