data_PCOD9240727
_publ_section_title
;
Structure prediction by ZEFSAII (Michael W. Deem and Ramdas Pophale) SiO2 
 PCOD9240727
Probable space group: P 21/C
;
_chemical_formula_sum "Si O2"
_cell_formula_units_Z 16
_cell_length_a 23.552483
_cell_length_b 5.130436
_cell_length_c 10.061305
_cell_angle_alpha 90.000000
_cell_angle_beta 25.581272
_cell_angle_gamma 90.000000
_cell_volume 524.951065
_symmetry_space_group_name_H-M "P 21/C"
_symmetry_group_IT_number 14
_symmetry_cell_setting 'monoclinic'
loop_
_space_group_symop_operation_xyz
x,y,z
-x,1/2+y,1/2-z
-x,-y,-z
x,1/2-y,1/2+z
loop_
_atom_site_type_symbol
_atom_site_label
_atom_site_fract_x
_atom_site_fract_y
_atom_site_fract_z
Si Si1 0.963438 0.725105 0.000045
Si Si2 0.658057 0.537673 0.384578
Si Si3 0.403837 0.951945 0.581932
Si Si4 0.151844 0.702310 0.342266
O O1 0.054167 0.706363 0.676819
O O2 0.084832 0.585848 0.877552
O O3 0.000000 0.000000 0.000000
O O4 0.831724 0.892532 0.219064
O O5 0.666115 0.323948 0.250642
O O6 0.506223 0.587016 0.743995
O O7 0.729917 0.378981 0.348754
O O8 0.695328 0.818481 0.248278
O O9 0.500000 0.000000 0.500000
#
# Coordination Sequence:
#
# PCOD9240727 Si02
#       4
#     4   4   4   4
#     4   7  13  22  39  67  98 113 151 204 230 291
#     4  10  19  32  53  70  96 140 172 206 267 312
#     4  10  21  34  47  72 102 130 177 226 249 298
#     4   8  13  24  41  68  92 120 160 193 240 305
#
# _framework density 30.479029000000001
#
# number of rings (size 3 to 8) (size 9 to 14) (size 15 to 20)
#    1.500    1.500    0.000    2.250    0.000    0.000 
#    0.000    0.000    0.000    0.000    0.000   28.000 
#    0.000    0.000    0.000    0.000    0.000   16.000 
#
# Total GULP energy -89243.796421 kJ/mol
# GULP energy per Si atom -5577.737276 kJ/mol
# Density = 3.040966 g / cm^3
# Si number density = 30.479029 Si / 1000 Ang^3
#
#
#
# Elastic Constant Matrix: (Units=GPa)
#
#
# Indices 1 2 3 4 5 6 
#
# 1 128.2282 52.7807 -8.1244 0.0000 -8.6423 0.0000
# 2 52.7807 361.3420 72.0794 0.0000 4.5379 0.0000
# 3 -8.1244 72.0794 95.6113 0.0000 9.1294 0.0000
# 4 0.0000 0.0000 0.0000 47.3424 0.0000 4.0538
# 5 -8.6423 4.5379 9.1294 0.0000 48.2684 0.0000
# 6 0.0000 0.0000 0.0000 4.0538 0.0000 54.0953
#
#
#
# Elastic Compliance Matrix: (Units=1/GPa)
#
#
# Indices 1 2 3 4 5 6 
#
# 1 0.008690 -0.001657 0.001858 0.000000 0.001360 0.000000
# 2 -0.001657 0.003574 -0.002826 0.000000 -0.000098 0.000000
# 3 0.001858 -0.002826 0.012924 0.000000 -0.001846 0.000000
# 4 0.000000 0.000000 0.000000 0.021259 0.000000 -0.001593
# 5 0.001360 -0.000098 -0.001846 0.000000 0.021319 0.000000
# 6 0.000000 0.000000 0.000000 -0.001593 0.000000 0.018605
#
#
# Mechanical properties :
#
#
# Convention : Reuss Voigt Hill
#
# Bulk Modulus (GPa) = 50.15714 90.96142 70.55928
# Shear Modulus (GPa) = 50.88088 61.17094 56.02591
#
# Velocity S-wave (km/s) = 4.09023 4.48480 4.29205
# Velocity P-wave (km/s) = 6.22886 7.53171 6.91105
#
# Compressibility (1/GPa) = 0.01993734
#
# Stress axis : x y z
#
# Youngs Moduli (GPa) = 115.07443 279.76092 77.37711
#
# Poissons Ratio (x) = 0.46356 -0.14374
# Poissons Ratio (y) = 0.19068 0.21868
# Poissons Ratio (z) = -0.21377 0.79065
#
# Static dielectric constant tensor:
#      x y z
#    x 4.163920 0.000000 -0.327800 
#    y 0.000000 2.558360 0.000000 
#    z -0.327800 0.000000 2.640010 
# 
# From -- ./inp_files/30898.got.cif
#   From: 2010.05.17/outbox.cif.g08.bks.cpg/sg14_16_cif.got.tgz:30898.got - 2010.06.03 17:49:19.
