data_PCOD9240510
_publ_section_title
;
Structure prediction by ZEFSAII (Michael W. Deem and Ramdas Pophale) SiO2 
 PCOD9240510
Probable space group: P 21/C
;
_chemical_formula_sum "Si O2"
_cell_formula_units_Z 24
_cell_length_a 9.135954
_cell_length_b 16.459079
_cell_length_c 16.326080
_cell_angle_alpha 90.000000
_cell_angle_beta 149.021134
_cell_angle_gamma 90.000000
_cell_volume 1263.612673
_symmetry_space_group_name_H-M "P 21/C"
_symmetry_group_IT_number 14
_symmetry_cell_setting 'monoclinic'
loop_
_space_group_symop_operation_xyz
x,y,z
-x,1/2+y,1/2-z
-x,-y,-z
x,1/2-y,1/2+z
loop_
_atom_site_type_symbol
_atom_site_label
_atom_site_fract_x
_atom_site_fract_y
_atom_site_fract_z
Si Si1 0.142100 0.503852 0.979874
Si Si2 0.560873 0.670978 0.448524
Si Si3 0.122501 0.163400 0.385467
Si Si4 0.338911 0.448054 0.853444
Si Si5 0.842639 0.513155 0.509652
Si Si6 0.620880 0.935387 0.124958
O O1 0.201702 0.411143 0.982862
O O2 0.916393 0.537709 0.805449
O O3 0.426534 0.557515 0.106059
O O4 0.000000 0.500000 0.000000
O O5 0.713532 0.756321 0.508879
O O6 0.690829 0.599946 0.452678
O O7 0.629948 0.645099 0.575730
O O8 0.219211 0.673782 0.276506
O O9 0.222838 0.131934 0.343419
O O10 0.077504 0.498767 0.692394
O O11 0.500000 0.500000 0.000000
O O12 0.606341 0.443555 0.411292
O O13 0.000000 0.500000 0.500000
O O14 0.500000 0.000000 0.000000
#
# Coordination Sequence:
#
# PCOD9240510 Si02
#       6
#     4   4   4   4   4   4
#     4  11  22  39  65  93 124 157 202 255 304 360
#     4  11  23  39  62  88 123 159 208 252 304 353
#     4  11  23  40  59  91 122 161 204 256 297 359
#     4  10  21  37  62  89 115 155 210 241 289 361
#     4  11  21  39  66  88 116 162 203 248 303 365
#     4  10  18  40  63  83 115 162 203 243 287 361
#
# _framework density 18.993162999999999
#
# number of rings (size 3 to 8) (size 9 to 14) (size 15 to 20)
#    0.000    1.333    5.000    4.000    7.000    0.000 
#    0.000    3.333    0.000    0.000    0.000    0.000 
#    0.000    0.000    0.000    0.000    0.000    0.000 
#
# Total GULP energy -133848.057173 kJ/mol
# GULP energy per Si atom -5577.002382 kJ/mol
# Density = 1.894993 g / cm^3
# Si number density = 18.993163 Si / 1000 Ang^3
#
#
#
# Elastic Constant Matrix: (Units=GPa)
#
#
# Indices 1 2 3 4 5 6 
#
# 1 141.3536 45.0522 17.8532 0.0000 30.4983 0.0000
# 2 45.0522 85.5975 26.2212 0.0000 11.7354 0.0000
# 3 17.8532 26.2212 93.0691 0.0000 25.2474 0.0000
# 4 0.0000 0.0000 0.0000 27.7860 0.0000 9.0114
# 5 30.4983 11.7354 25.2474 0.0000 35.1859 0.0000
# 6 0.0000 0.0000 0.0000 9.0114 0.0000 19.7446
#
#
#
# Elastic Compliance Matrix: (Units=1/GPa)
#
#
# Indices 1 2 3 4 5 6 
#
# 1 0.010192 -0.004715 0.001668 0.000000 -0.008458 0.000000
# 2 -0.004715 0.015092 -0.003838 0.000000 0.001807 0.000000
# 3 0.001668 -0.003838 0.014343 0.000000 -0.010457 0.000000
# 4 0.000000 0.000000 0.000000 0.042242 0.000000 -0.019279
# 5 -0.008458 0.001807 -0.010457 0.000000 0.042652 0.000000
# 6 0.000000 0.000000 0.000000 -0.019279 0.000000 0.059446
#
#
# Mechanical properties :
#
#
# Convention : Reuss Voigt Hill
#
# Bulk Modulus (GPa) = 38.67573 55.36373 47.01973
# Shear Modulus (GPa) = 24.22998 31.93621 28.08309
#
# Velocity S-wave (km/s) = 3.57560 4.10501 3.84941
# Velocity P-wave (km/s) = 6.11994 7.18893 6.67587
#
# Compressibility (1/GPa) = 0.02585601
#
# Stress axis : x y z
#
# Youngs Moduli (GPa) = 98.12018 66.25890 69.72116
#
# Poissons Ratio (x) = 0.31244 -0.11629
# Poissons Ratio (y) = 0.46268 0.26758
# Poissons Ratio (z) = -0.16366 0.25429
#
# Static dielectric constant tensor:
#      x y z
#    x 1.764310 0.000000 0.026240 
#    y 0.000000 1.663840 0.000000 
#    z 0.026240 0.000000 1.685440 
# 
# From -- ./inp_files/56116.got.cif
#   From: 2010.05.17/outbox.cif.g08.bks.cpg/sg14_29_cif.got.tgz:56116.got - 2010.06.03 17:49:19.
