data_PCOD9240634
_publ_section_title
;
Structure prediction by ZEFSAII (Michael W. Deem and Ramdas Pophale) SiO2 
 PCOD9240634
Probable space group: P 21/C
;
_chemical_formula_sum "Si O2"
_cell_formula_units_Z 28
_cell_length_a 5.569578
_cell_length_b 19.417416
_cell_length_c 8.985280
_cell_angle_alpha 90.000000
_cell_angle_beta 92.803900
_cell_angle_gamma 90.000000
_cell_volume 970.566051
_symmetry_space_group_name_H-M "P 21/C"
_symmetry_group_IT_number 14
_symmetry_cell_setting 'monoclinic'
loop_
_space_group_symop_operation_xyz
x,y,z
-x,1/2+y,1/2-z
-x,-y,-z
x,1/2-y,1/2+z
loop_
_atom_site_type_symbol
_atom_site_label
_atom_site_fract_x
_atom_site_fract_y
_atom_site_fract_z
Si Si1 0.236664 0.548104 0.095310
Si Si2 0.272731 0.930961 0.079438
Si Si3 0.736779 0.963422 0.688490
Si Si4 0.784827 0.598615 0.739162
Si Si5 0.697461 0.729714 0.900393
Si Si6 0.097838 0.833267 0.866182
Si Si7 0.361224 0.749330 0.140276
O O1 0.497339 0.577464 0.141870
O O2 0.978061 0.573970 0.143360
O O3 0.252283 0.531615 0.918917
O O4 0.244289 0.471279 0.168298
O O5 0.277739 0.009440 0.142300
O O6 0.534133 0.901057 0.136025
O O7 0.207072 0.908900 0.909769
O O8 0.021871 0.906535 0.146740
O O9 0.841104 0.663973 0.846622
O O10 0.606365 0.728503 0.064712
O O11 0.458731 0.717190 0.794432
O O12 0.827268 0.803075 0.874016
O O13 0.220697 0.792107 0.011328
O O14 0.193030 0.806857 0.710704
#
# Coordination Sequence:
#
# PCOD9240634 Si02
#       7
#     4   4   4   4   4   4   4
#     4   8  14  25  42  66  96 125 155 196 248 298
#     4  10  19  31  49  73 100 132 166 205 251 301
#     4   8  14  25  42  66  96 125 155 196 248 298
#     4  10  19  31  49  73 100 132 166 205 251 301
#     4  11  21  35  50  71  98 135 172 211 250 300
#     4  11  21  35  50  71  98 135 172 211 250 300
#     4  10  22  34  50  68  96 130 172 210 254 290
#
# _framework density 28.849148
#
# number of rings (size 3 to 8) (size 9 to 14) (size 15 to 20)
#    0.000    2.286    1.429    2.571    4.000    0.000 
#    0.000    0.000    0.000    0.000    0.000    1.000 
#    0.000    4.571    0.000    0.286    0.000    0.000 
#
# Total GULP energy -156393.502427 kJ/mol
# GULP energy per Si atom -5585.482230 kJ/mol
# Density = 2.878349 g / cm^3
# Si number density = 28.849148 Si / 1000 Ang^3
#
#
#
# Elastic Constant Matrix: (Units=GPa)
#
#
# Indices 1 2 3 4 5 6 
#
# 1 202.8949 21.4204 45.5864 0.0000 -1.2568 0.0000
# 2 21.4204 62.6991 3.5045 0.0000 8.6468 0.0000
# 3 45.5864 3.5045 104.0538 0.0000 9.6786 0.0000
# 4 0.0000 0.0000 0.0000 39.3971 0.0000 4.2624
# 5 -1.2568 8.6468 9.6786 0.0000 57.5474 0.0000
# 6 0.0000 0.0000 0.0000 4.2624 0.0000 41.1256
#
#
#
# Elastic Compliance Matrix: (Units=1/GPa)
#
#
# Indices 1 2 3 4 5 6 
#
# 1 0.005701 -0.001923 -0.002511 0.000000 0.000836 0.000000
# 2 -0.001923 0.016946 0.000520 0.000000 -0.002676 0.000000
# 3 -0.002511 0.000520 0.010875 0.000000 -0.001962 0.000000
# 4 0.000000 0.000000 0.000000 0.025670 0.000000 -0.002661
# 5 0.000836 -0.002676 -0.001962 0.000000 0.018127 0.000000
# 6 0.000000 0.000000 0.000000 -0.002661 0.000000 0.024592
#
#
# Mechanical properties :
#
#
# Convention : Reuss Voigt Hill
#
# Bulk Modulus (GPa) = 38.91544 56.74113 47.82829
# Shear Modulus (GPa) = 42.26464 47.55645 44.91055
#
# Velocity S-wave (km/s) = 3.83171 4.06452 3.94983
# Velocity P-wave (km/s) = 5.75279 6.46050 6.11689
#
# Compressibility (1/GPa) = 0.02569674
#
# Stress axis : x y z
#
# Youngs Moduli (GPa) = 175.41161 59.01122 91.95173
#
# Poissons Ratio (x) = 0.11345 0.23085
# Poissons Ratio (y) = 0.33724 -0.04785
# Poissons Ratio (z) = 0.44038 -0.03071
#
# Static dielectric constant tensor:
#      x y z
#    x 2.283310 0.000000 0.059770 
#    y 0.000000 2.444470 0.000000 
#    z 0.059770 0.000000 2.308410 
# 
# From -- ./inp_files/6544.got.cif
#   From: 2010.05.17/outbox.cif.g08.bks.cpg/sg14_4_cif.got.tgz:6544.got - 2010.06.03 17:49:19.
