data_PCOD9240875
_publ_section_title
;
Structure prediction by ZEFSAII (Michael W. Deem and Ramdas Pophale) SiO2 
 PCOD9240875
Probable space group: P 21/C
;
_chemical_formula_sum "Si O2"
_cell_formula_units_Z 20
_cell_length_a 8.816689
_cell_length_b 5.183267
_cell_length_c 21.713945
_cell_angle_alpha 90.000000
_cell_angle_beta 126.084099
_cell_angle_gamma 90.000000
_cell_volume 801.939534
_symmetry_space_group_name_H-M "P 21/C"
_symmetry_group_IT_number 14
_symmetry_cell_setting 'monoclinic'
loop_
_space_group_symop_operation_xyz
x,y,z
-x,1/2+y,1/2-z
-x,-y,-z
x,1/2-y,1/2+z
loop_
_atom_site_type_symbol
_atom_site_label
_atom_site_fract_x
_atom_site_fract_y
_atom_site_fract_z
Si Si1 0.306426 0.433875 0.820038
Si Si2 0.821181 0.113984 0.991453
Si Si3 0.571614 0.434818 0.585385
Si Si4 0.713901 0.044633 0.366330
Si Si5 0.896083 0.547448 0.346391
O O1 0.339335 0.663482 0.876054
O O2 0.489437 0.444847 0.818483
O O3 0.130858 0.454348 0.733001
O O4 0.312244 0.167561 0.857733
O O5 0.891191 0.088165 0.078272
O O6 0.784179 0.396156 0.953679
O O7 0.634214 0.957399 0.930895
O O8 0.000000 0.000000 0.000000
O O9 0.500000 0.500000 0.500000
O O10 0.803147 0.284324 0.349796
O O11 0.788197 0.791494 0.350517
#
# Coordination Sequence:
#
# PCOD9240875 Si02
#       5
#     4   4   4   4   4
#     4  11  21  37  58  83 113 152 194 234 283 341
#     4   9  20  37  60  87 117 149 189 232 282 338
#     4  11  24  42  59  79 113 157 194 231 285 349
#     4  10  19  33  55  87 123 152 181 227 290 347
#     4  11  20  33  56  90 118 146 186 242 285 331
#
# _framework density 24.939536
#
# number of rings (size 3 to 8) (size 9 to 14) (size 15 to 20)
#    0.000    1.600    0.000    7.200    0.000    4.800 
#    0.000    2.000    0.000    0.000    0.000    0.000 
#    0.000    0.000    0.000    0.000    0.000    0.000 
#
# Total GULP energy -111887.491979 kJ/mol
# GULP energy per Si atom -5594.374599 kJ/mol
# Density = 2.488277 g / cm^3
# Si number density = 24.939536 Si / 1000 Ang^3
#
#
#
# Elastic Constant Matrix: (Units=GPa)
#
#
# Indices 1 2 3 4 5 6 
#
# 1 38.4209 22.0907 17.0529 0.0000 7.9866 0.0000
# 2 22.0907 140.3358 19.1561 0.0000 5.5567 0.0000
# 3 17.0529 19.1561 171.2129 0.0000 25.3361 0.0000
# 4 0.0000 0.0000 0.0000 36.7743 0.0000 -6.9718
# 5 7.9866 5.5567 25.3361 0.0000 30.9189 0.0000
# 6 0.0000 0.0000 0.0000 -6.9718 0.0000 16.4565
#
#
#
# Elastic Compliance Matrix: (Units=1/GPa)
#
#
# Indices 1 2 3 4 5 6 
#
# 1 0.030461 -0.004337 -0.001707 0.000000 -0.005690 0.000000
# 2 -0.004337 0.007868 -0.000461 0.000000 0.000084 0.000000
# 3 -0.001707 -0.000461 0.006811 0.000000 -0.005057 0.000000
# 4 0.000000 0.000000 0.000000 0.029568 0.000000 0.012526
# 5 -0.005690 0.000084 -0.005057 0.000000 0.037942 0.000000
# 6 0.000000 0.000000 0.000000 0.012526 0.000000 0.066073
#
#
# Mechanical properties :
#
#
# Convention : Reuss Voigt Hill
#
# Bulk Modulus (GPa) = 31.12198 51.84098 41.48148
# Shear Modulus (GPa) = 24.69853 36.27460 30.48656
#
# Velocity S-wave (km/s) = 3.15037 3.81793 3.50010
# Velocity P-wave (km/s) = 5.07338 6.34565 5.74484
#
# Compressibility (1/GPa) = 0.03213163
#
# Stress axis : x y z
#
# Youngs Moduli (GPa) = 32.82845 127.09704 146.83028
#
# Poissons Ratio (x) = 0.55119 0.25059
# Poissons Ratio (y) = 0.14237 0.06765
# Poissons Ratio (z) = 0.05603 0.05856
#
# Static dielectric constant tensor:
#      x y z
#    x 2.085920 0.000000 -0.082530 
#    y 0.000000 1.909130 0.000000 
#    z -0.082530 0.000000 2.112600 
# 
# From -- ./inp_files/56658.got.cif
#   From: 2010.05.17/outbox.cif.g08.bks.cpg/sg14_29_cif.got.tgz:56658.got - 2010.06.03 17:49:19.
