data_PCOD9240302
_publ_section_title
;
Structure prediction by ZEFSAII (Michael W. Deem and Ramdas Pophale) SiO2 
 PCOD9240302
Probable space group: P 21/C
;
_chemical_formula_sum "Si O2"
_cell_formula_units_Z 32
_cell_length_a 18.684940
_cell_length_b 9.127440
_cell_length_c 8.947898
_cell_angle_alpha 90.000000
_cell_angle_beta 117.102553
_cell_angle_gamma 90.000000
_cell_volume 1358.456239
_symmetry_space_group_name_H-M "P 21/C"
_symmetry_group_IT_number 14
_symmetry_cell_setting 'monoclinic'
loop_
_space_group_symop_operation_xyz
x,y,z
-x,1/2+y,1/2-z
-x,-y,-z
x,1/2-y,1/2+z
loop_
_atom_site_type_symbol
_atom_site_label
_atom_site_fract_x
_atom_site_fract_y
_atom_site_fract_z
Si Si1 0.868885 0.963777 0.389766
Si Si2 0.432449 0.469011 0.644614
Si Si3 0.035971 0.318193 0.574745
Si Si4 0.251317 0.516126 0.474294
Si Si5 0.263143 0.332765 0.021825
Si Si6 0.186445 0.963226 0.231362
Si Si7 0.071394 0.691872 0.817734
Si Si8 0.566931 0.810263 0.169187
O O1 0.923342 0.840890 0.365113
O O2 0.809280 0.042864 0.218841
O O3 0.812049 0.876342 0.448949
O O4 0.918565 0.076857 0.536827
O O5 0.345884 0.550182 0.552984
O O6 0.437513 0.355916 0.508616
O O7 0.440868 0.361600 0.795751
O O8 0.500811 0.590263 0.689490
O O9 0.108826 0.430447 0.654369
O O10 0.965358 0.332421 0.631060
O O11 0.994457 0.328105 0.374772
O O12 0.254055 0.338005 0.480410
O O13 0.214986 0.577028 0.593856
O O14 0.345202 0.355459 0.188136
O O15 0.256165 0.437580 0.871910
O O16 0.155556 0.834357 0.310283
#
# Coordination Sequence:
#
# PCOD9240302 Si02
#       8
#     4   4   4   4   4   4   4   4
#     4  11  21  38  64  91 118 162 210 269 322 374
#     4  10  23  40  69 102 140 174 216 272 326 395
#     4  12  22  42  58  87 127 155 210 274 332 375
#     4  11  19  37  65  97 125 162 209 275 324 375
#     4  10  18  36  62  95 123 161 207 269 316 370
#     4  11  23  38  64  92 122 161 216 267 321 381
#     4  11  26  38  60  85 119 168 205 265 327 392
#     4  10  22  41  66 103 138 174 217 272 326 390
#
# _framework density 23.556151
#
# number of rings (size 3 to 8) (size 9 to 14) (size 15 to 20)
#    0.000    1.250    3.750    3.000    5.250    1.500 
#    0.000    0.000   11.000    0.000    0.000    0.000 
#    0.000    0.000    0.000    0.000    0.000    0.000 
#
# Total GULP energy -179002.181117 kJ/mol
# GULP energy per Si atom -5593.818160 kJ/mol
# Density = 2.350254 g / cm^3
# Si number density = 23.556151 Si / 1000 Ang^3
#
#
#
# Elastic Constant Matrix: (Units=GPa)
#
#
# Indices 1 2 3 4 5 6 
#
# 1 111.0794 15.8661 11.5505 0.0000 9.1485 0.0000
# 2 15.8661 57.4069 16.8599 0.0000 14.0489 0.0000
# 3 11.5505 16.8599 86.4702 0.0000 1.0086 0.0000
# 4 0.0000 0.0000 0.0000 7.8184 0.0000 -15.1180
# 5 9.1485 14.0489 1.0086 0.0000 37.7444 0.0000
# 6 0.0000 0.0000 0.0000 -15.1180 0.0000 26.4634
#
#
#
# Elastic Compliance Matrix: (Units=1/GPa)
#
#
# Indices 1 2 3 4 5 6 
#
# 1 0.009504 -0.001997 -0.000862 0.000000 -0.001537 0.000000
# 2 -0.001997 0.020814 -0.003708 0.000000 -0.007164 0.000000
# 3 -0.000862 -0.003708 0.012388 0.000000 0.001258 0.000000
# 4 0.000000 0.000000 0.000000 -1.222326 0.000000 -0.698288
# 5 -0.001537 -0.007164 0.001258 0.000000 0.029499 0.000000
# 6 0.000000 0.000000 0.000000 -0.698288 0.000000 -0.361128
#
#
# Mechanical properties :
#
#
# Convention : Reuss Voigt Hill
#
# Bulk Modulus (GPa) = 33.81676 38.16773 35.99225
# Shear Modulus (GPa) = -3.35963 28.45059 12.54548
#
# Velocity S-wave (km/s) = -1.19554 3.47908 2.31027
# Velocity P-wave (km/s) = 3.53288 5.69005 4.73592
#
# Compressibility (1/GPa) = 0.02957114
#
# Stress axis : x y z
#
# Youngs Moduli (GPa) = 105.21764 48.04524 80.72244
#
# Poissons Ratio (x) = 0.09596 0.06960
# Poissons Ratio (y) = 0.21016 0.29931
# Poissons Ratio (z) = 0.09072 0.17815
#
# Static dielectric constant tensor:
#      x y z
#    x 1.899160 0.000000 -0.034540 
#    y 0.000000 1.970210 0.000000 
#    z -0.034540 0.000000 1.930530 
# 
# From -- ./inp_files/17852.got.cif
#   From: 2010.05.17/outbox.cif.g08.bks.cpg/sg14_9_cif.got.tgz:17852.got - 2010.06.03 17:49:19.
