data_PCOD9240843
_publ_section_title
;
Structure prediction by ZEFSAII (Michael W. Deem and Ramdas Pophale) SiO2 
 PCOD9240843
Probable space group: P 21/C
;
_chemical_formula_sum "Si O2"
_cell_formula_units_Z 32
_cell_length_a 13.397528
_cell_length_b 8.746912
_cell_length_c 15.900340
_cell_angle_alpha 90.000000
_cell_angle_beta 55.610761
_cell_angle_gamma 90.000000
_cell_volume 1537.642493
_symmetry_space_group_name_H-M "P 21/C"
_symmetry_group_IT_number 14
_symmetry_cell_setting 'monoclinic'
loop_
_space_group_symop_operation_xyz
x,y,z
-x,1/2+y,1/2-z
-x,-y,-z
x,1/2-y,1/2+z
loop_
_atom_site_type_symbol
_atom_site_label
_atom_site_fract_x
_atom_site_fract_y
_atom_site_fract_z
Si Si1 0.080436 0.775594 0.597466
Si Si2 0.166088 0.401771 0.324835
Si Si3 0.959820 0.449129 0.111494
Si Si4 0.291971 0.108152 0.222427
Si Si5 0.158996 0.704779 0.240881
Si Si6 0.408497 0.806418 0.200379
Si Si7 0.394624 0.418762 0.496227
Si Si8 0.283040 0.624053 0.403430
O O1 0.116888 0.724661 0.673163
O O2 0.190923 0.750009 0.482344
O O3 0.962166 0.687514 0.617973
O O4 0.053761 0.955322 0.621415
O O5 0.273486 0.277698 0.266126
O O6 0.160745 0.523620 0.251783
O O7 0.202897 0.505093 0.387050
O O8 0.831678 0.523237 0.195223
O O9 0.935661 0.274091 0.145339
O O10 0.000000 0.500000 0.000000
O O11 0.389775 0.991444 0.216531
O O12 0.306321 0.125738 0.114657
O O13 0.296591 0.756425 0.193998
O O14 0.536373 0.789982 0.092178
O O15 0.381063 0.709254 0.297192
O O16 0.500000 0.500000 0.500000
O O17 0.335941 0.533951 0.457675
#
# Coordination Sequence:
#
# PCOD9240843 Si02
#       8
#     4   4   4   4   4   4   4   4
#     4  11  20  35  57  84 117 159 194 242 302 359
#     4  10  22  37  57  90 122 154 198 248 301 366
#     4  10  19  33  54  79 113 153 189 234 291 350
#     4   9  19  38  58  83 117 154 195 239 298 366
#     4  10  20  37  57  85 120 156 202 245 292 364
#     4   9  20  39  60  85 115 153 199 251 301 352
#     4  10  21  39  63  85 116 161 201 250 310 363
#     4  11  22  38  61  89 119 154 205 259 306 362
#
# _framework density 20.81108
#
# number of rings (size 3 to 8) (size 9 to 14) (size 15 to 20)
#    0.000    2.000    0.000    5.625    0.000    4.000 
#    0.000    7.500    0.000    0.000    0.000    0.000 
#    0.000    0.000    0.000    0.000    0.000    0.000 
#
# Total GULP energy -178167.912525 kJ/mol
# GULP energy per Si atom -5567.747266 kJ/mol
# Density = 2.076371 g / cm^3
# Si number density = 20.811080 Si / 1000 Ang^3
#
#
#
# Elastic Constant Matrix: (Units=GPa)
#
#
# Indices 1 2 3 4 5 6 
#
# 1 47.0444 6.9151 11.3052 0.0000 9.7185 0.0000
# 2 6.9151 67.4598 4.9511 0.0000 2.4279 0.0000
# 3 11.3052 4.9511 106.8280 0.0000 -4.8782 0.0000
# 4 0.0000 0.0000 0.0000 28.6167 0.0000 -0.1125
# 5 9.7185 2.4279 -4.8782 0.0000 30.4272 0.0000
# 6 0.0000 0.0000 0.0000 -0.1125 0.0000 23.3714
#
#
#
# Elastic Compliance Matrix: (Units=1/GPa)
#
#
# Indices 1 2 3 4 5 6 
#
# 1 0.023849 -0.001955 -0.002794 0.000000 -0.007910 0.000000
# 2 -0.001955 0.015086 -0.000523 0.000000 -0.000663 0.000000
# 3 -0.002794 -0.000523 0.009795 0.000000 0.002505 0.000000
# 4 0.000000 0.000000 0.000000 0.034945 0.000000 0.000168
# 5 -0.007910 -0.000663 0.002505 0.000000 0.035846 0.000000
# 6 0.000000 0.000000 0.000000 0.000168 0.000000 0.042788
#
#
# Mechanical properties :
#
#
# Convention : Reuss Voigt Hill
#
# Bulk Modulus (GPa) = 26.18709 29.74167 27.96438
# Shear Modulus (GPa) = 26.94209 29.69380 28.31795
#
# Velocity S-wave (km/s) = 3.60196 3.78143 3.69279
# Velocity P-wave (km/s) = 5.46895 5.77823 5.62572
#
# Compressibility (1/GPa) = 0.03818676
#
# Stress axis : x y z
#
# Youngs Moduli (GPa) = 41.92982 66.28551 102.09119
#
# Poissons Ratio (x) = 0.12959 0.28529
# Poissons Ratio (y) = 0.08197 0.05335
# Poissons Ratio (z) = 0.11717 0.03464
#
# Static dielectric constant tensor:
#      x y z
#    x 1.799470 0.000000 -0.001520 
#    y 0.000000 1.834760 0.000000 
#    z -0.001520 0.000000 1.835590 
# 
# From -- ./inp_files/46486.got.cif
#   From: 2010.05.17/outbox.cif.g08.bks.cpg/sg14_24_cif.got.tgz:46486.got - 2010.06.03 17:49:19.
