data_PCOD9240861
_publ_section_title
;
Structure prediction by ZEFSAII (Michael W. Deem and Ramdas Pophale) SiO2 
 PCOD9240861
Probable space group: P 21/C
;
_chemical_formula_sum "Si O2"
_cell_formula_units_Z 32
_cell_length_a 27.714918
_cell_length_b 7.414663
_cell_length_c 7.630470
_cell_angle_alpha 90.000000
_cell_angle_beta 47.905950
_cell_angle_gamma 90.000000
_cell_volume 1163.554729
_symmetry_space_group_name_H-M "P 21/C"
_symmetry_group_IT_number 14
_symmetry_cell_setting 'monoclinic'
loop_
_space_group_symop_operation_xyz
x,y,z
-x,1/2+y,1/2-z
-x,-y,-z
x,1/2-y,1/2+z
loop_
_atom_site_type_symbol
_atom_site_label
_atom_site_fract_x
_atom_site_fract_y
_atom_site_fract_z
Si Si1 0.698413 0.525138 0.228576
Si Si2 0.575597 0.664852 0.384715
Si Si3 0.084732 0.005424 0.125355
Si Si4 0.210698 0.947952 0.958020
Si Si5 0.463794 0.514804 0.878451
Si Si6 0.335047 0.643855 0.312539
Si Si7 0.948828 0.389564 0.897504
Si Si8 0.173576 0.532106 0.952767
O O1 0.649301 0.669864 0.269795
O O2 0.692092 0.347181 0.123129
O O3 0.673715 0.453753 0.479373
O O4 0.773215 0.581364 0.070116
O O5 0.533409 0.560625 0.632175
O O6 0.539204 0.855745 0.473020
O O7 0.569642 0.571040 0.214083
O O8 0.065411 0.970411 0.376207
O O9 0.077540 0.813352 0.047088
O O10 0.160946 0.055323 0.952051
O O11 0.026371 0.120287 0.185141
O O12 0.288503 0.956761 0.784382
O O13 0.191626 0.738309 0.963721
O O14 0.191195 0.985349 0.205975
O O15 0.410401 0.656425 0.074520
O O16 0.904280 0.492651 0.861187
#
# Coordination Sequence:
#
# PCOD9240861 Si02
#       8
#     4   4   4   4   4   4   4   4
#     4  10  19  33  55  80 106 135 170 212 256 304
#     4  11  24  40  58  80 106 136 170 208 251 300
#     4   9  17  30  48  70  98 131 168 209 251 297
#     4   8  15  28  47  71  98 130 167 206 248 295
#     4  11  24  40  58  80 106 136 170 208 251 300
#     4  10  19  33  55  80 106 135 170 212 256 304
#     4   9  17  30  48  70  98 131 168 209 251 297
#     4   8  15  28  47  71  98 130 167 206 248 295
#
# _framework density 27.501926999999998
#
# number of rings (size 3 to 8) (size 9 to 14) (size 15 to 20)
#    0.000    2.500    0.000    2.250    0.000    5.500 
#    0.000    1.250    0.000    3.000    0.000    0.000 
#    0.000    0.000    0.000    0.000    0.000    0.000 
#
# Total GULP energy -178945.889836 kJ/mol
# GULP energy per Si atom -5592.059057 kJ/mol
# Density = 2.743933 g / cm^3
# Si number density = 27.501927 Si / 1000 Ang^3
#
#
#
# Elastic Constant Matrix: (Units=GPa)
#
#
# Indices 1 2 3 4 5 6 
#
# 1 112.8662 4.0303 33.4492 0.0000 -34.9096 0.0000
# 2 4.0303 35.4678 1.4635 0.0000 -11.5079 0.0000
# 3 33.4492 1.4635 83.6934 0.0000 14.3495 0.0000
# 4 0.0000 0.0000 0.0000 26.8093 0.0000 -10.6326
# 5 -34.9096 -11.5079 14.3495 0.0000 40.4181 0.0000
# 6 0.0000 0.0000 0.0000 -10.6326 0.0000 36.3157
#
#
#
# Elastic Compliance Matrix: (Units=1/GPa)
#
#
# Indices 1 2 3 4 5 6 
#
# 1 0.018746 0.005391 -0.011314 0.000000 0.021743 0.000000
# 2 0.005391 0.032998 -0.005474 0.000000 0.015995 0.000000
# 3 -0.011314 -0.005474 0.019708 0.000000 -0.018328 0.000000
# 4 0.000000 0.000000 0.000000 0.042201 0.000000 0.012356
# 5 0.021743 0.015995 -0.018328 0.000000 0.054582 0.000000
# 6 0.000000 0.000000 0.000000 0.012356 0.000000 0.031154
#
#
# Mechanical properties :
#
#
# Convention : Reuss Voigt Hill
#
# Bulk Modulus (GPa) = 20.55171 34.43484 27.49327
# Shear Modulus (GPa) = 20.97310 33.58092 27.27701
#
# Velocity S-wave (km/s) = 2.76453 3.49813 3.15274
# Velocity P-wave (km/s) = 4.20466 5.37252 4.82406
#
# Compressibility (1/GPa) = 0.04865776
#
# Stress axis : x y z
#
# Youngs Moduli (GPa) = 53.34586 30.30523 50.74022
#
# Poissons Ratio (x) = -0.16339 0.57408
# Poissons Ratio (y) = -0.28761 0.27776
# Poissons Ratio (z) = 0.60356 0.16590
#
# Static dielectric constant tensor:
#      x y z
#    x 2.190320 0.000000 -0.060620 
#    y 0.000000 2.181220 0.000000 
#    z -0.060620 0.000000 2.120110 
# 
# From -- ./inp_files/18619.got.cif
#   From: 2010.05.17/outbox.cif.g08.bks.cpg/sg14_10_cif.got.tgz:18619.got - 2010.06.03 17:49:19.
