data_PCOD9240748
_publ_section_title
;
Structure prediction by ZEFSAII (Michael W. Deem and Ramdas Pophale) SiO2 
 PCOD9240748
Probable space group: P 21/C
;
_chemical_formula_sum "Si O2"
_cell_formula_units_Z 28
_cell_length_a 12.048396
_cell_length_b 13.058978
_cell_length_c 15.821259
_cell_angle_alpha 90.000000
_cell_angle_beta 24.488200
_cell_angle_gamma 90.000000
_cell_volume 1031.834644
_symmetry_space_group_name_H-M "P 21/C"
_symmetry_group_IT_number 14
_symmetry_cell_setting 'monoclinic'
loop_
_space_group_symop_operation_xyz
x,y,z
-x,1/2+y,1/2-z
-x,-y,-z
x,1/2-y,1/2+z
loop_
_atom_site_type_symbol
_atom_site_label
_atom_site_fract_x
_atom_site_fract_y
_atom_site_fract_z
Si Si1 0.803664 0.880863 0.176287
Si Si2 0.580924 0.524035 0.323696
Si Si3 0.257419 0.779254 0.787291
Si Si4 0.057851 0.389762 0.066641
Si Si5 0.714201 0.296966 0.043451
Si Si6 0.953989 0.071774 0.826978
Si Si7 0.289478 0.191615 0.142016
O O1 0.525182 0.873336 0.319048
O O2 0.781813 0.765308 0.230123
O O3 0.844043 0.942806 0.235488
O O4 0.095325 0.882077 0.927694
O O5 0.809787 0.446490 0.192768
O O6 0.283107 0.488513 0.509845
O O7 0.557008 0.598969 0.421076
O O8 0.691762 0.579579 0.163306
O O9 0.028073 0.726878 0.888011
O O10 0.318499 0.722683 0.833975
O O11 0.527676 0.759536 0.546375
O O12 0.085731 0.416932 0.144543
O O13 0.789065 0.181136 0.956215
O O14 0.995503 0.348471 0.822402
#
# Coordination Sequence:
#
# PCOD9240748 Si02
#       7
#     4   4   4   4   4   4   4
#     4  10  21  35  51  77 114 144 172 220 266 334
#     4  11  20  34  54  84 109 135 182 231 272 320
#     4  10  19  32  54  81 103 142 178 221 275 316
#     4  11  20  33  57  81 108 140 177 231 278 314
#     4  10  20  36  51  78 115 142 175 220 265 336
#     4  10  20  33  53  79 110 138 177 225 270 322
#     4  10  19  33  52  82 106 138 179 224 272 316
#
# _framework density 27.136130000000001
#
# number of rings (size 3 to 8) (size 9 to 14) (size 15 to 20)
#    0.000    2.000    5.714    0.429    0.000    8.000 
#    0.000    0.000    0.000    1.714    0.000    0.000 
#    0.000    0.000    0.000    0.000    0.000    0.000 
#
# Total GULP energy -156217.052625 kJ/mol
# GULP energy per Si atom -5579.180451 kJ/mol
# Density = 2.707437 g / cm^3
# Si number density = 27.136130 Si / 1000 Ang^3
#
#
#
# Elastic Constant Matrix: (Units=GPa)
#
#
# Indices 1 2 3 4 5 6 
#
# 1 127.1540 22.6034 73.8862 0.0000 5.4066 0.0000
# 2 22.6034 17.8889 4.0615 0.0000 7.0340 0.0000
# 3 73.8862 4.0615 155.6022 0.0000 20.6488 0.0000
# 4 0.0000 0.0000 0.0000 38.9174 0.0000 6.1713
# 5 5.4066 7.0340 20.6488 0.0000 47.0199 0.0000
# 6 0.0000 0.0000 0.0000 6.1713 0.0000 17.1210
#
#
#
# Elastic Compliance Matrix: (Units=1/GPa)
#
#
# Indices 1 2 3 4 5 6 
#
# 1 0.015474 -0.019602 -0.007421 0.000000 0.004412 0.000000
# 2 -0.019602 0.084248 0.009007 0.000000 -0.014305 0.000000
# 3 -0.007421 0.009007 0.010386 0.000000 -0.005055 0.000000
# 4 0.000000 0.000000 0.000000 0.027253 0.000000 -0.009823
# 5 0.004412 -0.014305 -0.005055 0.000000 0.025120 0.000000
# 6 0.000000 0.000000 0.000000 -0.009823 0.000000 0.061949
#
#
# Mechanical properties :
#
#
# Convention : Reuss Voigt Hill
#
# Bulk Modulus (GPa) = 13.49972 55.74969 34.62470
# Shear Modulus (GPa) = 17.53436 33.95126 25.74281
#
# Velocity S-wave (km/s) = 2.54473 3.54099 3.08337
# Velocity P-wave (km/s) = 3.69050 6.10796 5.04614
#
# Compressibility (1/GPa) = 0.07407562
#
# Stress axis : x y z
#
# Youngs Moduli (GPa) = 64.62551 11.86973 96.27987
#
# Poissons Ratio (x) = 0.23267 0.71454
# Poissons Ratio (y) = 1.26677 -0.86718
# Poissons Ratio (z) = 0.47961 -0.10691
#
# Static dielectric constant tensor:
#      x y z
#    x 2.237410 0.000000 -0.124340 
#    y 0.000000 2.332050 0.000000 
#    z -0.124340 0.000000 2.175280 
# 
# From -- ./inp_files/45278.got.cif
#   From: 2010.05.17/outbox.cif.g08.bks.cpg/sg14_23_cif.got.tgz:45278.got - 2010.06.03 17:49:19.
