data_PCOD9240994
_publ_section_title
;
Structure prediction by ZEFSAII (Michael W. Deem and Ramdas Pophale) SiO2 
 PCOD9240994
Probable space group: P 21/C
;
_chemical_formula_sum "Si O2"
_cell_formula_units_Z 24
_cell_length_a 9.764696
_cell_length_b 18.710106
_cell_length_c 14.813033
_cell_angle_alpha 90.000000
_cell_angle_beta 156.987072
_cell_angle_gamma 90.000000
_cell_volume 1058.005099
_symmetry_space_group_name_H-M "P 21/C"
_symmetry_group_IT_number 14
_symmetry_cell_setting 'monoclinic'
loop_
_space_group_symop_operation_xyz
x,y,z
-x,1/2+y,1/2-z
-x,-y,-z
x,1/2-y,1/2+z
loop_
_atom_site_type_symbol
_atom_site_label
_atom_site_fract_x
_atom_site_fract_y
_atom_site_fract_z
Si Si1 0.787615 0.086934 0.253243
Si Si2 0.932875 0.546553 0.729460
Si Si3 0.473131 0.843140 0.527604
Si Si4 0.825862 0.638072 0.844019
Si Si5 0.062360 0.225286 0.345269
Si Si6 0.493784 0.766495 0.710815
O O1 0.047850 0.089225 0.496213
O O2 0.787499 0.167921 0.217495
O O3 0.932145 0.034303 0.263526
O O4 0.393647 0.060715 0.035515
O O5 0.820573 0.591232 0.751339
O O6 0.301276 0.578754 0.921472
O O7 0.700018 0.817811 0.581151
O O8 0.641823 0.822575 0.726220
O O9 0.135054 0.790662 0.319765
O O10 0.492204 0.687184 0.665003
O O11 0.129094 0.697914 0.017262
O O12 0.280741 0.255093 0.562409
#
# Coordination Sequence:
#
# PCOD9240994 Si02
#       6
#     4   4   4   4   4   4
#     4  10  21  36  54  77 108 146 184 222 269 324
#     4  10  21  36  54  77 108 146 184 222 269 324
#     4  11  21  35  56  81 109 141 180 226 275 324
#     4  10  19  34  54  78 107 140 180 224 271 318
#     4  11  21  35  56  81 109 141 180 226 275 324
#     4  10  20  32  52  80 106 134 174 222 268 316
#
# _framework density 22.684200000000001
#
# number of rings (size 3 to 8) (size 9 to 14) (size 15 to 20)
#    0.000    1.667    0.000    7.500    0.000    0.667 
#    0.000    0.000    0.000    0.000    0.000   24.500 
#    0.000    0.000    0.000    0.000    0.000    0.000 
#
# Total GULP energy -134120.715113 kJ/mol
# GULP energy per Si atom -5588.363130 kJ/mol
# Density = 2.263257 g / cm^3
# Si number density = 22.684200 Si / 1000 Ang^3
#
#
#
# Elastic Constant Matrix: (Units=GPa)
#
#
# Indices 1 2 3 4 5 6 
#
# 1 69.9463 -3.6735 12.8993 0.0000 -7.9603 0.0000
# 2 -3.6735 85.5981 18.4027 0.0000 -2.2884 0.0000
# 3 12.8993 18.4027 54.7618 0.0000 -9.9459 0.0000
# 4 0.0000 0.0000 0.0000 39.4554 0.0000 6.2757
# 5 -7.9603 -2.2884 -9.9459 0.0000 22.5573 0.0000
# 6 0.0000 0.0000 0.0000 6.2757 0.0000 32.7023
#
#
#
# Elastic Compliance Matrix: (Units=1/GPa)
#
#
# Indices 1 2 3 4 5 6 
#
# 1 0.015471 0.001506 -0.003403 0.000000 0.004112 0.000000
# 2 0.001506 0.012747 -0.004682 0.000000 -0.000240 0.000000
# 3 -0.003403 -0.004682 0.022101 0.000000 0.008069 0.000000
# 4 0.000000 0.000000 0.000000 0.026143 0.000000 -0.005017
# 5 0.004112 -0.000240 0.008069 0.000000 0.049316 0.000000
# 6 0.000000 0.000000 0.000000 -0.005017 0.000000 0.031542
#
#
# Mechanical properties :
#
#
# Convention : Reuss Voigt Hill
#
# Bulk Modulus (GPa) = 26.91034 29.50704 28.20869
# Shear Modulus (GPa) = 27.34225 31.12151 29.23188
#
# Velocity S-wave (km/s) = 3.47557 3.70800 3.59366
# Velocity P-wave (km/s) = 5.29102 5.60074 5.44808
#
# Compressibility (1/GPa) = 0.03716044
#
# Stress axis : x y z
#
# Youngs Moduli (GPa) = 64.63558 78.44818 45.24592
#
# Poissons Ratio (x) = -0.11811 0.15399
# Poissons Ratio (y) = -0.09732 0.21184
# Poissons Ratio (z) = 0.21999 0.36729
#
# Static dielectric constant tensor:
#      x y z
#    x 1.889100 0.000000 -0.006490 
#    y 0.000000 1.824660 0.000000 
#    z -0.006490 0.000000 1.893760 
# 
# From -- ./inp_files/14097.got.cif
#   From: 2010.05.17/outbox.cif.g08.bks.cpg/sg14_8_cif.got.tgz:14097.got - 2010.06.03 17:49:19.
