data_PCOD9240575
_publ_section_title
;
Structure prediction by ZEFSAII (Michael W. Deem and Ramdas Pophale) SiO2 
 PCOD9240575
Probable space group: P 21/C
;
_chemical_formula_sum "Si O2"
_cell_formula_units_Z 32
_cell_length_a 12.159326
_cell_length_b 22.684037
_cell_length_c 5.654006
_cell_angle_alpha 90.000000
_cell_angle_beta 62.291834
_cell_angle_gamma 90.000000
_cell_volume 1380.670365
_symmetry_space_group_name_H-M "P 21/C"
_symmetry_group_IT_number 14
_symmetry_cell_setting 'monoclinic'
loop_
_space_group_symop_operation_xyz
x,y,z
-x,1/2+y,1/2-z
-x,-y,-z
x,1/2-y,1/2+z
loop_
_atom_site_type_symbol
_atom_site_label
_atom_site_fract_x
_atom_site_fract_y
_atom_site_fract_z
Si Si1 0.745197 0.937013 0.754808
Si Si2 0.394956 0.550828 0.605034
Si Si3 0.948669 0.773448 0.051146
Si Si4 0.026546 0.568733 0.973460
Si Si5 0.660700 0.408552 0.839312
Si Si6 0.009216 0.905852 0.990794
Si Si7 0.245645 0.776046 0.754187
Si Si8 0.743071 0.954498 0.256935
O O1 0.882783 0.909055 0.617223
O O2 0.695551 0.924158 0.543683
O O3 0.731371 0.009569 0.768638
O O4 0.695553 0.924157 0.065219
O O5 0.500000 0.500000 0.500000
O O6 0.402840 0.588383 0.357705
O O7 0.402848 0.588379 0.836598
O O8 0.898049 0.750028 0.851723
O O9 0.097754 0.760911 0.902034
O O10 0.942264 0.843450 0.057720
O O11 0.079978 0.588179 0.669040
O O12 0.079976 0.588174 0.171033
O O13 0.000000 0.500000 0.000000
O O14 0.732731 0.346307 0.767319
O O15 0.709963 0.476818 0.790040
O O16 0.894035 0.951820 0.105980
O O17 0.294440 0.750018 0.455364
#
# Coordination Sequence:
#
# PCOD9240575 Si02
#       8
#     4   4   4   4   4   4   4   4
#     4   8  16  28  41  62  97 128 152 188 235 299
#     4  10  19  31  49  75 107 132 160 199 255 321
#     4  10  21  35  49  68  97 136 182 229 266 299
#     4  10  19  29  44  69  97 125 161 199 247 303
#     4  10  19  33  52  74 105 136 169 209 255 314
#     4  10  19  31  46  65  94 127 166 208 256 306
#     4  10  21  36  52  71  99 140 184 217 251 298
#     4   8  16  29  45  68  93 124 159 199 249 302
#
# _framework density 23.177146
#
# number of rings (size 3 to 8) (size 9 to 14) (size 15 to 20)
#    0.000    2.500    0.000    2.250    0.000    6.000 
#    0.000    0.000    0.000    0.000    0.000    0.000 
#    0.000  180.000    0.000    0.000    0.000    0.000 
#
# Total GULP energy -178212.857067 kJ/mol
# GULP energy per Si atom -5569.151783 kJ/mol
# Density = 2.312439 g / cm^3
# Si number density = 23.177146 Si / 1000 Ang^3
#
#
#
# Elastic Constant Matrix: (Units=GPa)
#
#
# Indices 1 2 3 4 5 6 
#
# 1 32.9579 6.6780 76.0339 0.0000 19.1280 0.0000
# 2 6.6780 66.9222 52.0242 0.0000 30.0112 0.0000
# 3 76.0339 52.0242 216.6306 0.0000 102.5301 0.0000
# 4 0.0000 0.0000 0.0000 35.5883 0.0000 11.1914
# 5 19.1280 30.0112 102.5301 0.0000 48.1482 0.0000
# 6 0.0000 0.0000 0.0000 11.1914 0.0000 18.7032
#
#
#
# Elastic Compliance Matrix: (Units=1/GPa)
#
#
# Indices 1 2 3 4 5 6 
#
# 1 0.003644 0.006989 0.026748 0.000000 -0.062763 0.000000
# 2 0.006989 0.021033 -0.001896 0.000000 -0.011850 0.000000
# 3 0.026748 -0.001896 -0.019496 0.000000 0.032072 0.000000
# 4 0.000000 0.000000 0.000000 0.034612 0.000000 -0.020711
# 5 -0.062763 -0.011850 0.032072 0.000000 -0.015207 0.000000
# 6 0.000000 0.000000 0.000000 -0.020711 0.000000 0.065859
#
#
# Mechanical properties :
#
#
# Convention : Reuss Voigt Hill
#
# Bulk Modulus (GPa) = 14.52147 65.10922 39.81535
# Shear Modulus (GPa) = 100.56905 32.60625 66.58765
#
# Velocity S-wave (km/s) = 6.59437 3.75484 5.36584
# Velocity P-wave (km/s) = 8.01623 6.85211 7.45692
#
# Compressibility (1/GPa) = 0.06886354
#
# Stress axis : x y z
#
# Youngs Moduli (GPa) = 274.41879 47.54431 -51.29204
#
# Poissons Ratio (x) = -0.33229 1.37196
# Poissons Ratio (y) = -1.91792 -0.09724
# Poissons Ratio (z) = -7.34018 0.09013
#
# Static dielectric constant tensor:
#      x y z
#    x 2.005060 0.000000 -0.003930 
#    y 0.000000 1.837580 0.000000 
#    z -0.003930 0.000000 1.999130 
# 
# From -- ./inp_files/3897.got.cif
#   From: 2010.05.17/outbox.cif.g08.bks.cpg/sg14_2_cif.got.tgz:3897.got - 2010.06.03 17:49:19.
