data_PCOD9240403
_publ_section_title
;
Structure prediction by ZEFSAII (Michael W. Deem and Ramdas Pophale) SiO2 
 PCOD9240403
Probable space group: P 21/C
;
_chemical_formula_sum "Si O2"
_cell_formula_units_Z 32
_cell_length_a 8.748124
_cell_length_b 7.456313
_cell_length_c 20.448790
_cell_angle_alpha 90.000000
_cell_angle_beta 59.533695
_cell_angle_gamma 90.000000
_cell_volume 1149.681141
_symmetry_space_group_name_H-M "P 21/C"
_symmetry_group_IT_number 14
_symmetry_cell_setting 'monoclinic'
loop_
_space_group_symop_operation_xyz
x,y,z
-x,1/2+y,1/2-z
-x,-y,-z
x,1/2-y,1/2+z
loop_
_atom_site_type_symbol
_atom_site_label
_atom_site_fract_x
_atom_site_fract_y
_atom_site_fract_z
Si Si1 0.841512 0.185384 0.816561
Si Si2 0.782525 0.815032 0.775739
Si Si3 0.937962 0.775174 0.616471
Si Si4 0.948613 0.741034 0.958995
Si Si5 0.699476 0.429074 0.654926
Si Si6 0.337928 0.533660 0.985725
Si Si7 0.352817 0.958205 0.976990
Si Si8 0.561508 0.461113 0.819717
O O1 0.708308 0.329736 0.817681
O O2 0.036457 0.209629 0.742804
O O3 0.773098 0.985418 0.824004
O O4 0.883734 0.233664 0.881876
O O5 0.830235 0.894596 0.692782
O O6 0.393212 0.994424 0.891303
O O7 0.629719 0.666779 0.811049
O O8 0.960123 0.797334 0.534557
O O9 0.822526 0.594375 0.649235
O O10 0.162728 0.075156 0.546194
O O11 0.822850 0.916146 0.976400
O O12 0.147808 0.778443 0.890402
O O13 0.562749 0.404426 0.743641
O O14 0.334641 0.744672 0.976773
O O15 0.392430 0.448460 0.903266
O O16 0.500000 0.500000 0.000000
O O17 0.500000 0.000000 0.000000
#
# Coordination Sequence:
#
# PCOD9240403 Si02
#       8
#     4   4   4   4   4   4   4   4
#     4  10  18  37  68 107 150 195 247 325 394 446
#     4   9  17  36  62 102 148 189 245 317 383 451
#     4   8  18  37  69 109 144 190 251 323 383 457
#     4  11  24  50  79 109 157 200 269 333 384 473
#     4  10  23  48  80 113 150 206 267 331 385 463
#     4  12  29  50  73 113 158 213 261 322 399 491
#     4  11  24  52  82 112 155 213 255 322 413 477
#     4  11  25  46  68 112 157 198 265 317 384 470
#
# _framework density 27.833804000000001
#
# number of rings (size 3 to 8) (size 9 to 14) (size 15 to 20)
#    0.750    1.000    2.500    1.500    0.000    6.500 
#    9.000    1.250    0.000    0.000    0.000    0.000 
#    0.000    0.000    0.000    0.000    0.000    0.000 
#
# Total GULP energy -179183.283418 kJ/mol
# GULP energy per Si atom -5599.477607 kJ/mol
# Density = 2.777045 g / cm^3
# Si number density = 27.833804 Si / 1000 Ang^3
#
#
#
# Elastic Constant Matrix: (Units=GPa)
#
#
# Indices 1 2 3 4 5 6 
#
# 1 157.4426 55.8215 59.2579 0.0000 13.1459 0.0000
# 2 55.8215 133.4721 13.8655 0.0000 3.0971 0.0000
# 3 59.2579 13.8655 156.7047 0.0000 5.8678 0.0000
# 4 0.0000 0.0000 0.0000 32.1361 0.0000 2.3853
# 5 13.1459 3.0971 5.8678 0.0000 51.2646 0.0000
# 6 0.0000 0.0000 0.0000 2.3853 0.0000 50.5845
#
#
#
# Elastic Compliance Matrix: (Units=1/GPa)
#
#
# Indices 1 2 3 4 5 6 
#
# 1 0.008791 -0.003329 -0.002966 0.000000 -0.001714 0.000000
# 2 -0.003329 0.008830 0.000468 0.000000 0.000267 0.000000
# 3 -0.002966 0.000468 0.007466 0.000000 -0.000122 0.000000
# 4 0.000000 0.000000 0.000000 0.031227 0.000000 -0.001473
# 5 -0.001714 0.000267 -0.000122 0.000000 0.019944 0.000000
# 6 0.000000 0.000000 0.000000 -0.001473 0.000000 0.019838
#
#
# Mechanical properties :
#
#
# Convention : Reuss Voigt Hill
#
# Bulk Modulus (GPa) = 74.44354 78.38993 76.41673
# Shear Modulus (GPa) = 44.55238 48.04201 46.29720
#
# Velocity S-wave (km/s) = 4.00516 4.15906 4.08284
# Velocity P-wave (km/s) = 6.94206 7.16159 7.05268
#
# Compressibility (1/GPa) = 0.01343300
#
# Stress axis : x y z
#
# Youngs Moduli (GPa) = 113.75217 113.25499 133.93890
#
# Poissons Ratio (x) = 0.37700 0.39721
# Poissons Ratio (y) = 0.37866 -0.06262
# Poissons Ratio (z) = 0.33735 -0.05295
#
# Static dielectric constant tensor:
#      x y z
#    x 2.177450 0.000000 0.011620 
#    y 0.000000 2.181210 0.000000 
#    z 0.011620 0.000000 2.332260 
# 
# From -- ./inp_files/77517.got.cif
#   From: 2010.05.17/outbox.cif.g08.bks.cpg/sg14_39_cif.got.tgz:77517.got - 2010.06.03 17:49:19.
