data_PCOD9240150
_publ_section_title
;
Structure prediction by ZEFSAII (Michael W. Deem and Ramdas Pophale) SiO2 
 PCOD9240150
Probable space group: P 21/C
;
_chemical_formula_sum "Si O2"
_cell_formula_units_Z 24
_cell_length_a 7.962967
_cell_length_b 8.194372
_cell_length_c 19.658797
_cell_angle_alpha 90.000000
_cell_angle_beta 121.766256
_cell_angle_gamma 90.000000
_cell_volume 1090.611589
_symmetry_space_group_name_H-M "P 21/C"
_symmetry_group_IT_number 14
_symmetry_cell_setting 'monoclinic'
loop_
_space_group_symop_operation_xyz
x,y,z
-x,1/2+y,1/2-z
-x,-y,-z
x,1/2-y,1/2+z
loop_
_atom_site_type_symbol
_atom_site_label
_atom_site_fract_x
_atom_site_fract_y
_atom_site_fract_z
Si Si1 0.536399 0.370481 0.948309
Si Si2 0.693947 0.455997 0.494741
Si Si3 0.189327 0.882531 0.768926
Si Si4 0.535940 0.387630 0.181441
Si Si5 0.605787 0.940700 0.822752
Si Si6 0.867543 0.835166 0.137175
O O1 0.707850 0.239745 0.000763
O O2 0.558323 0.473630 0.884290
O O3 0.340271 0.259901 0.897574
O O4 0.500000 0.500000 0.000000
O O5 0.500000 0.500000 0.500000
O O6 0.666447 0.498049 0.409678
O O7 0.860053 0.571333 0.563263
O O8 0.312880 0.730480 0.828819
O O9 0.367896 0.963557 0.765677
O O10 0.026770 0.802564 0.686961
O O11 0.116530 0.016419 0.805853
O O12 0.378289 0.254419 0.174512
O O13 0.670739 0.462890 0.270337
#
# Coordination Sequence:
#
# PCOD9240150 Si02
#       6
#     4   4   4   4   4   4
#     4  11  19  33  62  88 115 157 202 247 290 346
#     4  10  18  35  57  82 117 152 198 251 283 348
#     4  10  22  36  59  89 118 156 192 247 307 336
#     4  10  20  35  58  85 116 157 202 236 291 358
#     4  10  20  36  59  86 115 157 203 238 292 353
#     4  11  21  38  59  89 124 144 204 249 300 349
#
# _framework density 22.005998999999999
#
# number of rings (size 3 to 8) (size 9 to 14) (size 15 to 20)
#    1.000    0.667    3.333    5.000    0.000    0.000 
#    0.000    0.833    0.000    2.000    0.000    0.000 
#    0.000    0.000    0.000    0.000    0.000    0.000 
#
# Total GULP energy -133653.711623 kJ/mol
# GULP energy per Si atom -5568.904651 kJ/mol
# Density = 2.195591 g / cm^3
# Si number density = 22.005999 Si / 1000 Ang^3
#
#
#
# Elastic Constant Matrix: (Units=GPa)
#
#
# Indices 1 2 3 4 5 6 
#
# 1 26.1761 9.2496 5.8790 0.0000 4.0832 0.0000
# 2 9.2496 150.4210 76.9039 0.0000 -15.1252 0.0000
# 3 5.8790 76.9039 111.9525 0.0000 -17.4241 0.0000
# 4 0.0000 0.0000 0.0000 46.9216 0.0000 -10.3451
# 5 4.0832 -15.1252 -17.4241 0.0000 26.1483 0.0000
# 6 0.0000 0.0000 0.0000 -10.3451 0.0000 13.4987
#
#
#
# Elastic Compliance Matrix: (Units=1/GPa)
#
#
# Indices 1 2 3 4 5 6 
#
# 1 0.040908 -0.002477 -0.001856 0.000000 -0.009058 0.000000
# 2 -0.002477 0.010441 -0.006741 0.000000 0.001934 0.000000
# 3 -0.001856 -0.006741 0.014615 0.000000 0.006129 0.000000
# 4 0.000000 0.000000 0.000000 0.025645 0.000000 0.019654
# 5 -0.009058 0.001934 0.006129 0.000000 0.044861 0.000000
# 6 0.000000 0.000000 0.000000 0.019654 0.000000 0.089144
#
#
# Mechanical properties :
#
#
# Convention : Reuss Voigt Hill
#
# Bulk Modulus (GPa) = 22.82363 52.51271 37.66817
# Shear Modulus (GPa) = 19.05716 30.41486 24.73601
#
# Velocity S-wave (km/s) = 2.94598 3.72172 3.35633
# Velocity P-wave (km/s) = 4.68677 6.51022 5.67224
#
# Compressibility (1/GPa) = 0.04381424
#
# Stress axis : x y z
#
# Youngs Moduli (GPa) = 24.44512 95.77211 68.42453
#
# Poissons Ratio (x) = 0.23725 0.12701
# Poissons Ratio (y) = 0.06056 0.46128
# Poissons Ratio (z) = 0.04538 0.64564
#
# Static dielectric constant tensor:
#      x y z
#    x 1.944410 0.000000 0.016870 
#    y 0.000000 1.851440 0.000000 
#    z 0.016870 0.000000 1.862810 
# 
# From -- ./inp_files/56868.got.cif
#   From: 2010.05.17/outbox.cif.g08.bks.cpg/sg14_29_cif.got.tgz:56868.got - 2010.06.03 17:49:19.
