data_PCOD9240176
_publ_section_title
;
Structure prediction by ZEFSAII (Michael W. Deem and Ramdas Pophale) SiO2 
 PCOD9240176
Probable space group: P 21/C
;
_chemical_formula_sum "Si O2"
_cell_formula_units_Z 32
_cell_length_a 16.315874
_cell_length_b 17.848067
_cell_length_c 5.550128
_cell_angle_alpha 90.000000
_cell_angle_beta 94.232321
_cell_angle_gamma 90.000000
_cell_volume 1611.827617
_symmetry_space_group_name_H-M "P 21/C"
_symmetry_group_IT_number 14
_symmetry_cell_setting 'monoclinic'
loop_
_space_group_symop_operation_xyz
x,y,z
-x,1/2+y,1/2-z
-x,-y,-z
x,1/2-y,1/2+z
loop_
_atom_site_type_symbol
_atom_site_label
_atom_site_fract_x
_atom_site_fract_y
_atom_site_fract_z
Si Si1 0.605570 0.443306 0.336576
Si Si2 0.433901 0.395640 0.420119
Si Si3 0.328138 0.471097 0.035398
Si Si4 0.189847 0.081868 0.146977
Si Si5 0.222990 0.940477 0.899333
Si Si6 0.875213 0.206526 0.249498
Si Si7 0.071691 0.205817 0.292538
Si Si8 0.293314 0.206577 0.995241
O O1 0.530741 0.391535 0.399537
O O2 0.586389 0.525545 0.449165
O O3 0.612924 0.464109 0.058261
O O4 0.696302 0.416259 0.430266
O O5 0.385622 0.326886 0.523099
O O6 0.386694 0.408814 0.158792
O O7 0.269066 0.434558 0.827710
O O8 0.266032 0.511118 0.201857
O O9 0.120078 0.127963 0.268341
O O10 0.228901 0.137893 0.958762
O O11 0.168444 0.000558 0.035875
O O12 0.172392 0.871213 0.791611
O O13 0.855641 0.244841 0.503677
O O14 0.973539 0.194064 0.267788
O O15 0.091018 0.244832 0.554753
O O16 0.280163 0.255354 0.752610
#
# Coordination Sequence:
#
# PCOD9240176 Si02
#       8
#     4   4   4   4   4   4   4   4
#     4   9  19  35  61  85 116 155 216 264 301 361
#     4  10  19  36  55  84 117 166 212 253 304 363
#     4  10  18  35  59  92 118 158 211 264 305 365
#     4  11  22  37  61  92 129 160 217 254 304 381
#     4  10  22  38  64  94 119 161 213 266 315 368
#     4  10  24  46  68  91 126 165 206 259 325 383
#     4  10  23  42  64  93 129 173 210 245 311 386
#     4  12  24  37  56  85 129 169 198 250 315 367
#
# _framework density 19.853241000000001
#
# number of rings (size 3 to 8) (size 9 to 14) (size 15 to 20)
#    0.000    1.750    3.750    1.875    5.250    0.500 
#    0.000    1.875    0.000    0.000    0.000    0.000 
#    0.000    0.000    0.000    0.000    0.000    0.000 
#
# Total GULP energy -178427.635866 kJ/mol
# GULP energy per Si atom -5575.863621 kJ/mol
# Density = 1.980805 g / cm^3
# Si number density = 19.853241 Si / 1000 Ang^3
#
#
#
# Elastic Constant Matrix: (Units=GPa)
#
#
# Indices 1 2 3 4 5 6 
#
# 1 51.8896 24.0062 7.0779 0.0000 2.3268 0.0000
# 2 24.0062 52.3050 9.3678 0.0000 10.2365 0.0000
# 3 7.0779 9.3678 69.9898 0.0000 2.6248 0.0000
# 4 0.0000 0.0000 0.0000 20.5701 0.0000 -0.4605
# 5 2.3268 10.2365 2.6248 0.0000 14.2285 0.0000
# 6 0.0000 0.0000 0.0000 -0.4605 0.0000 41.8650
#
#
#
# Elastic Compliance Matrix: (Units=1/GPa)
#
#
# Indices 1 2 3 4 5 6 
#
# 1 0.024823 -0.012158 -0.001066 0.000000 0.004884 0.000000
# 2 -0.012158 0.028612 -0.001916 0.000000 -0.018243 0.000000
# 3 -0.001066 -0.001916 0.014696 0.000000 -0.001158 0.000000
# 4 0.000000 0.000000 0.000000 0.048626 0.000000 0.000535
# 5 0.004884 -0.018243 -0.001158 0.000000 0.082821 0.000000
# 6 0.000000 0.000000 0.000000 0.000535 0.000000 0.023892
#
#
# Mechanical properties :
#
#
# Convention : Reuss Voigt Hill
#
# Bulk Modulus (GPa) = 26.41967 28.34313 27.38140
# Shear Modulus (GPa) = 18.77117 24.24821 21.50969
#
# Velocity S-wave (km/s) = 3.07823 3.49861 3.29513
# Velocity P-wave (km/s) = 5.09611 5.53422 5.31968
#
# Compressibility (1/GPa) = 0.03785059
#
# Stress axis : x y z
#
# Youngs Moduli (GPa) = 40.28563 34.95039 68.04804
#
# Poissons Ratio (x) = 0.42492 0.07255
# Poissons Ratio (y) = 0.48978 0.13038
# Poissons Ratio (z) = 0.04295 0.06696
#
# Static dielectric constant tensor:
#      x y z
#    x 1.692820 0.000000 -0.010040 
#    y 0.000000 1.699810 0.000000 
#    z -0.010040 0.000000 1.818550 
# 
# From -- ./inp_files/3810.got.cif
#   From: 2010.05.17/outbox.cif.g08.bks.cpg/sg14_2_cif.got.tgz:3810.got - 2010.06.03 17:49:19.
