data_PCOD9240258
_publ_section_title
;
Structure prediction by ZEFSAII (Michael W. Deem and Ramdas Pophale) SiO2 
 PCOD9240258
Probable space group: P 21/C
;
_chemical_formula_sum "Si O2"
_cell_formula_units_Z 24
_cell_length_a 19.959480
_cell_length_b 8.395278
_cell_length_c 29.237797
_cell_angle_alpha 90.000000
_cell_angle_beta 11.823554
_cell_angle_gamma 90.000000
_cell_volume 1003.847188
_symmetry_space_group_name_H-M "P 21/C"
_symmetry_group_IT_number 14
_symmetry_cell_setting 'monoclinic'
loop_
_space_group_symop_operation_xyz
x,y,z
-x,1/2+y,1/2-z
-x,-y,-z
x,1/2-y,1/2+z
loop_
_atom_site_type_symbol
_atom_site_label
_atom_site_fract_x
_atom_site_fract_y
_atom_site_fract_z
Si Si1 0.331168 0.192736 0.735773
Si Si2 0.383566 0.476887 0.449171
Si Si3 0.991809 0.682389 0.641268
Si Si4 0.352604 0.116807 0.816883
Si Si5 0.291362 0.295591 0.946366
Si Si6 0.060896 0.448645 0.762535
O O1 0.347365 0.384734 0.725813
O O2 0.177353 0.130091 0.792126
O O3 0.168474 0.147639 0.892497
O O4 0.699239 0.121647 0.491627
O O5 0.472532 0.318297 0.361999
O O6 0.097058 0.553671 0.608629
O O7 0.254476 0.453097 0.586324
O O8 0.322231 0.773317 0.405255
O O9 0.789404 0.820154 0.802462
O O10 0.191821 0.182396 0.970412
O O11 0.495267 0.938819 0.718079
O O12 0.011910 0.387125 0.162155
#
# Coordination Sequence:
#
# PCOD9240258 Si02
#       6
#     4   4   4   4   4   4
#     4   9  19  35  54  77 108 144 182 228 276 327
#     4  10  19  35  57  78 109 148 184 227 274 327
#     4   9  19  35  54  77 108 144 182 228 276 327
#     4   9  19  35  53  78 110 140 182 228 276 332
#     4  10  18  36  58  78 110 148 180 228 282 326
#     4   9  20  36  54  80 111 144 188 229 272 327
#
# _framework density 23.908021999999999
#
# number of rings (size 3 to 8) (size 9 to 14) (size 15 to 20)
#    0.000    3.333    0.000    4.000    0.000    1.333 
#    0.000   21.667    0.000    0.000    0.000    0.000 
#    0.000    0.000    0.000    0.000    0.000    0.000 
#
# Total GULP energy -133940.744891 kJ/mol
# GULP energy per Si atom -5580.864370 kJ/mol
# Density = 2.385361 g / cm^3
# Si number density = 23.908022 Si / 1000 Ang^3
#
#
#
# Elastic Constant Matrix: (Units=GPa)
#
#
# Indices 1 2 3 4 5 6 
#
# 1 194.6089 55.9955 32.5375 0.0000 31.2651 0.0000
# 2 55.9955 97.4572 28.4038 0.0000 34.4745 0.0000
# 3 32.5375 28.4038 38.9081 0.0000 6.1119 0.0000
# 4 0.0000 0.0000 0.0000 15.8413 0.0000 5.5408
# 5 31.2651 34.4745 6.1119 0.0000 34.4435 0.0000
# 6 0.0000 0.0000 0.0000 5.5408 0.0000 43.3370
#
#
#
# Elastic Compliance Matrix: (Units=1/GPa)
#
#
# Indices 1 2 3 4 5 6 
#
# 1 0.006877 -0.001215 -0.004191 0.000000 -0.004283 0.000000
# 2 -0.001215 0.020287 -0.011087 0.000000 -0.017235 0.000000
# 3 -0.004191 -0.011087 0.035962 0.000000 0.008520 0.000000
# 4 0.000000 0.000000 0.000000 0.066081 0.000000 -0.008449
# 5 -0.004283 -0.017235 0.008520 0.000000 0.048660 0.000000
# 6 0.000000 0.000000 0.000000 -0.008449 0.000000 0.024155
#
#
# Mechanical properties :
#
#
# Convention : Reuss Voigt Hill
#
# Bulk Modulus (GPa) = 33.17833 62.76085 47.96959
# Shear Modulus (GPa) = 20.40372 32.99353 26.69862
#
# Velocity S-wave (km/s) = 2.92451 3.71889 3.34536
# Velocity P-wave (km/s) = 5.03104 6.68941 5.91859
#
# Compressibility (1/GPa) = 0.03014015
#
# Stress axis : x y z
#
# Youngs Moduli (GPa) = 145.41582 49.29320 27.80722
#
# Poissons Ratio (x) = 0.05987 0.11655
# Poissons Ratio (y) = 0.17663 0.30829
# Poissons Ratio (z) = 0.60949 0.54650
#
# Static dielectric constant tensor:
#      x y z
#    x 1.944930 0.000000 -0.003860 
#    y 0.000000 1.985450 0.000000 
#    z -0.003860 0.000000 1.941440 
# 
# From -- ./inp_files/77060.got.cif
#   From: 2010.05.17/outbox.cif.g08.bks.cpg/sg14_39_cif.got.tgz:77060.got - 2010.06.03 17:49:19.
