data_PCOD9240086
_publ_section_title
;
Structure prediction by ZEFSAII (Michael W. Deem and Ramdas Pophale) SiO2 
 PCOD9240086
Probable space group: P 21/C
;
_chemical_formula_sum "Si O2"
_cell_formula_units_Z 32
_cell_length_a 8.005714
_cell_length_b 11.266075
_cell_length_c 22.650960
_cell_angle_alpha 90.000000
_cell_angle_beta 127.897924
_cell_angle_gamma 90.000000
_cell_volume 1612.110683
_symmetry_space_group_name_H-M "P 21/C"
_symmetry_group_IT_number 14
_symmetry_cell_setting 'monoclinic'
loop_
_space_group_symop_operation_xyz
x,y,z
-x,1/2+y,1/2-z
-x,-y,-z
x,1/2-y,1/2+z
loop_
_atom_site_type_symbol
_atom_site_label
_atom_site_fract_x
_atom_site_fract_y
_atom_site_fract_z
Si Si1 0.316281 0.504306 0.354574
Si Si2 0.248217 0.851107 0.730351
Si Si3 0.754129 0.908610 0.636291
Si Si4 0.288839 0.430793 0.008098
Si Si5 0.692182 0.261928 0.092469
Si Si6 0.590592 0.207854 0.942007
Si Si7 0.136636 0.886814 0.265487
Si Si8 0.798693 0.129251 0.412706
O O1 0.360388 0.556238 0.298543
O O2 0.303260 0.625558 0.387604
O O3 0.500962 0.423317 0.420804
O O4 0.093865 0.430807 0.305955
O O5 0.257779 0.711674 0.752021
O O6 0.294450 0.882023 0.672941
O O7 0.999222 0.875462 0.686598
O O8 0.701216 0.964873 0.560016
O O9 0.615002 0.791657 0.610434
O O10 0.735716 0.994695 0.688582
O O11 0.469316 0.330717 0.057521
O O12 0.290326 0.536786 0.057014
O O13 0.050984 0.382487 0.963908
O O14 0.871567 0.324542 0.171152
O O15 0.707933 0.253633 0.025877
O O16 0.741754 0.239196 0.921289
#
# Coordination Sequence:
#
# PCOD9240086 Si02
#       8
#     4   4   4   4   4   4   4   4
#     4  10  21  37  58  84 119 152 191 241 294 347
#     4   9  19  36  53  79 116 156 179 228 299 348
#     4   9  17  32  59  84 106 139 197 245 277 329
#     4   9  19  37  58  84 112 149 194 239 289 336
#     4  10  21  37  63  85 112 151 199 243 287 337
#     4  11  20  36  58  90 111 147 200 243 282 341
#     4  10  18  34  60  83 110 149 194 239 288 339
#     4  10  20  35  58  82 117 151 186 243 286 340
#
# _framework density 19.849753
#
# number of rings (size 3 to 8) (size 9 to 14) (size 15 to 20)
#    0.000    2.250    1.250    1.875    0.000    3.000 
#    6.750    0.625    0.000    0.000    0.000    0.000 
#    0.000    0.000    0.000    0.000    0.000    0.000 
#
# Total GULP energy -178162.313022 kJ/mol
# GULP energy per Si atom -5567.572282 kJ/mol
# Density = 1.980457 g / cm^3
# Si number density = 19.849753 Si / 1000 Ang^3
#
#
#
# Elastic Constant Matrix: (Units=GPa)
#
#
# Indices 1 2 3 4 5 6 
#
# 1 33.2098 14.6454 13.5669 0.0000 -5.2656 0.0000
# 2 14.6454 84.5364 14.4455 0.0000 -5.4941 0.0000
# 3 13.5669 14.4455 64.1858 0.0000 -13.0995 0.0000
# 4 0.0000 0.0000 0.0000 38.4579 0.0000 2.9743
# 5 -5.2656 -5.4941 -13.0995 0.0000 25.5632 0.0000
# 6 0.0000 0.0000 0.0000 2.9743 0.0000 14.6173
#
#
#
# Elastic Compliance Matrix: (Units=1/GPa)
#
#
# Indices 1 2 3 4 5 6 
#
# 1 0.035101 -0.004903 -0.005646 0.000000 0.003283 0.000000
# 2 -0.004903 0.013030 -0.001710 0.000000 0.000914 0.000000
# 3 -0.005646 -0.001710 0.018813 0.000000 0.008110 0.000000
# 4 0.000000 0.000000 0.000000 0.026418 0.000000 -0.005375
# 5 0.003283 0.000914 0.008110 0.000000 0.044148 0.000000
# 6 0.000000 0.000000 0.000000 -0.005375 0.000000 0.069506
#
#
# Mechanical properties :
#
#
# Convention : Reuss Voigt Hill
#
# Bulk Modulus (GPa) = 23.56954 29.69417 26.63186
# Shear Modulus (GPa) = 20.35214 25.01261 22.68237
#
# Velocity S-wave (km/s) = 3.20552 3.55364 3.38406
# Velocity P-wave (km/s) = 5.05967 5.64178 5.35863
#
# Compressibility (1/GPa) = 0.04242764
#
# Stress axis : x y z
#
# Youngs Moduli (GPa) = 28.48948 76.74488 53.15471
#
# Poissons Ratio (x) = 0.37627 0.30009
# Poissons Ratio (y) = 0.13968 0.09087
# Poissons Ratio (z) = 0.16084 0.13120
#
# Static dielectric constant tensor:
#      x y z
#    x 1.690880 0.000000 -0.006230 
#    y 0.000000 1.742510 0.000000 
#    z -0.006230 0.000000 1.762240 
# 
# From -- ./inp_files/72282.got.cif
#   From: 2010.05.17/outbox.cif.g08.bks.cpg/sg14_37_cif.got.tgz:72282.got - 2010.06.03 17:49:19.
