data_PCOD9240452
_publ_section_title
;
Structure prediction by ZEFSAII (Michael W. Deem and Ramdas Pophale) SiO2 
 PCOD9240452
Probable space group: P 21/C
;
_chemical_formula_sum "Si O2"
_cell_formula_units_Z 26
_cell_length_a 11.761224
_cell_length_b 13.317251
_cell_length_c 14.333046
_cell_angle_alpha 90.000000
_cell_angle_beta 30.323776
_cell_angle_gamma 90.000000
_cell_volume 1133.440723
_symmetry_space_group_name_H-M "P 21/C"
_symmetry_group_IT_number 14
_symmetry_cell_setting 'monoclinic'
loop_
_space_group_symop_operation_xyz
x,y,z
-x,1/2+y,1/2-z
-x,-y,-z
x,1/2-y,1/2+z
loop_
_atom_site_type_symbol
_atom_site_label
_atom_site_fract_x
_atom_site_fract_y
_atom_site_fract_z
Si Si1 0.632029 0.621292 0.054155
Si Si2 0.112826 0.121063 0.098572
Si Si3 0.774747 0.689812 0.762831
Si Si4 0.592318 0.173818 0.776231
Si Si5 0.000000 0.500000 0.500000
Si Si6 0.358103 0.603034 0.970954
Si Si7 0.067387 0.322598 0.005127
O O1 0.793117 0.667185 0.859347
O O2 0.551765 0.511354 0.080611
O O3 0.763374 0.606205 0.058454
O O4 0.436488 0.704298 0.202919
O O5 0.083203 0.223693 0.059647
O O6 0.899222 0.106374 0.315550
O O7 0.354062 0.128990 0.977518
O O8 0.106789 0.035058 0.025648
O O9 0.901914 0.602000 0.618508
O O10 0.854765 0.790245 0.653829
O O11 0.509983 0.673865 0.928249
O O12 0.614830 0.140092 0.653308
O O13 0.810960 0.143469 0.678545
#
# Coordination Sequence:
#
# PCOD9240452 Si02
#       7
#     4   4   4   4   2   4   4
#     4  11  24  43  70 104 133 188 232 281 357 401
#     4  10  22  41  65 100 130 171 233 285 342 395
#     4  11  22  40  74 103 132 178 234 296 343 397
#     4  11  25  44  66  99 146 179 228 291 334 425
#     4  10  18  38  64 104 128 156 236 296 328 394
#     4  12  23  42  74 100 137 179 230 293 342 407
#     4  10  24  44  64  97 145 180 225 276 354 418
#
# _framework density 22.939004000000001
#
# number of rings (size 3 to 8) (size 9 to 14) (size 15 to 20)
#    0.000    1.231    6.154    1.385    8.615    0.615 
#    0.000    0.769    0.000    0.000    0.000    0.000 
#    0.000    0.000    0.000    0.000    0.000    0.000 
#
# Total GULP energy -144808.503199 kJ/mol
# GULP energy per Si atom -5569.557815 kJ/mol
# Density = 2.288679 g / cm^3
# Si number density = 22.939004 Si / 1000 Ang^3
#
#
#
# Elastic Constant Matrix: (Units=GPa)
#
#
# Indices 1 2 3 4 5 6 
#
# 1 70.2362 3.4226 9.7006 0.0000 -8.5082 0.0000
# 2 3.4226 33.1722 16.1213 0.0000 6.6321 0.0000
# 3 9.7006 16.1213 77.9429 0.0000 5.4404 0.0000
# 4 0.0000 0.0000 0.0000 18.4607 0.0000 -0.3335
# 5 -8.5082 6.6321 5.4404 0.0000 47.8402 0.0000
# 6 0.0000 0.0000 0.0000 -0.3335 0.0000 23.9361
#
#
#
# Elastic Compliance Matrix: (Units=1/GPa)
#
#
# Indices 1 2 3 4 5 6 
#
# 1 0.014916 -0.001268 -0.001806 0.000000 0.003034 0.000000
# 2 -0.001268 0.034356 -0.006653 0.000000 -0.004232 0.000000
# 3 -0.001806 -0.006653 0.014504 0.000000 -0.001048 0.000000
# 4 0.000000 0.000000 0.000000 0.054183 0.000000 0.000755
# 5 0.003034 -0.004232 -0.001048 0.000000 0.022148 0.000000
# 6 0.000000 0.000000 0.000000 0.000755 0.000000 0.041788
#
#
# Mechanical properties :
#
#
# Convention : Reuss Voigt Hill
#
# Bulk Modulus (GPa) = 22.56182 26.64892 24.60537
# Shear Modulus (GPa) = 23.13494 28.18784 25.66139
#
# Velocity S-wave (km/s) = 3.17920 3.50925 3.34830
# Velocity P-wave (km/s) = 4.83046 5.29739 5.06930
#
# Compressibility (1/GPa) = 0.04432267
#
# Stress axis : x y z
#
# Youngs Moduli (GPa) = 67.04019 29.10717 68.94706
#
# Poissons Ratio (x) = 0.03691 0.12452
# Poissons Ratio (y) = 0.08500 0.45869
# Poissons Ratio (z) = 0.12107 0.19364
#
# Static dielectric constant tensor:
#      x y z
#    x 1.901090 0.000000 -0.031900 
#    y 0.000000 1.876010 0.000000 
#    z -0.031900 0.000000 1.905650 
# 
# From -- ./inp_files/45050.got.cif
#   From: 2010.05.17/outbox.cif.g08.bks.cpg/sg14_23_cif.got.tgz:45050.got - 2010.06.03 17:49:19.
