data_PCOD9240481
_publ_section_title
;
Structure prediction by ZEFSAII (Michael W. Deem and Ramdas Pophale) SiO2 
 PCOD9240481
Probable space group: P 21/C
;
_chemical_formula_sum "Si O2"
_cell_formula_units_Z 20
_cell_length_a 10.953619
_cell_length_b 7.949975
_cell_length_c 13.656970
_cell_angle_alpha 90.000000
_cell_angle_beta 47.829147
_cell_angle_gamma 90.000000
_cell_volume 881.417446
_symmetry_space_group_name_H-M "P 21/C"
_symmetry_group_IT_number 14
_symmetry_cell_setting 'monoclinic'
loop_
_space_group_symop_operation_xyz
x,y,z
-x,1/2+y,1/2-z
-x,-y,-z
x,1/2-y,1/2+z
loop_
_atom_site_type_symbol
_atom_site_label
_atom_site_fract_x
_atom_site_fract_y
_atom_site_fract_z
Si Si1 0.388562 0.370698 0.190268
Si Si2 0.314156 0.019960 0.133635
Si Si3 0.286270 0.006483 0.541879
Si Si4 0.764271 0.642863 0.523445
Si Si5 0.972569 0.106259 0.611510
O O1 0.314865 0.189402 0.199035
O O2 0.325584 0.487539 0.135404
O O3 0.327362 0.418152 0.330807
O O4 0.587775 0.375989 0.075001
O O5 0.213424 0.888636 0.252254
O O6 0.224629 0.027951 0.077033
O O7 0.500000 0.000000 0.000000
O O8 0.329357 0.188805 0.468533
O O9 0.092026 0.005825 0.624227
O O10 0.944633 0.713973 0.449760
O O11 0.000000 0.000000 0.500000
#
# Coordination Sequence:
#
# PCOD9240481 Si02
#       5
#     4   4   4   4   4
#     4  10  18  39  59  89 119 157 200 254 298 365
#     4  11  23  37  63  94 117 157 213 252 302 368
#     4   8  20  36  62  82 126 158 196 248 309 352
#     4   9  21  36  63  85 123 159 203 245 305 365
#     4  10  20  39  59  84 125 163 196 247 302 360
#
# _framework density 22.690723999999999
#
# number of rings (size 3 to 8) (size 9 to 14) (size 15 to 20)
#    1.200    1.200    2.000    0.000    5.600    1.600 
#    0.000    1.000    0.000    0.000    0.000    0.000 
#    0.000    0.000    0.000    0.000    0.000    0.000 
#
# Total GULP energy -111414.778499 kJ/mol
# GULP energy per Si atom -5570.738925 kJ/mol
# Density = 2.263908 g / cm^3
# Si number density = 22.690724 Si / 1000 Ang^3
#
#
#
# Elastic Constant Matrix: (Units=GPa)
#
#
# Indices 1 2 3 4 5 6 
#
# 1 45.2311 -9.4460 29.9932 0.0000 -4.7006 0.0000
# 2 -9.4460 12.3463 16.7140 0.0000 -2.9736 0.0000
# 3 29.9932 16.7140 152.7067 0.0000 -6.8184 0.0000
# 4 0.0000 0.0000 0.0000 27.9612 0.0000 -6.8660
# 5 -4.7006 -2.9736 -6.8184 0.0000 40.2520 0.0000
# 6 0.0000 0.0000 0.0000 -6.8660 0.0000 21.8028
#
#
#
# Elastic Compliance Matrix: (Units=1/GPa)
#
#
# Indices 1 2 3 4 5 6 
#
# 1 0.043469 0.054024 -0.014153 0.000000 0.006670 0.000000
# 2 0.054024 0.163363 -0.027882 0.000000 0.013654 0.000000
# 3 -0.014153 -0.027882 0.012307 0.000000 -0.001628 0.000000
# 4 0.000000 0.000000 0.000000 0.038761 0.000000 0.012206
# 5 0.006670 0.013654 -0.001628 0.000000 0.026355 0.000000
# 6 0.000000 0.000000 0.000000 0.012206 0.000000 0.049710
#
#
# Mechanical properties :
#
#
# Convention : Reuss Voigt Hill
#
# Bulk Modulus (GPa) = 4.11322 31.64517 17.87919
# Shear Modulus (GPa) = 12.78685 29.53805 21.16245
#
# Velocity S-wave (km/s) = 2.37645 3.61192 3.05724
# Velocity P-wave (km/s) = 3.05723 5.60100 4.51209
#
# Compressibility (1/GPa) = 0.24311878
#
# Stress axis : x y z
#
# Youngs Moduli (GPa) = 23.00482 6.12133 81.25248
#
# Poissons Ratio (x) = -0.33070 1.14997
# Poissons Ratio (y) = -1.24282 2.26545
# Poissons Ratio (z) = 0.32559 0.17067
#
# Static dielectric constant tensor:
#      x y z
#    x 2.097760 0.000000 0.252300 
#    y 0.000000 1.937810 0.000000 
#    z 0.252300 0.000000 2.302890 
# 
# From -- ./inp_files/27964.got.cif
#   From: 2010.05.17/outbox.cif.g08.bks.cpg/sg14_14_cif.got.tgz:27964.got - 2010.06.03 17:49:19.
