data_PCOD9240406
_publ_section_title
;
Structure prediction by ZEFSAII (Michael W. Deem and Ramdas Pophale) SiO2 
 PCOD9240406
Probable space group: P 21/C
;
_chemical_formula_sum "Si O2"
_cell_formula_units_Z 24
_cell_length_a 10.610723
_cell_length_b 5.267960
_cell_length_c 21.224502
_cell_angle_alpha 90.000000
_cell_angle_beta 49.379392
_cell_angle_gamma 90.000000
_cell_volume 900.508901
_symmetry_space_group_name_H-M "P 21/C"
_symmetry_group_IT_number 14
_symmetry_cell_setting 'monoclinic'
loop_
_space_group_symop_operation_xyz
x,y,z
-x,1/2+y,1/2-z
-x,-y,-z
x,1/2-y,1/2+z
loop_
_atom_site_type_symbol
_atom_site_label
_atom_site_fract_x
_atom_site_fract_y
_atom_site_fract_z
Si Si1 0.969164 0.544844 0.643275
Si Si2 0.479009 0.880865 0.173759
Si Si3 0.822603 0.090205 0.032183
Si Si4 0.655376 0.560491 0.405792
Si Si5 0.754006 0.050167 0.328590
Si Si6 0.793677 0.456585 0.143275
O O1 0.888747 0.279485 0.645349
O O2 0.904770 0.535042 0.735874
O O3 0.152058 0.554428 0.550690
O O4 0.881690 0.793311 0.640922
O O5 0.674887 0.918007 0.107678
O O6 0.415375 0.086038 0.143160
O O7 0.797891 0.372561 0.068662
O O8 0.392288 0.940944 0.268066
O O9 0.000000 0.000000 0.000000
O O10 0.500000 0.500000 0.500000
O O11 0.772620 0.318586 0.357469
O O12 0.729298 0.837933 0.389958
O O13 0.598527 0.127795 0.332952
#
# Coordination Sequence:
#
# PCOD9240406 Si02
#       6
#     4   4   4   4   4   4
#     4  10  18  38  54  81 115 152 188 239 290 342
#     4   9  21  37  57  85 119 152 197 246 288 342
#     4  10  22  37  55  85 118 161 196 234 286 353
#     4  10  19  36  64  89 110 142 197 247 301 350
#     4   9  18  36  61  84 116 149 186 249 297 347
#     4  10  20  37  54  78 113 157 197 238 277 341
#
# _framework density 26.651599000000001
#
# number of rings (size 3 to 8) (size 9 to 14) (size 15 to 20)
#    1.000    1.333    1.667    1.000    0.000    2.667 
#   12.000    0.000    0.000    2.000    0.000    0.000 
#    0.000    0.000    0.000    0.000    0.000    0.000 
#
# Total GULP energy -133982.208564 kJ/mol
# GULP energy per Si atom -5582.592023 kJ/mol
# Density = 2.659094 g / cm^3
# Si number density = 26.651599 Si / 1000 Ang^3
#
#
#
# Elastic Constant Matrix: (Units=GPa)
#
#
# Indices 1 2 3 4 5 6 
#
# 1 43.3651 31.4829 52.0994 0.0000 -29.1047 0.0000
# 2 31.4829 182.6303 46.6667 0.0000 -31.4025 0.0000
# 3 52.0994 46.6667 210.6963 0.0000 -45.9672 0.0000
# 4 0.0000 0.0000 0.0000 42.4253 0.0000 1.8053
# 5 -29.1047 -31.4025 -45.9672 0.0000 48.3254 0.0000
# 6 0.0000 0.0000 0.0000 1.8053 0.0000 20.0685
#
#
#
# Elastic Compliance Matrix: (Units=1/GPa)
#
#
# Indices 1 2 3 4 5 6 
#
# 1 0.046234 -0.002913 -0.006467 0.000000 0.019800 0.000000
# 2 -0.002913 0.006413 -0.000219 0.000000 0.002204 0.000000
# 3 -0.006467 -0.000219 0.006957 0.000000 0.002580 0.000000
# 4 0.000000 0.000000 0.000000 0.023661 0.000000 -0.002129
# 5 0.019800 0.002204 0.002580 0.000000 0.036504 0.000000
# 6 0.000000 0.000000 0.000000 -0.002129 0.000000 0.050021
#
#
# Mechanical properties :
#
#
# Convention : Reuss Voigt Hill
#
# Bulk Modulus (GPa) = 24.74974 77.46552 51.10763
# Shear Modulus (GPa) = 24.69663 42.59337 33.64500
#
# Velocity S-wave (km/s) = 3.04739 4.00203 3.55688
# Velocity P-wave (km/s) = 4.65711 7.10521 6.00719
#
# Compressibility (1/GPa) = 0.04040447
#
# Stress axis : x y z
#
# Youngs Moduli (GPa) = 21.62917 155.94066 143.74549
#
# Poissons Ratio (x) = 0.45424 0.92966
# Poissons Ratio (y) = 0.06300 0.03150
# Poissons Ratio (z) = 0.13988 0.03418
#
# Static dielectric constant tensor:
#      x y z
#    x 2.405310 0.000000 0.087510 
#    y 0.000000 2.220720 0.000000 
#    z 0.087510 0.000000 2.178560 
# 
# From -- ./inp_files/73404.got.cif
#   From: 2010.05.17/outbox.cif.g08.bks.cpg/sg14_37_cif.got.tgz:73404.got - 2010.06.03 17:49:19.
