data_PCOD9240107
_publ_section_title
;
Structure prediction by ZEFSAII (Michael W. Deem and Ramdas Pophale) SiO2 
 PCOD9240107
Probable space group: P 21/C
;
_chemical_formula_sum "Si O2"
_cell_formula_units_Z 32
_cell_length_a 16.298942
_cell_length_b 19.142452
_cell_length_c 10.259786
_cell_angle_alpha 90.000000
_cell_angle_beta 35.398137
_cell_angle_gamma 90.000000
_cell_volume 1854.235218
_symmetry_space_group_name_H-M "P 21/C"
_symmetry_group_IT_number 14
_symmetry_cell_setting 'monoclinic'
loop_
_space_group_symop_operation_xyz
x,y,z
-x,1/2+y,1/2-z
-x,-y,-z
x,1/2-y,1/2+z
loop_
_atom_site_type_symbol
_atom_site_label
_atom_site_fract_x
_atom_site_fract_y
_atom_site_fract_z
Si Si1 0.954366 0.566166 0.396386
Si Si2 0.918359 0.581854 0.748323
Si Si3 0.345612 0.066720 0.819095
Si Si4 0.802127 0.318554 0.909201
Si Si5 0.431445 0.595274 0.190275
Si Si6 0.466711 0.587548 0.682083
Si Si7 0.599937 0.576092 0.228514
Si Si8 0.173451 0.690628 0.427641
O O1 0.902205 0.566203 0.614500
O O2 0.817914 0.583729 0.487957
O O3 0.015965 0.490100 0.281816
O O4 0.078163 0.622380 0.229414
O O5 0.032068 0.643205 0.620239
O O6 0.763542 0.597592 0.004826
O O7 0.444295 0.097496 0.577572
O O8 0.408571 0.091211 0.874058
O O9 0.366858 0.983015 0.778251
O O10 0.805236 0.294148 0.754057
O O11 0.653084 0.356115 0.131570
O O12 0.832777 0.257876 0.972543
O O13 0.504954 0.606901 0.234637
O O14 0.306561 0.645972 0.308002
O O15 0.529133 0.594583 0.457189
O O16 0.403876 0.508817 0.778740
#
# Coordination Sequence:
#
# PCOD9240107 Si02
#       8
#     4   4   4   4   4   4   4   4
#     4  10  19  35  64  90 116 152 201 255 293 348
#     4  10  19  36  62  91 116 154 200 248 300 351
#     4  10  18  34  61  95 111 144 200 252 295 337
#     4  11  24  42  60  84 123 164 199 241 304 364
#     4  10  19  33  62  90 117 144 199 248 289 358
#     4  10  21  37  58  89 126 152 188 249 301 353
#     4  10  20  36  61  93 120 148 192 249 307 344
#     4  11  24  41  60  87 120 162 201 243 301 367
#
# _framework density 17.257788000000001
#
# number of rings (size 3 to 8) (size 9 to 14) (size 15 to 20)
#    0.000    1.750    5.000    0.000    1.750    0.000 
#    2.250    3.125    0.000    0.000    0.000    0.000 
#    0.000    0.000    0.000    0.000    0.000    0.000 
#
# Total GULP energy -178590.475468 kJ/mol
# GULP energy per Si atom -5580.952358 kJ/mol
# Density = 1.721851 g / cm^3
# Si number density = 17.257788 Si / 1000 Ang^3
#
#
#
# Elastic Constant Matrix: (Units=GPa)
#
#
# Indices 1 2 3 4 5 6 
#
# 1 131.2801 35.9168 58.7937 0.0000 4.7662 0.0000
# 2 35.9168 53.0537 34.0658 0.0000 9.8107 0.0000
# 3 58.7937 34.0658 79.6551 0.0000 -0.5791 0.0000
# 4 0.0000 0.0000 0.0000 13.9134 0.0000 1.3385
# 5 4.7662 9.8107 -0.5791 0.0000 33.5025 0.0000
# 6 0.0000 0.0000 0.0000 1.3385 0.0000 21.8806
#
#
#
# Elastic Compliance Matrix: (Units=1/GPa)
#
#
# Indices 1 2 3 4 5 6 
#
# 1 0.011808 -0.003068 -0.007410 0.000000 -0.000910 0.000000
# 2 -0.003068 0.028994 -0.010195 0.000000 -0.008230 0.000000
# 3 -0.007410 -0.010195 0.022416 0.000000 0.004427 0.000000
# 4 0.000000 0.000000 0.000000 0.072299 0.000000 -0.004423
# 5 -0.000910 -0.008230 0.004427 0.000000 0.032465 0.000000
# 6 0.000000 0.000000 0.000000 -0.004423 0.000000 0.045973
#
#
# Mechanical properties :
#
#
# Convention : Reuss Voigt Hill
#
# Bulk Modulus (GPa) = 45.72134 57.94904 51.83519
# Shear Modulus (GPa) = 19.04090 22.87346 20.95718
#
# Velocity S-wave (km/s) = 3.32523 3.64455 3.48855
# Velocity P-wave (km/s) = 6.42601 7.16671 6.80644
#
# Compressibility (1/GPa) = 0.02187162
#
# Stress axis : x y z
#
# Youngs Moduli (GPa) = 84.68550 34.48996 44.61058
#
# Poissons Ratio (x) = 0.10580 0.33059
# Poissons Ratio (y) = 0.25979 0.45482
# Poissons Ratio (z) = 0.62756 0.35164
#
# Static dielectric constant tensor:
#      x y z
#    x 1.573130 0.000000 0.008110 
#    y 0.000000 1.577980 0.000000 
#    z 0.008110 0.000000 1.565790 
# 
# From -- ./inp_files/16848.got.cif
#   From: 2010.05.17/outbox.cif.g08.bks.cpg/sg14_9_cif.got.tgz:16848.got - 2010.06.03 17:49:19.
