data_PCOD9240058
_publ_section_title
;
Structure prediction by ZEFSAII (Michael W. Deem and Ramdas Pophale) SiO2 
 PCOD9240058
Probable space group: P 21/C
;
_chemical_formula_sum "Si O2"
_cell_formula_units_Z 26
_cell_length_a 15.968113
_cell_length_b 17.327621
_cell_length_c 7.796427
_cell_angle_alpha 90.000000
_cell_angle_beta 155.103307
_cell_angle_gamma 90.000000
_cell_volume 908.140800
_symmetry_space_group_name_H-M "P 21/C"
_symmetry_group_IT_number 14
_symmetry_cell_setting 'monoclinic'
loop_
_space_group_symop_operation_xyz
x,y,z
-x,1/2+y,1/2-z
-x,-y,-z
x,1/2-y,1/2+z
loop_
_atom_site_type_symbol
_atom_site_label
_atom_site_fract_x
_atom_site_fract_y
_atom_site_fract_z
Si Si1 0.516913 0.174860 0.552037
Si Si2 0.554357 0.031329 0.788113
Si Si3 0.474342 0.160213 0.074244
Si Si4 0.056640 0.347709 0.317138
Si Si5 0.500000 0.500000 0.500000
Si Si6 0.103864 0.509870 0.511660
Si Si7 0.986329 0.677238 0.356796
O O1 0.632983 0.114637 0.886514
O O2 0.570940 0.262222 0.680592
O O3 0.522911 0.154732 0.364413
O O4 0.289307 0.162168 0.193744
O O5 0.500000 0.000000 0.500000
O O6 0.339432 0.016043 0.492242
O O7 0.665982 0.984592 0.140249
O O8 0.240284 0.173743 0.626973
O O9 0.551097 0.092561 0.096442
O O10 0.038882 0.442027 0.258598
O O11 0.958172 0.267938 0.064430
O O12 0.024374 0.339131 0.460738
O O13 0.000000 0.500000 0.500000
O O14 0.088586 0.602465 0.452337
#
# Coordination Sequence:
#
# PCOD9240058 Si02
#       7
#     4   4   4   4   2   4   4
#     4  10  19  36  57  88 115 155 213 259 289 367
#     4  11  22  41  64  88 122 161 211 252 306 367
#     4  11  20  33  59  88 117 156 209 255 304 364
#     4   9  17  31  55  83 110 150 200 242 295 361
#     4  12  22  36  62  86 122 160 202 258 312 358
#     4   9  19  36  62  85 120 160 198 251 308 362
#     4  10  18  34  58  84 117 154 199 251 308 354
#
# _framework density 28.629921
#
# number of rings (size 3 to 8) (size 9 to 14) (size 15 to 20)
#    0.000    1.846    1.538    7.385    0.000    0.000 
#    0.000    6.923   16.923    0.000    0.000    0.000 
#    0.000    0.000    0.000    0.000    0.000    0.000 
#
# Total GULP energy -145023.105354 kJ/mol
# GULP energy per Si atom -5577.811744 kJ/mol
# Density = 2.856476 g / cm^3
# Si number density = 28.629921 Si / 1000 Ang^3
#
#
#
# Elastic Constant Matrix: (Units=GPa)
#
#
# Indices 1 2 3 4 5 6 
#
# 1 133.7677 40.9406 24.6444 0.0000 -24.3144 0.0000
# 2 40.9406 233.2969 31.1424 0.0000 2.4294 0.0000
# 3 24.6444 31.1424 97.8975 0.0000 17.1228 0.0000
# 4 0.0000 0.0000 0.0000 42.8599 0.0000 -9.6143
# 5 -24.3144 2.4294 17.1228 0.0000 45.9508 0.0000
# 6 0.0000 0.0000 0.0000 -9.6143 0.0000 57.6196
#
#
#
# Elastic Compliance Matrix: (Units=1/GPa)
#
#
# Indices 1 2 3 4 5 6 
#
# 1 0.009601 -0.001337 -0.003094 0.000000 0.006304 0.000000
# 2 -0.001337 0.004667 -0.001049 0.000000 -0.000563 0.000000
# 3 -0.003094 -0.001049 0.012413 0.000000 -0.006207 0.000000
# 4 0.000000 0.000000 0.000000 0.024239 0.000000 0.004044
# 5 0.006304 -0.000563 -0.006207 0.000000 0.027441 0.000000
# 6 0.000000 0.000000 0.000000 0.004044 0.000000 0.018030
#
#
# Mechanical properties :
#
#
# Convention : Reuss Voigt Hill
#
# Bulk Modulus (GPa) = 63.61612 73.15744 68.38678
# Shear Modulus (GPa) = 44.40797 53.83504 49.12150
#
# Velocity S-wave (km/s) = 3.94268 4.34104 4.14664
# Velocity P-wave (km/s) = 6.55703 7.12281 6.84577
#
# Compressibility (1/GPa) = 0.01571929
#
# Stress axis : x y z
#
# Youngs Moduli (GPa) = 104.15783 214.26848 80.55979
#
# Poissons Ratio (x) = 0.28657 0.24925
# Poissons Ratio (y) = 0.13931 0.08454
# Poissons Ratio (z) = 0.32226 0.22486
#
# Static dielectric constant tensor:
#      x y z
#    x 2.789910 0.000000 -0.976650 
#    y 0.000000 2.782780 0.000000 
#    z -0.976650 0.000000 4.234820 
# 
# From -- ./inp_files/18185.got.cif
#   From: 2010.05.17/outbox.cif.g08.bks.cpg/sg14_10_cif.got.tgz:18185.got - 2010.06.03 17:49:19.
