data_PCOD9240376
_publ_section_title
;
Structure prediction by ZEFSAII (Michael W. Deem and Ramdas Pophale) SiO2 
 PCOD9240376
Probable space group: P 21/C
;
_chemical_formula_sum "Si O2"
_cell_formula_units_Z 30
_cell_length_a 9.170876
_cell_length_b 17.384161
_cell_length_c 15.457347
_cell_angle_alpha 90.000000
_cell_angle_beta 144.420015
_cell_angle_gamma 90.000000
_cell_volume 1433.845190
_symmetry_space_group_name_H-M "P 21/C"
_symmetry_group_IT_number 14
_symmetry_cell_setting 'monoclinic'
loop_
_space_group_symop_operation_xyz
x,y,z
-x,1/2+y,1/2-z
-x,-y,-z
x,1/2-y,1/2+z
loop_
_atom_site_type_symbol
_atom_site_label
_atom_site_fract_x
_atom_site_fract_y
_atom_site_fract_z
Si Si1 0.543389 0.170701 0.512065
Si Si2 0.223794 0.563803 0.541572
Si Si3 0.027773 0.433436 0.217806
Si Si4 0.443367 0.647260 0.484948
Si Si5 0.663460 0.052334 0.233449
Si Si6 0.000000 0.000000 0.500000
Si Si7 0.462332 0.087398 0.644122
Si Si8 0.230950 0.453686 0.773823
O O1 0.547520 0.261576 0.505300
O O2 0.481012 0.153314 0.582332
O O3 0.327605 0.127150 0.354294
O O4 0.804579 0.128382 0.611343
O O5 0.282569 0.618510 0.488490
O O6 0.397842 0.489648 0.605504
O O7 0.330404 0.598185 0.681205
O O8 0.928825 0.550480 0.391221
O O9 0.282608 0.391679 0.370322
O O10 0.114563 0.483555 0.174017
O O11 0.945875 0.500670 0.243916
O O12 0.335403 0.613492 0.342207
O O13 0.755556 0.065581 0.373726
O O14 0.201103 0.069214 0.561410
O O15 0.539436 0.011595 0.627052
#
# Coordination Sequence:
#
# PCOD9240376 Si02
#       8
#     4   4   4   4   4   2   4   4
#     4  11  25  36  62  96 129 163 208 269 333 370
#     4  10  20  37  64  87 119 163 218 252 306 386
#     4  10  19  37  61  85 117 161 219 252 298 381
#     4  11  22  38  64  91 126 169 208 259 328 389
#     4  10  18  37  61  89 114 166 217 256 300 374
#     4  10  20  34  64  88 118 152 212 266 300 354
#     4  10  22  38  59  94 123 163 213 268 311 375
#     4  11  19  38  63  89 119 164 214 263 307 378
#
# _framework density 20.922761000000001
#
# number of rings (size 3 to 8) (size 9 to 14) (size 15 to 20)
#    0.000    1.600    2.667    4.400    1.867    0.000 
#    0.000    4.000    2.933    0.000    0.000    0.000 
#    0.000    0.000    0.000    0.000    0.000    0.000 
#
# Total GULP energy -167080.712714 kJ/mol
# GULP energy per Si atom -5569.357090 kJ/mol
# Density = 2.087514 g / cm^3
# Si number density = 20.922761 Si / 1000 Ang^3
#
#
#
# Elastic Constant Matrix: (Units=GPa)
#
#
# Indices 1 2 3 4 5 6 
#
# 1 77.2633 24.2746 -3.7327 0.0000 1.6010 0.0000
# 2 24.2746 117.5025 37.8796 0.0000 1.4722 0.0000
# 3 -3.7327 37.8796 110.9692 0.0000 1.5679 0.0000
# 4 0.0000 0.0000 0.0000 21.7546 0.0000 -0.3860
# 5 1.6010 1.4722 1.5679 0.0000 35.8675 0.0000
# 6 0.0000 0.0000 0.0000 -0.3860 0.0000 19.1294
#
#
#
# Elastic Compliance Matrix: (Units=1/GPa)
#
#
# Indices 1 2 3 4 5 6 
#
# 1 0.014117 -0.003444 0.001658 0.000000 -0.000561 0.000000
# 2 -0.003444 0.010405 -0.003666 0.000000 -0.000113 0.000000
# 3 0.001658 -0.003666 0.010324 0.000000 -0.000375 0.000000
# 4 0.000000 0.000000 0.000000 0.045984 0.000000 0.000928
# 5 -0.000561 -0.000113 -0.000375 0.000000 0.027926 0.000000
# 6 0.000000 0.000000 0.000000 0.000928 0.000000 0.052294
#
#
# Mechanical properties :
#
#
# Convention : Reuss Voigt Hill
#
# Bulk Modulus (GPa) = 41.76676 46.95312 44.35994
# Shear Modulus (GPa) = 27.78794 31.83787 29.81291
#
# Velocity S-wave (km/s) = 3.64829 3.90511 3.77888
# Velocity P-wave (km/s) = 6.14430 6.54393 6.34726
#
# Compressibility (1/GPa) = 0.02394248
#
# Stress axis : x y z
#
# Youngs Moduli (GPa) = 70.83906 96.10590 96.86156
#
# Poissons Ratio (x) = 0.33098 -0.16063
# Poissons Ratio (y) = 0.24396 0.35510
# Poissons Ratio (z) = -0.11748 0.35233
#
# Static dielectric constant tensor:
#      x y z
#    x 1.878760 0.000000 -0.096590 
#    y 0.000000 1.720360 0.000000 
#    z -0.096590 0.000000 1.978980 
# 
# From -- ./inp_files/41836.got.cif
#   From: 2010.05.17/outbox.cif.g08.bks.cpg/sg14_21_cif.got.tgz:41836.got - 2010.06.03 17:49:19.
