data_PCOD9240705
_publ_section_title
;
Structure prediction by ZEFSAII (Michael W. Deem and Ramdas Pophale) SiO2 
 PCOD9240705
Probable space group: P 21/C
;
_chemical_formula_sum "Si O2"
_cell_formula_units_Z 32
_cell_length_a 11.676334
_cell_length_b 8.908581
_cell_length_c 21.859027
_cell_angle_alpha 90.000000
_cell_angle_beta 51.363255
_cell_angle_gamma 90.000000
_cell_volume 1776.084976
_symmetry_space_group_name_H-M "P 21/C"
_symmetry_group_IT_number 14
_symmetry_cell_setting 'monoclinic'
loop_
_space_group_symop_operation_xyz
x,y,z
-x,1/2+y,1/2-z
-x,-y,-z
x,1/2-y,1/2+z
loop_
_atom_site_type_symbol
_atom_site_label
_atom_site_fract_x
_atom_site_fract_y
_atom_site_fract_z
Si Si1 0.091824 0.883410 0.254313
Si Si2 0.665408 0.314788 0.155720
Si Si3 0.932864 0.929558 0.929692
Si Si4 0.753975 0.371620 0.740386
Si Si5 0.184873 0.326731 0.648418
Si Si6 0.960520 0.269216 0.486792
Si Si7 0.358521 0.196620 0.692775
Si Si8 0.180328 0.077604 0.337500
O O1 0.213369 0.752539 0.218732
O O2 0.937848 0.800395 0.296032
O O3 0.129707 0.014554 0.194656
O O4 0.099749 0.963364 0.317941
O O5 0.664052 0.203874 0.214865
O O6 0.522629 0.292057 0.162868
O O7 0.691456 0.482125 0.173082
O O8 0.811455 0.284159 0.067833
O O9 0.813215 0.856882 0.924645
O O10 0.087051 0.906885 0.842754
O O11 0.920128 0.104318 0.950175
O O12 0.945364 0.846323 0.990390
O O13 0.686372 0.522766 0.788785
O O14 0.327444 0.271083 0.637153
O O15 0.060442 0.142884 0.423257
O O16 0.252302 0.289203 0.774166
#
# Coordination Sequence:
#
# PCOD9240705 Si02
#       8
#     4   4   4   4   4   4   4   4
#     4   9  19  30  54  83 106 136 180 232 265 308
#     4  10  21  33  52  83 112 141 178 225 270 321
#     4   9  18  33  55  82 101 138 182 222 269 315
#     4   9  17  34  52  77 110 134 182 227 262 317
#     4  10  19  32  51  81 112 140 180 220 275 322
#     4  10  19  35  58  79 106 139 184 228 265 313
#     4  11  20  34  54  80 113 144 173 221 280 323
#     4  10  20  35  57  84 104 141 186 225 271 310
#
# _framework density 18.017156
#
# number of rings (size 3 to 8) (size 9 to 14) (size 15 to 20)
#    0.000    2.250    1.250    3.375    1.750    0.000 
#    0.000    0.625    0.000    3.000    0.000    0.000 
#    0.000    0.000    0.000    0.000    0.000    0.000 
#
# Total GULP energy -178443.685210 kJ/mol
# GULP energy per Si atom -5576.365163 kJ/mol
# Density = 1.797615 g / cm^3
# Si number density = 18.017156 Si / 1000 Ang^3
#
#
#
# Elastic Constant Matrix: (Units=GPa)
#
#
# Indices 1 2 3 4 5 6 
#
# 1 114.4617 33.1388 12.2989 0.0000 20.3372 0.0000
# 2 33.1388 102.4921 16.2989 0.0000 8.2182 0.0000
# 3 12.2989 16.2989 28.8648 0.0000 9.5707 0.0000
# 4 0.0000 0.0000 0.0000 19.6187 0.0000 3.9946
# 5 20.3372 8.2182 9.5707 0.0000 15.3926 0.0000
# 6 0.0000 0.0000 0.0000 3.9946 0.0000 20.9985
#
#
#
# Elastic Compliance Matrix: (Units=1/GPa)
#
#
# Indices 1 2 3 4 5 6 
#
# 1 0.012173 -0.002950 0.001624 0.000000 -0.015519 0.000000
# 2 -0.002950 0.011509 -0.005665 0.000000 0.001275 0.000000
# 3 0.001624 -0.005665 0.046432 0.000000 -0.027992 0.000000
# 4 0.000000 0.000000 0.000000 0.053026 0.000000 -0.010087
# 5 -0.015519 0.001275 -0.027992 0.000000 0.102194 0.000000
# 6 0.000000 0.000000 0.000000 -0.010087 0.000000 0.049541
#
#
# Mechanical properties :
#
#
# Convention : Reuss Voigt Hill
#
# Bulk Modulus (GPa) = 17.81439 41.03241 29.42340
# Shear Modulus (GPa) = 16.25656 23.47409 19.86533
#
# Velocity S-wave (km/s) = 3.00706 3.61345 3.32411
# Velocity P-wave (km/s) = 4.68673 6.34294 5.57666
#
# Compressibility (1/GPa) = 0.05613439
#
# Stress axis : x y z
#
# Youngs Moduli (GPa) = 82.14605 86.88652 21.53683
#
# Poissons Ratio (x) = 0.25631 -0.03498
# Poissons Ratio (y) = 0.24233 0.12200
# Poissons Ratio (z) = -0.13344 0.49218
#
# Static dielectric constant tensor:
#      x y z
#    x 1.644300 0.000000 0.038820 
#    y 0.000000 1.645770 0.000000 
#    z 0.038820 0.000000 1.589210 
# 
# From -- ./inp_files/66845.got.cif
#   From: 2010.05.17/outbox.cif.g08.bks.cpg/sg14_34_cif.got.tgz:66845.got - 2010.06.03 17:49:19.
