data_PCOD9240715
_publ_section_title
;
Structure prediction by ZEFSAII (Michael W. Deem and Ramdas Pophale) SiO2 
 PCOD9240715
Probable space group: P 21/C
;
_chemical_formula_sum "Si O2"
_cell_formula_units_Z 32
_cell_length_a 30.928607
_cell_length_b 9.173345
_cell_length_c 19.209506
_cell_angle_alpha 90.000000
_cell_angle_beta 16.497118
_cell_angle_gamma 90.000000
_cell_volume 1547.648509
_symmetry_space_group_name_H-M "P 21/C"
_symmetry_group_IT_number 14
_symmetry_cell_setting 'monoclinic'
loop_
_space_group_symop_operation_xyz
x,y,z
-x,1/2+y,1/2-z
-x,-y,-z
x,1/2-y,1/2+z
loop_
_atom_site_type_symbol
_atom_site_label
_atom_site_fract_x
_atom_site_fract_y
_atom_site_fract_z
Si Si1 0.029557 0.204650 0.681998
Si Si2 0.278748 0.170448 0.203672
Si Si3 0.345609 0.011020 0.968370
Si Si4 0.269389 0.208518 0.416706
Si Si5 0.517972 0.222773 0.136294
Si Si6 0.210648 0.967014 0.037962
Si Si7 0.257481 0.629797 0.822056
Si Si8 0.466346 0.756235 0.602783
O O1 0.152039 0.269400 0.437304
O O2 0.129229 0.136185 0.591705
O O3 0.928350 0.101245 0.789348
O O4 0.908488 0.312740 0.903475
O O5 0.266751 0.020856 0.266726
O O6 0.259046 0.120510 0.155266
O O7 0.449097 0.227479 0.954961
O O8 0.464390 0.119063 0.745988
O O9 0.425527 0.886426 0.891095
O O10 0.234758 0.938271 0.082645
O O11 0.372081 0.150622 0.321425
O O12 0.201512 0.360768 0.547103
O O13 0.394720 0.254325 0.165537
O O14 0.650857 0.235838 0.872878
O O15 0.362158 0.898422 0.768712
O O16 0.354718 0.632127 0.743709
#
# Coordination Sequence:
#
# PCOD9240715 Si02
#       8
#     4   4   4   4   4   4   4   4
#     4  10  20  33  50  76 104 138 178 218 272 324
#     4  10  19  32  52  76 108 141 177 225 268 328
#     4  10  20  35  54  81 110 146 186 222 272 327
#     4   9  18  33  52  77 106 138 177 228 282 315
#     4   9  19  36  58  78 107 145 184 230 270 325
#     4  10  19  32  52  76 108 141 177 225 268 328
#     4   9  18  33  52  77 106 138 177 228 282 315
#     4   9  17  30  52  78  99 133 184 228 270 317
#
# _framework density 20.67653
#
# number of rings (size 3 to 8) (size 9 to 14) (size 15 to 20)
#    0.000    2.500    0.000    2.250    0.000    2.500 
#    0.000    3.750    0.000    0.750    0.000    0.000 
#    0.000    0.000    0.000    0.000    0.000    0.000 
#
# Total GULP energy -178172.012654 kJ/mol
# GULP energy per Si atom -5567.875395 kJ/mol
# Density = 2.062947 g / cm^3
# Si number density = 20.676530 Si / 1000 Ang^3
#
#
#
# Elastic Constant Matrix: (Units=GPa)
#
#
# Indices 1 2 3 4 5 6 
#
# 1 129.9415 25.4153 42.4732 0.0000 -33.4987 0.0000
# 2 25.4153 29.1144 15.1145 0.0000 -5.9885 0.0000
# 3 42.4732 15.1145 98.0251 0.0000 -21.0159 0.0000
# 4 0.0000 0.0000 0.0000 25.2784 0.0000 -1.3491
# 5 -33.4987 -5.9885 -21.0159 0.0000 38.5044 0.0000
# 6 0.0000 0.0000 0.0000 -1.3491 0.0000 33.0799
#
#
#
# Elastic Compliance Matrix: (Units=1/GPa)
#
#
# Indices 1 2 3 4 5 6 
#
# 1 0.012006 -0.007636 -0.002310 0.000000 0.007997 0.000000
# 2 -0.007636 0.042505 -0.003683 0.000000 -0.002043 0.000000
# 3 -0.002310 -0.003683 0.012703 0.000000 0.004351 0.000000
# 4 0.000000 0.000000 0.000000 0.039646 0.000000 0.001617
# 5 0.007997 -0.002043 0.004351 0.000000 0.034985 0.000000
# 6 0.000000 0.000000 0.000000 0.001617 0.000000 0.030296
#
#
# Mechanical properties :
#
#
# Convention : Reuss Voigt Hill
#
# Bulk Modulus (GPa) = 25.02828 47.00966 36.01897
# Shear Modulus (GPa) = 23.50519 30.97774 27.24147
#
# Velocity S-wave (km/s) = 3.37531 3.87487 3.63369
# Velocity P-wave (km/s) = 5.22698 6.54252 5.92140
#
# Compressibility (1/GPa) = 0.03995480
#
# Stress axis : x y z
#
# Youngs Moduli (GPa) = 83.29159 23.52644 78.72084
#
# Poissons Ratio (x) = 0.17966 0.18186
# Poissons Ratio (y) = 0.63606 0.28994
# Poissons Ratio (z) = 0.19242 0.08665
#
# Static dielectric constant tensor:
#      x y z
#    x 1.822150 0.000000 -0.010970 
#    y 0.000000 1.787560 0.000000 
#    z -0.010970 0.000000 1.790670 
# 
# From -- ./inp_files/62357.got.cif
#   From: 2010.05.17/outbox.cif.g08.bks.cpg/sg14_32_cif.got.tgz:62357.got - 2010.06.03 17:49:19.
