data_PCOD9240193
_publ_section_title
;
Structure prediction by ZEFSAII (Michael W. Deem and Ramdas Pophale) SiO2 
 PCOD9240193
Probable space group: P 21/C
;
_chemical_formula_sum "Si O2"
_cell_formula_units_Z 28
_cell_length_a 18.277191
_cell_length_b 13.063892
_cell_length_c 9.519778
_cell_angle_alpha 90.000000
_cell_angle_beta 150.637559
_cell_angle_gamma 90.000000
_cell_volume 1114.550037
_symmetry_space_group_name_H-M "P 21/C"
_symmetry_group_IT_number 14
_symmetry_cell_setting 'monoclinic'
loop_
_space_group_symop_operation_xyz
x,y,z
-x,1/2+y,1/2-z
-x,-y,-z
x,1/2-y,1/2+z
loop_
_atom_site_type_symbol
_atom_site_label
_atom_site_fract_x
_atom_site_fract_y
_atom_site_fract_z
Si Si1 0.533057 0.726723 0.131597
Si Si2 0.858277 0.115934 0.347238
Si Si3 0.231399 0.562048 0.857925
Si Si4 0.218599 0.741261 0.523625
Si Si5 0.954637 0.552445 0.203823
Si Si6 0.322865 0.343699 0.353456
Si Si7 0.465958 0.546605 0.635664
O O1 0.615193 0.745455 0.123199
O O2 0.632516 0.667592 0.409861
O O3 0.503686 0.841175 0.141158
O O4 0.368231 0.685353 0.827122
O O5 0.849031 0.198672 0.457994
O O6 0.960514 0.028502 0.585691
O O7 0.887888 0.172769 0.251310
O O8 0.690608 0.069786 0.046301
O O9 0.140665 0.500047 0.827474
O O10 0.112733 0.578226 0.535313
O O11 0.273069 0.668781 0.004938
O O12 0.376353 0.499591 0.050381
O O13 0.847506 0.642795 0.973063
O O14 0.404043 0.449635 0.441376
#
# Coordination Sequence:
#
# PCOD9240193 Si02
#       7
#     4   4   4   4   4   4   4
#     4  11  20  34  60  88 113 147 187 243 280 334
#     4   9  20  35  60  83 116 141 197 226 289 326
#     4  10  18  35  61  79 109 149 202 225 270 329
#     4  10  19  34  57  89 107 149 184 242 274 339
#     4   9  20  37  56  82 110 157 189 232 270 350
#     4  11  21  37  58  85 119 142 196 232 286 330
#     4  10  19  34  59  82 107 153 187 237 263 341
#
# _framework density 25.122247000000002
#
# number of rings (size 3 to 8) (size 9 to 14) (size 15 to 20)
#    0.000    2.000    2.857    3.000    0.000    0.000 
#    2.571    6.429    0.000    0.857    0.000    0.000 
#    0.000    0.000    0.000    0.000    0.000    0.000 
#
# Total GULP energy -156468.571878 kJ/mol
# GULP energy per Si atom -5588.163281 kJ/mol
# Density = 2.506507 g / cm^3
# Si number density = 25.122247 Si / 1000 Ang^3
#
#
#
# Elastic Constant Matrix: (Units=GPa)
#
#
# Indices 1 2 3 4 5 6 
#
# 1 70.0377 30.2874 56.9745 0.0000 -8.5035 0.0000
# 2 30.2874 71.5706 37.6347 0.0000 -0.1262 0.0000
# 3 56.9745 37.6347 195.9605 0.0000 -0.4004 0.0000
# 4 0.0000 0.0000 0.0000 51.5073 0.0000 -4.8113
# 5 -8.5035 -0.1262 -0.4004 0.0000 45.3141 0.0000
# 6 0.0000 0.0000 0.0000 -4.8113 0.0000 25.1194
#
#
#
# Elastic Compliance Matrix: (Units=1/GPa)
#
#
# Indices 1 2 3 4 5 6 
#
# 1 0.021688 -0.006518 -0.005046 0.000000 0.004007 0.000000
# 2 -0.006518 0.017500 -0.001468 0.000000 -0.001187 0.000000
# 3 -0.005046 -0.001468 0.006850 0.000000 -0.000890 0.000000
# 4 0.000000 0.000000 0.000000 0.019768 0.000000 0.003786
# 5 0.004007 -0.001187 -0.000890 0.000000 0.022809 0.000000
# 6 0.000000 0.000000 0.000000 0.003786 0.000000 0.040535
#
#
# Mechanical properties :
#
#
# Convention : Reuss Voigt Hill
#
# Bulk Modulus (GPa) = 50.06275 65.26243 57.66259
# Shear Modulus (GPa) = 30.88855 38.56632 34.72743
#
# Velocity S-wave (km/s) = 3.51027 3.92234 3.72201
# Velocity P-wave (km/s) = 6.03326 6.82256 6.44002
#
# Compressibility (1/GPa) = 0.01997493
#
# Stress axis : x y z
#
# Youngs Moduli (GPa) = 46.10936 57.14151 145.97964
#
# Poissons Ratio (x) = 0.37242 0.73656
# Poissons Ratio (y) = 0.30052 0.21437
# Poissons Ratio (z) = 0.23265 0.08391
#
# Static dielectric constant tensor:
#      x y z
#    x 2.080990 0.000000 -0.037610 
#    y 0.000000 2.019440 0.000000 
#    z -0.037610 0.000000 1.932910 
# 
# From -- ./inp_files/19129.got.cif
#   From: 2010.05.17/outbox.cif.g08.bks.cpg/sg14_10_cif.got.tgz:19129.got - 2010.06.03 17:49:19.
