data_PCOD9240949
_publ_section_title
;
Structure prediction by ZEFSAII (Michael W. Deem and Ramdas Pophale) SiO2 
 PCOD9240949
Probable space group: P 21/C
;
_chemical_formula_sum "Si O2"
_cell_formula_units_Z 32
_cell_length_a 8.023263
_cell_length_b 29.583325
_cell_length_c 5.759920
_cell_angle_alpha 90.000000
_cell_angle_beta 108.519085
_cell_angle_gamma 90.000000
_cell_volume 1296.351034
_symmetry_space_group_name_H-M "P 21/C"
_symmetry_group_IT_number 14
_symmetry_cell_setting 'monoclinic'
loop_
_space_group_symop_operation_xyz
x,y,z
-x,1/2+y,1/2-z
-x,-y,-z
x,1/2-y,1/2+z
loop_
_atom_site_type_symbol
_atom_site_label
_atom_site_fract_x
_atom_site_fract_y
_atom_site_fract_z
Si Si1 0.266274 0.080462 0.425568
Si Si2 0.050289 0.135749 0.043134
Si Si3 0.294577 0.637103 0.278540
Si Si4 0.935673 0.078478 0.592477
Si Si5 0.187995 0.992693 0.192993
Si Si6 0.530370 0.053151 0.946821
Si Si7 0.025522 0.771050 0.194255
Si Si8 0.426992 0.761135 0.850149
O O1 0.223757 0.127409 0.278154
O O2 0.295526 0.038679 0.264463
O O3 0.399403 0.072349 0.692707
O O4 0.073508 0.072206 0.449734
O O5 0.868913 0.139808 0.110452
O O6 0.040149 0.092695 0.868533
O O7 0.054806 0.180039 0.889190
O O8 0.432230 0.596253 0.375306
O O9 0.380841 0.685832 0.312934
O O10 0.194407 0.620207 0.005111
O O11 0.833791 0.031454 0.568781
O O12 0.281996 0.954066 0.091011
O O13 0.000000 0.000000 0.000000
O O14 0.500000 0.000000 0.000000
O O15 0.975033 0.755737 0.433208
O O16 0.240022 0.766506 0.282762
O O17 0.513428 0.747370 0.641738
#
# Coordination Sequence:
#
# PCOD9240949 Si02
#       8
#     4   4   4   4   4   4   4   4
#     4  11  25  39  60  92 133 171 218 267 344 408
#     4  11  21  38  64  95 126 168 218 280 337 411
#     4  11  22  38  64  97 125 174 225 284 338 411
#     4  11  21  39  64  92 125 165 224 282 327 395
#     4  12  21  42  66  89 123 170 229 288 326 389
#     4  12  26  44  62  92 138 186 230 274 351 420
#     4  10  19  33  60  98 133 160 214 288 352 405
#     4  10  19  34  62 100 134 160 218 295 356 404
#
# _framework density 24.684671999999999
#
# number of rings (size 3 to 8) (size 9 to 14) (size 15 to 20)
#    0.000    1.000    5.000    4.500    1.750    0.000 
#    0.000    0.000    0.000    1.500    0.000    0.000 
#    0.000    0.000    0.000    0.000    0.000    0.000 
#
# Total GULP energy -178556.558579 kJ/mol
# GULP energy per Si atom -5579.892456 kJ/mol
# Density = 2.462849 g / cm^3
# Si number density = 24.684672 Si / 1000 Ang^3
#
#
#
# Elastic Constant Matrix: (Units=GPa)
#
#
# Indices 1 2 3 4 5 6 
#
# 1 34.1833 6.3282 6.3565 0.0000 4.2442 0.0000
# 2 6.3282 80.8629 26.5227 0.0000 3.5049 0.0000
# 3 6.3565 26.5227 122.7782 0.0000 4.9630 0.0000
# 4 0.0000 0.0000 0.0000 51.1858 0.0000 -1.2895
# 5 4.2442 3.5049 4.9630 0.0000 30.2831 0.0000
# 6 0.0000 0.0000 0.0000 -1.2895 0.0000 15.6851
#
#
#
# Elastic Compliance Matrix: (Units=1/GPa)
#
#
# Indices 1 2 3 4 5 6 
#
# 1 0.030267 -0.001871 -0.001007 0.000000 -0.003860 0.000000
# 2 -0.001871 0.013460 -0.002777 0.000000 -0.000841 0.000000
# 3 -0.001007 -0.002777 0.008837 0.000000 -0.000986 0.000000
# 4 0.000000 0.000000 0.000000 0.019577 0.000000 0.001610
# 5 -0.003860 -0.000841 -0.000986 0.000000 0.033822 0.000000
# 6 0.000000 0.000000 0.000000 0.001610 0.000000 0.063887
#
#
# Mechanical properties :
#
#
# Convention : Reuss Voigt Hill
#
# Bulk Modulus (GPa) = 24.23983 35.13769 29.68876
# Shear Modulus (GPa) = 25.65280 32.67192 29.16236
#
# Velocity S-wave (km/s) = 3.22719 3.64204 3.44087
# Velocity P-wave (km/s) = 4.87108 5.65256 5.27631
#
# Compressibility (1/GPa) = 0.04125442
#
# Stress axis : x y z
#
# Youngs Moduli (GPa) = 33.03931 74.29270 113.16575
#
# Poissons Ratio (x) = 0.13901 0.11393
# Poissons Ratio (y) = 0.06182 0.31424
# Poissons Ratio (z) = 0.03326 0.20630
#
# Static dielectric constant tensor:
#      x y z
#    x 2.026340 0.000000 -0.079910 
#    y 0.000000 1.977720 0.000000 
#    z -0.079910 0.000000 2.127920 
# 
# From -- ./inp_files/2261.got.cif
#   From: 2010.05.17/outbox.cif.g08.bks.cpg/sg14_2_cif.got.tgz:2261.got - 2010.06.03 17:49:19.
