data_PCOD9240874
_publ_section_title
;
Structure prediction by ZEFSAII (Michael W. Deem and Ramdas Pophale) SiO2 
 PCOD9240874
Probable space group: P 21/C
;
_chemical_formula_sum "Si O2"
_cell_formula_units_Z 32
_cell_length_a 22.254472
_cell_length_b 16.838278
_cell_length_c 9.453404
_cell_angle_alpha 90.000000
_cell_angle_beta 151.733597
_cell_angle_gamma 90.000000
_cell_volume 1677.602458
_symmetry_space_group_name_H-M "P 21/C"
_symmetry_group_IT_number 14
_symmetry_cell_setting 'monoclinic'
loop_
_space_group_symop_operation_xyz
x,y,z
-x,1/2+y,1/2-z
-x,-y,-z
x,1/2-y,1/2+z
loop_
_atom_site_type_symbol
_atom_site_label
_atom_site_fract_x
_atom_site_fract_y
_atom_site_fract_z
Si Si1 0.720148 0.873943 0.400191
Si Si2 0.252266 0.949221 0.855102
Si Si3 0.443568 0.665161 0.624730
Si Si4 0.453026 0.417287 0.725491
Si Si5 0.948015 0.953880 0.753935
Si Si6 0.339870 0.464243 0.945310
Si Si7 0.112312 0.967318 0.831573
Si Si8 0.463567 0.255895 0.924336
O O1 0.862382 0.882194 0.636956
O O2 0.696618 0.942896 0.468531
O O3 0.672896 0.788681 0.360820
O O4 0.627985 0.891836 0.078630
O O5 0.194559 0.920915 0.884671
O O6 0.148617 0.990382 0.537739
O O7 0.316981 0.877315 0.908385
O O8 0.365031 0.013959 0.114562
O O9 0.445044 0.697186 0.470895
O O10 0.559475 0.603664 0.881941
O O11 0.483132 0.735629 0.809174
O O12 0.465959 0.342438 0.856394
O O13 0.582812 0.455833 0.934046
O O14 0.053655 0.931640 0.854472
O O15 0.000000 0.000000 0.000000
O O16 0.209388 0.465266 0.588110
O O17 0.000000 0.000000 0.500000
#
# Coordination Sequence:
#
# PCOD9240874 Si02
#       8
#     4   4   4   4   4   4   4   4
#     4  10  20  34  54  88 118 149 191 242 291 342
#     4   9  20  36  58  90 116 140 195 248 286 343
#     4  10  21  36  55  89 119 151 185 237 303 357
#     4  10  19  34  57  89 117 147 185 236 300 357
#     4  10  19  36  57  86 111 149 198 241 284 330
#     4  10  19  33  58  88 119 142 189 245 289 340
#     4  10  19  33  55  87 107 146 186 240 280 325
#     4  11  20  35  54  85 120 155 183 223 304 362
#
# _framework density 19.074842
#
# number of rings (size 3 to 8) (size 9 to 14) (size 15 to 20)
#    0.000    2.000    2.500    1.875    0.000    3.000 
#    0.000    0.000    0.000    0.000   78.000    0.000 
#    0.000    0.000    0.000    0.000    0.000    0.000 
#
# Total GULP energy -178204.392815 kJ/mol
# GULP energy per Si atom -5568.887275 kJ/mol
# Density = 1.903143 g / cm^3
# Si number density = 19.074842 Si / 1000 Ang^3
#
#
#
# Elastic Constant Matrix: (Units=GPa)
#
#
# Indices 1 2 3 4 5 6 
#
# 1 135.7515 24.6164 -1.8103 0.0000 16.5542 0.0000
# 2 24.6164 49.6769 -9.7372 0.0000 15.5144 0.0000
# 3 -1.8103 -9.7372 35.3675 0.0000 3.3694 0.0000
# 4 0.0000 0.0000 0.0000 13.7134 0.0000 -7.0906
# 5 16.5542 15.5144 3.3694 0.0000 26.2787 0.0000
# 6 0.0000 0.0000 0.0000 -7.0906 0.0000 12.1187
#
#
#
# Elastic Compliance Matrix: (Units=1/GPa)
#
#
# Indices 1 2 3 4 5 6 
#
# 1 0.008342 -0.003084 -0.000096 0.000000 -0.003422 0.000000
# 2 -0.003084 0.028476 0.009211 0.000000 -0.016050 0.000000
# 3 -0.000096 0.009211 0.031705 0.000000 -0.009443 0.000000
# 4 0.000000 0.000000 0.000000 0.104551 0.000000 0.061172
# 5 -0.003422 -0.016050 -0.009443 0.000000 0.050896 0.000000
# 6 0.000000 0.000000 0.000000 0.061172 0.000000 0.118308
#
#
# Mechanical properties :
#
#
# Convention : Reuss Voigt Hill
#
# Bulk Modulus (GPa) = 12.40910 27.43705 19.92308
# Shear Modulus (GPa) = 14.00260 24.27064 19.13662
#
# Velocity S-wave (km/s) = 2.71234 3.57093 3.17083
# Velocity P-wave (km/s) = 4.04088 5.60510 4.88599
#
# Compressibility (1/GPa) = 0.08058600
#
# Stress axis : x y z
#
# Youngs Moduli (GPa) = 119.88153 35.11711 31.54056
#
# Poissons Ratio (x) = 0.10829 0.00303
# Poissons Ratio (y) = 0.36967 -0.29053
# Poissons Ratio (z) = 0.01151 -0.32347
#
# Static dielectric constant tensor:
#      x y z
#    x 1.732030 0.000000 0.010320 
#    y 0.000000 1.670150 0.000000 
#    z 0.010320 0.000000 1.665000 
# 
# From -- ./inp_files/19210.got.cif
#   From: 2010.05.17/outbox.cif.g08.bks.cpg/sg14_10_cif.got.tgz:19210.got - 2010.06.03 17:49:19.
