data_PCOD9240087
_publ_section_title
;
Structure prediction by ZEFSAII (Michael W. Deem and Ramdas Pophale) SiO2 
 PCOD9240087
Probable space group: P 21/C
;
_chemical_formula_sum "Si O2"
_cell_formula_units_Z 28
_cell_length_a 26.446160
_cell_length_b 7.421553
_cell_length_c 13.638772
_cell_angle_alpha 90.000000
_cell_angle_beta 24.428364
_cell_angle_gamma 90.000000
_cell_volume 1107.047305
_symmetry_space_group_name_H-M "P 21/C"
_symmetry_group_IT_number 14
_symmetry_cell_setting 'monoclinic'
loop_
_space_group_symop_operation_xyz
x,y,z
-x,1/2+y,1/2-z
-x,-y,-z
x,1/2-y,1/2+z
loop_
_atom_site_type_symbol
_atom_site_label
_atom_site_fract_x
_atom_site_fract_y
_atom_site_fract_z
Si Si1 0.269802 0.703791 0.703224
Si Si2 0.908556 0.513945 0.502918
Si Si3 0.794493 0.447337 0.375433
Si Si4 0.658998 0.842903 0.826360
Si Si5 0.608866 0.167044 0.698648
Si Si6 0.083357 0.297315 0.703876
Si Si7 0.699470 0.795465 0.471296
O O1 0.178034 0.605668 0.786187
O O2 0.317315 0.555320 0.693960
O O3 0.378328 0.762815 0.437395
O O4 0.197797 0.885151 0.857440
O O5 0.963517 0.634269 0.319405
O O6 0.838825 0.634937 0.705660
O O7 0.007416 0.376580 0.370012
O O8 0.721777 0.276551 0.546680
O O9 0.900068 0.534115 0.252971
O O10 0.697383 0.607965 0.530996
O O11 0.778514 0.770481 0.562036
O O12 0.656049 0.747320 0.938370
O O13 0.524387 0.804721 0.023208
O O14 0.635180 0.956589 0.640900
#
# Coordination Sequence:
#
# PCOD9240087 Si02
#       7
#     4   4   4   4   4   4   4
#     4   8  18  37  57  85 111 153 199 237 277 350
#     4  10  21  40  60  82 117 155 203 236 300 348
#     4   9  21  39  58  90 119 144 198 242 300 331
#     4  10  18  34  60  83 121 154 194 232 293 348
#     4   9  18  35  59  87 115 152 198 236 283 346
#     4  11  23  38  58  86 116 157 187 250 297 354
#     4   9  19  37  60  87 112 155 198 241 277 351
#
# _framework density 25.292503
#
# number of rings (size 3 to 8) (size 9 to 14) (size 15 to 20)
#    0.857    1.714    0.000    1.714    0.000    1.714 
#    7.714    0.714    0.000    0.000    0.000    0.000 
#    0.000    0.000    0.000    0.000    0.000    0.000 
#
# Total GULP energy -156352.765919 kJ/mol
# GULP energy per Si atom -5584.027354 kJ/mol
# Density = 2.523494 g / cm^3
# Si number density = 25.292503 Si / 1000 Ang^3
#
#
#
# Elastic Constant Matrix: (Units=GPa)
#
#
# Indices 1 2 3 4 5 6 
#
# 1 31.3756 1.3798 10.4684 0.0000 4.5009 0.0000
# 2 1.3798 107.0970 8.8086 0.0000 11.3808 0.0000
# 3 10.4684 8.8086 88.7314 0.0000 11.3363 0.0000
# 4 0.0000 0.0000 0.0000 -2.2200 0.0000 -11.2183
# 5 4.5009 11.3808 11.3363 0.0000 21.9516 0.0000
# 6 0.0000 0.0000 0.0000 -11.2183 0.0000 27.0522
#
#
#
# Elastic Compliance Matrix: (Units=1/GPa)
#
#
# Indices 1 2 3 4 5 6 
#
# 1 0.033741 0.000414 -0.003330 0.000000 -0.005413 0.000000
# 2 0.000414 0.009897 -0.000391 0.000000 -0.005014 0.000000
# 3 -0.003330 -0.000391 0.012407 0.000000 -0.005522 0.000000
# 4 0.000000 0.000000 0.000000 -0.145516 0.000000 -0.060344
# 5 -0.005413 -0.005014 -0.005522 0.000000 0.052116 0.000000
# 6 0.000000 0.000000 0.000000 -0.060344 0.000000 0.011941
#
#
# Mechanical properties :
#
#
# Convention : Reuss Voigt Hill
#
# Bulk Modulus (GPa) = 20.22972 29.83529 25.03251
# Shear Modulus (GPa) = -2152.96062 23.12658 -1064.91702
#
# Velocity S-wave (km/s) = -29.20741 3.02713 -20.54153
# Velocity P-wave (km/s) = 33.60677 4.90303 23.50931
#
# Compressibility (1/GPa) = 0.04943223
#
# Stress axis : x y z
#
# Youngs Moduli (GPa) = 29.63722 101.04099 80.59875
#
# Poissons Ratio (x) = -0.04188 0.26842
# Poissons Ratio (y) = -0.01228 0.03150
# Poissons Ratio (z) = 0.09870 0.03948
#
# Static dielectric constant tensor:
#      x y z
#    x 2.088070 0.000000 -0.009230 
#    y 0.000000 1.994100 0.000000 
#    z -0.009230 0.000000 2.028100 
# 
# From -- ./inp_files/62585.got.cif
#   From: 2010.05.17/outbox.cif.g08.bks.cpg/sg14_32_cif.got.tgz:62585.got - 2010.06.03 17:49:19.
