data_PCOD9240675
_publ_section_title
;
Structure prediction by ZEFSAII (Michael W. Deem and Ramdas Pophale) SiO2 
 PCOD9240675
Probable space group: P 21/C
;
_chemical_formula_sum "Si O2"
_cell_formula_units_Z 32
_cell_length_a 11.788570
_cell_length_b 18.360836
_cell_length_c 11.259041
_cell_angle_alpha 90.000000
_cell_angle_beta 143.677546
_cell_angle_gamma 90.000000
_cell_volume 1443.503879
_symmetry_space_group_name_H-M "P 21/C"
_symmetry_group_IT_number 14
_symmetry_cell_setting 'monoclinic'
loop_
_space_group_symop_operation_xyz
x,y,z
-x,1/2+y,1/2-z
-x,-y,-z
x,1/2-y,1/2+z
loop_
_atom_site_type_symbol
_atom_site_label
_atom_site_fract_x
_atom_site_fract_y
_atom_site_fract_z
Si Si1 0.349765 0.767342 0.798191
Si Si2 0.660785 0.382378 0.903868
Si Si3 0.298740 0.129309 0.253998
Si Si4 0.353599 0.482690 0.508059
Si Si5 0.395164 0.354833 0.086628
Si Si6 0.078140 0.852649 0.172760
Si Si7 0.733882 0.033269 0.833773
Si Si8 0.401605 0.380424 0.354705
O O1 0.274877 0.829182 0.646764
O O2 0.460111 0.712623 0.802596
O O3 0.192449 0.721358 0.737308
O O4 0.502139 0.808240 0.011367
O O5 0.505298 0.353739 0.870903
O O6 0.534580 0.444695 0.730918
O O7 0.843923 0.390431 0.142565
O O8 0.266131 0.155639 0.360876
O O9 0.289953 0.041718 0.255033
O O10 0.146374 0.158987 0.031204
O O11 0.206726 0.507030 0.485282
O O12 0.280045 0.423413 0.351732
O O13 0.431040 0.558213 0.519665
O O14 0.532653 0.424230 0.176684
O O15 0.316388 0.364792 0.152709
O O16 0.126985 0.910635 0.110633
#
# Coordination Sequence:
#
# PCOD9240675 Si02
#       8
#     4   4   4   4   4   4   4   4
#     4  10  20  37  57  82 115 157 196 239 299 349
#     4  10  20  38  58  83 116 153 196 246 296 355
#     4  11  21  36  57  90 113 154 195 242 296 351
#     4   8  17  31  59  85 105 150 192 232 292 349
#     4  10  19  31  57  82 115 153 193 236 293 352
#     4  11  22  36  57  90 117 152 194 246 298 353
#     4   9  18  34  56  83 116 143 187 243 291 342
#     4   9  17  32  56  86 108 147 198 231 284 355
#
# _framework density 22.168281
#
# number of rings (size 3 to 8) (size 9 to 14) (size 15 to 20)
#    0.000    2.250    2.500    1.500    3.500    0.000 
#    2.250    0.000    0.000    0.750   19.500    0.000 
#    0.000    0.000    0.000    0.000    0.000    0.000 
#
# Total GULP energy -178302.324963 kJ/mol
# GULP energy per Si atom -5571.947655 kJ/mol
# Density = 2.211783 g / cm^3
# Si number density = 22.168281 Si / 1000 Ang^3
#
#
#
# Elastic Constant Matrix: (Units=GPa)
#
#
# Indices 1 2 3 4 5 6 
#
# 1 39.1529 7.8829 29.4106 0.0000 -25.9283 0.0000
# 2 7.8829 84.6168 -0.0489 0.0000 -3.9324 0.0000
# 3 29.4106 -0.0489 78.5448 0.0000 -18.3917 0.0000
# 4 0.0000 0.0000 0.0000 21.1037 0.0000 -16.3149
# 5 -25.9283 -3.9324 -18.3917 0.0000 32.9149 0.0000
# 6 0.0000 0.0000 0.0000 -16.3149 0.0000 24.3184
#
#
#
# Elastic Compliance Matrix: (Units=1/GPa)
#
#
# Indices 1 2 3 4 5 6 
#
# 1 0.066072 -0.004146 -0.014579 0.000000 0.043405 0.000000
# 2 -0.004146 0.012155 0.001306 0.000000 -0.001084 0.000000
# 3 -0.014579 0.001306 0.017878 0.000000 -0.001339 0.000000
# 4 0.000000 0.000000 0.000000 0.098443 0.000000 0.066044
# 5 0.043405 -0.001084 -0.001339 0.000000 0.063696 0.000000
# 6 0.000000 0.000000 0.000000 0.066044 0.000000 0.085429
#
#
# Mechanical properties :
#
#
# Convention : Reuss Voigt Hill
#
# Bulk Modulus (GPa) = 16.32239 30.75596 23.53918
# Shear Modulus (GPa) = 12.53347 26.67207 19.60277
#
# Velocity S-wave (km/s) = 2.38035 3.47243 2.97690
# Velocity P-wave (km/s) = 3.86441 5.47549 4.73892
#
# Compressibility (1/GPa) = 0.06126553
#
# Stress axis : x y z
#
# Youngs Moduli (GPa) = 15.13511 82.27310 55.93479
#
# Poissons Ratio (x) = 0.34114 0.81548
# Poissons Ratio (y) = 0.06276 -0.07307
# Poissons Ratio (z) = 0.22066 -0.10747
#
# Static dielectric constant tensor:
#      x y z
#    x 1.869770 0.000000 -0.054240 
#    y 0.000000 1.845000 0.000000 
#    z -0.054240 0.000000 1.888790 
# 
# From -- ./inp_files/33063.got.cif
#   From: 2010.05.17/outbox.cif.g08.bks.cpg/sg14_17_cif.got.tgz:33063.got - 2010.06.03 17:49:19.
