data_PCOD9240063
_publ_section_title
;
Structure prediction by ZEFSAII (Michael W. Deem and Ramdas Pophale) SiO2 
 PCOD9240063
Probable space group: P 21/C
;
_chemical_formula_sum "Si O2"
_cell_formula_units_Z 26
_cell_length_a 7.350749
_cell_length_b 14.107059
_cell_length_c 12.103146
_cell_angle_alpha 90.000000
_cell_angle_beta 47.920944
_cell_angle_gamma 90.000000
_cell_volume 931.535703
_symmetry_space_group_name_H-M "P 21/C"
_symmetry_group_IT_number 14
_symmetry_cell_setting 'monoclinic'
loop_
_space_group_symop_operation_xyz
x,y,z
-x,1/2+y,1/2-z
-x,-y,-z
x,1/2-y,1/2+z
loop_
_atom_site_type_symbol
_atom_site_label
_atom_site_fract_x
_atom_site_fract_y
_atom_site_fract_z
Si Si1 0.451359 0.092635 0.898784
Si Si2 0.719384 0.513115 0.735406
Si Si3 0.154749 0.649261 0.591226
Si Si4 0.883478 0.719442 0.365786
Si Si5 0.580826 0.892330 0.520953
Si Si6 0.267010 0.703213 0.883810
Si Si7 0.000000 0.500000 0.000000
O O1 0.410882 0.005417 0.831766
O O2 0.223934 0.115442 0.070212
O O3 0.500099 0.169615 0.781987
O O4 0.692524 0.094842 0.875725
O O5 0.967771 0.572387 0.616640
O O6 0.675672 0.412370 0.813202
O O7 0.598063 0.571774 0.887773
O O8 0.325715 0.711523 0.442944
O O9 0.994749 0.734733 0.710843
O O10 0.643265 0.783213 0.487917
O O11 0.070063 0.747285 0.384957
O O12 0.798153 0.944354 0.501079
O O13 0.134549 0.604192 0.971818
#
# Coordination Sequence:
#
# PCOD9240063 Si02
#       7
#     4   4   4   4   4   4   2
#     4  11  21  35  56  83 118 150 193 243 288 345
#     4  10  19  34  52  82 111 149 185 243 283 337
#     4  10  22  34  55  86 113 151 196 234 298 344
#     4   9  20  36  53  85 112 146 192 237 285 352
#     4   9  19  32  55  81 114 148 191 239 286 338
#     4  10  20  35  57  88 114 150 193 244 283 349
#     4  10  18  34  58  88 116 146 200 240 290 340
#
# _framework density 27.910899000000001
#
# number of rings (size 3 to 8) (size 9 to 14) (size 15 to 20)
#    0.000    2.154    3.077    0.923    4.308    0.000 
#    0.000    0.000    0.000    1.846   16.000    0.000 
#    0.000    0.000    0.000    0.000    0.000    0.000 
#
# Total GULP energy -144754.695513 kJ/mol
# GULP energy per Si atom -5567.488289 kJ/mol
# Density = 2.784737 g / cm^3
# Si number density = 27.910899 Si / 1000 Ang^3
#
#
#
# Elastic Constant Matrix: (Units=GPa)
#
#
# Indices 1 2 3 4 5 6 
#
# 1 137.4403 27.4445 20.8092 0.0000 18.4048 0.0000
# 2 27.4445 125.8741 44.2977 0.0000 12.3067 0.0000
# 3 20.8092 44.2977 62.4848 0.0000 -10.6486 0.0000
# 4 0.0000 0.0000 0.0000 49.1922 0.0000 -1.6321
# 5 18.4048 12.3067 -10.6486 0.0000 30.7158 0.0000
# 6 0.0000 0.0000 0.0000 -1.6321 0.0000 27.0863
#
#
#
# Elastic Compliance Matrix: (Units=1/GPa)
#
#
# Indices 1 2 3 4 5 6 
#
# 1 0.008790 0.000260 -0.004280 0.000000 -0.006855 0.000000
# 2 0.000260 0.012380 -0.010346 0.000000 -0.008702 0.000000
# 3 -0.004280 -0.010346 0.027534 0.000000 0.016255 0.000000
# 4 0.000000 0.000000 0.000000 0.020369 0.000000 0.001227
# 5 -0.006855 -0.008702 0.016255 0.000000 0.045786 0.000000
# 6 0.000000 0.000000 0.000000 0.001227 0.000000 0.036993
#
#
# Mechanical properties :
#
#
# Convention : Reuss Voigt Hill
#
# Bulk Modulus (GPa) = 50.07040 56.76687 53.41863
# Shear Modulus (GPa) = 26.70368 36.94871 31.82619
#
# Velocity S-wave (km/s) = 3.09649 3.64237 3.38046
# Velocity P-wave (km/s) = 5.54641 6.17024 5.86662
#
# Compressibility (1/GPa) = 0.01997188
#
# Stress axis : x y z
#
# Youngs Moduli (GPa) = 113.76715 80.77824 36.31893
#
# Poissons Ratio (x) = -0.02099 0.15543
# Poissons Ratio (y) = -0.02956 0.37575
# Poissons Ratio (z) = 0.48688 0.83572
#
# Static dielectric constant tensor:
#      x y z
#    x 2.177310 0.000000 -0.015620 
#    y 0.000000 2.321270 0.000000 
#    z -0.015620 0.000000 2.227770 
# 
# From -- ./inp_files/26005.got.cif
#   From: 2010.05.17/outbox.cif.g08.bks.cpg/sg14_14_cif.got.tgz:26005.got - 2010.06.03 17:49:19.
