data_PCOD9240815
_publ_section_title
;
Structure prediction by ZEFSAII (Michael W. Deem and Ramdas Pophale) SiO2 
 PCOD9240815
Probable space group: P 21/C
;
_chemical_formula_sum "Si O2"
_cell_formula_units_Z 28
_cell_length_a 14.693133
_cell_length_b 21.717616
_cell_length_c 5.007237
_cell_angle_alpha 90.000000
_cell_angle_beta 65.152584
_cell_angle_gamma 90.000000
_cell_volume 1449.899371
_symmetry_space_group_name_H-M "P 21/C"
_symmetry_group_IT_number 14
_symmetry_cell_setting 'monoclinic'
loop_
_space_group_symop_operation_xyz
x,y,z
-x,1/2+y,1/2-z
-x,-y,-z
x,1/2-y,1/2+z
loop_
_atom_site_type_symbol
_atom_site_label
_atom_site_fract_x
_atom_site_fract_y
_atom_site_fract_z
Si Si1 0.804912 0.421850 0.658578
Si Si2 0.780382 0.291162 0.935533
Si Si3 0.616136 0.990725 0.440841
Si Si4 0.888334 0.016754 0.556211
Si Si5 0.655588 0.795000 0.874824
Si Si6 0.452083 0.787338 0.307302
Si Si7 0.292429 0.427351 0.664956
O O1 0.819880 0.353735 0.757234
O O2 0.842659 0.430871 0.310120
O O3 0.690206 0.449128 0.820799
O O4 0.872290 0.463889 0.770407
O O5 0.803242 0.235702 0.699369
O O6 0.660994 0.305922 0.099327
O O7 0.636221 0.962342 0.708596
O O8 0.500000 0.000000 0.500000
O O9 0.661865 0.941060 0.180271
O O10 0.814898 0.959545 0.691142
O O11 0.000000 0.000000 0.500000
O O12 0.667251 0.749014 0.108133
O O13 0.544061 0.824201 0.070044
O O14 0.720998 0.855298 0.769329
O O15 0.462781 0.774425 0.608516
#
# Coordination Sequence:
#
# PCOD9240815 Si02
#       7
#     4   4   4   4   4   4   4
#     4  10  21  36  58  85 109 144 189 225 283 337
#     4  10  19  33  51  77 113 149 179 219 264 327
#     4  10  21  36  52  81 114 149 181 229 276 320
#     4  10  21  40  62  83 105 138 191 244 285 331
#     4  10  19  33  51  76 109 147 185 224 264 324
#     4   8  16  28  42  66  98 143 184 199 238 302
#     4  10  21  36  56  81 108 145 189 225 283 331
#
# _framework density 19.311685000000001
#
# number of rings (size 3 to 8) (size 9 to 14) (size 15 to 20)
#    0.000    2.286    0.000    2.571    2.000    0.000 
#    7.714    0.000    0.000    5.143    0.000    0.000 
#    0.000    0.000    0.000    0.000    0.000    0.000 
#
# Total GULP energy -155911.749810 kJ/mol
# GULP energy per Si atom -5568.276779 kJ/mol
# Density = 1.926773 g / cm^3
# Si number density = 19.311685 Si / 1000 Ang^3
#
#
#
# Elastic Constant Matrix: (Units=GPa)
#
#
# Indices 1 2 3 4 5 6 
#
# 1 85.2350 13.4953 14.8566 0.0000 -6.5232 0.0000
# 2 13.4953 36.6552 -8.3546 0.0000 -17.0556 0.0000
# 3 14.8566 -8.3546 49.7628 0.0000 16.4611 0.0000
# 4 0.0000 0.0000 0.0000 9.6282 0.0000 3.0364
# 5 -6.5232 -17.0556 16.4611 0.0000 26.0659 0.0000
# 6 0.0000 0.0000 0.0000 3.0364 0.0000 7.6827
#
#
#
# Elastic Compliance Matrix: (Units=1/GPa)
#
#
# Indices 1 2 3 4 5 6 
#
# 1 0.013910 -0.004424 -0.006433 0.000000 0.004649 0.000000
# 2 -0.004424 0.040860 -0.000375 0.000000 0.025865 0.000000
# 3 -0.006433 -0.000375 0.028526 0.000000 -0.019870 0.000000
# 4 0.000000 0.000000 0.000000 0.118650 0.000000 -0.046894
# 5 0.004649 0.025865 -0.019870 0.000000 0.069000 0.000000
# 6 0.000000 0.000000 0.000000 -0.046894 0.000000 0.148696
#
#
# Mechanical properties :
#
#
# Convention : Reuss Voigt Hill
#
# Bulk Modulus (GPa) = 16.43940 23.51642 19.97791
# Shear Modulus (GPa) = 10.81349 18.78573 14.79961
#
# Velocity S-wave (km/s) = 2.36888 3.12230 2.77132
# Velocity P-wave (km/s) = 4.00166 5.02017 4.53957
#
# Compressibility (1/GPa) = 0.06082946
#
# Stress axis : x y z
#
# Youngs Moduli (GPa) = 71.89107 24.47392 35.05584
#
# Poissons Ratio (x) = 0.10828 0.22553
# Poissons Ratio (y) = 0.31808 0.01316
# Poissons Ratio (z) = 0.46250 0.00918
#
# Static dielectric constant tensor:
#      x y z
#    x 1.699960 0.000000 -0.005970 
#    y 0.000000 1.694020 0.000000 
#    z -0.005970 0.000000 1.667630 
# 
# From -- ./inp_files/3772.got.cif
#   From: 2010.05.17/outbox.cif.g08.bks.cpg/sg14_2_cif.got.tgz:3772.got - 2010.06.03 17:49:19.
