data_PCOD9240149
_publ_section_title
;
Structure prediction by ZEFSAII (Michael W. Deem and Ramdas Pophale) SiO2 
 PCOD9240149
Probable space group: P 21/C
;
_chemical_formula_sum "Si O2"
_cell_formula_units_Z 24
_cell_length_a 21.810461
_cell_length_b 8.631014
_cell_length_c 15.889353
_cell_angle_alpha 90.000000
_cell_angle_beta 21.275396
_cell_angle_gamma 90.000000
_cell_volume 1085.328819
_symmetry_space_group_name_H-M "P 21/C"
_symmetry_group_IT_number 14
_symmetry_cell_setting 'monoclinic'
loop_
_space_group_symop_operation_xyz
x,y,z
-x,1/2+y,1/2-z
-x,-y,-z
x,1/2-y,1/2+z
loop_
_atom_site_type_symbol
_atom_site_label
_atom_site_fract_x
_atom_site_fract_y
_atom_site_fract_z
Si Si1 0.307230 0.532573 0.682589
Si Si2 0.618086 0.454915 0.071579
Si Si3 0.777672 0.612653 0.450511
Si Si4 0.125231 0.679960 0.760508
Si Si5 0.328743 0.118288 0.317839
Si Si6 0.784779 0.723452 0.769300
O O1 0.172291 0.595749 0.788962
O O2 0.476165 0.634683 0.462394
O O3 0.253394 0.502831 0.847217
O O4 0.339216 0.356569 0.608038
O O5 0.421139 0.424788 0.309554
O O6 0.646546 0.546266 0.121838
O O7 0.722314 0.298143 0.947300
O O8 0.695846 0.559959 0.897402
O O9 0.870443 0.449066 0.318362
O O10 0.774280 0.722662 0.536759
O O11 0.835923 0.716794 0.296880
O O12 0.950106 0.768428 0.999724
#
# Coordination Sequence:
#
# PCOD9240149 Si02
#       6
#     4   4   4   4   4   4
#     4  10  19  36  55  81 114 148 188 240 300 321
#     4  11  19  36  57  88 109 150 202 233 277 348
#     4  10  18  35  57  81 107 152 197 229 274 344
#     4  11  20  36  60  84 117 154 189 235 292 347
#     4  10  20  34  57  84 111 147 193 247 280 336
#     4  10  21  35  57  83 114 151 188 236 287 349
#
# _framework density 22.113113999999999
#
# number of rings (size 3 to 8) (size 9 to 14) (size 15 to 20)
#    0.000    1.667    5.000    3.500    0.000    0.000 
#    0.000    7.500    0.000    0.000    0.000    0.000 
#    0.000    0.000    0.000    0.000    0.000    0.000 
#
# Total GULP energy -133869.262882 kJ/mol
# GULP energy per Si atom -5577.885953 kJ/mol
# Density = 2.206278 g / cm^3
# Si number density = 22.113114 Si / 1000 Ang^3
#
#
#
# Elastic Constant Matrix: (Units=GPa)
#
#
# Indices 1 2 3 4 5 6 
#
# 1 58.0225 7.2524 17.2349 0.0000 12.2182 0.0000
# 2 7.2524 59.3130 32.2315 0.0000 9.9586 0.0000
# 3 17.2349 32.2315 123.6723 0.0000 1.9080 0.0000
# 4 0.0000 0.0000 0.0000 32.9282 0.0000 11.4496
# 5 12.2182 9.9586 1.9080 0.0000 21.3309 0.0000
# 6 0.0000 0.0000 0.0000 11.4496 0.0000 16.4480
#
#
#
# Elastic Compliance Matrix: (Units=1/GPa)
#
#
# Indices 1 2 3 4 5 6 
#
# 1 0.020502 0.001118 -0.002964 0.000000 -0.012001 0.000000
# 2 0.001118 0.021470 -0.005594 0.000000 -0.010164 0.000000
# 3 -0.002964 -0.005594 0.009904 0.000000 0.003423 0.000000
# 4 0.000000 0.000000 0.000000 0.040067 0.000000 -0.027891
# 5 -0.012001 -0.010164 0.003423 0.000000 0.058193 0.000000
# 6 0.000000 0.000000 0.000000 -0.027891 0.000000 0.080213
#
#
# Mechanical properties :
#
#
# Convention : Reuss Voigt Hill
#
# Bulk Modulus (GPa) = 27.02936 39.38282 33.20609
# Shear Modulus (GPa) = 19.41292 26.42734 22.92013
#
# Velocity S-wave (km/s) = 2.96614 3.46077 3.22296
# Velocity P-wave (km/s) = 4.89698 5.81529 5.37578
#
# Compressibility (1/GPa) = 0.03699680
#
# Stress axis : x y z
#
# Youngs Moduli (GPa) = 48.77512 46.57764 100.96838
#
# Poissons Ratio (x) = -0.05209 0.29922
# Poissons Ratio (y) = -0.05455 0.56486
# Poissons Ratio (z) = 0.14455 0.26058
#
# Static dielectric constant tensor:
#      x y z
#    x 1.854950 0.000000 0.015120 
#    y 0.000000 1.849240 0.000000 
#    z 0.015120 0.000000 1.851050 
# 
# From -- ./inp_files/56970.got.cif
#   From: 2010.05.17/outbox.cif.g08.bks.cpg/sg14_29_cif.got.tgz:56970.got - 2010.06.03 17:49:19.
