data_PCOD9240398
_publ_section_title
;
Structure prediction by ZEFSAII (Michael W. Deem and Ramdas Pophale) SiO2 
 PCOD9240398
Probable space group: P 21/C
;
_chemical_formula_sum "Si O2"
_cell_formula_units_Z 32
_cell_length_a 11.692585
_cell_length_b 7.913149
_cell_length_c 23.513809
_cell_angle_alpha 90.000000
_cell_angle_beta 143.036509
_cell_angle_gamma 90.000000
_cell_volume 1308.212844
_symmetry_space_group_name_H-M "P 21/C"
_symmetry_group_IT_number 14
_symmetry_cell_setting 'monoclinic'
loop_
_space_group_symop_operation_xyz
x,y,z
-x,1/2+y,1/2-z
-x,-y,-z
x,1/2-y,1/2+z
loop_
_atom_site_type_symbol
_atom_site_label
_atom_site_fract_x
_atom_site_fract_y
_atom_site_fract_z
Si Si1 0.063984 0.740059 0.051910
Si Si2 0.338525 0.321350 0.294887
Si Si3 0.134735 0.078759 0.419341
Si Si4 0.964084 0.183702 0.134030
Si Si5 0.715175 0.442257 0.440872
Si Si6 0.149842 0.868848 0.784393
Si Si7 0.298155 0.090807 0.648299
Si Si8 0.496623 0.201929 0.624093
O O1 0.184969 0.900072 0.079240
O O2 0.988534 0.687985 0.084144
O O3 0.080702 0.620295 0.901567
O O4 0.875212 0.716163 0.938047
O O5 0.558544 0.300687 0.396124
O O6 0.242197 0.454424 0.299984
O O7 0.343274 0.395265 0.232296
O O8 0.190325 0.169867 0.232388
O O9 0.209587 0.911640 0.597421
O O10 0.352175 0.111571 0.522808
O O11 0.056717 0.138511 0.327352
O O12 0.865915 0.146905 0.154909
O O13 0.880579 0.065121 0.052797
O O14 0.598529 0.613598 0.402229
O O15 0.294859 0.729893 0.817327
O O16 0.476334 0.120184 0.678118
#
# Coordination Sequence:
#
# PCOD9240398 Si02
#       8
#     4   4   4   4   4   4   4   4
#     4  10  18  38  67  88 124 169 205 254 321 379
#     4  10  22  41  63  91 126 168 208 258 322 374
#     4  10  22  43  66  88 125 170 208 259 318 372
#     4  11  22  44  66  86 125 175 217 249 309 388
#     4  11  23  37  64  98 126 165 205 263 321 369
#     4  10  23  41  64  89 126 169 212 256 312 374
#     4  10  18  37  66  86 128 163 206 258 318 381
#     4  10  24  38  59 101 129 157 206 266 314 373
#
# _framework density 24.460851999999999
#
# number of rings (size 3 to 8) (size 9 to 14) (size 15 to 20)
#    0.000    1.750    3.750    1.500    1.750    7.500 
#    0.000    6.250    0.000    0.000    0.000    0.000 
#    0.000    0.000    0.000    0.000    0.000    0.000 
#
# Total GULP energy -178883.903746 kJ/mol
# GULP energy per Si atom -5590.121992 kJ/mol
# Density = 2.440518 g / cm^3
# Si number density = 24.460852 Si / 1000 Ang^3
#
#
#
# Elastic Constant Matrix: (Units=GPa)
#
#
# Indices 1 2 3 4 5 6 
#
# 1 80.1367 1.9230 17.4428 0.0000 -15.6486 0.0000
# 2 1.9230 56.8039 8.5104 0.0000 0.8386 0.0000
# 3 17.4428 8.5104 45.3886 0.0000 -13.8748 0.0000
# 4 0.0000 0.0000 0.0000 21.3438 0.0000 1.1595
# 5 -15.6486 0.8386 -13.8748 0.0000 35.7653 0.0000
# 6 0.0000 0.0000 0.0000 1.1595 0.0000 24.7461
#
#
#
# Elastic Compliance Matrix: (Units=1/GPa)
#
#
# Indices 1 2 3 4 5 6 
#
# 1 0.014274 0.000058 -0.004070 0.000000 0.004665 0.000000
# 2 0.000058 0.018238 -0.004044 0.000000 -0.001971 0.000000
# 3 -0.004070 -0.004044 0.027046 0.000000 0.008806 0.000000
# 4 0.000000 0.000000 0.000000 0.046972 0.000000 -0.002201
# 5 0.004665 -0.001971 0.008806 0.000000 0.033464 0.000000
# 6 0.000000 0.000000 0.000000 -0.002201 0.000000 0.040514
#
#
# Mechanical properties :
#
#
# Convention : Reuss Voigt Hill
#
# Bulk Modulus (GPa) = 23.01800 26.45353 24.73577
# Shear Modulus (GPa) = 23.68517 26.66789 25.17653
#
# Velocity S-wave (km/s) = 3.11511 3.30544 3.21169
# Velocity P-wave (km/s) = 4.72960 5.04044 4.88749
#
# Compressibility (1/GPa) = 0.04344425
#
# Stress axis : x y z
#
# Youngs Moduli (GPa) = 70.05632 54.83205 36.97340
#
# Poissons Ratio (x) = -0.00316 0.15049
# Poissons Ratio (y) = -0.00404 0.14953
# Poissons Ratio (z) = 0.28515 0.22176
#
# Static dielectric constant tensor:
#      x y z
#    x 1.924930 0.000000 0.030970 
#    y 0.000000 2.040110 0.000000 
#    z 0.030970 0.000000 1.957820 
# 
# From -- ./inp_files/67275.got.cif
#   From: 2010.05.17/outbox.cif.g08.bks.cpg/sg14_34_cif.got.tgz:67275.got - 2010.06.03 17:49:19.
