data_PCOD9240914
_publ_section_title
;
Structure prediction by ZEFSAII (Michael W. Deem and Ramdas Pophale) SiO2 
 PCOD9240914
Probable space group: P 21/C
;
_chemical_formula_sum "Si O2"
_cell_formula_units_Z 32
_cell_length_a 8.962170
_cell_length_b 26.041337
_cell_length_c 15.062563
_cell_angle_alpha 90.000000
_cell_angle_beta 26.043838
_cell_angle_gamma 90.000000
_cell_volume 1543.469032
_symmetry_space_group_name_H-M "P 21/C"
_symmetry_group_IT_number 14
_symmetry_cell_setting 'monoclinic'
loop_
_space_group_symop_operation_xyz
x,y,z
-x,1/2+y,1/2-z
-x,-y,-z
x,1/2-y,1/2+z
loop_
_atom_site_type_symbol
_atom_site_label
_atom_site_fract_x
_atom_site_fract_y
_atom_site_fract_z
Si Si1 0.577798 0.504718 0.063355
Si Si2 0.741583 0.392322 0.022648
Si Si3 0.710274 0.323865 0.874318
Si Si4 0.293307 0.548961 0.641349
Si Si5 0.474865 0.288809 0.498211
Si Si6 0.442788 0.890140 0.711943
Si Si7 0.249174 0.636146 0.787449
Si Si8 0.437979 0.623923 0.415863
O O1 0.961293 0.525134 0.861521
O O2 0.500000 0.500000 0.000000
O O3 0.585237 0.449230 0.104496
O O4 0.376566 0.550793 0.218553
O O5 0.611976 0.362478 0.005599
O O6 0.657313 0.364029 0.159617
O O7 0.159273 0.393058 0.793905
O O8 0.494390 0.272041 0.991315
O O9 0.702493 0.353251 0.785605
O O10 0.089563 0.305438 0.690580
O O11 0.500000 0.500000 0.500000
O O12 0.442209 0.589763 0.632341
O O13 0.233426 0.584355 0.587152
O O14 0.679624 0.312405 0.305356
O O15 0.593728 0.320039 0.522315
O O16 0.326591 0.879191 0.873953
O O17 0.848738 0.877357 0.495344
#
# Coordination Sequence:
#
# PCOD9240914 Si02
#       8
#     4   4   4   4   4   4   4   4
#     4  11  21  35  55  86 124 157 187 235 284 337
#     4  10  20  37  60  86 118 152 193 231 288 341
#     4  11  22  40  62  82 113 150 187 244 289 343
#     4  10  19  33  58  80 117 156 194 226 274 338
#     4  10  22  41  61  83 114 146 191 242 293 337
#     4  10  21  37  60  86 119 152 194 233 284 342
#     4   9  21  37  58  87 113 151 193 233 281 343
#     4   9  20  38  59  87 113 152 198 235 278 346
#
# _framework density 20.732517999999999
#
# number of rings (size 3 to 8) (size 9 to 14) (size 15 to 20)
#    0.000    2.000    2.500    0.750    1.750    2.500 
#    2.250    3.125    0.000    0.000    0.000    0.000 
#    0.000    0.000    0.000    0.000    0.000    0.000 
#
# Total GULP energy -178658.474686 kJ/mol
# GULP energy per Si atom -5583.077334 kJ/mol
# Density = 2.068533 g / cm^3
# Si number density = 20.732518 Si / 1000 Ang^3
#
#
#
# Elastic Constant Matrix: (Units=GPa)
#
#
# Indices 1 2 3 4 5 6 
#
# 1 111.5173 53.9882 6.6997 0.0000 39.0677 0.0000
# 2 53.9882 140.0553 14.2384 0.0000 17.7380 0.0000
# 3 6.6997 14.2384 25.2558 0.0000 19.6089 0.0000
# 4 0.0000 0.0000 0.0000 10.5596 0.0000 -3.8647
# 5 39.0677 17.7380 19.6089 0.0000 32.6667 0.0000
# 6 0.0000 0.0000 0.0000 -3.8647 0.0000 17.6541
#
#
#
# Elastic Compliance Matrix: (Units=1/GPa)
#
#
# Indices 1 2 3 4 5 6 
#
# 1 0.030052 -0.008643 0.039633 0.000000 -0.055038 0.000000
# 2 -0.008643 0.010210 -0.013455 0.000000 0.012869 0.000000
# 3 0.039633 -0.013455 0.126972 0.000000 -0.116311 0.000000
# 4 0.000000 0.000000 0.000000 0.102949 0.000000 0.022537
# 5 -0.055038 0.012869 -0.116311 0.000000 0.159265 0.000000
# 6 0.000000 0.000000 0.000000 0.022537 0.000000 0.061578
#
#
# Mechanical properties :
#
#
# Convention : Reuss Voigt Hill
#
# Bulk Modulus (GPa) = 4.94308 47.40900 26.17604
# Shear Modulus (GPa) = 9.55311 25.63621 17.59466
#
# Velocity S-wave (km/s) = 2.14891 3.52024 2.91632
# Velocity P-wave (km/s) = 2.92343 6.28008 4.89826
#
# Compressibility (1/GPa) = 0.20230317
#
# Stress axis : x y z
#
# Youngs Moduli (GPa) = 33.27592 97.94652 7.87574
#
# Poissons Ratio (x) = 0.84654 -0.31214
# Poissons Ratio (y) = 0.28760 0.10597
# Poissons Ratio (z) = -1.31882 1.31788
#
# Static dielectric constant tensor:
#      x y z
#    x 1.640470 0.000000 0.071800 
#    y 0.000000 1.758760 0.000000 
#    z 0.071800 0.000000 1.706310 
# 
# From -- ./inp_files/11052.got.cif
#   From: 2010.05.17/outbox.cif.g08.bks.cpg/sg14_6_cif.got.tgz:11052.got - 2010.06.03 17:49:19.
