data_PCOD9240944
_publ_section_title
;
Structure prediction by ZEFSAII (Michael W. Deem and Ramdas Pophale) SiO2 
 PCOD9240944
Probable space group: P 21/C
;
_chemical_formula_sum "Si O2"
_cell_formula_units_Z 28
_cell_length_a 18.552793
_cell_length_b 8.882505
_cell_length_c 20.279909
_cell_angle_alpha 90.000000
_cell_angle_beta 21.965591
_cell_angle_gamma 90.000000
_cell_volume 1250.086538
_symmetry_space_group_name_H-M "P 21/C"
_symmetry_group_IT_number 14
_symmetry_cell_setting 'monoclinic'
loop_
_space_group_symop_operation_xyz
x,y,z
-x,1/2+y,1/2-z
-x,-y,-z
x,1/2-y,1/2+z
loop_
_atom_site_type_symbol
_atom_site_label
_atom_site_fract_x
_atom_site_fract_y
_atom_site_fract_z
Si Si1 0.819856 0.949058 0.545333
Si Si2 0.266627 0.227997 0.504838
Si Si3 0.239752 0.952092 0.216107
Si Si4 0.638744 0.489157 0.984200
Si Si5 0.143158 0.696180 0.100047
Si Si6 0.569568 0.731257 0.932875
Si Si7 0.395051 0.951765 0.935663
O O1 0.789363 0.812802 0.520941
O O2 0.623094 0.955363 0.751945
O O3 0.016305 0.926350 0.417308
O O4 0.843340 0.092171 0.475890
O O5 0.409192 0.102681 0.414916
O O6 0.349725 0.391661 0.440209
O O7 0.066257 0.229843 0.716117
O O8 0.294800 0.123262 0.187804
O O9 0.376631 0.815990 0.125156
O O10 0.283356 0.945669 0.100001
O O11 0.818095 0.402305 0.866016
O O12 0.655771 0.605496 0.908744
O O13 0.495707 0.360198 0.077351
O O14 0.311940 0.818712 0.961284
#
# Coordination Sequence:
#
# PCOD9240944 Si02
#       7
#     4   4   4   4   4   4   4
#     4  11  23  37  60  91 118 151 191 240 305 348
#     4  11  20  37  61  90 121 151 190 240 298 353
#     4  11  21  39  61  86 113 156 198 240 291 341
#     4  10  19  33  60  88 111 156 196 235 289 344
#     4  11  20  37  61  90 121 151 190 240 298 353
#     4  10  20  36  60  84 112 158 204 236 284 346
#     4  12  21  37  59  91 119 151 193 242 294 351
#
# _framework density 22.398447999999998
#
# number of rings (size 3 to 8) (size 9 to 14) (size 15 to 20)
#    0.000    1.143    5.714    1.714    0.000    0.000 
#    0.000    2.857    0.000    1.714    0.000    0.000 
#    0.000    0.000    0.000    0.000    0.000    0.000 
#
# Total GULP energy -156295.693109 kJ/mol
# GULP energy per Si atom -5581.989040 kJ/mol
# Density = 2.234747 g / cm^3
# Si number density = 22.398448 Si / 1000 Ang^3
#
#
#
# Elastic Constant Matrix: (Units=GPa)
#
#
# Indices 1 2 3 4 5 6 
#
# 1 61.1565 24.3921 5.1786 0.0000 -5.8782 0.0000
# 2 24.3921 130.4553 21.6474 0.0000 -12.2206 0.0000
# 3 5.1786 21.6474 105.2397 0.0000 -18.5669 0.0000
# 4 0.0000 0.0000 0.0000 20.9672 0.0000 -13.4582
# 5 -5.8782 -12.2206 -18.5669 0.0000 27.8930 0.0000
# 6 0.0000 0.0000 0.0000 -13.4582 0.0000 32.9805
#
#
#
# Elastic Compliance Matrix: (Units=1/GPa)
#
#
# Indices 1 2 3 4 5 6 
#
# 1 0.017825 -0.003132 0.000213 0.000000 0.002526 0.000000
# 2 -0.003132 0.008671 -0.001219 0.000000 0.002328 0.000000
# 3 0.000213 -0.001219 0.010941 0.000000 0.006794 0.000000
# 4 0.000000 0.000000 0.000000 0.064619 0.000000 0.026369
# 5 0.002526 0.002328 0.006794 0.000000 0.041926 0.000000
# 6 0.000000 0.000000 0.000000 0.026369 0.000000 0.041081
#
#
# Mechanical properties :
#
#
# Convention : Reuss Voigt Hill
#
# Bulk Modulus (GPa) = 34.29120 44.36530 39.32825
# Shear Modulus (GPa) = 24.62330 32.74368 28.68349
#
# Velocity S-wave (km/s) = 3.31921 3.82759 3.58243
# Velocity P-wave (km/s) = 5.48018 6.27569 5.89138
#
# Compressibility (1/GPa) = 0.02916200
#
# Stress axis : x y z
#
# Youngs Moduli (GPa) = 56.09999 115.32287 91.39995
#
# Poissons Ratio (x) = 0.36114 -0.01944
# Poissons Ratio (y) = 0.17568 0.11141
# Poissons Ratio (z) = -0.01193 0.14056
#
# Static dielectric constant tensor:
#      x y z
#    x 1.899820 0.000000 -0.001680 
#    y 0.000000 1.840400 0.000000 
#    z -0.001680 0.000000 1.813210 
# 
# From -- ./inp_files/70232.got.cif
#   From: 2010.05.17/outbox.cif.g08.bks.cpg/sg14_36_cif.got.tgz:70232.got - 2010.06.03 17:49:19.
