data_PCOD9240746
_publ_section_title
;
Structure prediction by ZEFSAII (Michael W. Deem and Ramdas Pophale) SiO2 
 PCOD9240746
Probable space group: P 21/C
;
_chemical_formula_sum "Si O2"
_cell_formula_units_Z 24
_cell_length_a 30.224533
_cell_length_b 7.589477
_cell_length_c 15.306594
_cell_angle_alpha 90.000000
_cell_angle_beta 161.614576
_cell_angle_gamma 90.000000
_cell_volume 1107.445114
_symmetry_space_group_name_H-M "P 21/C"
_symmetry_group_IT_number 14
_symmetry_cell_setting 'monoclinic'
loop_
_space_group_symop_operation_xyz
x,y,z
-x,1/2+y,1/2-z
-x,-y,-z
x,1/2-y,1/2+z
loop_
_atom_site_type_symbol
_atom_site_label
_atom_site_fract_x
_atom_site_fract_y
_atom_site_fract_z
Si Si1 0.038654 0.790113 0.386781
Si Si2 0.839475 0.811994 0.370532
Si Si3 0.087113 0.180800 0.676679
Si Si4 0.420788 0.525631 0.638545
Si Si5 0.656043 0.058489 0.815479
Si Si6 0.316770 0.814222 0.318407
O O1 0.164888 0.685418 0.578154
O O2 0.991673 0.721695 0.393390
O O3 0.094747 0.989955 0.499774
O O4 0.901807 0.785806 0.069720
O O5 0.894053 0.731677 0.381886
O O6 0.674536 0.851091 0.054770
O O7 0.000000 0.000000 0.500000
O O8 0.238910 0.107525 0.990136
O O9 0.353748 0.615985 0.600960
O O10 0.394108 0.643835 0.504084
O O11 0.579238 0.471321 0.957443
O O12 0.699298 0.185509 0.816836
O O13 0.500000 0.000000 0.500000
#
# Coordination Sequence:
#
# PCOD9240746 Si02
#       6
#     4   4   4   4   4   4
#     4  10  19  32  54  79 103 138 174 217 263 310
#     4   9  19  34  52  76 103 134 174 214 257 310
#     4   9  17  32  52  74 102 136 172 206 253 320
#     4   9  20  35  54  78 104 135 176 217 259 310
#     4   9  18  34  55  76 100 140 179 208 255 319
#     4  10  19  33  53  79 106 137 176 216 260 313
#
# _framework density 21.671500999999999
#
# number of rings (size 3 to 8) (size 9 to 14) (size 15 to 20)
#    0.000    2.667    0.000    3.000    0.000    4.000 
#    0.000    1.667    0.000    8.000    0.000    0.000 
#    0.000    0.000    0.000    0.000    0.000    0.000 
#
# Total GULP energy -133797.256706 kJ/mol
# GULP energy per Si atom -5574.885696 kJ/mol
# Density = 2.162218 g / cm^3
# Si number density = 21.671501 Si / 1000 Ang^3
#
#
#
# Elastic Constant Matrix: (Units=GPa)
#
#
# Indices 1 2 3 4 5 6 
#
# 1 142.3611 30.9252 11.6360 0.0000 -16.1156 0.0000
# 2 30.9252 34.2506 -2.8048 0.0000 -4.3391 0.0000
# 3 11.6360 -2.8048 115.6598 0.0000 13.4280 0.0000
# 4 0.0000 0.0000 0.0000 28.5182 0.0000 -8.0100
# 5 -16.1156 -4.3391 13.4280 0.0000 44.1109 0.0000
# 6 0.0000 0.0000 0.0000 -8.0100 0.0000 26.0670
#
#
#
# Elastic Compliance Matrix: (Units=1/GPa)
#
#
# Indices 1 2 3 4 5 6 
#
# 1 0.009245 -0.008084 -0.001478 0.000000 0.003032 0.000000
# 2 -0.008084 0.036651 0.001686 0.000000 0.000139 0.000000
# 3 -0.001478 0.001686 0.009204 0.000000 -0.003176 0.000000
# 4 0.000000 0.000000 0.000000 0.038378 0.000000 0.011793
# 5 0.003032 0.000139 -0.003176 0.000000 0.024758 0.000000
# 6 0.000000 0.000000 0.000000 0.011793 0.000000 0.041986
#
#
# Mechanical properties :
#
#
# Convention : Reuss Voigt Hill
#
# Bulk Modulus (GPa) = 25.41419 41.30935 33.36177
# Shear Modulus (GPa) = 26.44235 36.57356 31.50795
#
# Velocity S-wave (km/s) = 3.49685 4.11254 3.81713
# Velocity P-wave (km/s) = 5.29683 6.45396 5.90381
#
# Compressibility (1/GPa) = 0.03934810
#
# Stress axis : x y z
#
# Youngs Moduli (GPa) = 108.17218 27.28425 108.64387
#
# Poissons Ratio (x) = 0.22056 0.16059
# Poissons Ratio (y) = 0.87445 -0.18317
# Poissons Ratio (z) = 0.15989 -0.04600
#
# Static dielectric constant tensor:
#      x y z
#    x 1.835200 0.000000 0.007950 
#    y 0.000000 1.809420 0.000000 
#    z 0.007950 0.000000 1.794660 
# 
# From -- ./inp_files/52222.got.cif
#   From: 2010.05.17/outbox.cif.g08.bks.cpg/sg14_27_cif.got.tgz:52222.got - 2010.06.03 17:49:19.
