data_PCOD9240474
_publ_section_title
;
Structure prediction by ZEFSAII (Michael W. Deem and Ramdas Pophale) SiO2 
 PCOD9240474
Probable space group: P 21/C
;
_chemical_formula_sum "Si O2"
_cell_formula_units_Z 18
_cell_length_a 6.943907
_cell_length_b 19.623813
_cell_length_c 5.305461
_cell_angle_alpha 90.000000
_cell_angle_beta 74.334181
_cell_angle_gamma 90.000000
_cell_volume 696.098039
_symmetry_space_group_name_H-M "P 21/C"
_symmetry_group_IT_number 14
_symmetry_cell_setting 'monoclinic'
loop_
_space_group_symop_operation_xyz
x,y,z
-x,1/2+y,1/2-z
-x,-y,-z
x,1/2-y,1/2+z
loop_
_atom_site_type_symbol
_atom_site_label
_atom_site_fract_x
_atom_site_fract_y
_atom_site_fract_z
Si Si1 0.000000 0.000000 0.000000
Si Si2 0.716179 0.040837 0.554252
Si Si3 0.003381 0.361952 0.259978
Si Si4 0.624554 0.598978 0.170849
Si Si5 0.373220 0.710566 0.525348
O O1 0.966821 0.914779 0.023937
O O2 0.844522 0.008738 0.285843
O O3 0.521464 0.073667 0.502367
O O4 0.843541 0.097386 0.645041
O O5 0.692667 0.975948 0.751350
O O6 0.867999 0.299622 0.399874
O O7 0.199803 0.356942 0.018797
O O8 0.493164 0.642114 0.410037
O O9 0.427103 0.737820 0.781071
#
# Coordination Sequence:
#
# PCOD9240474 Si02
#       5
#     2   4   4   4   4
#     4  10  18  38  70 104 142 174 224 298 380 422
#     4  10  21  43  68 115 147 176 231 312 379 440
#     4  11  24  45  72 107 144 189 234 312 376 434
#     4  10  22  45  72 106 141 189 241 299 370 444
#     4  12  28  51  71 102 151 202 255 301 352 448
#
# _framework density 25.858423999999999
#
# number of rings (size 3 to 8) (size 9 to 14) (size 15 to 20)
#    0.000    1.333    2.222    4.000    0.000    2.667 
#   28.000    0.000    0.000    0.000    0.000    0.000 
#    0.000    0.000    0.000    0.000    0.000    0.000 
#
# Total GULP energy -100350.239379 kJ/mol
# GULP energy per Si atom -5575.013299 kJ/mol
# Density = 2.579957 g / cm^3
# Si number density = 25.858424 Si / 1000 Ang^3
#
#
#
# Elastic Constant Matrix: (Units=GPa)
#
#
# Indices 1 2 3 4 5 6 
#
# 1 44.2993 -9.6947 18.3364 0.0000 -22.3160 0.0000
# 2 -9.6947 56.2055 42.3636 0.0000 -12.9789 0.0000
# 3 18.3364 42.3636 122.3336 0.0000 -29.7809 0.0000
# 4 0.0000 0.0000 0.0000 57.1604 0.0000 -4.4302
# 5 -22.3160 -12.9789 -29.7809 0.0000 44.8553 0.0000
# 6 0.0000 0.0000 0.0000 -4.4302 0.0000 27.7811
#
#
#
# Elastic Compliance Matrix: (Units=1/GPa)
#
#
# Indices 1 2 3 4 5 6 
#
# 1 0.038716 0.016209 -0.006662 0.000000 0.019529 0.000000
# 2 0.016209 0.030972 -0.010747 0.000000 0.009890 0.000000
# 3 -0.006662 -0.010747 0.013515 0.000000 0.002549 0.000000
# 4 0.000000 0.000000 0.000000 0.017714 0.000000 0.002825
# 5 0.019529 0.009890 0.002549 0.000000 0.036564 0.000000
# 6 0.000000 0.000000 0.000000 0.002825 0.000000 0.036446
#
#
# Mechanical properties :
#
#
# Convention : Reuss Voigt Hill
#
# Bulk Modulus (GPa) = 12.37585 36.09436 24.23510
# Shear Modulus (GPa) = 24.59874 37.41487 31.00681
#
# Velocity S-wave (km/s) = 3.08764 3.80796 3.46656
# Velocity P-wave (km/s) = 4.18422 5.77259 5.04136
#
# Compressibility (1/GPa) = 0.08080251
#
# Stress axis : x y z
#
# Youngs Moduli (GPa) = 25.82899 32.28702 73.99052
#
# Poissons Ratio (x) = -0.52334 0.49294
# Poissons Ratio (y) = -0.41866 0.79520
# Poissons Ratio (z) = 0.17208 0.34700
#
# Static dielectric constant tensor:
#      x y z
#    x -0.478980 0.000000 -0.875470 
#    y 0.000000 0.116050 0.000000 
#    z -0.875470 0.000000 1.637140 
# 
# From -- ./inp_files/1495.got.cif
#   From: 2010.05.17/outbox.cif.g08.bks.cpg/sg14_1_cif.got.tgz:1495.got - 2010.06.03 17:49:19.
