data_PCOD9240322
_publ_section_title
;
Structure prediction by ZEFSAII (Michael W. Deem and Ramdas Pophale) SiO2 
 PCOD9240322
Probable space group: P 21/C
;
_chemical_formula_sum "Si O2"
_cell_formula_units_Z 28
_cell_length_a 30.292807
_cell_length_b 4.971831
_cell_length_c 18.120106
_cell_angle_alpha 90.000000
_cell_angle_beta 30.318973
_cell_angle_gamma 90.000000
_cell_volume 1377.677520
_symmetry_space_group_name_H-M "P 21/C"
_symmetry_group_IT_number 14
_symmetry_cell_setting 'monoclinic'
loop_
_space_group_symop_operation_xyz
x,y,z
-x,1/2+y,1/2-z
-x,-y,-z
x,1/2-y,1/2+z
loop_
_atom_site_type_symbol
_atom_site_label
_atom_site_fract_x
_atom_site_fract_y
_atom_site_fract_z
Si Si1 0.702867 0.172076 0.999830
Si Si2 0.323884 0.426069 0.605725
Si Si3 0.114660 0.956351 0.598197
Si Si4 0.294639 0.157934 0.405201
Si Si5 0.931125 0.958704 0.928418
Si Si6 0.438106 0.247519 0.074719
Si Si7 0.207441 0.601537 0.259224
O O1 0.666673 0.423574 0.097782
O O2 0.724430 0.924881 0.020882
O O3 0.786446 0.277947 0.831966
O O4 0.643360 0.053373 0.018997
O O5 0.395645 0.303987 0.555998
O O6 0.265745 0.677283 0.720799
O O7 0.258478 0.180371 0.684006
O O8 0.206560 0.033198 0.499539
O O9 0.093572 0.157635 0.560570
O O10 0.034943 0.992924 0.770913
O O11 0.109995 0.654671 0.574496
O O12 0.359125 0.239903 0.246783
O O13 0.885170 0.047863 0.070046
O O14 0.500000 0.500000 0.000000
O O15 0.500000 0.000000 0.000000
#
# Coordination Sequence:
#
# PCOD9240322 Si02
#       7
#     4   4   4   4   4   4   4
#     4  10  22  39  64  88 124 166 205 232 308 383
#     4  10  21  41  65  88 120 165 203 238 305 381
#     4  10  22  34  59  90 125 155 209 247 318 338
#     4  12  22  42  63  91 124 161 197 266 306 358
#     4  10  19  36  56  93 122 161 203 261 282 369
#     4  12  26  42  66  96 120 150 208 265 309 364
#     4  10  18  36  65  83 119 166 208 228 292 371
#
# _framework density 20.324061
#
# number of rings (size 3 to 8) (size 9 to 14) (size 15 to 20)
#    0.857    0.571    1.429    5.143    0.000    0.000 
#    0.000    4.286    0.000    0.000    0.000    0.000 
#    0.000    0.000    0.000    0.000    0.000    0.000 
#
# Total GULP energy -156172.167216 kJ/mol
# GULP energy per Si atom -5577.577401 kJ/mol
# Density = 2.027780 g / cm^3
# Si number density = 20.324061 Si / 1000 Ang^3
#
#
#
# Elastic Constant Matrix: (Units=GPa)
#
#
# Indices 1 2 3 4 5 6 
#
# 1 54.6602 11.7911 60.6041 0.0000 9.3021 0.0000
# 2 11.7911 110.7055 -0.7297 0.0000 -5.0012 0.0000
# 3 60.6041 -0.7297 -39.6687 0.0000 -33.8084 0.0000
# 4 0.0000 0.0000 0.0000 0.3878 0.0000 -31.5440
# 5 9.3021 -5.0012 -33.8084 0.0000 8.8036 0.0000
# 6 0.0000 0.0000 0.0000 -31.5440 0.0000 -14.3958
#
#
#
# Elastic Compliance Matrix: (Units=1/GPa)
#
#
# Indices 1 2 3 4 5 6 
#
# 1 0.010073 -0.000525 0.005786 0.000000 0.011279 0.000000
# 2 -0.000525 0.009101 -0.001369 0.000000 0.000468 0.000000
# 3 0.005786 -0.001369 -0.002450 0.000000 -0.016302 0.000000
# 4 0.000000 0.000000 0.000000 0.014387 0.000000 -0.031525
# 5 0.011279 0.000468 -0.016302 0.000000 0.039336 0.000000
# 6 0.000000 0.000000 0.000000 -0.031525 0.000000 -0.000388
#
#
# Mechanical properties :
#
#
# Convention : Reuss Voigt Hill
#
# Bulk Modulus (GPa) = 40.80251 29.89201 35.34726
# Shear Modulus (GPa) = 70.97840 2.56122 36.76981
#
# Velocity S-wave (km/s) = 5.91601 1.12380 4.25806
# Velocity P-wave (km/s) = 8.17221 4.05260 6.45014
#
# Compressibility (1/GPa) = 0.02450829
#
# Stress axis : x y z
#
# Youngs Moduli (GPa) = 99.27350 109.87748 -408.10906
#
# Poissons Ratio (x) = 0.05771 2.36143
# Poissons Ratio (y) = 0.05214 -0.55865
# Poissons Ratio (z) = -0.57442 0.15041
#
# Static dielectric constant tensor:
#      x y z
#    x 1.702520 0.000000 0.022220 
#    y 0.000000 1.713220 0.000000 
#    z 0.022220 0.000000 1.718160 
# 
# From -- ./inp_files/62405.got.cif
#   From: 2010.05.17/outbox.cif.g08.bks.cpg/sg14_32_cif.got.tgz:62405.got - 2010.06.03 17:49:19.
