data_PCOD9240991
_publ_section_title
;
Structure prediction by ZEFSAII (Michael W. Deem and Ramdas Pophale) SiO2 
 PCOD9240991
Probable space group: P 21/C
;
_chemical_formula_sum "Si O2"
_cell_formula_units_Z 28
_cell_length_a 4.996809
_cell_length_b 28.299531
_cell_length_c 7.971373
_cell_angle_alpha 90.000000
_cell_angle_beta 66.804934
_cell_angle_gamma 90.000000
_cell_volume 1036.097463
_symmetry_space_group_name_H-M "P 21/C"
_symmetry_group_IT_number 14
_symmetry_cell_setting 'monoclinic'
loop_
_space_group_symop_operation_xyz
x,y,z
-x,1/2+y,1/2-z
-x,-y,-z
x,1/2-y,1/2+z
loop_
_atom_site_type_symbol
_atom_site_label
_atom_site_fract_x
_atom_site_fract_y
_atom_site_fract_z
Si Si1 0.490987 0.587978 0.221805
Si Si2 0.928384 0.769177 0.984997
Si Si3 0.698654 0.679217 0.878444
Si Si4 0.501821 0.815974 0.871971
Si Si5 0.068151 0.531248 0.144960
Si Si6 0.748634 0.461168 0.415189
Si Si7 0.264667 0.630036 0.764106
O O1 0.489618 0.644474 0.231279
O O2 0.803291 0.569258 0.207653
O O3 0.252081 0.571408 0.420624
O O4 0.368114 0.559407 0.093521
O O5 0.767793 0.719323 0.999159
O O6 0.817329 0.799691 0.853981
O O7 0.277858 0.772611 0.897863
O O8 0.820849 0.794195 0.180074
O O9 0.399239 0.656633 0.890096
O O10 0.919101 0.636007 0.854248
O O11 0.382801 0.842170 0.070555
O O12 0.030058 0.491528 0.299240
O O13 0.000000 0.500000 0.000000
O O14 0.500000 0.500000 0.500000
O O15 0.669676 0.424555 0.285979
#
# Coordination Sequence:
#
# PCOD9240991 Si02
#       7
#     4   4   4   4   4   4   4
#     4  10  20  37  58  80 105 143 190 227 263 321
#     4  10  19  34  54  77 104 137 173 214 269 322
#     4  10  20  35  54  78 108 140 174 221 272 323
#     4   9  18  33  56  78 100 134 182 227 257 306
#     4  11  22  36  54  81 117 146 174 224 287 332
#     4   9  20  37  61  84 106 146 195 230 268 332
#     4   9  19  34  54  80 108 136 178 231 271 308
#
# _framework density 27.024484000000001
#
# number of rings (size 3 to 8) (size 9 to 14) (size 15 to 20)
#    0.000    2.286    0.000    2.571    0.000    9.143 
#    0.000    4.286    0.000    0.000    0.000    0.000 
#    0.000    0.000    0.000    0.000    0.000    0.000 
#
# Total GULP energy -156706.593219 kJ/mol
# GULP energy per Si atom -5596.664044 kJ/mol
# Density = 2.696297 g / cm^3
# Si number density = 27.024484 Si / 1000 Ang^3
#
#
#
# Elastic Constant Matrix: (Units=GPa)
#
#
# Indices 1 2 3 4 5 6 
#
# 1 121.6594 29.1342 -3.2770 0.0000 12.5170 0.0000
# 2 29.1342 158.0160 11.4745 0.0000 4.6632 0.0000
# 3 -3.2770 11.4745 69.9710 0.0000 23.9943 0.0000
# 4 0.0000 0.0000 0.0000 48.4667 0.0000 0.8978
# 5 12.5170 4.6632 23.9943 0.0000 25.1309 0.0000
# 6 0.0000 0.0000 0.0000 0.8978 0.0000 40.2954
#
#
#
# Elastic Compliance Matrix: (Units=1/GPa)
#
#
# Indices 1 2 3 4 5 6 
#
# 1 0.009517 -0.001773 0.003344 0.000000 -0.007604 0.000000
# 2 -0.001773 0.006736 -0.001579 0.000000 0.001141 0.000000
# 3 0.003344 -0.001579 0.022566 0.000000 -0.022918 0.000000
# 4 0.000000 0.000000 0.000000 0.020641 0.000000 -0.000460
# 5 -0.007604 0.001141 -0.022918 0.000000 0.065249 0.000000
# 6 0.000000 0.000000 0.000000 -0.000460 0.000000 0.024827
#
#
# Mechanical properties :
#
#
# Convention : Reuss Voigt Hill
#
# Bulk Modulus (GPa) = 25.77108 47.14551 36.45830
# Shear Modulus (GPa) = 30.77176 43.59959 37.18567
#
# Velocity S-wave (km/s) = 3.37807 4.02099 3.71347
# Velocity P-wave (km/s) = 4.97715 6.24830 5.64859
#
# Compressibility (1/GPa) = 0.03880318
#
# Stress axis : x y z
#
# Youngs Moduli (GPa) = 105.07903 148.44785 44.31404
#
# Poissons Ratio (x) = 0.26321 -0.14818
# Poissons Ratio (y) = 0.18631 0.06997
# Poissons Ratio (z) = -0.35137 0.23438
#
# Static dielectric constant tensor:
#      x y z
#    x 1.999460 0.000000 0.015970 
#    y 0.000000 2.109340 0.000000 
#    z 0.015970 0.000000 2.297220 
# 
# From -- ./inp_files/6500.got.cif
#   From: 2010.05.17/outbox.cif.g08.bks.cpg/sg14_4_cif.got.tgz:6500.got - 2010.06.03 17:49:19.
