data_PCOD9240915
_publ_section_title
;
Structure prediction by ZEFSAII (Michael W. Deem and Ramdas Pophale) SiO2 
 PCOD9240915
Probable space group: P 21/C
;
_chemical_formula_sum "Si O2"
_cell_formula_units_Z 32
_cell_length_a 5.287333
_cell_length_b 22.609469
_cell_length_c 15.167378
_cell_angle_alpha 90.000000
_cell_angle_beta 120.068148
_cell_angle_gamma 90.000000
_cell_volume 1569.168302
_symmetry_space_group_name_H-M "P 21/C"
_symmetry_group_IT_number 14
_symmetry_cell_setting 'monoclinic'
loop_
_space_group_symop_operation_xyz
x,y,z
-x,1/2+y,1/2-z
-x,-y,-z
x,1/2-y,1/2+z
loop_
_atom_site_type_symbol
_atom_site_label
_atom_site_fract_x
_atom_site_fract_y
_atom_site_fract_z
Si Si1 0.434769 0.626750 0.229266
Si Si2 0.985873 0.566339 0.656594
Si Si3 0.459254 0.798823 0.053641
Si Si4 0.553466 0.769033 0.881602
Si Si5 0.087992 0.790540 0.553546
Si Si6 0.720442 0.419948 0.472558
Si Si7 0.984053 0.442204 0.710284
Si Si8 0.943194 0.198665 0.786419
O O1 0.564169 0.684940 0.302426
O O2 0.191751 0.649748 0.117223
O O3 0.257246 0.586287 0.267621
O O4 0.711299 0.593416 0.235813
O O5 0.132645 0.552075 0.587641
O O6 0.121381 0.629607 0.709050
O O7 0.632036 0.572546 0.587019
O O8 0.038475 0.512083 0.732003
O O9 0.551016 0.808927 0.969026
O O10 0.351761 0.732374 0.039661
O O11 0.224188 0.849474 0.027972
O O12 0.710571 0.803143 0.170285
O O13 0.806265 0.721114 0.944319
O O14 0.256370 0.732134 0.817416
O O15 0.074259 0.741572 0.630450
O O16 0.853874 0.438404 0.588462
#
# Coordination Sequence:
#
# PCOD9240915 Si02
#       8
#     4   4   4   4   4   4   4   4
#     4  11  25  37  60  87 117 153 195 237 289 350
#     4  11  22  38  57  83 120 156 196 238 281 346
#     4  10  19  33  58  81 120 143 186 235 294 346
#     4  10  21  37  57  85 115 151 189 239 295 348
#     4  10  21  37  58  83 116 150 190 242 291 346
#     4  11  20  35  56  86 117 153 191 228 290 355
#     4  12  23  38  57  84 119 159 195 234 287 346
#     4   9  21  35  55  85 113 151 189 238 288 345
#
# _framework density 20.392966000000001
#
# number of rings (size 3 to 8) (size 9 to 14) (size 15 to 20)
#    0.000    1.500    2.500    3.000    7.000    1.000 
#    0.000    0.000    0.000    1.500    0.000    0.000 
#    0.000    0.000    0.000    0.000    0.000    0.000 
#
# Total GULP energy -178357.378714 kJ/mol
# GULP energy per Si atom -5573.668085 kJ/mol
# Density = 2.034655 g / cm^3
# Si number density = 20.392966 Si / 1000 Ang^3
#
#
#
# Elastic Constant Matrix: (Units=GPa)
#
#
# Indices 1 2 3 4 5 6 
#
# 1 61.4882 3.7991 9.5206 0.0000 8.4499 0.0000
# 2 3.7991 71.2470 8.8138 0.0000 14.2627 0.0000
# 3 9.5206 8.8138 43.5777 0.0000 19.1099 0.0000
# 4 0.0000 0.0000 0.0000 20.9530 0.0000 2.5130
# 5 8.4499 14.2627 19.1099 0.0000 23.1463 0.0000
# 6 0.0000 0.0000 0.0000 2.5130 0.0000 28.4903
#
#
#
# Elastic Compliance Matrix: (Units=1/GPa)
#
#
# Indices 1 2 3 4 5 6 
#
# 1 0.017197 0.000315 -0.001540 0.000000 -0.005200 0.000000
# 2 0.000315 0.016098 0.001686 0.000000 -0.011426 0.000000
# 3 -0.001540 0.001686 0.036291 0.000000 -0.030439 0.000000
# 4 0.000000 0.000000 0.000000 0.048236 0.000000 -0.004255
# 5 -0.005200 -0.011426 -0.030439 0.000000 0.077274 0.000000
# 6 0.000000 0.000000 0.000000 -0.004255 0.000000 0.035475
#
#
# Mechanical properties :
#
#
# Convention : Reuss Voigt Hill
#
# Bulk Modulus (GPa) = 14.18300 24.50886 19.34593
# Shear Modulus (GPa) = 19.75094 24.79656 22.27375
#
# Velocity S-wave (km/s) = 3.11548 3.49081 3.30847
# Velocity P-wave (km/s) = 4.46224 5.31903 4.90936
#
# Compressibility (1/GPa) = 0.07050696
#
# Stress axis : x y z
#
# Youngs Moduli (GPa) = 58.14977 62.12066 27.55473
#
# Poissons Ratio (x) = -0.01954 0.04244
# Poissons Ratio (y) = -0.01829 -0.04646
# Poissons Ratio (z) = 0.08957 -0.10475
#
# Static dielectric constant tensor:
#      x y z
#    x 1.863480 0.000000 -0.005000 
#    y 0.000000 1.783990 0.000000 
#    z -0.005000 0.000000 1.714690 
# 
# From -- ./inp_files/38110.got.cif
#   From: 2010.05.17/outbox.cif.g08.bks.cpg/sg14_20_cif.got.tgz:38110.got - 2010.06.03 17:49:19.
