data_PCOD9240248
_publ_section_title
;
Structure prediction by ZEFSAII (Michael W. Deem and Ramdas Pophale) SiO2 
 PCOD9240248
Probable space group: P 21/C
;
_chemical_formula_sum "Si O2"
_cell_formula_units_Z 28
_cell_length_a 14.139771
_cell_length_b 15.850313
_cell_length_c 11.496835
_cell_angle_alpha 90.000000
_cell_angle_beta 149.013822
_cell_angle_gamma 90.000000
_cell_volume 1326.549441
_symmetry_space_group_name_H-M "P 21/C"
_symmetry_group_IT_number 14
_symmetry_cell_setting 'monoclinic'
loop_
_space_group_symop_operation_xyz
x,y,z
-x,1/2+y,1/2-z
-x,-y,-z
x,1/2-y,1/2+z
loop_
_atom_site_type_symbol
_atom_site_label
_atom_site_fract_x
_atom_site_fract_y
_atom_site_fract_z
Si Si1 0.098263 0.445316 0.438860
Si Si2 0.457437 0.975353 0.321356
Si Si3 0.714976 0.657261 0.163193
Si Si4 0.718581 0.398706 0.985777
Si Si5 0.542293 0.245359 0.415400
Si Si6 0.463338 0.598498 0.439636
Si Si7 0.248563 0.312846 0.417227
O O1 0.761361 0.023386 0.927766
O O2 0.159816 0.401771 0.624017
O O3 0.132105 0.375198 0.373795
O O4 0.882793 0.457942 0.202307
O O5 0.532475 0.052514 0.324832
O O6 0.500000 0.000000 0.500000
O O7 0.588022 0.895945 0.440992
O O8 0.560549 0.700293 0.084222
O O9 0.836044 0.730944 0.233831
O O10 0.714463 0.310998 0.053001
O O11 0.698684 0.388825 0.826623
O O12 0.575945 0.341047 0.491469
O O13 0.400562 0.230398 0.160949
O O14 0.500000 0.500000 0.500000
O O15 0.646727 0.634730 0.571580
#
# Coordination Sequence:
#
# PCOD9240248 Si02
#       7
#     4   4   4   4   4   4   4
#     4  10  20  35  58  84 119 146 188 245 289 341
#     4  10  18  36  56  82 115 150 187 231 290 338
#     4   9  18  33  58  80 107 154 189 232 285 345
#     4  11  21  37  59  87 117 150 191 245 291 347
#     4   9  18  36  56  83 109 151 197 231 285 348
#     4  10  21  37  61  84 112 158 195 238 294 346
#     4   9  18  36  59  80 112 152 192 233 290 346
#
# _framework density 21.107392999999998
#
# number of rings (size 3 to 8) (size 9 to 14) (size 15 to 20)
#    0.000    2.286    5.714    0.000    2.000    3.429 
#    0.000    0.714    3.143    0.000    0.000    0.000 
#    0.000    0.000    0.000    0.000    0.000    0.000 
#
# Total GULP energy -155956.667749 kJ/mol
# GULP energy per Si atom -5569.880991 kJ/mol
# Density = 2.105935 g / cm^3
# Si number density = 21.107393 Si / 1000 Ang^3
#
#
#
# Elastic Constant Matrix: (Units=GPa)
#
#
# Indices 1 2 3 4 5 6 
#
# 1 38.8679 21.7318 11.2098 0.0000 -11.8673 0.0000
# 2 21.7318 105.6507 8.8755 0.0000 -16.4172 0.0000
# 3 11.2098 8.8755 56.4941 0.0000 6.4548 0.0000
# 4 0.0000 0.0000 0.0000 23.3845 0.0000 -9.7269
# 5 -11.8673 -16.4172 6.4548 0.0000 25.2443 0.0000
# 6 0.0000 0.0000 0.0000 -9.7269 0.0000 25.7650
#
#
#
# Elastic Compliance Matrix: (Units=1/GPa)
#
#
# Indices 1 2 3 4 5 6 
#
# 1 0.035258 -0.004076 -0.008186 0.000000 0.016017 0.000000
# 2 -0.004076 0.011358 -0.001649 0.000000 0.005892 0.000000
# 3 -0.008186 -0.001649 0.020753 0.000000 -0.010227 0.000000
# 4 0.000000 0.000000 0.000000 0.050730 0.000000 0.019152
# 5 0.016017 0.005892 -0.010227 0.000000 0.053589 0.000000
# 6 0.000000 0.000000 0.000000 0.019152 0.000000 0.046043
#
#
# Mechanical properties :
#
#
# Convention : Reuss Voigt Hill
#
# Bulk Modulus (GPa) = 25.28586 31.62741 28.45664
# Shear Modulus (GPa) = 19.32492 25.49182 22.40837
#
# Velocity S-wave (km/s) = 3.02909 3.47900 3.26181
# Velocity P-wave (km/s) = 4.92336 5.58162 5.26279
#
# Compressibility (1/GPa) = 0.03954779
#
# Stress axis : x y z
#
# Youngs Moduli (GPa) = 28.36207 88.04711 48.18643
#
# Poissons Ratio (x) = 0.35887 0.39445
# Poissons Ratio (y) = 0.11560 0.07945
# Poissons Ratio (z) = 0.23217 0.14517
#
# Static dielectric constant tensor:
#      x y z
#    x 1.812360 0.000000 -0.015950 
#    y 0.000000 1.844610 0.000000 
#    z -0.015950 0.000000 1.776870 
# 
# From -- ./inp_files/32617.got.cif
#   From: 2010.05.17/outbox.cif.g08.bks.cpg/sg14_17_cif.got.tgz:32617.got - 2010.06.03 17:49:19.
