data_PCOD9240825
_publ_section_title
;
Structure prediction by ZEFSAII (Michael W. Deem and Ramdas Pophale) SiO2 
 PCOD9240825
Probable space group: P 21/C
;
_chemical_formula_sum "Si O2"
_cell_formula_units_Z 24
_cell_length_a 25.518311
_cell_length_b 5.171619
_cell_length_c 30.910430
_cell_angle_alpha 90.000000
_cell_angle_beta 19.040646
_cell_angle_gamma 90.000000
_cell_volume 1330.819468
_symmetry_space_group_name_H-M "P 21/C"
_symmetry_group_IT_number 14
_symmetry_cell_setting 'monoclinic'
loop_
_space_group_symop_operation_xyz
x,y,z
-x,1/2+y,1/2-z
-x,-y,-z
x,1/2-y,1/2+z
loop_
_atom_site_type_symbol
_atom_site_label
_atom_site_fract_x
_atom_site_fract_y
_atom_site_fract_z
Si Si1 0.955835 0.739065 0.640592
Si Si2 0.423114 0.100124 0.255949
Si Si3 0.962463 0.241915 0.574901
Si Si4 0.725359 0.885628 0.719381
Si Si5 0.712332 0.103025 0.090375
Si Si6 0.602515 0.749760 0.908563
O O1 0.954127 0.499028 0.608865
O O2 0.774109 0.757636 0.799241
O O3 0.100141 0.669461 0.560216
O O4 0.989340 0.000751 0.587203
O O5 0.394659 0.109852 0.227138
O O6 0.605912 0.117343 0.130131
O O7 0.325464 0.331164 0.356284
O O8 0.356340 0.827629 0.325059
O O9 0.113538 0.250355 0.424869
O O10 0.800097 0.161856 0.676340
O O11 0.648514 0.763236 0.821895
O O12 0.500000 0.500000 0.000000
O O13 0.500000 0.000000 0.000000
#
# Coordination Sequence:
#
# PCOD9240825 Si02
#       6
#     4   4   4   4   4   4
#     4  11  19  37  56  78 114 138 178 224 273 338
#     4  10  20  32  52  82 114 138 168 215 277 342
#     4  10  21  30  56  88 103 140 172 221 294 325
#     4  10  20  36  55  79 115 138 179 227 270 337
#     4  10  19  33  52  82 113 138 168 214 280 337
#     4  11  25  38  52  76 106 149 186 221 260 307
#
# _framework density 18.034002999999998
#
# number of rings (size 3 to 8) (size 9 to 14) (size 15 to 20)
#    0.000    1.667    3.333    2.000    0.000   11.333 
#    0.000    0.000    0.000    2.000    0.000    0.000 
#    0.000    0.000    0.000    0.000    0.000    0.000 
#
# Total GULP energy -133959.974485 kJ/mol
# GULP energy per Si atom -5581.665604 kJ/mol
# Density = 1.799296 g / cm^3
# Si number density = 18.034003 Si / 1000 Ang^3
#
#
#
# Elastic Constant Matrix: (Units=GPa)
#
#
# Indices 1 2 3 4 5 6 
#
# 1 119.9907 9.7656 40.8414 0.0000 -28.2186 0.0000
# 2 9.7656 118.3224 34.7897 0.0000 4.6890 0.0000
# 3 40.8414 34.7897 119.0786 0.0000 -16.2866 0.0000
# 4 0.0000 0.0000 0.0000 26.6884 0.0000 -1.3989
# 5 -28.2186 4.6890 -16.2866 0.0000 34.4644 0.0000
# 6 0.0000 0.0000 0.0000 -1.3989 0.0000 18.7389
#
#
#
# Elastic Compliance Matrix: (Units=1/GPa)
#
#
# Indices 1 2 3 4 5 6 
#
# 1 0.011123 -0.000471 -0.002590 0.000000 0.007947 0.000000
# 2 -0.000471 0.009509 -0.003043 0.000000 -0.003117 0.000000
# 3 -0.002590 -0.003043 0.010629 0.000000 0.003316 0.000000
# 4 0.000000 0.000000 0.000000 0.037617 0.000000 0.002808
# 5 0.007947 -0.003117 0.003316 0.000000 0.037514 0.000000
# 6 0.000000 0.000000 0.000000 0.002808 0.000000 0.053575
#
#
# Mechanical properties :
#
#
# Convention : Reuss Voigt Hill
#
# Bulk Modulus (GPa) = 52.48920 58.68725 55.58823
# Shear Modulus (GPa) = 28.00738 34.11132 31.05935
#
# Velocity S-wave (km/s) = 3.94513 4.35386 4.15452
# Velocity P-wave (km/s) = 7.06547 7.60841 7.34196
#
# Compressibility (1/GPa) = 0.01905154
#
# Stress axis : x y z
#
# Youngs Moduli (GPa) = 89.90392 105.16839 94.08500
#
# Poissons Ratio (x) = 0.04957 0.24371
# Poissons Ratio (y) = 0.04238 0.28627
# Poissons Ratio (z) = 0.23288 0.32000
#
# Static dielectric constant tensor:
#      x y z
#    x 1.651320 0.000000 -0.054520 
#    y 0.000000 1.654460 0.000000 
#    z -0.054520 0.000000 1.622480 
# 
# From -- ./inp_files/78069.got.cif
#   From: 2010.05.17/outbox.cif.g08.bks.cpg/sg14_40_cif.got.tgz:78069.got - 2010.06.03 17:49:19.
