data_PCOD9240779
_publ_section_title
;
Structure prediction by ZEFSAII (Michael W. Deem and Ramdas Pophale) SiO2 
 PCOD9240779
Probable space group: P 21/C
;
_chemical_formula_sum "Si O2"
_cell_formula_units_Z 32
_cell_length_a 10.835265
_cell_length_b 13.905562
_cell_length_c 11.604020
_cell_angle_alpha 90.000000
_cell_angle_beta 119.335974
_cell_angle_gamma 90.000000
_cell_volume 1524.173490
_symmetry_space_group_name_H-M "P 21/C"
_symmetry_group_IT_number 14
_symmetry_cell_setting 'monoclinic'
loop_
_space_group_symop_operation_xyz
x,y,z
-x,1/2+y,1/2-z
-x,-y,-z
x,1/2-y,1/2+z
loop_
_atom_site_type_symbol
_atom_site_label
_atom_site_fract_x
_atom_site_fract_y
_atom_site_fract_z
Si Si1 0.306950 0.174449 0.860833
Si Si2 0.043760 0.205737 0.157256
Si Si3 0.201243 0.421499 0.535267
Si Si4 0.237676 0.431676 0.096485
Si Si5 0.547373 0.639536 0.003760
Si Si6 0.018164 0.490828 0.735582
Si Si7 0.060618 0.610688 0.975774
Si Si8 0.331022 0.977551 0.294199
O O1 0.160080 0.233413 0.779308
O O2 0.308325 0.106273 0.748172
O O3 0.297051 0.121285 0.978108
O O4 0.425309 0.256472 0.930061
O O5 0.136308 0.154337 0.097832
O O6 0.924993 0.279426 0.057119
O O7 0.984900 0.121385 0.210319
O O8 0.289190 0.502208 0.644206
O O9 0.066723 0.463579 0.408091
O O10 0.334707 0.391470 0.037812
O O11 0.079763 0.386143 0.008375
O O12 0.195837 0.546205 0.073679
O O13 0.401809 0.620052 0.869738
O O14 0.564811 0.562536 0.115218
O O15 0.991430 0.549416 0.838477
O O16 0.183856 0.506288 0.791572
#
# Coordination Sequence:
#
# PCOD9240779 Si02
#       8
#     4   4   4   4   4   4   4   4
#     4  11  19  35  62  95 111 160 207 256 296 371
#     4  10  19  32  56  91 120 166 196 243 313 365
#     4  11  21  38  62  91 125 152 213 259 310 370
#     4  10  20  35  59  91 125 159 202 256 312 358
#     4  11  21  38  62  85 121 162 216 243 299 379
#     4  11  19  38  62  91 126 157 208 263 307 365
#     4  10  19  35  57  95 127 158 199 261 315 360
#     4  10  22  37  61  85 116 168 200 257 299 359
#
# _framework density 20.994985
#
# number of rings (size 3 to 8) (size 9 to 14) (size 15 to 20)
#    0.000    1.500    6.250    3.000    0.000    1.000 
#    0.000    0.625   11.000    0.000    0.000    0.000 
#    0.000    0.000    0.000    0.000    0.000    0.000 
#
# Total GULP energy -178274.658828 kJ/mol
# GULP energy per Si atom -5571.083088 kJ/mol
# Density = 2.094720 g / cm^3
# Si number density = 20.994985 Si / 1000 Ang^3
#
#
#
# Elastic Constant Matrix: (Units=GPa)
#
#
# Indices 1 2 3 4 5 6 
#
# 1 12.3871 19.2792 10.1869 0.0000 -1.1467 0.0000
# 2 19.2792 99.7698 44.4428 0.0000 14.3309 0.0000
# 3 10.1869 44.4428 109.6844 0.0000 -0.0772 0.0000
# 4 0.0000 0.0000 0.0000 51.9302 0.0000 10.4675
# 5 -1.1467 14.3309 -0.0772 0.0000 28.5635 0.0000
# 6 0.0000 0.0000 0.0000 10.4675 0.0000 15.4341
#
#
#
# Elastic Compliance Matrix: (Units=1/GPa)
#
#
# Indices 1 2 3 4 5 6 
#
# 1 0.123788 -0.026114 -0.000903 0.000000 0.018069 0.000000
# 2 -0.026114 0.018924 -0.005250 0.000000 -0.010557 0.000000
# 3 -0.000903 -0.005250 0.011330 0.000000 0.002628 0.000000
# 4 0.000000 0.000000 0.000000 0.022306 0.000000 -0.015128
# 5 0.018069 -0.010557 0.002628 0.000000 0.041039 0.000000
# 6 0.000000 0.000000 0.000000 -0.015128 0.000000 0.075052
#
#
# Mechanical properties :
#
#
# Convention : Reuss Voigt Hill
#
# Bulk Modulus (GPa) = 11.17208 41.07323 26.12266
# Shear Modulus (GPa) = 12.92629 29.04772 20.98700
#
# Velocity S-wave (km/s) = 2.48399 3.72365 3.16511
# Velocity P-wave (km/s) = 3.68236 6.17197 5.08198
#
# Compressibility (1/GPa) = 0.08950883
#
# Stress axis : x y z
#
# Youngs Moduli (GPa) = 8.07833 52.84225 88.26094
#
# Poissons Ratio (x) = 1.37990 0.07972
# Poissons Ratio (y) = 0.21095 0.46337
# Poissons Ratio (z) = 0.00730 0.27742
#
# Static dielectric constant tensor:
#      x y z
#    x 1.815360 0.000000 -0.050020 
#    y 0.000000 1.831330 0.000000 
#    z -0.050020 0.000000 1.803490 
# 
# From -- ./inp_files/29830.got.cif
#   From: 2010.05.17/outbox.cif.g08.bks.cpg/sg14_15_cif.got.tgz:29830.got - 2010.06.03 17:49:19.
