data_PCOD9240702
_publ_section_title
;
Structure prediction by ZEFSAII (Michael W. Deem and Ramdas Pophale) SiO2 
 PCOD9240702
Probable space group: P 21/C
;
_chemical_formula_sum "Si O2"
_cell_formula_units_Z 32
_cell_length_a 21.949990
_cell_length_b 9.644673
_cell_length_c 22.025305
_cell_angle_alpha 90.000000
_cell_angle_beta 158.155008
_cell_angle_gamma 90.000000
_cell_volume 1735.000989
_symmetry_space_group_name_H-M "P 21/C"
_symmetry_group_IT_number 14
_symmetry_cell_setting 'monoclinic'
loop_
_space_group_symop_operation_xyz
x,y,z
-x,1/2+y,1/2-z
-x,-y,-z
x,1/2-y,1/2+z
loop_
_atom_site_type_symbol
_atom_site_label
_atom_site_fract_x
_atom_site_fract_y
_atom_site_fract_z
Si Si1 0.965328 0.811323 0.678700
Si Si2 0.770576 0.042525 0.436220
Si Si3 0.776909 0.335318 0.694017
Si Si4 0.758201 0.891337 0.917470
Si Si5 0.982249 0.844393 0.007447
Si Si6 0.498603 0.329771 0.347284
Si Si7 0.936762 0.592433 0.885725
Si Si8 0.256667 0.827657 0.035215
O O1 0.855094 0.676233 0.564264
O O2 0.095886 0.816979 0.744255
O O3 0.848449 0.943712 0.560259
O O4 0.072626 0.812014 0.838273
O O5 0.691916 0.179162 0.391353
O O6 0.919075 0.090859 0.530546
O O7 0.642806 0.946111 0.281933
O O8 0.850965 0.231834 0.813768
O O9 0.599011 0.308796 0.501962
O O10 0.790466 0.497054 0.725355
O O11 0.588232 0.812239 0.752608
O O12 0.740950 0.053222 0.912537
O O13 0.862042 0.852988 0.953889
O O14 0.909841 0.743921 0.888293
O O15 0.000000 0.000000 0.000000
O O16 0.624960 0.369555 0.410666
O O17 0.000000 0.500000 0.000000
#
# Coordination Sequence:
#
# PCOD9240702 Si02
#       8
#     4   4   4   4   4   4   4   4
#     4   8  17  32  51  72  98 130 167 204 243 286
#     4  10  19  32  51  75  97 130 171 201 237 295
#     4   8  17  33  53  72  96 130 168 201 239 292
#     4  10  20  34  51  75 104 134 161 201 255 296
#     4  10  19  35  55  76  99 126 162 212 256 285
#     4  10  20  35  49  71 106 136 159 196 247 299
#     4   9  17  34  55  73  92 125 171 211 237 277
#     4  11  19  31  51  76 102 131 164 202 243 296
#
# _framework density 18.443794
#
# number of rings (size 3 to 8) (size 9 to 14) (size 15 to 20)
#    0.000    2.500    0.000    4.500    0.000    0.000 
#    0.000    7.500    0.000    0.000    0.000    0.000 
#    0.000    0.000    0.000    0.000    0.000    0.000 
#
# Total GULP energy -178319.852944 kJ/mol
# GULP energy per Si atom -5572.495405 kJ/mol
# Density = 1.840181 g / cm^3
# Si number density = 18.443794 Si / 1000 Ang^3
#
#
#
# Elastic Constant Matrix: (Units=GPa)
#
#
# Indices 1 2 3 4 5 6 
#
# 1 34.9403 6.7891 2.3361 0.0000 0.8060 0.0000
# 2 6.7891 121.0638 34.3610 0.0000 -7.9279 0.0000
# 3 2.3361 34.3610 98.9250 0.0000 -14.5249 0.0000
# 4 0.0000 0.0000 0.0000 11.2944 0.0000 0.2094
# 5 0.8060 -7.9279 -14.5249 0.0000 17.5417 0.0000
# 6 0.0000 0.0000 0.0000 0.2094 0.0000 22.7878
#
#
#
# Elastic Compliance Matrix: (Units=1/GPa)
#
#
# Indices 1 2 3 4 5 6 
#
# 1 0.029031 -0.001656 -0.000474 0.000000 -0.002474 0.000000
# 2 -0.001656 0.009303 -0.002919 0.000000 0.001864 0.000000
# 3 -0.000474 -0.002919 0.012458 0.000000 0.009018 0.000000
# 4 0.000000 0.000000 0.000000 0.088555 0.000000 -0.000814
# 5 -0.002474 0.001864 0.009018 0.000000 0.065430 0.000000
# 6 0.000000 0.000000 0.000000 -0.000814 0.000000 0.043891
#
#
# Mechanical properties :
#
#
# Convention : Reuss Voigt Hill
#
# Bulk Modulus (GPa) = 24.57262 37.98904 31.28083
# Shear Modulus (GPa) = 18.36018 24.42098 21.39058
#
# Velocity S-wave (km/s) = 3.15852 3.64273 3.40924
# Velocity P-wave (km/s) = 5.16271 6.19149 5.70036
#
# Compressibility (1/GPa) = 0.04069569
#
# Stress axis : x y z
#
# Youngs Moduli (GPa) = 34.44628 107.48745 80.27150
#
# Poissons Ratio (x) = 0.17795 0.03803
# Poissons Ratio (y) = 0.05703 0.23429
# Poissons Ratio (z) = 0.01632 0.31372
#
# Static dielectric constant tensor:
#      x y z
#    x 1.672750 0.000000 -0.014120 
#    y 0.000000 1.644690 0.000000 
#    z -0.014120 0.000000 1.658830 
# 
# From -- ./inp_files/71930.got.cif
#   From: 2010.05.17/outbox.cif.g08.bks.cpg/sg14_36_cif.got.tgz:71930.got - 2010.06.03 17:49:19.
