data_PCOD9240545
_publ_section_title
;
Structure prediction by ZEFSAII (Michael W. Deem and Ramdas Pophale) SiO2 
 PCOD9240545
Probable space group: P 21/C
;
_chemical_formula_sum "Si O2"
_cell_formula_units_Z 24
_cell_length_a 23.959303
_cell_length_b 6.620878
_cell_length_c 23.283069
_cell_angle_alpha 90.000000
_cell_angle_beta 17.739671
_cell_angle_gamma 90.000000
_cell_volume 1125.361099
_symmetry_space_group_name_H-M "P 21/C"
_symmetry_group_IT_number 14
_symmetry_cell_setting 'monoclinic'
loop_
_space_group_symop_operation_xyz
x,y,z
-x,1/2+y,1/2-z
-x,-y,-z
x,1/2-y,1/2+z
loop_
_atom_site_type_symbol
_atom_site_label
_atom_site_fract_x
_atom_site_fract_y
_atom_site_fract_z
Si Si1 0.268496 0.502060 0.037129
Si Si2 0.055251 0.746284 0.156296
Si Si3 0.666407 0.955471 0.172426
Si Si4 0.867684 0.418998 0.703730
Si Si5 0.147278 0.425457 0.968521
Si Si6 0.784582 0.311707 0.663898
O O1 0.165739 0.679333 0.103758
O O2 0.238559 0.528202 0.134424
O O3 0.155487 0.304551 0.128646
O O4 0.483752 0.503089 0.815967
O O5 0.158258 0.942835 0.029909
O O6 0.074438 0.570689 0.090335
O O7 0.660254 0.071995 0.239650
O O8 0.701097 0.722189 0.152712
O O9 0.747662 0.366390 0.765816
O O10 0.994612 0.224668 0.593116
O O11 0.008993 0.600559 0.549935
O O12 0.217885 0.576705 0.850104
#
# Coordination Sequence:
#
# PCOD9240545 Si02
#       6
#     4   4   4   4   4   4
#     4  12  24  42  67  91 126 170 215 261 321 387
#     4  11  25  43  61  92 129 166 211 270 317 382
#     4  10  24  42  62  94 128 164 209 269 319 375
#     4  10  19  38  64  96 125 168 210 257 314 384
#     4  10  18  42  62  91 127 164 210 255 325 369
#     4   9  19  39  66  91 132 164 205 263 320 371
#
# _framework density 21.326488999999999
#
# number of rings (size 3 to 8) (size 9 to 14) (size 15 to 20)
#    0.000    1.667    5.000    1.500    2.333    0.667 
#    9.000    0.833    0.000    0.000    0.000    0.000 
#    0.000    0.000    0.000    0.000    0.000    0.000 
#
# Total GULP energy -134098.833925 kJ/mol
# GULP energy per Si atom -5587.451414 kJ/mol
# Density = 2.127795 g / cm^3
# Si number density = 21.326489 Si / 1000 Ang^3
#
#
#
# Elastic Constant Matrix: (Units=GPa)
#
#
# Indices 1 2 3 4 5 6 
#
# 1 84.1493 7.5143 12.1951 0.0000 -4.7681 0.0000
# 2 7.5143 90.4597 18.1117 0.0000 -11.6727 0.0000
# 3 12.1951 18.1117 46.8320 0.0000 -28.3868 0.0000
# 4 0.0000 0.0000 0.0000 12.4235 0.0000 0.0788
# 5 -4.7681 -11.6727 -28.3868 0.0000 36.5252 0.0000
# 6 0.0000 0.0000 0.0000 0.0788 0.0000 29.4794
#
#
#
# Elastic Compliance Matrix: (Units=1/GPa)
#
#
# Indices 1 2 3 4 5 6 
#
# 1 0.012420 -0.000431 -0.004099 0.000000 -0.001702 0.000000
# 2 -0.000431 0.012001 -0.004232 0.000000 0.000490 0.000000
# 3 -0.004099 -0.004232 0.043321 0.000000 0.031781 0.000000
# 4 0.000000 0.000000 0.000000 0.080494 0.000000 -0.000215
# 5 -0.001702 0.000490 0.031781 0.000000 0.052012 0.000000
# 6 0.000000 0.000000 0.000000 -0.000215 0.000000 0.033923
#
#
# Mechanical properties :
#
#
# Convention : Reuss Voigt Hill
#
# Bulk Modulus (GPa) = 19.91357 33.00924 26.46141
# Shear Modulus (GPa) = 18.62658 27.92693 23.27675
#
# Velocity S-wave (km/s) = 2.95854 3.62262 3.30729
# Velocity P-wave (km/s) = 4.58567 5.74539 5.19797
#
# Compressibility (1/GPa) = 0.05021701
#
# Stress axis : x y z
#
# Youngs Moduli (GPa) = 80.51704 83.32645 23.08367
#
# Poissons Ratio (x) = 0.03588 0.09463
# Poissons Ratio (y) = 0.03467 0.09769
# Poissons Ratio (z) = 0.33008 0.35265
#
# Static dielectric constant tensor:
#      x y z
#    x 1.806620 0.000000 0.024920 
#    y 0.000000 1.769700 0.000000 
#    z 0.024920 0.000000 1.752830 
# 
# From -- ./inp_files/74780.got.cif
#   From: 2010.05.17/outbox.cif.g08.bks.cpg/sg14_38_cif.got.tgz:74780.got - 2010.06.03 17:49:19.
