data_PCOD9240447
_publ_section_title
;
Structure prediction by ZEFSAII (Michael W. Deem and Ramdas Pophale) SiO2 
 PCOD9240447
Probable space group: P 21/C
;
_chemical_formula_sum "Si O2"
_cell_formula_units_Z 32
_cell_length_a 25.272367
_cell_length_b 8.774734
_cell_length_c 18.246557
_cell_angle_alpha 90.000000
_cell_angle_beta 23.074078
_cell_angle_gamma 90.000000
_cell_volume 1585.839611
_symmetry_space_group_name_H-M "P 21/C"
_symmetry_group_IT_number 14
_symmetry_cell_setting 'monoclinic'
loop_
_space_group_symop_operation_xyz
x,y,z
-x,1/2+y,1/2-z
-x,-y,-z
x,1/2-y,1/2+z
loop_
_atom_site_type_symbol
_atom_site_label
_atom_site_fract_x
_atom_site_fract_y
_atom_site_fract_z
Si Si1 0.047446 0.185346 0.831446
Si Si2 0.074286 0.350020 0.938755
Si Si3 0.801607 0.207649 0.557652
Si Si4 0.610871 0.838139 0.941003
Si Si5 0.997719 0.346007 0.674181
Si Si6 0.753081 0.664640 0.530949
Si Si7 0.615684 0.932455 0.774322
Si Si8 0.555720 0.066136 0.351997
O O1 0.060368 0.207581 0.900867
O O2 0.155143 0.303297 0.657073
O O3 0.046722 0.011404 0.801808
O O4 0.903286 0.252464 0.991864
O O5 0.234711 0.374966 0.741472
O O6 0.000000 0.500000 0.000000
O O7 0.018571 0.284583 0.086666
O O8 0.887241 0.210307 0.373547
O O9 0.678801 0.322694 0.714208
O O10 0.733574 0.044502 0.650267
O O11 0.581666 0.836768 0.890316
O O12 0.561695 0.673657 0.031746
O O13 0.509977 0.971200 0.094703
O O14 0.138056 0.363323 0.541649
O O15 0.679720 0.825087 0.633731
O O16 0.629795 0.547594 0.700665
O O17 0.500000 0.000000 0.500000
#
# Coordination Sequence:
#
# PCOD9240447 Si02
#       8
#     4   4   4   4   4   4   4   4
#     4  11  24  39  63  91 131 167 207 260 324 376
#     4  12  26  43  63  90 129 169 213 258 323 382
#     4  10  22  36  66  96 121 161 210 268 314 362
#     4  10  22  38  61  91 123 161 206 260 309 372
#     4  11  22  41  62  92 131 163 214 263 310 380
#     4  11  21  38  66  98 121 158 215 262 315 369
#     4  10  18  38  63  88 124 153 214 259 310 360
#     4  11  20  36  63  95 126 154 205 262 313 368
#
# _framework density 20.178584000000001
#
# number of rings (size 3 to 8) (size 9 to 14) (size 15 to 20)
#    0.000    1.250    5.000    1.125    1.750    0.000 
#    0.000    1.250    0.000    0.000    0.000    0.000 
#    0.000    0.000    0.000    0.000    0.000    0.000 
#
# Total GULP energy -178439.800255 kJ/mol
# GULP energy per Si atom -5576.243758 kJ/mol
# Density = 2.013266 g / cm^3
# Si number density = 20.178584 Si / 1000 Ang^3
#
#
#
# Elastic Constant Matrix: (Units=GPa)
#
#
# Indices 1 2 3 4 5 6 
#
# 1 47.8722 12.7957 23.9670 0.0000 -0.3511 0.0000
# 2 12.7957 81.0241 44.8152 0.0000 -11.0952 0.0000
# 3 23.9670 44.8152 121.4088 0.0000 -11.9465 0.0000
# 4 0.0000 0.0000 0.0000 36.5411 0.0000 2.6065
# 5 -0.3511 -11.0952 -11.9465 0.0000 19.0459 0.0000
# 6 0.0000 0.0000 0.0000 2.6065 0.0000 15.3543
#
#
#
# Elastic Compliance Matrix: (Units=1/GPa)
#
#
# Indices 1 2 3 4 5 6 
#
# 1 0.023497 -0.001782 -0.004306 0.000000 -0.003306 0.000000
# 2 -0.001782 0.016269 -0.005035 0.000000 0.006287 0.000000
# 3 -0.004306 -0.005035 0.011349 0.000000 0.004106 0.000000
# 4 0.000000 0.000000 0.000000 0.027702 0.000000 -0.004703
# 5 -0.003306 0.006287 0.004106 0.000000 0.058682 0.000000
# 6 0.000000 0.000000 0.000000 -0.004703 0.000000 0.065927
#
#
# Mechanical properties :
#
#
# Convention : Reuss Voigt Hill
#
# Bulk Modulus (GPa) = 34.63849 45.94012 40.28931
# Shear Modulus (GPa) = 21.24999 25.43673 23.34336
#
# Velocity S-wave (km/s) = 3.24866 3.55432 3.40492
# Velocity P-wave (km/s) = 5.59241 6.29765 5.95548
#
# Compressibility (1/GPa) = 0.02886962
#
# Stress axis : x y z
#
# Youngs Moduli (GPa) = 42.55911 61.46583 88.11104
#
# Poissons Ratio (x) = 0.10951 0.37941
# Poissons Ratio (y) = 0.07583 0.44365
# Poissons Ratio (z) = 0.18326 0.30949
#
# Static dielectric constant tensor:
#      x y z
#    x 1.702150 0.000000 0.039390 
#    y 0.000000 1.777550 0.000000 
#    z 0.039390 0.000000 1.826660 
# 
# From -- ./inp_files/70500.got.cif
#   From: 2010.05.17/outbox.cif.g08.bks.cpg/sg14_36_cif.got.tgz:70500.got - 2010.06.03 17:49:19.
