data_PCOD9240324
_publ_section_title
;
Structure prediction by ZEFSAII (Michael W. Deem and Ramdas Pophale) SiO2 
 PCOD9240324
Probable space group: P 21/C
;
_chemical_formula_sum "Si O2"
_cell_formula_units_Z 32
_cell_length_a 8.609231
_cell_length_b 11.990293
_cell_length_c 31.662889
_cell_angle_alpha 90.000000
_cell_angle_beta 155.044828
_cell_angle_gamma 90.000000
_cell_volume 1378.997652
_symmetry_space_group_name_H-M "P 21/C"
_symmetry_group_IT_number 14
_symmetry_cell_setting 'monoclinic'
loop_
_space_group_symop_operation_xyz
x,y,z
-x,1/2+y,1/2-z
-x,-y,-z
x,1/2-y,1/2+z
loop_
_atom_site_type_symbol
_atom_site_label
_atom_site_fract_x
_atom_site_fract_y
_atom_site_fract_z
Si Si1 0.508511 0.900124 0.636691
Si Si2 0.551644 0.764721 0.218255
Si Si3 0.347691 0.260329 0.406822
Si Si4 0.350570 0.141989 0.581467
Si Si5 0.500460 0.003489 0.833489
Si Si6 0.516324 0.233172 0.205222
Si Si7 0.619999 0.995089 0.956359
Si Si8 0.652817 0.769714 0.001665
O O1 0.664244 0.838406 0.716371
O O2 0.602267 0.827192 0.618496
O O3 0.065880 0.892249 0.532259
O O4 0.579666 0.030782 0.648103
O O5 0.672719 0.756169 0.296654
O O6 0.658925 0.880534 0.222432
O O7 0.101147 0.764967 0.109604
O O8 0.553537 0.376291 0.450130
O O9 0.450264 0.217841 0.478789
O O10 0.915938 0.289887 0.302714
O O11 0.321140 0.220621 0.615331
O O12 0.492761 0.207483 0.575666
O O13 0.413834 0.898488 0.782888
O O14 0.419487 0.974371 0.862136
O O15 0.942077 0.018278 0.941517
O O16 0.526197 0.898623 0.966609
#
# Coordination Sequence:
#
# PCOD9240324 Si02
#       8
#     4   4   4   4   4   4   4   4
#     4  10  21  40  62  79 112 159 197 229 273 347
#     4   9  20  37  58  86 114 149 192 236 283 335
#     4  11  22  36  57  87 123 146 179 244 300 330
#     4  10  21  40  61  81 111 157 201 227 270 351
#     4  10  19  36  65  85 107 153 200 235 274 341
#     4  11  23  36  57  88 121 146 182 244 298 334
#     4  10  18  36  65  86 108 148 201 238 272 340
#     4   9  19  37  59  86 114 148 190 235 284 335
#
# _framework density 23.205259000000002
#
# number of rings (size 3 to 8) (size 9 to 14) (size 15 to 20)
#    0.000    2.000    2.500    1.125    1.750    1.500 
#    0.000    2.500    0.000    0.000    0.000    0.000 
#    0.000    0.000    0.000    0.000    0.000    0.000 
#
# Total GULP energy -178839.389012 kJ/mol
# GULP energy per Si atom -5588.730907 kJ/mol
# Density = 2.315244 g / cm^3
# Si number density = 23.205259 Si / 1000 Ang^3
#
#
#
# Elastic Constant Matrix: (Units=GPa)
#
#
# Indices 1 2 3 4 5 6 
#
# 1 83.2419 25.6140 14.6679 0.0000 -38.5020 0.0000
# 2 25.6140 90.8927 -2.1057 0.0000 -25.3334 0.0000
# 3 14.6679 -2.1057 51.4575 0.0000 -6.3814 0.0000
# 4 0.0000 0.0000 0.0000 25.0896 0.0000 -4.3735
# 5 -38.5020 -25.3334 -6.3814 0.0000 46.8535 0.0000
# 6 0.0000 0.0000 0.0000 -4.3735 0.0000 26.0452
#
#
#
# Elastic Compliance Matrix: (Units=1/GPa)
#
#
# Indices 1 2 3 4 5 6 
#
# 1 0.020242 -0.001541 -0.003940 0.000000 0.015264 0.000000
# 2 -0.001541 0.013175 0.001734 0.000000 0.006093 0.000000
# 3 -0.003940 0.001734 0.020692 0.000000 0.000518 0.000000
# 4 0.000000 0.000000 0.000000 0.041059 0.000000 0.006895
# 5 0.015264 0.006093 0.000518 0.000000 0.037251 0.000000
# 6 0.000000 0.000000 0.000000 0.006895 0.000000 0.039552
#
#
# Mechanical properties :
#
#
# Convention : Reuss Voigt Hill
#
# Bulk Modulus (GPa) = 21.45284 33.54939 27.50111
# Shear Modulus (GPa) = 25.64061 32.09207 28.86634
#
# Velocity S-wave (km/s) = 3.32768 3.72286 3.53080
# Velocity P-wave (km/s) = 4.90199 5.74183 5.33845
#
# Compressibility (1/GPa) = 0.04661387
#
# Stress axis : x y z
#
# Youngs Moduli (GPa) = 49.40315 75.90269 48.32828
#
# Poissons Ratio (x) = 0.11698 0.19042
# Poissons Ratio (y) = 0.07614 -0.08381
# Poissons Ratio (z) = 0.19465 -0.13162
#
# Static dielectric constant tensor:
#      x y z
#    x 1.872330 0.000000 0.022110 
#    y 0.000000 1.828140 0.000000 
#    z 0.022110 0.000000 1.934630 
# 
# From -- ./inp_files/79623.got.cif
#   From: 2010.05.17/outbox.cif.g08.bks.cpg/sg14_40_cif.got.tgz:79623.got - 2010.06.03 17:49:19.
