data_PCOD9240460
_publ_section_title
;
Structure prediction by ZEFSAII (Michael W. Deem and Ramdas Pophale) SiO2 
 PCOD9240460
Probable space group: P 21/C
;
_chemical_formula_sum "Si O2"
_cell_formula_units_Z 22
_cell_length_a 18.905296
_cell_length_b 7.080458
_cell_length_c 16.584568
_cell_angle_alpha 90.000000
_cell_angle_beta 157.947593
_cell_angle_gamma 90.000000
_cell_volume 833.501372
_symmetry_space_group_name_H-M "P 21/C"
_symmetry_group_IT_number 14
_symmetry_cell_setting 'monoclinic'
loop_
_space_group_symop_operation_xyz
x,y,z
-x,1/2+y,1/2-z
-x,-y,-z
x,1/2-y,1/2+z
loop_
_atom_site_type_symbol
_atom_site_label
_atom_site_fract_x
_atom_site_fract_y
_atom_site_fract_z
Si Si1 0.758363 0.121212 0.462844
Si Si2 0.743756 0.676051 0.315225
Si Si3 0.194664 0.448262 0.441768
Si Si4 0.700644 0.884814 0.549159
Si Si5 0.000000 0.000000 0.000000
Si Si6 0.393159 0.718383 0.846787
O O1 0.750642 0.336932 0.485063
O O2 0.692186 0.122215 0.299915
O O3 0.972157 0.054922 0.692017
O O4 0.653472 0.001297 0.419318
O O5 0.766490 0.665286 0.433783
O O6 0.762752 0.445601 0.299941
O O7 0.925069 0.722514 0.454501
O O8 0.543276 0.758528 0.075139
O O9 0.281334 0.331522 0.459903
O O10 0.531361 0.896299 0.432846
O O11 0.885964 0.961214 0.788445
#
# Coordination Sequence:
#
# PCOD9240460 Si02
#       6
#     4   4   4   4   2   4
#     4  11  21  37  61  89 119 162 202 254 298 361
#     4   9  18  37  59  90 121 159 204 248 304 366
#     4  11  21  39  63  90 122 161 210 247 302 363
#     4  11  22  38  63  88 124 161 205 250 306 366
#     4  10  18  38  66  86 116 170 200 250 308 360
#     4   9  21  35  59  88 124 158 198 250 310 361
#
# _framework density 26.394677000000001
#
# number of rings (size 3 to 8) (size 9 to 14) (size 15 to 20)
#    0.000    1.818    3.636    1.091    5.091    0.000 
#    0.000    1.818    0.000    0.000    0.000    0.000 
#    0.000    0.000    0.000    0.000    0.000    0.000 
#
# Total GULP energy -122669.937081 kJ/mol
# GULP energy per Si atom -5575.906231 kJ/mol
# Density = 2.633460 g / cm^3
# Si number density = 26.394677 Si / 1000 Ang^3
#
#
#
# Elastic Constant Matrix: (Units=GPa)
#
#
# Indices 1 2 3 4 5 6 
#
# 1 84.4310 22.1579 3.1414 0.0000 1.8127 0.0000
# 2 22.1579 82.2734 25.5544 0.0000 -8.1816 0.0000
# 3 3.1414 25.5544 160.7761 0.0000 8.2321 0.0000
# 4 0.0000 0.0000 0.0000 29.8742 0.0000 -17.2758
# 5 1.8127 -8.1816 8.2321 0.0000 35.8112 0.0000
# 6 0.0000 0.0000 0.0000 -17.2758 0.0000 30.5159
#
#
#
# Elastic Compliance Matrix: (Units=1/GPa)
#
#
# Indices 1 2 3 4 5 6 
#
# 1 0.012847 -0.003753 0.000428 0.000000 -0.001606 0.000000
# 2 -0.003753 0.014312 -0.002407 0.000000 0.004013 0.000000
# 3 0.000428 -0.002407 0.006702 0.000000 -0.002112 0.000000
# 4 0.000000 0.000000 0.000000 0.049766 0.000000 0.028174
# 5 -0.001606 0.004013 -0.002112 0.000000 0.029408 0.000000
# 6 0.000000 0.000000 0.000000 0.028174 0.000000 0.048720
#
#
# Mechanical properties :
#
#
# Convention : Reuss Voigt Hill
#
# Bulk Modulus (GPa) = 44.64738 47.68753 46.16746
# Shear Modulus (GPa) = 27.67252 37.68205 32.67729
#
# Velocity S-wave (km/s) = 3.24143 3.78251 3.52238
# Velocity P-wave (km/s) = 5.56428 6.09777 5.83712
#
# Compressibility (1/GPa) = 0.02239773
#
# Stress axis : x y z
#
# Youngs Moduli (GPa) = 77.83691 69.87187 149.20485
#
# Poissons Ratio (x) = 0.26220 -0.06381
# Poissons Ratio (y) = 0.29209 0.35913
# Poissons Ratio (z) = -0.03329 0.16818
#
# Static dielectric constant tensor:
#      x y z
#    x 2.313650 0.000000 0.161330 
#    y 0.000000 2.220830 0.000000 
#    z 0.161330 0.000000 2.273420 
# 
# From -- ./inp_files/38765.got.cif
#   From: 2010.05.17/outbox.cif.g08.bks.cpg/sg14_20_cif.got.tgz:38765.got - 2010.06.03 17:49:19.
