data_PCOD9240671
_publ_section_title
;
Structure prediction by ZEFSAII (Michael W. Deem and Ramdas Pophale) SiO2 
 PCOD9240671
Probable space group: P 21/C
;
_chemical_formula_sum "Si O2"
_cell_formula_units_Z 20
_cell_length_a 6.767705
_cell_length_b 11.612028
_cell_length_c 10.912842
_cell_angle_alpha 90.000000
_cell_angle_beta 108.778364
_cell_angle_gamma 90.000000
_cell_volume 811.955553
_symmetry_space_group_name_H-M "P 21/C"
_symmetry_group_IT_number 14
_symmetry_cell_setting 'monoclinic'
loop_
_space_group_symop_operation_xyz
x,y,z
-x,1/2+y,1/2-z
-x,-y,-z
x,1/2-y,1/2+z
loop_
_atom_site_type_symbol
_atom_site_label
_atom_site_fract_x
_atom_site_fract_y
_atom_site_fract_z
Si Si1 0.871818 0.984459 0.274568
Si Si2 0.736995 0.002743 0.995230
Si Si3 0.478837 0.683505 0.677163
Si Si4 0.264792 0.999869 0.498305
Si Si5 0.636753 0.748198 0.456205
O O1 0.706152 0.881000 0.225519
O O2 0.100932 0.953525 0.367780
O O3 0.872890 0.039719 0.139531
O O4 0.776711 0.637830 0.994449
O O5 0.769107 0.869261 0.969052
O O6 0.708088 0.091843 0.878894
O O7 0.500000 0.000000 0.000000
O O8 0.227104 0.949889 0.626927
O O9 0.485341 0.745491 0.808220
O O10 0.497552 0.749053 0.552263
O O11 0.500000 0.000000 0.500000
#
# Coordination Sequence:
#
# PCOD9240671 Si02
#       5
#     4   4   4   4   4
#     4   8  17  35  52  75 116 154 176 229 296 331
#     4   8  16  34  56  74 113 156 181 225 296 342
#     4   9  18  34  58  81 113 153 188 235 291 341
#     4  10  19  31  55  86 113 143 194 241 277 337
#     4   9  18  32  55  82 110 150 192 232 282 341
#
# _framework density 24.631891
#
# number of rings (size 3 to 8) (size 9 to 14) (size 15 to 20)
#    0.000    3.600    0.000    0.000    0.000    6.400 
#    0.000   12.000    0.000   74.400    0.000    0.000 
#    0.000    0.000    0.000    0.000    0.000    0.000 
#
# Total GULP energy -111394.197328 kJ/mol
# GULP energy per Si atom -5569.709866 kJ/mol
# Density = 2.457583 g / cm^3
# Si number density = 24.631891 Si / 1000 Ang^3
#
#
#
# Elastic Constant Matrix: (Units=GPa)
#
#
# Indices 1 2 3 4 5 6 
#
# 1 100.6844 10.4356 54.3827 0.0000 8.8425 0.0000
# 2 10.4356 51.4481 53.4258 0.0000 -7.6063 0.0000
# 3 54.3827 53.4258 243.6446 0.0000 -17.4646 0.0000
# 4 0.0000 0.0000 0.0000 26.0826 0.0000 -6.8050
# 5 8.8425 -7.6063 -17.4646 0.0000 40.5048 0.0000
# 6 0.0000 0.0000 0.0000 -6.8050 0.0000 10.8453
#
#
#
# Elastic Compliance Matrix: (Units=1/GPa)
#
#
# Indices 1 2 3 4 5 6 
#
# 1 0.011847 0.000079 -0.002937 0.000000 -0.003838 0.000000
# 2 0.000079 0.025401 -0.005414 0.000000 0.002418 0.000000
# 3 -0.002937 -0.005414 0.006109 0.000000 0.002258 0.000000
# 4 0.000000 0.000000 0.000000 0.045845 0.000000 0.028766
# 5 -0.003838 0.002418 0.002258 0.000000 0.026954 0.000000
# 6 0.000000 0.000000 0.000000 0.028766 0.000000 0.110256
#
#
# Mechanical properties :
#
#
# Convention : Reuss Voigt Hill
#
# Bulk Modulus (GPa) = 37.29473 70.25169 53.77321
# Shear Modulus (GPa) = 19.84973 33.98874 26.91924
#
# Velocity S-wave (km/s) = 2.84184 3.71869 3.30943
# Velocity P-wave (km/s) = 5.09331 6.85717 6.03997
#
# Compressibility (1/GPa) = 0.02681344
#
# Stress axis : x y z
#
# Youngs Moduli (GPa) = 84.40887 39.36879 163.69445
#
# Poissons Ratio (x) = -0.00312 0.48074
# Poissons Ratio (y) = -0.00669 0.88627
# Poissons Ratio (z) = 0.24789 0.21315
#
# Static dielectric constant tensor:
#      x y z
#    x 2.007410 0.000000 -0.056790 
#    y 0.000000 2.142310 0.000000 
#    z -0.056790 0.000000 2.025720 
# 
# From -- ./inp_files/39869.got.cif
#   From: 2010.05.17/outbox.cif.g08.bks.cpg/sg14_20_cif.got.tgz:39869.got - 2010.06.03 17:49:19.
