data_PCOD9240938
_publ_section_title
;
Structure prediction by ZEFSAII (Michael W. Deem and Ramdas Pophale) SiO2 
 PCOD9240938
Probable space group: P 21/C
;
_chemical_formula_sum "Si O2"
_cell_formula_units_Z 32
_cell_length_a 7.635902
_cell_length_b 18.010245
_cell_length_c 9.481299
_cell_angle_alpha 90.000000
_cell_angle_beta 85.186826
_cell_angle_gamma 90.000000
_cell_volume 1299.312461
_symmetry_space_group_name_H-M "P 21/C"
_symmetry_group_IT_number 14
_symmetry_cell_setting 'monoclinic'
loop_
_space_group_symop_operation_xyz
x,y,z
-x,1/2+y,1/2-z
-x,-y,-z
x,1/2-y,1/2+z
loop_
_atom_site_type_symbol
_atom_site_label
_atom_site_fract_x
_atom_site_fract_y
_atom_site_fract_z
Si Si1 0.631079 0.359978 0.246031
Si Si2 0.158256 0.968293 0.398155
Si Si3 0.030115 0.197463 0.248245
Si Si4 0.332701 0.392486 0.847579
Si Si5 0.440932 0.511194 0.345707
Si Si6 0.094121 0.061788 0.814355
Si Si7 0.109764 0.682897 0.526745
Si Si8 0.305104 0.313305 0.127194
O O1 0.769061 0.383730 0.111802
O O2 0.527143 0.437501 0.271076
O O3 0.481692 0.304259 0.205893
O O4 0.725084 0.338263 0.385189
O O5 0.306844 0.027717 0.424294
O O6 0.000000 0.000000 0.500000
O O7 0.080222 0.970774 0.244745
O O8 0.142719 0.127971 0.294579
O O9 0.966699 0.245079 0.386565
O O10 0.179178 0.244012 0.154414
O O11 0.876779 0.190583 0.142129
O O12 0.480482 0.413448 0.724604
O O13 0.363559 0.332046 0.965001
O O14 0.500000 0.500000 0.500000
O O15 0.233071 0.500733 0.344038
O O16 0.031750 0.116158 0.942068
O O17 0.187324 0.118111 0.696069
#
# Coordination Sequence:
#
# PCOD9240938 Si02
#       8
#     4   4   4   4   4   4   4   4
#     4   9  22  38  60  84 119 156 186 251 302 349
#     4  10  19  33  59  93 121 144 192 241 299 357
#     4  11  22  40  61  83 118 162 205 245 287 354
#     4  11  22  36  62  91 117 158 199 242 296 363
#     4  10  21  37  58  88 120 150 193 243 305 359
#     4   9  19  35  60  84 119 154 179 247 299 350
#     4  10  21  41  61  84 117 159 201 244 298 349
#     4  10  20  39  58  86 118 155 203 238 295 348
#
# _framework density 24.628409999999999
#
# number of rings (size 3 to 8) (size 9 to 14) (size 15 to 20)
#    0.000    2.000    2.500    0.750    1.750    2.500 
#    2.250    5.000    0.000    0.000    0.000    0.000 
#    0.000    0.000    0.000    0.000    0.000    0.000 
#
# Total GULP energy -178566.951401 kJ/mol
# GULP energy per Si atom -5580.217231 kJ/mol
# Density = 2.457235 g / cm^3
# Si number density = 24.628410 Si / 1000 Ang^3
#
#
#
# Elastic Constant Matrix: (Units=GPa)
#
#
# Indices 1 2 3 4 5 6 
#
# 1 76.0961 13.4777 0.8828 0.0000 20.9354 0.0000
# 2 13.4777 55.1277 3.1107 0.0000 2.1875 0.0000
# 3 0.8828 3.1107 66.2947 0.0000 6.0204 0.0000
# 4 0.0000 0.0000 0.0000 22.6137 0.0000 0.7414
# 5 20.9354 2.1875 6.0204 0.0000 31.8411 0.0000
# 6 0.0000 0.0000 0.0000 0.7414 0.0000 32.6127
#
#
#
# Elastic Compliance Matrix: (Units=1/GPa)
#
#
# Indices 1 2 3 4 5 6 
#
# 1 0.016810 -0.003728 0.000948 0.000000 -0.010976 0.000000
# 2 -0.003728 0.019053 -0.000965 0.000000 0.001324 0.000000
# 3 0.000948 -0.000965 0.015432 0.000000 -0.003475 0.000000
# 4 0.000000 0.000000 0.000000 0.044254 0.000000 -0.001006
# 5 -0.010976 0.001324 -0.003475 0.000000 0.039189 0.000000
# 6 0.000000 0.000000 0.000000 -0.001006 0.000000 0.030686
#
#
# Mechanical properties :
#
#
# Convention : Reuss Voigt Hill
#
# Bulk Modulus (GPa) = 22.82775 25.82898 24.32837
# Shear Modulus (GPa) = 26.66456 29.41665 28.04060
#
# Velocity S-wave (km/s) = 3.29397 3.45979 3.37790
# Velocity P-wave (km/s) = 4.87401 5.14494 5.01131
#
# Compressibility (1/GPa) = 0.04380633
#
# Stress axis : x y z
#
# Youngs Moduli (GPa) = 59.48788 52.48538 64.79889
#
# Poissons Ratio (x) = 0.19565 -0.06142
# Poissons Ratio (y) = 0.22175 0.06251
# Poissons Ratio (z) = -0.05638 0.05063
#
# Static dielectric constant tensor:
#      x y z
#    x 2.050960 0.000000 -0.054480 
#    y 0.000000 2.009370 0.000000 
#    z -0.054480 0.000000 2.009260 
# 
# From -- ./inp_files/10228.got.cif
#   From: 2010.05.17/outbox.cif.g08.bks.cpg/sg14_6_cif.got.tgz:10228.got - 2010.06.03 17:49:19.
