data_PCOD9240625
_publ_section_title
;
Structure prediction by ZEFSAII (Michael W. Deem and Ramdas Pophale) SiO2 
 PCOD9240625
Probable space group: P 21/C
;
_chemical_formula_sum "Si O2"
_cell_formula_units_Z 32
_cell_length_a 14.613308
_cell_length_b 8.562878
_cell_length_c 15.291978
_cell_angle_alpha 90.000000
_cell_angle_beta 89.999899
_cell_angle_gamma 90.000000
_cell_volume 1913.515387
_symmetry_space_group_name_H-M "P 21/C"
_symmetry_group_IT_number 14
_symmetry_cell_setting 'monoclinic'
loop_
_space_group_symop_operation_xyz
x,y,z
-x,1/2+y,1/2-z
-x,-y,-z
x,1/2-y,1/2+z
loop_
_atom_site_type_symbol
_atom_site_label
_atom_site_fract_x
_atom_site_fract_y
_atom_site_fract_z
Si Si1 0.607276 0.901505 0.412727
Si Si2 0.250000 0.625369 0.163107
Si Si3 0.107275 0.098494 0.587274
Si Si4 0.750000 0.321768 0.516772
Si Si5 0.394423 0.900386 0.408055
Si Si6 0.750001 0.871892 0.913865
Si Si7 0.750000 0.063688 0.734023
Si Si8 0.894423 0.400386 0.091944
O O1 0.501300 0.879205 0.390280
O O2 0.662341 0.740656 0.417997
O O3 0.661555 0.013643 0.345047
O O4 0.613558 0.986297 0.507515
O O5 0.161555 0.513642 0.154953
O O6 0.250000 0.728710 0.074979
O O7 0.250000 0.752765 0.239091
O O8 0.162340 0.259343 0.582003
O O9 0.001300 0.120794 0.609721
O O10 0.113558 0.013702 0.492486
O O11 0.660260 0.257618 0.566315
O O12 0.750000 0.502118 0.491745
O O13 0.839741 0.257618 0.566314
O O14 0.338437 0.967506 0.326115
O O15 0.750001 0.963005 0.821791
O O16 0.838435 0.032493 0.673884
#
# Coordination Sequence:
#
# PCOD9240625 Si02
#       8
#     4   4   4   4   4   4   4   4
#     4   9  18  34  53  70  95 131 165 198 240 288
#     4   8  16  31  47  65  95 129 154 191 245 287
#     4   9  18  34  53  70  95 131 165 198 240 288
#     4   8  16  31  48  69  96 124 156 194 239 282
#     4   9  18  34  53  70  94 132 168 196 235 291
#     4  10  19  31  49  75 103 125 155 205 249 281
#     4  10  19  31  48  71 100 128 159 202 245 288
#     4   9  18  34  53  70  94 132 168 196 235 291
#
# _framework density 16.723148999999999
#
# number of rings (size 3 to 8) (size 9 to 14) (size 15 to 20)
#    0.000    3.000    0.000    2.250    0.000    3.000 
#    0.000   10.000    0.000    0.000    0.000    0.000 
#    0.000    0.000    0.000    0.000    0.000    0.000 
#
# Total GULP energy -178189.757338 kJ/mol
# GULP energy per Si atom -5568.429917 kJ/mol
# Density = 1.668509 g / cm^3
# Si number density = 16.723149 Si / 1000 Ang^3
#
#
#
# Elastic Constant Matrix: (Units=GPa)
#
#
# Indices 1 2 3 4 5 6 
#
# 1 179.5847 63.6676 44.2244 0.0000 0.0014 0.0000
# 2 63.6676 96.9034 16.8540 0.0000 0.0005 0.0000
# 3 44.2244 16.8540 50.6103 0.0000 0.0003 0.0000
# 4 0.0000 0.0000 0.0000 19.7209 0.0000 -0.0001
# 5 0.0014 0.0005 0.0003 0.0000 14.8637 0.0000
# 6 0.0000 0.0000 0.0000 -0.0001 0.0000 6.4961
#
#
#
# Elastic Compliance Matrix: (Units=1/GPa)
#
#
# Indices 1 2 3 4 5 6 
#
# 1 0.008718 -0.004674 -0.006062 0.000000 -0.000001 0.000000
# 2 -0.004674 0.013460 -0.000398 0.000000 0.000000 0.000000
# 3 -0.006062 -0.000398 0.025188 0.000000 0.000000 0.000000
# 4 0.000000 0.000000 0.000000 0.050708 0.000000 0.000001
# 5 -0.000001 0.000000 0.000000 0.000000 0.067278 0.000000
# 6 0.000000 0.000000 0.000000 0.000001 0.000000 0.153938
#
#
# Mechanical properties :
#
#
# Convention : Reuss Voigt Hill
#
# Bulk Modulus (GPa) = 39.84270 64.06559 51.95414
# Shear Modulus (GPa) = 14.28888 21.70631 17.99759
#
# Velocity S-wave (km/s) = 2.92625 3.60666 3.28412
# Velocity P-wave (km/s) = 5.94086 7.46570 6.74650
#
# Compressibility (1/GPa) = 0.02509870
#
# Stress axis : x y z
#
# Youngs Moduli (GPa) = 114.70392 74.29672 39.70103
#
# Poissons Ratio (x) = 0.34724 0.24065
# Poissons Ratio (y) = 0.53609 0.01581
# Poissons Ratio (z) = 0.69530 0.02959
#
# Static dielectric constant tensor:
#      x y z
#    x 1.551670 0.000000 0.000000 
#    y 0.000000 1.559930 0.000000 
#    z 0.000000 0.000000 1.574240 
# 
# From -- ./inp_files/46284.got.cif
#   From: 2010.05.17/outbox.cif.g08.bks.cpg/sg14_24_cif.got.tgz:46284.got - 2010.06.03 17:49:19.
