data_PCOD9240957
_publ_section_title
;
Structure prediction by ZEFSAII (Michael W. Deem and Ramdas Pophale) SiO2 
 PCOD9240957
Probable space group: P 21/C
;
_chemical_formula_sum "Si O2"
_cell_formula_units_Z 28
_cell_length_a 6.048992
_cell_length_b 15.446930
_cell_length_c 17.825866
_cell_angle_alpha 90.000000
_cell_angle_beta 123.290739
_cell_angle_gamma 90.000000
_cell_volume 1392.284925
_symmetry_space_group_name_H-M "P 21/C"
_symmetry_group_IT_number 14
_symmetry_cell_setting 'monoclinic'
loop_
_space_group_symop_operation_xyz
x,y,z
-x,1/2+y,1/2-z
-x,-y,-z
x,1/2-y,1/2+z
loop_
_atom_site_type_symbol
_atom_site_label
_atom_site_fract_x
_atom_site_fract_y
_atom_site_fract_z
Si Si1 0.311744 0.014528 0.074452
Si Si2 0.621320 0.269626 0.911306
Si Si3 0.159437 0.691871 0.694957
Si Si4 0.578779 0.862757 0.028853
Si Si5 0.060082 0.365678 0.797770
Si Si6 0.132069 0.937916 0.583872
Si Si7 0.310349 0.996679 0.251253
O O1 0.479513 0.941325 0.062746
O O2 0.348668 0.010334 0.169740
O O3 0.399002 0.103713 0.051287
O O4 0.000000 0.000000 0.000000
O O5 0.664920 0.209718 0.846415
O O6 0.616329 0.214913 0.986261
O O7 0.342604 0.317989 0.850947
O O8 0.838842 0.343522 0.947853
O O9 0.251562 0.604799 0.753554
O O10 0.868237 0.667429 0.609582
O O11 0.140208 0.783377 0.735975
O O12 0.079375 0.437757 0.736259
O O13 0.017995 0.419892 0.866238
O O14 0.419506 0.975677 0.658233
O O15 0.000000 0.000000 0.500000
#
# Coordination Sequence:
#
# PCOD9240957 Si02
#       7
#     4   4   4   4   4   4   4
#     4  11  21  34  59  95 128 163 208 249 317 395
#     4   9  18  38  63  87 120 169 206 261 315 374
#     4  10  19  38  65  89 125 169 208 258 329 375
#     4  10  19  33  62  87 128 169 197 250 321 387
#     4   9  22  38  68  87 122 171 209 267 322 369
#     4  10  23  42  67  86 122 167 225 265 312 372
#     4  11  22  37  67  92 128 167 213 267 316 380
#
# _framework density 20.110827
#
# number of rings (size 3 to 8) (size 9 to 14) (size 15 to 20)
#    0.000    2.000    2.857    0.000    2.000    2.286 
#    0.000    0.000   75.429    0.000    0.000    0.000 
#    0.000    0.000    0.000    0.000    0.000    0.000 
#
# Total GULP energy -156154.122359 kJ/mol
# GULP energy per Si atom -5576.932941 kJ/mol
# Density = 2.006505 g / cm^3
# Si number density = 20.110827 Si / 1000 Ang^3
#
#
#
# Elastic Constant Matrix: (Units=GPa)
#
#
# Indices 1 2 3 4 5 6 
#
# 1 87.6189 40.0730 18.4373 0.0000 -20.4860 0.0000
# 2 40.0730 128.5452 41.2881 0.0000 -26.4720 0.0000
# 3 18.4373 41.2881 63.2225 0.0000 -8.2782 0.0000
# 4 0.0000 0.0000 0.0000 33.5250 0.0000 -5.5393
# 5 -20.4860 -26.4720 -8.2782 0.0000 26.9969 0.0000
# 6 0.0000 0.0000 0.0000 -5.5393 0.0000 41.0131
#
#
#
# Elastic Compliance Matrix: (Units=1/GPa)
#
#
# Indices 1 2 3 4 5 6 
#
# 1 0.014808 -0.002339 -0.001688 0.000000 0.008426 0.000000
# 2 -0.002339 0.012210 -0.006206 0.000000 0.008295 0.000000
# 3 -0.001688 -0.006206 0.020209 0.000000 -0.001169 0.000000
# 4 0.000000 0.000000 0.000000 0.030509 0.000000 0.004121
# 5 0.008426 0.008295 -0.001169 0.000000 0.051210 0.000000
# 6 0.000000 0.000000 0.000000 0.004121 0.000000 0.024939
#
#
# Mechanical properties :
#
#
# Convention : Reuss Voigt Hill
#
# Bulk Modulus (GPa) = 37.36611 53.22036 45.29324
# Shear Modulus (GPa) = 27.28211 32.27954 29.78083
#
# Velocity S-wave (km/s) = 3.68718 4.01070 3.85234
# Velocity P-wave (km/s) = 6.06198 6.92593 6.50831
#
# Compressibility (1/GPa) = 0.02676222
#
# Stress axis : x y z
#
# Youngs Moduli (GPa) = 67.53132 81.90043 49.48318
#
# Poissons Ratio (x) = 0.19157 0.08351
# Poissons Ratio (y) = 0.15796 0.30707
# Poissons Ratio (z) = 0.11396 0.50824
#
# Static dielectric constant tensor:
#      x y z
#    x 1.753130 0.000000 0.005540 
#    y 0.000000 1.774940 0.000000 
#    z 0.005540 0.000000 1.669880 
# 
# From -- ./inp_files/53259.got.cif
#   From: 2010.05.17/outbox.cif.g08.bks.cpg/sg14_27_cif.got.tgz:53259.got - 2010.06.03 17:49:19.
