data_PCOD9240276
_publ_section_title
;
Structure prediction by ZEFSAII (Michael W. Deem and Ramdas Pophale) SiO2 
 PCOD9240276
Probable space group: P 21/C
;
_chemical_formula_sum "Si O2"
_cell_formula_units_Z 28
_cell_length_a 8.585055
_cell_length_b 13.323295
_cell_length_c 13.705605
_cell_angle_alpha 90.000000
_cell_angle_beta 52.319622
_cell_angle_gamma 90.000000
_cell_volume 1240.700752
_symmetry_space_group_name_H-M "P 21/C"
_symmetry_group_IT_number 14
_symmetry_cell_setting 'monoclinic'
loop_
_space_group_symop_operation_xyz
x,y,z
-x,1/2+y,1/2-z
-x,-y,-z
x,1/2-y,1/2+z
loop_
_atom_site_type_symbol
_atom_site_label
_atom_site_fract_x
_atom_site_fract_y
_atom_site_fract_z
Si Si1 0.249391 0.952864 0.469628
Si Si2 0.628881 0.048247 0.793753
Si Si3 0.986695 0.238001 0.500311
Si Si4 0.020790 0.380178 0.181583
Si Si5 0.437727 0.265406 0.858281
Si Si6 0.406668 0.180151 0.596561
Si Si7 0.626853 0.363788 0.616639
O O1 0.275335 0.984535 0.346770
O O2 0.110243 0.854702 0.520616
O O3 0.460906 0.915203 0.425750
O O4 0.148592 0.037647 0.572695
O O5 0.529926 0.155459 0.813831
O O6 0.816248 0.068818 0.791765
O O7 0.464322 0.967711 0.884834
O O8 0.856179 0.334895 0.523693
O O9 0.964089 0.205810 0.623958
O O10 0.218736 0.241886 0.398919
O O11 0.173976 0.337567 0.201282
O O12 0.426825 0.295553 0.974719
O O13 0.567285 0.346701 0.752161
O O14 0.502893 0.274706 0.613302
#
# Coordination Sequence:
#
# PCOD9240276 Si02
#       7
#     4   4   4   4   4   4   4
#     4  10  18  38  62  94 113 149 212 253 295 339
#     4  11  21  37  64  85 121 163 196 243 302 364
#     4   9  19  36  60  87 121 157 191 248 296 356
#     4  10  18  36  59  90 116 151 206 254 292 334
#     4  11  21  41  62  85 124 162 195 248 302 348
#     4  10  22  38  60  88 125 152 196 257 295 358
#     4  11  22  42  60  90 122 158 203 245 301 360
#
# _framework density 22.567890999999999
#
# number of rings (size 3 to 8) (size 9 to 14) (size 15 to 20)
#    0.000    1.714    4.286    4.714    0.000    1.143 
#    7.714    2.857    0.000    0.000    0.000    0.000 
#    0.000    0.000    0.000    0.000    0.000    0.000 
#
# Total GULP energy -156450.696408 kJ/mol
# GULP energy per Si atom -5587.524872 kJ/mol
# Density = 2.251653 g / cm^3
# Si number density = 22.567891 Si / 1000 Ang^3
#
#
#
# Elastic Constant Matrix: (Units=GPa)
#
#
# Indices 1 2 3 4 5 6 
#
# 1 99.5096 14.8552 13.3257 0.0000 -28.8174 0.0000
# 2 14.8552 56.1415 -5.7338 0.0000 -18.2780 0.0000
# 3 13.3257 -5.7338 44.0833 0.0000 -14.4733 0.0000
# 4 0.0000 0.0000 0.0000 29.2518 0.0000 -10.9173
# 5 -28.8174 -18.2780 -14.4733 0.0000 42.9608 0.0000
# 6 0.0000 0.0000 0.0000 -10.9173 0.0000 25.2479
#
#
#
# Elastic Compliance Matrix: (Units=1/GPa)
#
#
# Indices 1 2 3 4 5 6 
#
# 1 0.012572 -0.001037 -0.001474 0.000000 0.007495 0.000000
# 2 -0.001037 0.022428 0.006898 0.000000 0.011170 0.000000
# 3 -0.001474 0.006898 0.027734 0.000000 0.011289 0.000000
# 4 0.000000 0.000000 0.000000 0.040764 0.000000 0.017627
# 5 0.007495 0.011170 0.011289 0.000000 0.036861 0.000000
# 6 0.000000 0.000000 0.000000 0.017627 0.000000 0.047229
#
#
# Mechanical properties :
#
#
# Convention : Reuss Voigt Hill
#
# Bulk Modulus (GPa) = 13.98470 27.18097 20.58283
# Shear Modulus (GPa) = 24.67308 31.31125 27.99216
#
# Velocity S-wave (km/s) = 3.31007 3.72886 3.52569
# Velocity P-wave (km/s) = 4.56278 5.53258 5.07091
#
# Compressibility (1/GPa) = 0.07150671
#
# Stress axis : x y z
#
# Youngs Moduli (GPa) = 79.54105 44.58760 36.05729
#
# Poissons Ratio (x) = 0.04624 0.05316
# Poissons Ratio (y) = 0.08248 -0.24872
# Poissons Ratio (z) = 0.11728 -0.30756
#
# Static dielectric constant tensor:
#      x y z
#    x 1.874310 0.000000 -0.000360 
#    y 0.000000 1.832910 0.000000 
#    z -0.000360 0.000000 1.866560 
# 
# From -- ./inp_files/55915.got.cif
#   From: 2010.05.17/outbox.cif.g08.bks.cpg/sg14_28_cif.got.tgz:55915.got - 2010.06.03 17:49:19.
