data_PCOD9240396
_publ_section_title
;
Structure prediction by ZEFSAII (Michael W. Deem and Ramdas Pophale) SiO2 
 PCOD9240396
Probable space group: P 21/C
;
_chemical_formula_sum "Si O2"
_cell_formula_units_Z 24
_cell_length_a 16.678639
_cell_length_b 13.850997
_cell_length_c 9.111894
_cell_angle_alpha 90.000000
_cell_angle_beta 150.522191
_cell_angle_gamma 90.000000
_cell_volume 1035.837647
_symmetry_space_group_name_H-M "P 21/C"
_symmetry_group_IT_number 14
_symmetry_cell_setting 'monoclinic'
loop_
_space_group_symop_operation_xyz
x,y,z
-x,1/2+y,1/2-z
-x,-y,-z
x,1/2-y,1/2+z
loop_
_atom_site_type_symbol
_atom_site_label
_atom_site_fract_x
_atom_site_fract_y
_atom_site_fract_z
Si Si1 0.219160 0.606155 0.177499
Si Si2 0.051333 0.802534 0.904138
Si Si3 0.414503 0.152607 0.040365
Si Si4 0.582238 0.860580 0.308198
Si Si5 0.079866 0.139823 0.620269
Si Si6 0.754817 0.453864 0.108127
O O1 0.195330 0.722546 0.115478
O O2 0.399038 0.595232 0.528747
O O3 0.205012 0.554178 0.999843
O O4 0.061342 0.581110 0.021911
O O5 0.113192 0.895666 0.089331
O O6 0.919291 0.739794 0.783593
O O7 0.988835 0.831426 0.647059
O O8 0.396522 0.149276 0.834854
O O9 0.261157 0.104343 0.879048
O O10 0.415628 0.262027 0.099267
O O11 0.584252 0.103270 0.350963
O O12 0.715078 0.935842 0.580588
#
# Coordination Sequence:
#
# PCOD9240396 Si02
#       6
#     4   4   4   4   4   4
#     4   9  18  38  64  87 120 168 202 241 314 362
#     4  10  18  37  65  88 122 167 207 238 312 367
#     4  11  22  42  63  95 126 158 209 264 306 366
#     4  11  24  40  68  92 121 167 208 259 309 364
#     4  10  20  35  65  90 124 174 196 252 322 355
#     4  11  22  42  67  90 123 166 214 251 304 374
#
# _framework density 23.169654000000001
#
# number of rings (size 3 to 8) (size 9 to 14) (size 15 to 20)
#    1.000    0.667    3.333    3.000    2.333    0.000 
#    0.000   11.667    0.000    0.000    0.000    0.000 
#    0.000    0.000    0.000    0.000    0.000    0.000 
#
# Total GULP energy -134219.143092 kJ/mol
# GULP energy per Si atom -5592.464296 kJ/mol
# Density = 2.311692 g / cm^3
# Si number density = 23.169654 Si / 1000 Ang^3
#
#
#
# Elastic Constant Matrix: (Units=GPa)
#
#
# Indices 1 2 3 4 5 6 
#
# 1 148.0060 41.5495 39.2471 0.0000 39.3337 0.0000
# 2 41.5495 91.1087 1.1229 0.0000 7.7610 0.0000
# 3 39.2471 1.1229 32.0592 0.0000 21.6984 0.0000
# 4 0.0000 0.0000 0.0000 29.1885 0.0000 15.4330
# 5 39.3337 7.7610 21.6984 0.0000 33.7913 0.0000
# 6 0.0000 0.0000 0.0000 15.4330 0.0000 18.6315
#
#
#
# Elastic Compliance Matrix: (Units=1/GPa)
#
#
# Indices 1 2 3 4 5 6 
#
# 1 0.012955 -0.005196 -0.011106 0.000000 -0.006756 0.000000
# 2 -0.005196 0.013383 0.006861 0.000000 -0.001431 0.000000
# 3 -0.011106 0.006861 0.065202 0.000000 -0.030516 0.000000
# 4 0.000000 0.000000 0.000000 0.060957 0.000000 -0.050493
# 5 -0.006756 -0.001431 -0.030516 0.000000 0.057381 0.000000
# 6 0.000000 0.000000 0.000000 -0.050493 0.000000 0.095497
#
#
# Mechanical properties :
#
#
# Convention : Reuss Voigt Hill
#
# Bulk Modulus (GPa) = 13.76312 48.33478 31.04895
# Shear Modulus (GPa) = 14.34815 28.93922 21.64369
#
# Velocity S-wave (km/s) = 2.49120 3.53797 3.05969
# Velocity P-wave (km/s) = 3.77198 6.13157 5.09039
#
# Compressibility (1/GPa) = 0.07265795
#
# Stress axis : x y z
#
# Youngs Moduli (GPa) = 77.18771 74.72281 15.33699
#
# Poissons Ratio (x) = 0.38825 0.17033
# Poissons Ratio (y) = 0.40106 -0.10522
# Poissons Ratio (z) = 0.85723 -0.51264
#
# Static dielectric constant tensor:
#      x y z
#    x 1.853930 0.000000 0.077060 
#    y 0.000000 1.921970 0.000000 
#    z 0.077060 0.000000 1.853480 
# 
# From -- ./inp_files/16338.got.cif
#   From: 2010.05.17/outbox.cif.g08.bks.cpg/sg14_9_cif.got.tgz:16338.got - 2010.06.03 17:49:19.
