data_PCOD9240558
_publ_section_title
;
Structure prediction by ZEFSAII (Michael W. Deem and Ramdas Pophale) SiO2 
 PCOD9240558
Probable space group: P 21/C
;
_chemical_formula_sum "Si O2"
_cell_formula_units_Z 18
_cell_length_a 9.021825
_cell_length_b 10.497735
_cell_length_c 9.315226
_cell_angle_alpha 90.000000
_cell_angle_beta 131.519346
_cell_angle_gamma 90.000000
_cell_volume 660.556183
_symmetry_space_group_name_H-M "P 21/C"
_symmetry_group_IT_number 14
_symmetry_cell_setting 'monoclinic'
loop_
_space_group_symop_operation_xyz
x,y,z
-x,1/2+y,1/2-z
-x,-y,-z
x,1/2-y,1/2+z
loop_
_atom_site_type_symbol
_atom_site_label
_atom_site_fract_x
_atom_site_fract_y
_atom_site_fract_z
Si Si1 0.192139 0.129685 0.854226
Si Si2 0.700868 0.596878 0.057533
Si Si3 0.201455 0.870064 0.573287
Si Si4 0.000000 0.500000 0.500000
Si Si5 0.399511 0.787642 0.972745
O O1 0.192584 0.271938 0.922468
O O2 0.021541 0.124281 0.625729
O O3 0.405683 0.126596 0.916387
O O4 0.142132 0.038601 0.952866
O O5 0.699034 0.494513 0.930637
O O6 0.827081 0.547194 0.273789
O O7 0.487904 0.652509 0.969661
O O8 0.238287 0.846141 0.762723
O O9 0.304598 0.748331 0.562269
#
# Coordination Sequence:
#
# PCOD9240558 Si02
#       5
#     4   4   4   2   4
#     4   9  23  38  67 104 132 183 240 289 343 433
#     4   9  22  40  68 102 134 183 242 288 347 430
#     4  11  22  42  67  95 142 192 226 301 365 407
#     4  10  18  42  76  88 142 194 218 294 364 390
#     4  10  23  41  67 105 138 182 245 287 350 443
#
# _framework density 27.249763999999999
#
# number of rings (size 3 to 8) (size 9 to 14) (size 15 to 20)
#    1.333    0.889    0.000    2.000    6.222    1.778 
#    4.000    2.222    0.000    0.000    0.000    0.000 
#    0.000    0.000    0.000    0.000    0.000    0.000 
#
# Total GULP energy -100349.231495 kJ/mol
# GULP energy per Si atom -5574.957305 kJ/mol
# Density = 2.718774 g / cm^3
# Si number density = 27.249764 Si / 1000 Ang^3
#
#
#
# Elastic Constant Matrix: (Units=GPa)
#
#
# Indices 1 2 3 4 5 6 
#
# 1 105.5328 26.3268 54.5992 0.0000 2.1350 0.0000
# 2 26.3268 108.0425 36.8198 0.0000 -4.1461 0.0000
# 3 54.5992 36.8198 114.0382 0.0000 -31.1334 0.0000
# 4 0.0000 0.0000 0.0000 35.0807 0.0000 8.1885
# 5 2.1350 -4.1461 -31.1334 0.0000 45.3220 0.0000
# 6 0.0000 0.0000 0.0000 8.1885 0.0000 22.0360
#
#
#
# Elastic Compliance Matrix: (Units=1/GPa)
#
#
# Indices 1 2 3 4 5 6 
#
# 1 0.014058 -0.000881 -0.008184 0.000000 -0.006365 0.000000
# 2 -0.000881 0.010559 -0.003338 0.000000 -0.001286 0.000000
# 3 -0.008184 -0.003338 0.016970 0.000000 0.011737 0.000000
# 4 0.000000 0.000000 0.000000 0.031213 0.000000 -0.011599
# 5 -0.006365 -0.001286 0.011737 0.000000 0.030309 0.000000
# 6 0.000000 0.000000 0.000000 -0.011599 0.000000 0.049690
#
#
# Mechanical properties :
#
#
# Convention : Reuss Voigt Hill
#
# Bulk Modulus (GPa) = 59.59511 62.56723 61.08117
# Shear Modulus (GPa) = 27.29266 34.47892 30.88579
#
# Velocity S-wave (km/s) = 3.16820 3.56095 3.37030
# Velocity P-wave (km/s) = 5.94144 6.31804 6.13264
#
# Compressibility (1/GPa) = 0.01677990
#
# Stress axis : x y z
#
# Youngs Moduli (GPa) = 71.13165 94.70953 58.92866
#
# Poissons Ratio (x) = 0.08342 0.48228
# Poissons Ratio (y) = 0.06265 0.19673
# Poissons Ratio (z) = 0.58215 0.31618
#
# Static dielectric constant tensor:
#      x y z
#    x 2.090730 0.000000 0.039350 
#    y 0.000000 2.324650 0.000000 
#    z 0.039350 0.000000 1.995340 
# 
# From -- ./inp_files/7748.got.cif
#   From: 2010.05.17/outbox.cif.g08.bks.cpg/sg14_4_cif.got.tgz:7748.got - 2010.06.03 17:49:19.
