data_PCOD9240410
_publ_section_title
;
Structure prediction by ZEFSAII (Michael W. Deem and Ramdas Pophale) SiO2 
 PCOD9240410
Probable space group: P 21/C
;
_chemical_formula_sum "Si O2"
_cell_formula_units_Z 32
_cell_length_a 17.362994
_cell_length_b 8.491047
_cell_length_c 25.719394
_cell_angle_alpha 90.000000
_cell_angle_beta 155.711119
_cell_angle_gamma 90.000000
_cell_volume 1559.713660
_symmetry_space_group_name_H-M "P 21/C"
_symmetry_group_IT_number 14
_symmetry_cell_setting 'monoclinic'
loop_
_space_group_symop_operation_xyz
x,y,z
-x,1/2+y,1/2-z
-x,-y,-z
x,1/2-y,1/2+z
loop_
_atom_site_type_symbol
_atom_site_label
_atom_site_fract_x
_atom_site_fract_y
_atom_site_fract_z
Si Si1 0.221111 0.529321 0.872656
Si Si2 0.033295 0.630789 0.088267
Si Si3 0.971158 0.795973 0.665963
Si Si4 0.326669 0.292992 0.667232
Si Si5 0.650171 0.868890 0.650534
Si Si6 0.574141 0.805675 0.883567
Si Si7 0.738354 0.069016 0.801326
Si Si8 0.340937 0.406715 0.272390
O O1 0.106150 0.439305 0.846601
O O2 0.258380 0.407759 0.848204
O O3 0.106981 0.679495 0.780904
O O4 0.431527 0.582369 0.016952
O O5 0.135111 0.776467 0.122412
O O6 0.130752 0.468984 0.131595
O O7 0.064489 0.647116 0.169513
O O8 0.817212 0.663556 0.944001
O O9 0.786440 0.701653 0.533129
O O10 0.444580 0.341374 0.689535
O O11 0.234739 0.451260 0.634113
O O12 0.412997 0.209141 0.770949
O O13 0.660240 0.690064 0.675493
O O14 0.758896 0.971055 0.761008
O O15 0.472077 0.638611 0.827669
O O16 0.466452 0.938430 0.849451
#
# Coordination Sequence:
#
# PCOD9240410 Si02
#       8
#     4   4   4   4   4   4   4   4
#     4  11  24  42  62  88 119 159 198 254 300 360
#     4  10  21  38  57  89 119 153 195 249 292 355
#     4  11  24  39  62  87 121 149 201 253 301 344
#     4  10  20  35  61  86 118 153 198 243 298 348
#     4  10  22  41  61  86 118 160 201 236 303 362
#     4  10  21  38  57  89 118 153 197 249 292 355
#     4  10  18  38  58  80 118 159 190 237 298 360
#     4  10  22  37  62  87 121 159 198 238 299 369
#
# _framework density 20.516587999999999
#
# number of rings (size 3 to 8) (size 9 to 14) (size 15 to 20)
#    0.000    1.750    2.500    1.500    3.500    0.000 
#    0.000    1.250    0.000    0.000    0.000    0.000 
#    0.000    0.000    0.000    0.000    0.000    0.000 
#
# Total GULP energy -178536.717439 kJ/mol
# GULP energy per Si atom -5579.272420 kJ/mol
# Density = 2.046989 g / cm^3
# Si number density = 20.516588 Si / 1000 Ang^3
#
#
#
# Elastic Constant Matrix: (Units=GPa)
#
#
# Indices 1 2 3 4 5 6 
#
# 1 65.4205 33.4591 -11.1372 0.0000 -3.0680 0.0000
# 2 33.4591 73.7501 -4.6185 0.0000 -4.7609 0.0000
# 3 -11.1372 -4.6185 24.2086 0.0000 1.1190 0.0000
# 4 0.0000 0.0000 0.0000 24.0488 0.0000 -8.4728
# 5 -3.0680 -4.7609 1.1190 0.0000 21.9100 0.0000
# 6 0.0000 0.0000 0.0000 -8.4728 0.0000 36.0625
#
#
#
# Elastic Compliance Matrix: (Units=1/GPa)
#
#
# Indices 1 2 3 4 5 6 
#
# 1 0.021365 -0.009150 0.008056 0.000000 0.000592 0.000000
# 2 -0.009150 0.017823 -0.000931 0.000000 0.002639 0.000000
# 3 0.008056 -0.000931 0.044899 0.000000 -0.001367 0.000000
# 4 0.000000 0.000000 0.000000 0.045335 0.000000 0.010651
# 5 0.000592 0.002639 -0.001367 0.000000 0.046368 0.000000
# 6 0.000000 0.000000 0.000000 0.010651 0.000000 0.030232
#
#
# Mechanical properties :
#
#
# Convention : Reuss Voigt Hill
#
# Bulk Modulus (GPa) = 12.49447 22.08734 17.29090
# Shear Modulus (GPa) = 21.11928 26.11598 23.61763
#
# Velocity S-wave (km/s) = 3.21187 3.57167 3.39654
# Velocity P-wave (km/s) = 4.45623 5.27239 4.88140
#
# Compressibility (1/GPa) = 0.08003540
#
# Stress axis : x y z
#
# Youngs Moduli (GPa) = 46.80616 56.10863 22.27211
#
# Poissons Ratio (x) = 0.51340 -0.17942
# Poissons Ratio (y) = 0.42828 0.02074
# Poissons Ratio (z) = -0.37706 0.05225
#
# Static dielectric constant tensor:
#      x y z
#    x 1.751740 0.000000 0.002520 
#    y 0.000000 1.716870 0.000000 
#    z 0.002520 0.000000 1.763550 
# 
# From -- ./inp_files/61706.got.cif
#   From: 2010.05.17/outbox.cif.g08.bks.cpg/sg14_31_cif.got.tgz:61706.got - 2010.06.03 17:49:19.
