data_PCOD9240352
_publ_section_title
;
Structure prediction by ZEFSAII (Michael W. Deem and Ramdas Pophale) SiO2 
 PCOD9240352
Probable space group: P 21/C
;
_chemical_formula_sum "Si O2"
_cell_formula_units_Z 32
_cell_length_a 12.302181
_cell_length_b 12.079368
_cell_length_c 22.099580
_cell_angle_alpha 90.000000
_cell_angle_beta 31.508285
_cell_angle_gamma 90.000000
_cell_volume 1716.318600
_symmetry_space_group_name_H-M "P 21/C"
_symmetry_group_IT_number 14
_symmetry_cell_setting 'monoclinic'
loop_
_space_group_symop_operation_xyz
x,y,z
-x,1/2+y,1/2-z
-x,-y,-z
x,1/2-y,1/2+z
loop_
_atom_site_type_symbol
_atom_site_label
_atom_site_fract_x
_atom_site_fract_y
_atom_site_fract_z
Si Si1 0.092207 0.108203 0.029361
Si Si2 0.664346 0.585772 0.353901
Si Si3 0.334995 0.400076 0.168067
Si Si4 0.021234 0.244584 0.264534
Si Si5 0.240576 0.843564 0.719215
Si Si6 0.532138 0.641218 0.555376
Si Si7 0.687856 0.261468 0.516951
Si Si8 0.039140 0.145316 0.921269
O O1 0.876265 0.152419 0.160842
O O2 0.279027 0.125144 0.987610
O O3 0.125051 0.160249 0.947756
O O4 0.064779 0.976442 0.033606
O O5 0.888160 0.641248 0.239909
O O6 0.610421 0.619864 0.449385
O O7 0.638356 0.456505 0.356000
O O8 0.496203 0.648780 0.392364
O O9 0.203280 0.335922 0.178757
O O10 0.311910 0.530871 0.172200
O O11 0.567675 0.352821 0.061462
O O12 0.217235 0.360505 0.285514
O O13 0.937681 0.197427 0.242127
O O14 0.825200 0.293601 0.393249
O O15 0.426405 0.758053 0.619978
O O16 0.854813 0.270221 0.491114
#
# Coordination Sequence:
#
# PCOD9240352 Si02
#       8
#     4   4   4   4   4   4   4   4
#     4  10  20  37  57  83 109 143 194 234 279 332
#     4  10  20  34  55  84 109 147 188 222 274 346
#     4   9  22  36  55  83 112 146 191 228 278 344
#     4  10  20  34  55  81 112 145 184 226 278 334
#     4  11  22  35  53  86 117 146 176 234 291 330
#     4  11  21  34  57  81 115 148 180 234 280 329
#     4  10  18  37  57  80 108 147 185 228 277 335
#     4   9  19  37  62  78 104 151 194 233 269 331
#
# _framework density 18.644556999999999
#
# number of rings (size 3 to 8) (size 9 to 14) (size 15 to 20)
#    0.000    2.000    3.750    0.000    1.750    1.500 
#    2.250    0.000    0.000    0.750    0.000    0.000 
#    0.000    0.000    0.000    0.000    0.000    0.000 
#
# Total GULP energy -178336.334538 kJ/mol
# GULP energy per Si atom -5573.010454 kJ/mol
# Density = 1.860212 g / cm^3
# Si number density = 18.644557 Si / 1000 Ang^3
#
#
#
# Elastic Constant Matrix: (Units=GPa)
#
#
# Indices 1 2 3 4 5 6 
#
# 1 83.2800 23.3502 17.8944 0.0000 -7.0971 0.0000
# 2 23.3502 102.3653 21.0535 0.0000 -2.1326 0.0000
# 3 17.8944 21.0535 36.1792 0.0000 -14.6349 0.0000
# 4 0.0000 0.0000 0.0000 22.9773 0.0000 -2.2652
# 5 -7.0971 -2.1326 -14.6349 0.0000 19.7390 0.0000
# 6 0.0000 0.0000 0.0000 -2.2652 0.0000 20.0029
#
#
#
# Elastic Compliance Matrix: (Units=1/GPa)
#
#
# Indices 1 2 3 4 5 6 
#
# 1 0.013788 -0.002036 -0.005311 0.000000 0.000800 0.000000
# 2 -0.002036 0.011773 -0.008036 0.000000 -0.005418 0.000000
# 3 -0.005311 -0.008036 0.048308 0.000000 0.033038 0.000000
# 4 0.000000 0.000000 0.000000 0.044013 0.000000 0.004984
# 5 0.000800 -0.005418 0.033038 0.000000 0.074859 0.000000
# 6 0.000000 0.000000 0.000000 0.004984 0.000000 0.050557
#
#
# Mechanical properties :
#
#
# Convention : Reuss Voigt Hill
#
# Bulk Modulus (GPa) = 23.20036 38.49119 30.84578
# Shear Modulus (GPa) = 17.33518 23.17894 20.25706
#
# Velocity S-wave (km/s) = 3.05252 3.52973 3.29977
# Velocity P-wave (km/s) = 4.98943 6.10750 5.57656
#
# Compressibility (1/GPa) = 0.04310278
#
# Stress axis : x y z
#
# Youngs Moduli (GPa) = 72.52715 84.93874 20.70066
#
# Poissons Ratio (x) = 0.17294 0.10995
# Poissons Ratio (y) = 0.14767 0.16634
# Poissons Ratio (z) = 0.38521 0.68253
#
# Static dielectric constant tensor:
#      x y z
#    x 1.658930 0.000000 0.011100 
#    y 0.000000 1.659530 0.000000 
#    z 0.011100 0.000000 1.700820 
# 
# From -- ./inp_files/73303.got.cif
#   From: 2010.05.17/outbox.cif.g08.bks.cpg/sg14_37_cif.got.tgz:73303.got - 2010.06.03 17:49:19.
