data_PCOD9240159
_publ_section_title
;
Structure prediction by ZEFSAII (Michael W. Deem and Ramdas Pophale) SiO2 
 PCOD9240159
Probable space group: P 21/C
;
_chemical_formula_sum "Si O2"
_cell_formula_units_Z 24
_cell_length_a 9.808001
_cell_length_b 11.025231
_cell_length_c 10.877036
_cell_angle_alpha 90.000000
_cell_angle_beta 51.371415
_cell_angle_gamma 90.000000
_cell_volume 918.853068
_symmetry_space_group_name_H-M "P 21/C"
_symmetry_group_IT_number 14
_symmetry_cell_setting 'monoclinic'
loop_
_space_group_symop_operation_xyz
x,y,z
-x,1/2+y,1/2-z
-x,-y,-z
x,1/2-y,1/2+z
loop_
_atom_site_type_symbol
_atom_site_label
_atom_site_fract_x
_atom_site_fract_y
_atom_site_fract_z
Si Si1 0.702359 0.553633 0.524331
Si Si2 0.516014 0.637817 0.840432
Si Si3 0.975579 0.309290 0.542411
Si Si4 0.239719 0.951477 0.666178
Si Si5 0.097264 0.567400 0.770947
Si Si6 0.769683 0.669228 0.239633
O O1 0.533922 0.563332 0.703490
O O2 0.754190 0.432802 0.420234
O O3 0.699317 0.652783 0.416963
O O4 0.868977 0.599008 0.508508
O O5 0.641725 0.565769 0.864862
O O6 0.611514 0.765186 0.759387
O O7 0.334155 0.632641 0.012090
O O8 0.802723 0.380263 0.682504
O O9 0.959477 0.191324 0.637878
O O10 0.055665 0.251612 0.373217
O O11 0.065014 0.001560 0.702885
O O12 0.172212 0.467497 0.825082
#
# Coordination Sequence:
#
# PCOD9240159 Si02
#       6
#     4   4   4   4   4   4
#     4   8  19  33  56  81 108 152 177 231 269 321
#     4  10  20  40  54  81 119 142 189 221 282 327
#     4  10  18  35  58  84 108 143 193 224 273 331
#     4  10  22  35  59  85 107 152 181 234 271 324
#     4   9  19  36  57  84 108 141 190 226 276 322
#     4   9  19  36  58  80 113 148 178 235 274 324
#
# _framework density 26.119520000000001
#
# number of rings (size 3 to 8) (size 9 to 14) (size 15 to 20)
#    1.000    1.667    0.000    1.500    0.000    7.333 
#    3.000    5.833    0.000    0.000    0.000    0.000 
#    0.000    0.000    0.000    0.000    0.000    0.000 
#
# Total GULP energy -133853.046940 kJ/mol
# GULP energy per Si atom -5577.210289 kJ/mol
# Density = 2.606007 g / cm^3
# Si number density = 26.119520 Si / 1000 Ang^3
#
#
#
# Elastic Constant Matrix: (Units=GPa)
#
#
# Indices 1 2 3 4 5 6 
#
# 1 35.9595 20.0731 16.3750 0.0000 -9.3579 0.0000
# 2 20.0731 111.6854 46.7975 0.0000 -4.4337 0.0000
# 3 16.3750 46.7975 168.0306 0.0000 11.6827 0.0000
# 4 0.0000 0.0000 0.0000 38.1120 0.0000 5.1664
# 5 -9.3579 -4.4337 11.6827 0.0000 24.1991 0.0000
# 6 0.0000 0.0000 0.0000 5.1664 0.0000 16.6412
#
#
#
# Elastic Compliance Matrix: (Units=1/GPa)
#
#
# Indices 1 2 3 4 5 6 
#
# 1 0.035538 -0.004459 -0.003228 0.000000 0.014484 0.000000
# 2 -0.004459 0.010963 -0.002730 0.000000 0.001602 0.000000
# 3 -0.003228 -0.002730 0.007396 0.000000 -0.005319 0.000000
# 4 0.000000 0.000000 0.000000 0.027391 0.000000 -0.008504
# 5 0.014484 0.001602 -0.005319 0.000000 0.049786 0.000000
# 6 0.000000 0.000000 0.000000 -0.008504 0.000000 0.062732
#
#
# Mechanical properties :
#
#
# Convention : Reuss Voigt Hill
#
# Bulk Modulus (GPa) = 30.24713 53.57411 41.91062
# Shear Modulus (GPa) = 22.15703 31.28578 26.72140
#
# Velocity S-wave (km/s) = 2.91571 3.46467 3.20198
# Velocity P-wave (km/s) = 4.78963 6.04656 5.45442
#
# Compressibility (1/GPa) = 0.03306099
#
# Stress axis : x y z
#
# Youngs Moduli (GPa) = 28.13910 91.21829 135.20730
#
# Poissons Ratio (x) = 0.40679 0.43649
# Poissons Ratio (y) = 0.12549 0.36911
# Poissons Ratio (z) = 0.09084 0.24902
#
# Static dielectric constant tensor:
#      x y z
#    x 2.061280 0.000000 0.009280 
#    y 0.000000 2.072710 0.000000 
#    z 0.009280 0.000000 2.137750 
# 
# From -- ./inp_files/47058.got.cif
#   From: 2010.05.17/outbox.cif.g08.bks.cpg/sg14_24_cif.got.tgz:47058.got - 2010.06.03 17:49:19.
