data_PCOD9240072
_publ_section_title
;
Structure prediction by ZEFSAII (Michael W. Deem and Ramdas Pophale) SiO2 
 PCOD9240072
Probable space group: P 21/C
;
_chemical_formula_sum "Si O2"
_cell_formula_units_Z 32
_cell_length_a 9.400477
_cell_length_b 11.695340
_cell_length_c 19.415669
_cell_angle_alpha 90.000000
_cell_angle_beta 126.735532
_cell_angle_gamma 90.000000
_cell_volume 1710.673317
_symmetry_space_group_name_H-M "P 21/C"
_symmetry_group_IT_number 14
_symmetry_cell_setting 'monoclinic'
loop_
_space_group_symop_operation_xyz
x,y,z
-x,1/2+y,1/2-z
-x,-y,-z
x,1/2-y,1/2+z
loop_
_atom_site_type_symbol
_atom_site_label
_atom_site_fract_x
_atom_site_fract_y
_atom_site_fract_z
Si Si1 0.293825 0.284281 0.590735
Si Si2 0.310531 0.130227 0.250226
Si Si3 0.088139 0.827044 0.854331
Si Si4 0.672043 0.355888 0.032873
Si Si5 0.561646 0.446533 0.590329
Si Si6 0.930514 0.125952 0.991437
Si Si7 0.454252 0.452473 0.099939
Si Si8 0.455668 0.678881 0.615708
O O1 0.300885 0.353783 0.665075
O O2 0.418235 0.354527 0.574718
O O3 0.359501 0.153573 0.610015
O O4 0.085525 0.289862 0.511828
O O5 0.427304 0.237108 0.306659
O O6 0.113108 0.146293 0.225030
O O7 0.411787 0.020023 0.310317
O O8 0.145507 0.694753 0.882933
O O9 0.244841 0.888698 0.857751
O O10 0.096869 0.872172 0.934676
O O11 0.561396 0.400803 0.065737
O O12 0.674892 0.453871 0.974736
O O13 0.577467 0.248668 0.966087
O O14 0.500000 0.500000 0.500000
O O15 0.551003 0.557988 0.634985
O O16 0.737636 0.156498 0.907334
O O17 0.000000 0.000000 0.000000
#
# Coordination Sequence:
#
# PCOD9240072 Si02
#       8
#     4   4   4   4   4   4   4   4
#     4  11  22  36  60  87 117 153 193 239 300 350
#     4  10  25  38  55  83 124 162 180 239 305 359
#     4  10  20  36  55  89 113 149 197 237 299 340
#     4   9  18  37  63  84 109 154 197 253 278 347
#     4  12  19  35  64  86 110 146 202 251 280 333
#     4  10  18  34  59  84 113 146 191 243 288 339
#     4  10  20  38  62  81 118 156 200 233 302 349
#     4  10  20  37  61  84 118 150 201 240 296 345
#
# _framework density 18.706084000000001
#
# number of rings (size 3 to 8) (size 9 to 14) (size 15 to 20)
#    0.000    1.750    5.000    0.000    1.750    1.000 
#    0.000   10.000    8.250    0.000    0.000    0.000 
#    0.000    0.000    0.000    0.000    0.000    0.000 
#
# Total GULP energy -178196.514946 kJ/mol
# GULP energy per Si atom -5568.641092 kJ/mol
# Density = 1.866351 g / cm^3
# Si number density = 18.706084 Si / 1000 Ang^3
#
#
#
# Elastic Constant Matrix: (Units=GPa)
#
#
# Indices 1 2 3 4 5 6 
#
# 1 119.7135 50.8024 40.4121 0.0000 29.0252 0.0000
# 2 50.8024 119.0270 32.9456 0.0000 15.7494 0.0000
# 3 40.4121 32.9456 57.2658 0.0000 25.3771 0.0000
# 4 0.0000 0.0000 0.0000 22.9135 0.0000 6.2582
# 5 29.0252 15.7494 25.3771 0.0000 28.2083 0.0000
# 6 0.0000 0.0000 0.0000 6.2582 0.0000 31.4915
#
#
#
# Elastic Compliance Matrix: (Units=1/GPa)
#
#
# Indices 1 2 3 4 5 6 
#
# 1 0.013033 -0.003493 -0.003508 0.000000 -0.008305 0.000000
# 2 -0.003493 0.010937 -0.004513 0.000000 0.001548 0.000000
# 3 -0.003508 -0.004513 0.032957 0.000000 -0.023520 0.000000
# 4 0.000000 0.000000 0.000000 0.046147 0.000000 -0.009171
# 5 -0.008305 0.001548 -0.023520 0.000000 0.064291 0.000000
# 6 0.000000 0.000000 0.000000 -0.009171 0.000000 0.033577
#
#
# Mechanical properties :
#
#
# Convention : Reuss Voigt Hill
#
# Bulk Modulus (GPa) = 29.49886 60.48074 44.98980
# Shear Modulus (GPa) = 21.25226 27.97907 24.61567
#
# Velocity S-wave (km/s) = 3.37429 3.87165 3.63149
# Velocity P-wave (km/s) = 5.56642 7.23799 6.45653
#
# Compressibility (1/GPa) = 0.03389961
#
# Stress axis : x y z
#
# Youngs Moduli (GPa) = 76.72694 91.43582 30.34265
#
# Poissons Ratio (x) = 0.31938 0.10643
# Poissons Ratio (y) = 0.26801 0.13693
# Poissons Ratio (z) = 0.26913 0.41264
#
# Static dielectric constant tensor:
#      x y z
#    x 1.661700 0.000000 -0.011520 
#    y 0.000000 1.692300 0.000000 
#    z -0.011520 0.000000 1.689820 
# 
# From -- ./inp_files/65601.got.cif
#   From: 2010.05.17/outbox.cif.g08.bks.cpg/sg14_33_cif.got.tgz:65601.got - 2010.06.03 17:49:19.
