data_PCOD9240262
_publ_section_title
;
Structure prediction by ZEFSAII (Michael W. Deem and Ramdas Pophale) SiO2 
 PCOD9240262
Probable space group: P 21/C
;
_chemical_formula_sum "Si O2"
_cell_formula_units_Z 24
_cell_length_a 9.422526
_cell_length_b 13.611034
_cell_length_c 7.777830
_cell_angle_alpha 90.000000
_cell_angle_beta 112.395223
_cell_angle_gamma 90.000000
_cell_volume 922.274864
_symmetry_space_group_name_H-M "P 21/C"
_symmetry_group_IT_number 14
_symmetry_cell_setting 'monoclinic'
loop_
_space_group_symop_operation_xyz
x,y,z
-x,1/2+y,1/2-z
-x,-y,-z
x,1/2-y,1/2+z
loop_
_atom_site_type_symbol
_atom_site_label
_atom_site_fract_x
_atom_site_fract_y
_atom_site_fract_z
Si Si1 0.229123 0.713098 0.969227
Si Si2 0.126396 0.978737 0.289317
Si Si3 0.578487 0.721101 0.989780
Si Si4 0.180611 0.907199 0.796758
Si Si5 0.319331 0.403279 0.664057
Si Si6 0.383051 0.034651 0.694203
O O1 0.125541 0.639168 0.805749
O O2 0.405799 0.713440 0.984873
O O3 0.182051 0.826739 0.946201
O O4 0.213620 0.665949 0.150588
O O5 0.173844 0.026065 0.127382
O O6 0.260974 0.004809 0.489800
O O7 0.976453 0.033935 0.285769
O O8 0.635608 0.828461 0.965262
O O9 0.583460 0.648481 0.825905
O O10 0.690191 0.672991 0.180637
O O11 0.311770 0.990340 0.837147
O O12 0.462565 0.474596 0.763325
#
# Coordination Sequence:
#
# PCOD9240262 Si02
#       6
#     4   4   4   4   4   4
#     4  11  19  38  58  83 110 149 186 232 275 325
#     4  10  21  37  57  83 113 151 185 223 275 342
#     4  11  19  35  60  84 111 144 191 232 271 321
#     4  11  23  35  61  83 113 147 190 223 279 338
#     4  11  20  35  59  84 108 146 188 230 272 325
#     4  10  18  36  58  81 105 151 187 220 267 337
#
# _framework density 26.022611000000001
#
# number of rings (size 3 to 8) (size 9 to 14) (size 15 to 20)
#    0.000    1.333    6.667    3.000    0.000    4.000 
#    0.000    3.333    0.000    0.000    0.000    0.000 
#    0.000    0.000    0.000    0.000    0.000    0.000 
#
# Total GULP energy -134285.598040 kJ/mol
# GULP energy per Si atom -5595.233252 kJ/mol
# Density = 2.596338 g / cm^3
# Si number density = 26.022611 Si / 1000 Ang^3
#
#
#
# Elastic Constant Matrix: (Units=GPa)
#
#
# Indices 1 2 3 4 5 6 
#
# 1 127.5431 57.7732 15.7389 0.0000 -7.3806 0.0000
# 2 57.7732 216.1715 33.8010 0.0000 -1.0449 0.0000
# 3 15.7389 33.8010 71.5351 0.0000 -12.4317 0.0000
# 4 0.0000 0.0000 0.0000 44.3908 0.0000 -4.7405
# 5 -7.3806 -1.0449 -12.4317 0.0000 20.9356 0.0000
# 6 0.0000 0.0000 0.0000 -4.7405 0.0000 46.1628
#
#
#
# Elastic Compliance Matrix: (Units=1/GPa)
#
#
# Indices 1 2 3 4 5 6 
#
# 1 0.009125 -0.002364 -0.000393 0.000000 0.002866 0.000000
# 2 -0.002364 0.005638 -0.002498 0.000000 -0.002035 0.000000
# 3 -0.000393 -0.002498 0.016949 0.000000 0.009801 0.000000
# 4 0.000000 0.000000 0.000000 0.022777 0.000000 0.002339
# 5 0.002866 -0.002035 0.009801 0.000000 0.054494 0.000000
# 6 0.000000 0.000000 0.000000 0.002339 0.000000 0.021903
#
#
# Mechanical properties :
#
#
# Convention : Reuss Voigt Hill
#
# Bulk Modulus (GPa) = 47.16002 69.98620 58.57311
# Shear Modulus (GPa) = 33.67828 42.82696 38.25262
#
# Velocity S-wave (km/s) = 3.60139 4.06120 3.83819
# Velocity P-wave (km/s) = 5.95445 6.99599 6.49613
#
# Compressibility (1/GPa) = 0.02120440
#
# Stress axis : x y z
#
# Youngs Moduli (GPa) = 109.58393 177.35669 58.99996
#
# Poissons Ratio (x) = 0.41919 0.02318
# Poissons Ratio (y) = 0.25901 0.14737
# Poissons Ratio (z) = 0.04306 0.44300
#
# Static dielectric constant tensor:
#      x y z
#    x 1.998280 0.000000 -0.103680 
#    y 0.000000 2.066010 0.000000 
#    z -0.103680 0.000000 2.274490 
# 
# From -- ./inp_files/8585.got.cif
#   From: 2010.05.17/outbox.cif.g08.bks.cpg/sg14_5_cif.got.tgz:8585.got - 2010.06.03 17:49:19.
