data_PCOD9240144
_publ_section_title
;
Structure prediction by ZEFSAII (Michael W. Deem and Ramdas Pophale) SiO2 
 PCOD9240144
Probable space group: P 21/C
;
_chemical_formula_sum "Si O2"
_cell_formula_units_Z 24
_cell_length_a 10.279170
_cell_length_b 8.659397
_cell_length_c 19.554861
_cell_angle_alpha 90.000000
_cell_angle_beta 142.374929
_cell_angle_gamma 90.000000
_cell_volume 1062.625564
_symmetry_space_group_name_H-M "P 21/C"
_symmetry_group_IT_number 14
_symmetry_cell_setting 'monoclinic'
loop_
_space_group_symop_operation_xyz
x,y,z
-x,1/2+y,1/2-z
-x,-y,-z
x,1/2-y,1/2+z
loop_
_atom_site_type_symbol
_atom_site_label
_atom_site_fract_x
_atom_site_fract_y
_atom_site_fract_z
Si Si1 0.952955 0.130477 0.537529
Si Si2 0.158077 0.921677 0.840892
Si Si3 0.893220 0.848631 0.601388
Si Si4 0.237612 0.116969 0.227510
Si Si5 0.570799 0.772080 0.065994
Si Si6 0.865102 0.130419 0.904783
O O1 0.793844 0.249450 0.433241
O O2 0.149718 0.238585 0.645524
O O3 0.886553 0.023944 0.572616
O O4 0.000000 0.000000 0.500000
O O5 0.056603 0.841182 0.732862
O O6 0.967947 0.944951 0.815380
O O7 0.279751 0.075086 0.866916
O O8 0.332635 0.821585 0.952523
O O9 0.664965 0.807743 0.537402
O O10 0.981486 0.731946 0.580621
O O11 0.393240 0.173369 0.351358
O O12 0.303019 0.970945 0.208099
O O13 0.000000 0.000000 0.000000
#
# Coordination Sequence:
#
# PCOD9240144 Si02
#       6
#     4   4   4   4   4   4
#     4   9  18  32  56  80 106 148 191 223 274 332
#     4  10  20  33  56  85 114 147 181 232 292 334
#     4  10  18  35  56  83 112 146 184 233 280 340
#     4  10  18  35  56  83 112 146 184 233 280 340
#     4  10  20  33  56  85 114 149 181 232 288 341
#     4   9  18  32  56  80 106 148 191 223 274 332
#
# _framework density 22.585564999999999
#
# number of rings (size 3 to 8) (size 9 to 14) (size 15 to 20)
#    0.000    2.333    3.333    0.000    0.000    0.000 
#    0.000    3.333    0.000   30.000    0.000    0.000 
#    0.000    0.000    0.000    0.000    0.000    0.000 
#
# Total GULP energy -133961.950104 kJ/mol
# GULP energy per Si atom -5581.747921 kJ/mol
# Density = 2.253416 g / cm^3
# Si number density = 22.585565 Si / 1000 Ang^3
#
#
#
# Elastic Constant Matrix: (Units=GPa)
#
#
# Indices 1 2 3 4 5 6 
#
# 1 45.0849 21.5302 27.4789 0.0000 -6.5673 0.0000
# 2 21.5302 130.6213 41.1983 0.0000 -14.9003 0.0000
# 3 27.4789 41.1983 81.6719 0.0000 -15.8159 0.0000
# 4 0.0000 0.0000 0.0000 31.2942 0.0000 -27.4765
# 5 -6.5673 -14.9003 -15.8159 0.0000 27.5368 0.0000
# 6 0.0000 0.0000 0.0000 -27.4765 0.0000 45.4556
#
#
#
# Elastic Compliance Matrix: (Units=1/GPa)
#
#
# Indices 1 2 3 4 5 6 
#
# 1 0.028345 -0.001922 -0.008393 0.000000 0.000899 0.000000
# 2 -0.001922 0.009400 -0.003599 0.000000 0.002561 0.000000
# 3 -0.008393 -0.003599 0.018136 0.000000 0.006467 0.000000
# 4 0.000000 0.000000 0.000000 0.068095 0.000000 0.041161
# 5 0.000899 0.002561 0.006467 0.000000 0.041630 0.000000
# 6 0.000000 0.000000 0.000000 0.041161 0.000000 0.046880
#
#
# Mechanical properties :
#
#
# Convention : Reuss Voigt Hill
#
# Bulk Modulus (GPa) = 35.64799 48.64366 42.14583
# Shear Modulus (GPa) = 20.02691 32.00202 26.01447
#
# Velocity S-wave (km/s) = 2.98100 3.76829 3.39753
# Velocity P-wave (km/s) = 5.25988 6.36534 5.83883
#
# Compressibility (1/GPa) = 0.02805207
#
# Stress axis : x y z
#
# Youngs Moduli (GPa) = 35.27984 106.38528 55.13955
#
# Poissons Ratio (x) = 0.20451 0.46278
# Poissons Ratio (y) = 0.06782 0.19844
# Poissons Ratio (z) = 0.29610 0.38287
#
# Static dielectric constant tensor:
#      x y z
#    x 1.846240 0.000000 -0.033260 
#    y 0.000000 1.865940 0.000000 
#    z -0.033260 0.000000 1.835490 
# 
# From -- ./inp_files/66928.got.cif
#   From: 2010.05.17/outbox.cif.g08.bks.cpg/sg14_34_cif.got.tgz:66928.got - 2010.06.03 17:49:19.
