data_PCOD9240528
_publ_section_title
;
Structure prediction by ZEFSAII (Michael W. Deem and Ramdas Pophale) SiO2 
 PCOD9240528
Probable space group: P 21/C
;
_chemical_formula_sum "Si O2"
_cell_formula_units_Z 26
_cell_length_a 15.110839
_cell_length_b 9.600121
_cell_length_c 13.205949
_cell_angle_alpha 90.000000
_cell_angle_beta 141.978738
_cell_angle_gamma 90.000000
_cell_volume 1180.002915
_symmetry_space_group_name_H-M "P 21/C"
_symmetry_group_IT_number 14
_symmetry_cell_setting 'monoclinic'
loop_
_space_group_symop_operation_xyz
x,y,z
-x,1/2+y,1/2-z
-x,-y,-z
x,1/2-y,1/2+z
loop_
_atom_site_type_symbol
_atom_site_label
_atom_site_fract_x
_atom_site_fract_y
_atom_site_fract_z
Si Si1 0.487304 0.954939 0.133038
Si Si2 0.108627 0.626209 0.817818
Si Si3 0.870547 0.303208 0.396002
Si Si4 0.368287 0.751284 0.679988
Si Si5 0.892845 0.825659 0.725690
Si Si6 0.000000 0.500000 0.000000
Si Si7 0.707766 0.628790 0.665760
O O1 0.469430 0.855784 0.212589
O O2 0.579941 0.874339 0.131692
O O3 0.559689 0.103898 0.222466
O O4 0.334498 0.003939 0.949048
O O5 0.118237 0.641587 0.706680
O O6 0.115451 0.462762 0.850821
O O7 0.964223 0.697803 0.728972
O O8 0.240062 0.705930 0.987803
O O9 0.713008 0.323626 0.300921
O O10 0.991736 0.360675 0.581840
O O11 0.896853 0.137764 0.417866
O O12 0.743358 0.770804 0.637107
O O13 0.142369 0.402462 0.145361
#
# Coordination Sequence:
#
# PCOD9240528 Si02
#       7
#     4   4   4   4   4   2   4
#     4  11  25  45  66  98 137 184 225 277 337 409
#     4  11  25  42  68 101 137 176 226 288 337 407
#     4  10  22  41  68  96 138 169 224 284 341 397
#     4  11  26  42  68  98 134 183 232 272 339 405
#     4  10  25  40  69 101 133 176 226 280 349 398
#     4  10  18  40  72  96 118 176 222 280 340 398
#     4  10  23  43  71  91 136 179 228 273 343 400
#
# _framework density 22.033843999999998
#
# number of rings (size 3 to 8) (size 9 to 14) (size 15 to 20)
#    0.000    1.538    1.538    1.385   15.077    1.231 
#    0.000    1.538    0.000    0.000    0.000    0.000 
#    0.000    0.000    0.000    0.000    0.000    0.000 
#
# Total GULP energy -144834.310969 kJ/mol
# GULP energy per Si atom -5570.550422 kJ/mol
# Density = 2.198369 g / cm^3
# Si number density = 22.033844 Si / 1000 Ang^3
#
#
#
# Elastic Constant Matrix: (Units=GPa)
#
#
# Indices 1 2 3 4 5 6 
#
# 1 125.3180 53.6880 26.6296 0.0000 0.7033 0.0000
# 2 53.6880 60.2226 -12.3640 0.0000 -2.4307 0.0000
# 3 26.6296 -12.3640 42.1962 0.0000 1.5331 0.0000
# 4 0.0000 0.0000 0.0000 20.4345 0.0000 -6.3248
# 5 0.7033 -2.4307 1.5331 0.0000 19.7359 0.0000
# 6 0.0000 0.0000 0.0000 -6.3248 0.0000 20.4851
#
#
#
# Elastic Compliance Matrix: (Units=1/GPa)
#
#
# Indices 1 2 3 4 5 6 
#
# 1 0.024081 -0.026243 -0.022803 0.000000 -0.002319 0.000000
# 2 -0.026243 0.046330 0.029980 0.000000 0.004312 0.000000
# 3 -0.022803 0.029980 0.046842 0.000000 0.000866 0.000000
# 4 0.000000 0.000000 0.000000 0.054108 0.000000 0.016706
# 5 -0.002319 0.004312 0.000866 0.000000 0.051215 0.000000
# 6 0.000000 0.000000 0.000000 0.016706 0.000000 0.053974
#
#
# Mechanical properties :
#
#
# Convention : Reuss Voigt Hill
#
# Bulk Modulus (GPa) = 12.63866 40.40490 26.52178
# Shear Modulus (GPa) = 14.66035 22.78332 18.72184
#
# Velocity S-wave (km/s) = 2.58225 3.21910 2.91810
# Velocity P-wave (km/s) = 3.82611 5.67400 4.83908
#
# Compressibility (1/GPa) = 0.07912231
#
# Stress axis : x y z
#
# Youngs Moduli (GPa) = 41.52610 21.58430 21.34814
#
# Poissons Ratio (x) = 0.56644 0.48680
# Poissons Ratio (y) = 1.08978 -0.64003
# Poissons Ratio (z) = 0.94691 -0.64711
#
# Static dielectric constant tensor:
#      x y z
#    x 1.856810 0.000000 -0.037810 
#    y 0.000000 1.832600 0.000000 
#    z -0.037810 0.000000 1.833160 
# 
# From -- ./inp_files/46643.got.cif
#   From: 2010.05.17/outbox.cif.g08.bks.cpg/sg14_24_cif.got.tgz:46643.got - 2010.06.03 17:49:19.
