data_PCOD9240309
_publ_section_title
;
Structure prediction by ZEFSAII (Michael W. Deem and Ramdas Pophale) SiO2 
 PCOD9240309
Probable space group: P 21/C
;
_chemical_formula_sum "Si O2"
_cell_formula_units_Z 28
_cell_length_a 14.862110
_cell_length_b 18.270863
_cell_length_c 9.296225
_cell_angle_alpha 90.000000
_cell_angle_beta 150.077392
_cell_angle_gamma 90.000000
_cell_volume 1259.211028
_symmetry_space_group_name_H-M "P 21/C"
_symmetry_group_IT_number 14
_symmetry_cell_setting 'monoclinic'
loop_
_space_group_symop_operation_xyz
x,y,z
-x,1/2+y,1/2-z
-x,-y,-z
x,1/2-y,1/2+z
loop_
_atom_site_type_symbol
_atom_site_label
_atom_site_fract_x
_atom_site_fract_y
_atom_site_fract_z
Si Si1 0.979794 0.428886 0.871791
Si Si2 0.455282 0.745490 0.066841
Si Si3 0.637557 0.156933 0.811970
Si Si4 0.473853 0.897897 0.931527
Si Si5 0.258143 0.133653 0.948091
Si Si6 0.240083 0.488666 0.000905
Si Si7 0.662439 0.949031 0.666886
O O1 0.780662 0.402438 0.561075
O O2 0.084054 0.365485 0.105501
O O3 0.081781 0.447760 0.865170
O O4 0.000000 0.500000 0.000000
O O5 0.341920 0.685259 0.822102
O O6 0.360404 0.775120 0.077336
O O7 0.474484 0.816093 0.991854
O O8 0.648134 0.708813 0.371797
O O9 0.439240 0.121772 0.538960
O O10 0.589891 0.901823 0.945766
O O11 0.279654 0.931494 0.623564
O O12 0.578154 0.945788 0.195373
O O13 0.229870 0.081710 0.047091
O O14 0.232380 0.486268 0.818334
O O15 0.500000 0.000000 0.500000
#
# Coordination Sequence:
#
# PCOD9240309 Si02
#       7
#     4   4   4   4   4   4   4
#     4  11  24  45  63  96 136 168 207 270 342 378
#     4  11  21  41  64  92 123 171 220 257 306 393
#     4  11  24  41  65  93 131 168 211 269 325 383
#     4  10  18  36  63  94 116 164 217 258 306 373
#     4  10  22  38  64  94 126 165 214 262 316 389
#     4  10  21  36  68  93 124 166 218 263 317 382
#     4  11  20  38  67  97 122 164 227 270 306 381
#
# _framework density 22.236146999999999
#
# number of rings (size 3 to 8) (size 9 to 14) (size 15 to 20)
#    0.000    1.429    4.286    1.714    2.000    0.000 
#    5.143    4.286    0.000    0.000    0.000    0.000 
#    0.000    0.000    0.000    0.000    0.000    0.000 
#
# Total GULP energy -156421.566645 kJ/mol
# GULP energy per Si atom -5586.484523 kJ/mol
# Density = 2.218554 g / cm^3
# Si number density = 22.236147 Si / 1000 Ang^3
#
#
#
# Elastic Constant Matrix: (Units=GPa)
#
#
# Indices 1 2 3 4 5 6 
#
# 1 93.3889 6.0572 25.6034 0.0000 -31.1671 0.0000
# 2 6.0572 75.9386 24.9773 0.0000 -12.4267 0.0000
# 3 25.6034 24.9773 92.1298 0.0000 -13.2018 0.0000
# 4 0.0000 0.0000 0.0000 34.9731 0.0000 -6.6702
# 5 -31.1671 -12.4267 -13.2018 0.0000 27.2510 0.0000
# 6 0.0000 0.0000 0.0000 -6.6702 0.0000 23.1152
#
#
#
# Elastic Compliance Matrix: (Units=1/GPa)
#
#
# Indices 1 2 3 4 5 6 
#
# 1 0.018250 0.002894 -0.002876 0.000000 0.020799 0.000000
# 2 0.002894 0.015592 -0.003802 0.000000 0.008578 0.000000
# 3 -0.002876 -0.003802 0.012857 0.000000 0.001206 0.000000
# 4 0.000000 0.000000 0.000000 0.030259 0.000000 0.008732
# 5 0.020799 0.008578 0.001206 0.000000 0.064979 0.000000
# 6 0.000000 0.000000 0.000000 0.008732 0.000000 0.045781
#
#
# Mechanical properties :
#
#
# Convention : Reuss Voigt Hill
#
# Bulk Modulus (GPa) = 25.55557 41.63702 33.59630
# Shear Modulus (GPa) = 24.00035 30.72249 27.36142
#
# Velocity S-wave (km/s) = 3.28889 3.72108 3.51164
# Velocity P-wave (km/s) = 5.09315 6.10144 5.61995
#
# Compressibility (1/GPa) = 0.03913041
#
# Stress axis : x y z
#
# Youngs Moduli (GPa) = 54.79449 64.13555 77.77838
#
# Poissons Ratio (x) = -0.18560 0.22369
# Poissons Ratio (y) = -0.15856 0.29573
# Poissons Ratio (z) = 0.15759 0.24386
#
# Static dielectric constant tensor:
#      x y z
#    x 1.843370 0.000000 -0.036750 
#    y 0.000000 1.870570 0.000000 
#    z -0.036750 0.000000 1.825060 
# 
# From -- ./inp_files/16898.got.cif
#   From: 2010.05.17/outbox.cif.g08.bks.cpg/sg14_9_cif.got.tgz:16898.got - 2010.06.03 17:49:19.
