data_PCOD9240165
_publ_section_title
;
Structure prediction by ZEFSAII (Michael W. Deem and Ramdas Pophale) SiO2 
 PCOD9240165
Probable space group: P 21/C
;
_chemical_formula_sum "Si O2"
_cell_formula_units_Z 28
_cell_length_a 8.674436
_cell_length_b 7.764930
_cell_length_c 26.031533
_cell_angle_alpha 90.000000
_cell_angle_beta 44.902588
_cell_angle_gamma 90.000000
_cell_volume 1237.724284
_symmetry_space_group_name_H-M "P 21/C"
_symmetry_group_IT_number 14
_symmetry_cell_setting 'monoclinic'
loop_
_space_group_symop_operation_xyz
x,y,z
-x,1/2+y,1/2-z
-x,-y,-z
x,1/2-y,1/2+z
loop_
_atom_site_type_symbol
_atom_site_label
_atom_site_fract_x
_atom_site_fract_y
_atom_site_fract_z
Si Si1 0.051261 0.953603 0.219947
Si Si2 0.378956 0.181464 0.023652
Si Si3 0.503409 0.212464 0.885107
Si Si4 0.937715 0.819253 0.542010
Si Si5 0.959734 0.548712 0.623957
Si Si6 0.293621 0.628410 0.396755
Si Si7 0.330556 0.198940 0.644725
O O1 0.248575 0.823837 0.188768
O O2 0.966872 0.910263 0.182451
O O3 0.838677 0.952607 0.305509
O O4 0.173238 0.135627 0.189847
O O5 0.411146 0.290425 0.067448
O O6 0.471694 0.271387 0.951211
O O7 0.133123 0.109095 0.077728
O O8 0.500000 0.000000 0.000000
O O9 0.326413 0.317586 0.894643
O O10 0.392614 0.021756 0.909144
O O11 0.063921 0.689533 0.473695
O O12 0.004521 0.724610 0.580385
O O13 0.000000 0.000000 0.500000
O O14 0.745115 0.462150 0.648878
O O15 0.470076 0.779250 0.362779
#
# Coordination Sequence:
#
# PCOD9240165 Si02
#       7
#     4   4   4   4   4   4   4
#     4  10  22  39  58  86 114 153 190 240 294 345
#     4  11  15  33  65  90  97 149 209 235 259 344
#     4  10  18  35  62  84 109 150 196 234 281 354
#     4  11  21  33  54  91 121 143 182 257 296 324
#     4  10  18  35  59  80 111 150 196 224 277 358
#     4  10  18  35  60  82 110 153 196 230 277 352
#     4  10  22  37  60  85 118 150 193 242 292 345
#
# _framework density 22.622164000000001
#
# number of rings (size 3 to 8) (size 9 to 14) (size 15 to 20)
#    0.000    1.714    7.143    0.857    0.000    1.143 
#    2.571   10.714    0.000    0.000    0.000    0.000 
#    0.000    0.000    0.000    0.000    0.000    0.000 
#
# Total GULP energy -155871.528249 kJ/mol
# GULP energy per Si atom -5566.840295 kJ/mol
# Density = 2.257067 g / cm^3
# Si number density = 22.622164 Si / 1000 Ang^3
#
#
#
# Elastic Constant Matrix: (Units=GPa)
#
#
# Indices 1 2 3 4 5 6 
#
# 1 95.2544 -3.8170 9.0492 0.0000 -11.1130 0.0000
# 2 -3.8170 76.6350 -16.5830 0.0000 -5.5031 0.0000
# 3 9.0492 -16.5830 37.0620 0.0000 -13.0152 0.0000
# 4 0.0000 0.0000 0.0000 28.3258 0.0000 -9.5957
# 5 -11.1130 -5.5031 -13.0152 0.0000 24.3605 0.0000
# 6 0.0000 0.0000 0.0000 -9.5957 0.0000 2.6692
#
#
#
# Elastic Compliance Matrix: (Units=1/GPa)
#
#
# Indices 1 2 3 4 5 6 
#
# 1 0.011165 0.000767 -0.000657 0.000000 0.004916 0.000000
# 2 0.000767 0.015993 0.010291 0.000000 0.009461 0.000000
# 3 -0.000657 0.010291 0.039955 0.000000 0.023372 0.000000
# 4 0.000000 0.000000 0.000000 -0.162086 0.000000 -0.582682
# 5 0.004916 0.009461 0.023372 0.000000 0.057917 0.000000
# 6 0.000000 0.000000 0.000000 -0.582682 0.000000 -1.720041
#
#
# Mechanical properties :
#
#
# Convention : Reuss Voigt Hill
#
# Bulk Modulus (GPa) = 11.37447 20.69445 16.03446
# Shear Modulus (GPa) = -2.85944 25.75791 11.44924
#
# Velocity S-wave (km/s) = -1.12550 3.37800 2.25212
# Velocity P-wave (km/s) = 1.83029 4.93783 3.72372
#
# Compressibility (1/GPa) = 0.08791621
#
# Stress axis : x y z
#
# Youngs Moduli (GPa) = 89.56714 62.52579 25.02847
#
# Poissons Ratio (x) = -0.04796 0.01643
# Poissons Ratio (y) = -0.06870 -0.25758
# Poissons Ratio (z) = 0.05881 -0.64347
#
# Static dielectric constant tensor:
#      x y z
#    x 2.260160 0.000000 -0.289660 
#    y 0.000000 2.034950 0.000000 
#    z -0.289660 0.000000 2.092740 
# 
# From -- ./inp_files/76326.got.cif
#   From: 2010.05.17/outbox.cif.g08.bks.cpg/sg14_39_cif.got.tgz:76326.got - 2010.06.03 17:49:19.
