data_PCOD9240181
_publ_section_title
;
Structure prediction by ZEFSAII (Michael W. Deem and Ramdas Pophale) SiO2 
 PCOD9240181
Probable space group: P 21/C
;
_chemical_formula_sum "Si O2"
_cell_formula_units_Z 20
_cell_length_a 10.736578
_cell_length_b 16.165390
_cell_length_c 5.514595
_cell_angle_alpha 90.000000
_cell_angle_beta 120.912470
_cell_angle_gamma 90.000000
_cell_volume 821.162767
_symmetry_space_group_name_H-M "P 21/C"
_symmetry_group_IT_number 14
_symmetry_cell_setting 'monoclinic'
loop_
_space_group_symop_operation_xyz
x,y,z
-x,1/2+y,1/2-z
-x,-y,-z
x,1/2-y,1/2+z
loop_
_atom_site_type_symbol
_atom_site_label
_atom_site_fract_x
_atom_site_fract_y
_atom_site_fract_z
Si Si1 0.056745 0.349077 0.806728
Si Si2 0.939496 0.336385 0.189458
Si Si3 0.668652 0.447111 0.418693
Si Si4 0.320134 0.459002 0.070094
Si Si5 0.638258 0.239499 0.888186
O O1 0.985961 0.380297 0.483952
O O2 0.028501 0.250673 0.778479
O O3 0.985969 0.380296 0.987921
O O4 0.222656 0.377411 0.972655
O O5 0.772344 0.304616 0.022290
O O6 0.492168 0.444128 0.242183
O O7 0.711769 0.491756 0.711981
O O8 0.707950 0.350879 0.457915
O O9 0.711761 0.491789 0.211696
O O10 0.554377 0.249994 0.554286
#
# Coordination Sequence:
#
# PCOD9240181 Si02
#       5
#     4   4   4   4   4
#     4  10  18  35  60  83 112 160 183 240 297 332
#     4  10  19  35  58  82 120 150 190 239 287 336
#     4  10  23  40  62  87 116 161 192 244 294 344
#     4  10  21  42  61  85 124 149 199 242 291 355
#     4  12  21  40  63  83 122 154 196 241 295 343
#
# _framework density 24.355708
#
# number of rings (size 3 to 8) (size 9 to 14) (size 15 to 20)
#    0.000    1.600    4.000    2.400    0.000    0.000 
#    7.200    2.000    0.000    0.000    0.000    0.000 
#    0.000    0.000    0.000    0.000    0.000    0.000 
#
# Total GULP energy -111772.903006 kJ/mol
# GULP energy per Si atom -5588.645150 kJ/mol
# Density = 2.430027 g / cm^3
# Si number density = 24.355708 Si / 1000 Ang^3
#
#
#
# Elastic Constant Matrix: (Units=GPa)
#
#
# Indices 1 2 3 4 5 6 
#
# 1 61.5426 20.4674 74.6953 0.0000 -15.7525 0.0000
# 2 20.4674 28.1347 19.3863 0.0000 0.9487 0.0000
# 3 74.6953 19.3863 171.3784 0.0000 -79.5196 0.0000
# 4 0.0000 0.0000 0.0000 26.6442 0.0000 6.1019
# 5 -15.7525 0.9487 -79.5196 0.0000 57.7295 0.0000
# 6 0.0000 0.0000 0.0000 6.1019 0.0000 33.7051
#
#
#
# Elastic Compliance Matrix: (Units=1/GPa)
#
#
# Indices 1 2 3 4 5 6 
#
# 1 0.087673 -0.012382 -0.070988 0.000000 -0.073656 0.000000
# 2 -0.012382 0.048929 -0.005761 0.000000 -0.012119 0.000000
# 3 -0.070988 -0.005761 0.078930 0.000000 0.089447 0.000000
# 4 0.000000 0.000000 0.000000 0.039155 0.000000 -0.007089
# 5 -0.073656 -0.012119 0.089447 0.000000 0.120632 0.000000
# 6 0.000000 0.000000 0.000000 -0.007089 0.000000 0.030952
#
#
# Mechanical properties :
#
#
# Convention : Reuss Voigt Hill
#
# Bulk Modulus (GPa) = 26.83101 54.46152 40.64626
# Shear Modulus (GPa) = 8.37580 33.38288 20.87934
#
# Velocity S-wave (km/s) = 1.85645 3.70623 2.93109
# Velocity P-wave (km/s) = 3.95417 6.38156 5.30847
#
# Compressibility (1/GPa) = 0.03727030
#
# Stress axis : x y z
#
# Youngs Moduli (GPa) = 11.40602 20.43771 12.66938
#
# Poissons Ratio (x) = 0.25306 0.89938
# Poissons Ratio (y) = 0.14123 0.07299
# Poissons Ratio (z) = 0.80969 0.11775
#
# Static dielectric constant tensor:
#      x y z
#    x 1.969940 0.000000 -0.094300 
#    y 0.000000 1.922490 0.000000 
#    z -0.094300 0.000000 2.079090 
# 
# From -- ./inp_files/2633.got.cif
#   From: 2010.05.17/outbox.cif.g08.bks.cpg/sg14_2_cif.got.tgz:2633.got - 2010.06.03 17:49:19.
