data_PCOD9240180
_publ_section_title
;
Structure prediction by ZEFSAII (Michael W. Deem and Ramdas Pophale) SiO2 
 PCOD9240180
Probable space group: P 21/C
;
_chemical_formula_sum "Si O2"
_cell_formula_units_Z 24
_cell_length_a 27.663899
_cell_length_b 7.641052
_cell_length_c 12.676513
_cell_angle_alpha 90.000000
_cell_angle_beta 156.206823
_cell_angle_gamma 90.000000
_cell_volume 1081.039003
_symmetry_space_group_name_H-M "P 21/C"
_symmetry_group_IT_number 14
_symmetry_cell_setting 'monoclinic'
loop_
_space_group_symop_operation_xyz
x,y,z
-x,1/2+y,1/2-z
-x,-y,-z
x,1/2-y,1/2+z
loop_
_atom_site_type_symbol
_atom_site_label
_atom_site_fract_x
_atom_site_fract_y
_atom_site_fract_z
Si Si1 0.135135 0.946445 0.241630
Si Si2 0.497248 0.598084 0.219815
Si Si3 0.489749 0.256948 0.053287
Si Si4 0.289804 0.245174 0.977052
Si Si5 0.868586 0.057889 0.268248
Si Si6 0.299222 0.745637 0.697566
O O1 0.208115 0.083108 0.317429
O O2 0.130818 0.752817 0.182759
O O3 0.214412 0.912151 0.506720
O O4 0.000000 0.000000 0.000000
O O5 0.495168 0.431260 0.137632
O O6 0.503992 0.586387 0.359247
O O7 0.614259 0.711068 0.422378
O O8 0.376781 0.708705 0.954572
O O9 0.603219 0.257133 0.202367
O O10 0.372129 0.257579 0.746747
O O11 0.199236 0.082850 0.798250
O O12 0.790827 0.086001 0.006420
O O13 0.000000 0.000000 0.500000
#
# Coordination Sequence:
#
# PCOD9240180 Si02
#       6
#     4   4   4   4   4   4
#     4  10  20  32  61  87 103 151 198 222 277 336
#     4  11  22  35  58  85 113 150 183 232 290 333
#     4  11  22  35  58  85 113 150 183 232 290 333
#     4  11  20  40  58  81 120 147 183 236 284 333
#     4  10  18  35  60  82 111 151 187 230 280 333
#     4   9  20  39  54  82 118 143 184 230 279 338
#
# _framework density 22.200863999999999
#
# number of rings (size 3 to 8) (size 9 to 14) (size 15 to 20)
#    1.000    0.667    5.000    1.000    4.667    1.333 
#    0.000    0.000    0.000   12.000    0.000    0.000 
#    0.000    0.000    0.000    0.000    0.000    0.000 
#
# Total GULP energy -133941.951274 kJ/mol
# GULP energy per Si atom -5580.914636 kJ/mol
# Density = 2.215033 g / cm^3
# Si number density = 22.200864 Si / 1000 Ang^3
#
#
#
# Elastic Constant Matrix: (Units=GPa)
#
#
# Indices 1 2 3 4 5 6 
#
# 1 52.2685 13.8395 33.5554 0.0000 -0.8751 0.0000
# 2 13.8395 126.4847 45.7666 0.0000 19.6050 0.0000
# 3 33.5554 45.7666 146.9530 0.0000 34.7776 0.0000
# 4 0.0000 0.0000 0.0000 36.8316 0.0000 3.5813
# 5 -0.8751 19.6050 34.7776 0.0000 22.9853 0.0000
# 6 0.0000 0.0000 0.0000 3.5813 0.0000 22.3404
#
#
#
# Elastic Compliance Matrix: (Units=1/GPa)
#
#
# Indices 1 2 3 4 5 6 
#
# 1 0.025878 -0.002087 -0.009212 0.000000 0.016704 0.000000
# 2 -0.002087 0.009513 -0.000852 0.000000 -0.006904 0.000000
# 3 -0.009212 -0.000852 0.014152 0.000000 -0.021037 0.000000
# 4 0.000000 0.000000 0.000000 0.027580 0.000000 -0.004421
# 5 0.016704 -0.006904 -0.021037 0.000000 0.081861 0.000000
# 6 0.000000 0.000000 0.000000 -0.004421 0.000000 0.045471
#
#
# Mechanical properties :
#
#
# Convention : Reuss Voigt Hill
#
# Bulk Modulus (GPa) = 39.61903 56.89213 48.25558
# Shear Modulus (GPa) = 21.08171 31.93444 26.50808
#
# Velocity S-wave (km/s) = 3.08488 3.79678 3.45920
# Velocity P-wave (km/s) = 5.52930 6.70093 6.14311
#
# Compressibility (1/GPa) = 0.02524040
#
# Stress axis : x y z
#
# Youngs Moduli (GPa) = 38.64233 105.11985 70.65942
#
# Poissons Ratio (x) = 0.21942 0.65093
# Poissons Ratio (y) = 0.08066 0.06021
# Poissons Ratio (z) = 0.35598 0.08958
#
# Static dielectric constant tensor:
#      x y z
#    x 1.809480 0.000000 -0.037230 
#    y 0.000000 1.946020 0.000000 
#    z -0.037230 0.000000 1.808750 
# 
# From -- ./inp_files/48273.got.cif
#   From: 2010.05.17/outbox.cif.g08.bks.cpg/sg14_25_cif.got.tgz:48273.got - 2010.06.03 17:49:19.
