data_PCOD9240277
_publ_section_title
;
Structure prediction by ZEFSAII (Michael W. Deem and Ramdas Pophale) SiO2 
 PCOD9240277
Probable space group: P 21/C
;
_chemical_formula_sum "Si O2"
_cell_formula_units_Z 28
_cell_length_a 7.661305
_cell_length_b 30.300405
_cell_length_c 8.432767
_cell_angle_alpha 90.000000
_cell_angle_beta 52.629021
_cell_angle_gamma 90.000000
_cell_volume 1555.738539
_symmetry_space_group_name_H-M "P 21/C"
_symmetry_group_IT_number 14
_symmetry_cell_setting 'monoclinic'
loop_
_space_group_symop_operation_xyz
x,y,z
-x,1/2+y,1/2-z
-x,-y,-z
x,1/2-y,1/2+z
loop_
_atom_site_type_symbol
_atom_site_label
_atom_site_fract_x
_atom_site_fract_y
_atom_site_fract_z
Si Si1 0.010242 0.621957 0.199234
Si Si2 0.841517 0.969643 0.791536
Si Si3 0.982302 0.731318 0.696489
Si Si4 0.481486 0.985163 0.247038
Si Si5 0.776653 0.194675 0.635974
Si Si6 0.288156 0.950141 0.664184
Si Si7 0.258867 0.195087 0.971557
O O1 0.890525 0.578820 0.193861
O O2 0.842154 0.652461 0.386826
O O3 0.187084 0.598738 0.220031
O O4 0.131316 0.651564 0.003129
O O5 0.072961 0.980862 0.747858
O O6 0.744016 0.003677 0.719479
O O7 0.654356 0.965443 0.028673
O O8 0.861682 0.703103 0.629143
O O9 0.103052 0.702910 0.763422
O O10 0.154378 0.763868 0.513412
O O11 0.808591 0.763196 0.881333
O O12 0.436722 0.955749 0.425638
O O13 0.584530 0.030894 0.256599
O O14 0.517593 0.192344 0.804114
#
# Coordination Sequence:
#
# PCOD9240277 Si02
#       7
#     4   4   4   4   4   4   4
#     4   9  22  34  48  81 116 124 176 215 262 300
#     4   9  20  35  52  78 102 133 175 223 245 316
#     4   9  20  36  58  79 100 134 190 197 248 316
#     4  10  18  36  60  70  98 146 180 202 270 294
#     4  10  19  37  55  78 105 142 164 219 253 307
#     4   9  20  35  52  78 102 133 175 223 245 316
#     4  10  19  37  55  78 105 142 164 219 253 307
#
# _framework density 17.997883000000002
#
# number of rings (size 3 to 8) (size 9 to 14) (size 15 to 20)
#    0.857    1.714    0.000    1.714    2.000    0.000 
#    5.143    0.000    0.000    0.000    0.000    0.000 
#    0.000    0.000    0.000    0.000    0.000    0.000 
#
# Total GULP energy -155944.195106 kJ/mol
# GULP energy per Si atom -5569.435540 kJ/mol
# Density = 1.795692 g / cm^3
# Si number density = 17.997883 Si / 1000 Ang^3
#
#
#
# Elastic Constant Matrix: (Units=GPa)
#
#
# Indices 1 2 3 4 5 6 
#
# 1 43.9794 4.6740 29.5913 0.0000 -5.1585 0.0000
# 2 4.6740 39.5880 19.8192 0.0000 -7.2772 0.0000
# 3 29.5913 19.8192 93.4175 0.0000 -21.2802 0.0000
# 4 0.0000 0.0000 0.0000 8.0815 0.0000 4.6324
# 5 -5.1585 -7.2772 -21.2802 0.0000 24.5099 0.0000
# 6 0.0000 0.0000 0.0000 4.6324 0.0000 -0.7410
#
#
#
# Elastic Compliance Matrix: (Units=1/GPa)
#
#
# Indices 1 2 3 4 5 6 
#
# 1 0.029049 0.001147 -0.009941 0.000000 -0.002177 0.000000
# 2 0.001147 0.028621 -0.005540 0.000000 0.003929 0.000000
# 3 -0.009941 -0.005540 0.017673 0.000000 0.011607 0.000000
# 4 0.000000 0.000000 0.000000 0.026996 0.000000 0.168775
# 5 -0.002177 0.003929 0.011607 0.000000 0.051586 0.000000
# 6 0.000000 0.000000 0.000000 0.168775 0.000000 -0.294438
#
#
# Mechanical properties :
#
#
# Convention : Reuss Voigt Hill
#
# Bulk Modulus (GPa) = 21.42509 31.68378 26.55444
# Shear Modulus (GPa) = -51.92906 14.56344 -18.68281
#
# Velocity S-wave (km/s) = -5.37731 2.84769 -3.22538
# Velocity P-wave (km/s) = 5.15984 5.33431 0.95679
#
# Compressibility (1/GPa) = 0.04667424
#
# Stress axis : x y z
#
# Youngs Moduli (GPa) = 34.42404 34.93977 56.58324
#
# Poissons Ratio (x) = -0.04007 0.56249
# Poissons Ratio (y) = -0.03948 0.31350
# Poissons Ratio (z) = 0.34221 0.19358
#
# Static dielectric constant tensor:
#      x y z
#    x 1.610450 0.000000 -0.002100 
#    y 0.000000 1.604840 0.000000 
#    z -0.002100 0.000000 1.619580 
# 
# From -- ./inp_files/11236.got.cif
#   From: 2010.05.17/outbox.cif.g08.bks.cpg/sg14_6_cif.got.tgz:11236.got - 2010.06.03 17:49:19.
