data_PCOD9240346
_publ_section_title
;
Structure prediction by ZEFSAII (Michael W. Deem and Ramdas Pophale) SiO2 
 PCOD9240346
Probable space group: P 21/C
;
_chemical_formula_sum "Si O2"
_cell_formula_units_Z 24
_cell_length_a 6.314946
_cell_length_b 9.143089
_cell_length_c 23.413160
_cell_angle_alpha 90.000000
_cell_angle_beta 57.067833
_cell_angle_gamma 90.000000
_cell_volume 1134.612318
_symmetry_space_group_name_H-M "P 21/C"
_symmetry_group_IT_number 14
_symmetry_cell_setting 'monoclinic'
loop_
_space_group_symop_operation_xyz
x,y,z
-x,1/2+y,1/2-z
-x,-y,-z
x,1/2-y,1/2+z
loop_
_atom_site_type_symbol
_atom_site_label
_atom_site_fract_x
_atom_site_fract_y
_atom_site_fract_z
Si Si1 0.185647 0.778898 0.458033
Si Si2 0.954112 0.567405 0.734786
Si Si3 0.840504 0.343843 0.653905
Si Si4 0.961496 0.928791 0.588873
Si Si5 0.733056 0.636812 0.240732
Si Si6 0.726615 0.886388 0.382085
O O1 0.125655 0.656105 0.419774
O O2 0.481605 0.789282 0.428329
O O3 0.018847 0.792840 0.539228
O O4 0.138564 0.934609 0.433008
O O5 0.894240 0.484835 0.684756
O O6 0.938638 0.739128 0.725424
O O7 0.746111 0.546773 0.815736
O O8 0.203690 0.498986 0.726948
O O9 0.547187 0.306297 0.707071
O O10 0.030709 0.219617 0.648173
O O11 0.777211 0.900192 0.668490
O O12 0.221896 0.986570 0.579719
#
# Coordination Sequence:
#
# PCOD9240346 Si02
#       6
#     4   4   4   4   4   4
#     4  10  18  37  56  88 117 153 193 242 294 348
#     4  11  21  36  56  87 116 151 193 247 283 348
#     4  11  21  34  60  83 118 151 191 242 293 344
#     4   9  21  34  60  85 118 151 198 243 290 344
#     4  11  23  38  59  89 118 150 201 239 297 342
#     4  10  19  35  56  86 114 154 194 243 290 340
#
# _framework density 21.1526
#
# number of rings (size 3 to 8) (size 9 to 14) (size 15 to 20)
#    0.000    1.667    3.333    1.500    4.667    0.000 
#    0.000    0.833    0.000    4.000    0.000    0.000 
#    0.000    0.000    0.000    0.000    0.000    0.000 
#
# Total GULP energy -133827.368835 kJ/mol
# GULP energy per Si atom -5576.140368 kJ/mol
# Density = 2.110446 g / cm^3
# Si number density = 21.152600 Si / 1000 Ang^3
#
#
#
# Elastic Constant Matrix: (Units=GPa)
#
#
# Indices 1 2 3 4 5 6 
#
# 1 63.8455 -0.3373 8.6320 0.0000 1.0465 0.0000
# 2 -0.3373 22.1211 -9.5324 0.0000 4.6316 0.0000
# 3 8.6320 -9.5324 27.1582 0.0000 7.6945 0.0000
# 4 0.0000 0.0000 0.0000 22.5749 0.0000 13.0490
# 5 1.0465 4.6316 7.6945 0.0000 20.1249 0.0000
# 6 0.0000 0.0000 0.0000 13.0490 0.0000 25.1593
#
#
#
# Elastic Compliance Matrix: (Units=1/GPa)
#
#
# Indices 1 2 3 4 5 6 
#
# 1 0.016579 -0.003430 -0.007236 0.000000 0.002694 0.000000
# 2 -0.003430 0.064084 0.031078 0.000000 -0.026452 0.000000
# 3 -0.007236 0.031078 0.058260 0.000000 -0.029051 0.000000
# 4 0.000000 0.000000 0.000000 0.063263 0.000000 -0.032812
# 5 0.002694 -0.026452 -0.029051 0.000000 0.066745 0.000000
# 6 0.000000 0.000000 0.000000 -0.032812 0.000000 0.056765
#
#
# Mechanical properties :
#
#
# Convention : Reuss Voigt Hill
#
# Bulk Modulus (GPa) = 5.56341 12.29438 8.92889
# Shear Modulus (GPa) = 14.50166 21.19598 17.84882
#
# Velocity S-wave (km/s) = 2.62119 3.16895 2.90800
# Velocity P-wave (km/s) = 3.43463 4.38344 3.93771
#
# Compressibility (1/GPa) = 0.17974591
#
# Stress axis : x y z
#
# Youngs Moduli (GPa) = 60.31761 15.60456 17.16439
#
# Poissons Ratio (x) = 0.05352 0.12421
# Poissons Ratio (y) = 0.20687 -0.53343
# Poissons Ratio (z) = 0.43649 -0.48495
#
# Static dielectric constant tensor:
#      x y z
#    x 1.808950 0.000000 0.041310 
#    y 0.000000 1.786420 0.000000 
#    z 0.041310 0.000000 1.800660 
# 
# From -- ./inp_files/69847.got.cif
#   From: 2010.05.17/outbox.cif.g08.bks.cpg/sg14_35_cif.got.tgz:69847.got - 2010.06.03 17:49:19.
