data_PCOD9240132
_publ_section_title
;
Structure prediction by ZEFSAII (Michael W. Deem and Ramdas Pophale) SiO2 
 PCOD9240132
Probable space group: P 21/C
;
_chemical_formula_sum "Si O2"
_cell_formula_units_Z 24
_cell_length_a 21.117999
_cell_length_b 4.968159
_cell_length_c 17.561464
_cell_angle_alpha 90.000000
_cell_angle_beta 31.514442
_cell_angle_gamma 90.000000
_cell_volume 963.102825
_symmetry_space_group_name_H-M "P 21/C"
_symmetry_group_IT_number 14
_symmetry_cell_setting 'monoclinic'
loop_
_space_group_symop_operation_xyz
x,y,z
-x,1/2+y,1/2-z
-x,-y,-z
x,1/2-y,1/2+z
loop_
_atom_site_type_symbol
_atom_site_label
_atom_site_fract_x
_atom_site_fract_y
_atom_site_fract_z
Si Si1 0.362433 0.897755 0.838639
Si Si2 0.973899 0.517091 0.117130
Si Si3 0.401213 0.219533 0.574711
Si Si4 0.486037 0.899432 0.862050
Si Si5 0.806213 0.829065 0.100218
Si Si6 0.167643 0.979025 0.760890
O O1 0.377385 0.938529 0.913006
O O2 0.464027 0.099098 0.699011
O O3 0.241783 0.986247 0.918637
O O4 0.405091 0.596726 0.777191
O O5 0.904655 0.611837 0.973158
O O6 0.921191 0.808044 0.188303
O O7 0.863970 0.308333 0.239015
O O8 0.000000 0.500000 0.000000
O O9 0.447901 0.478612 0.481840
O O10 0.310692 0.300263 0.736860
O O11 0.306606 0.066335 0.615321
O O12 0.500000 0.000000 0.500000
O O13 0.855564 0.000944 0.122727
#
# Coordination Sequence:
#
# PCOD9240132 Si02
#       6
#     4   4   4   4   4   4
#     4  10  21  36  56  74 110 148 183 210 270 330
#     4  10  18  35  50  79 104 142 181 218 271 313
#     4  10  20  35  55  86 114 136 179 228 280 316
#     4  10  21  38  51  78 113 147 172 220 273 333
#     4   9  19  33  56  82 103 142 180 231 254 329
#     4   9  21  32  53  77 109 139 173 232 267 316
#
# _framework density 24.919454999999999
#
# number of rings (size 3 to 8) (size 9 to 14) (size 15 to 20)
#    1.000    1.333    1.667    2.000    0.000    8.667 
#    0.000    0.000    0.000    2.000    0.000    0.000 
#    0.000    0.000    0.000    0.000    0.000    0.000 
#
# Total GULP energy -134110.751988 kJ/mol
# GULP energy per Si atom -5587.948000 kJ/mol
# Density = 2.486274 g / cm^3
# Si number density = 24.919455 Si / 1000 Ang^3
#
#
#
# Elastic Constant Matrix: (Units=GPa)
#
#
# Indices 1 2 3 4 5 6 
#
# 1 111.2410 4.0955 19.0375 0.0000 -6.6485 0.0000
# 2 4.0955 80.3913 22.5940 0.0000 -3.4065 0.0000
# 3 19.0375 22.5940 79.0287 0.0000 -24.2851 0.0000
# 4 0.0000 0.0000 0.0000 27.7992 0.0000 -9.1436
# 5 -6.6485 -3.4065 -24.2851 0.0000 37.8274 0.0000
# 6 0.0000 0.0000 0.0000 -9.1436 0.0000 33.9144
#
#
#
# Elastic Compliance Matrix: (Units=1/GPa)
#
#
# Indices 1 2 3 4 5 6 
#
# 1 0.009380 0.000160 -0.002235 0.000000 0.000228 0.000000
# 2 0.000160 0.013604 -0.004414 0.000000 -0.001580 0.000000
# 3 -0.002235 -0.004414 0.017704 0.000000 0.010575 0.000000
# 4 0.000000 0.000000 0.000000 0.039473 0.000000 0.010642
# 5 0.000228 -0.001580 0.010575 0.000000 0.033123 0.000000
# 6 0.000000 0.000000 0.000000 0.010642 0.000000 0.032355
#
#
# Mechanical properties :
#
#
# Convention : Reuss Voigt Hill
#
# Bulk Modulus (GPa) = 36.08769 40.23501 38.16135
# Shear Modulus (GPa) = 29.78793 34.90380 32.34587
#
# Velocity S-wave (km/s) = 3.46116 3.74661 3.60671
# Velocity P-wave (km/s) = 5.52141 5.90738 5.71766
#
# Compressibility (1/GPa) = 0.02771028
#
# Stress axis : x y z
#
# Youngs Moduli (GPa) = 106.61262 73.50512 56.48542
#
# Poissons Ratio (x) = -0.01176 0.12626
# Poissons Ratio (y) = -0.01706 0.24931
# Poissons Ratio (z) = 0.23830 0.32442
#
# Static dielectric constant tensor:
#      x y z
#    x 2.072040 0.000000 -0.035510 
#    y 0.000000 1.976300 0.000000 
#    z -0.035510 0.000000 2.035800 
# 
# From -- ./inp_files/69482.got.cif
#   From: 2010.05.17/outbox.cif.g08.bks.cpg/sg14_35_cif.got.tgz:69482.got - 2010.06.03 17:49:19.
