data_PCOD9240681
_publ_section_title
;
Structure prediction by ZEFSAII (Michael W. Deem and Ramdas Pophale) SiO2 
 PCOD9240681
Probable space group: P 21/C
;
_chemical_formula_sum "Si O2"
_cell_formula_units_Z 30
_cell_length_a 5.460016
_cell_length_b 14.784716
_cell_length_c 15.268735
_cell_angle_alpha 90.000000
_cell_angle_beta 85.542333
_cell_angle_gamma 90.000000
_cell_volume 1228.836892
_symmetry_space_group_name_H-M "P 21/C"
_symmetry_group_IT_number 14
_symmetry_cell_setting 'monoclinic'
loop_
_space_group_symop_operation_xyz
x,y,z
-x,1/2+y,1/2-z
-x,-y,-z
x,1/2-y,1/2+z
loop_
_atom_site_type_symbol
_atom_site_label
_atom_site_fract_x
_atom_site_fract_y
_atom_site_fract_z
Si Si1 0.600659 0.440986 0.754662
Si Si2 0.339265 0.373827 0.598887
Si Si3 0.977093 0.763888 0.112053
Si Si4 0.553559 0.142907 0.724104
Si Si5 0.960350 0.979255 0.125466
Si Si6 0.469747 0.715808 0.112103
Si Si7 0.500000 0.500000 0.500000
Si Si8 0.942944 0.727260 0.815893
O O1 0.495157 0.373292 0.682439
O O2 0.453393 0.535744 0.759261
O O3 0.872333 0.474795 0.718562
O O4 0.568247 0.381920 0.841346
O O5 0.485759 0.385377 0.506613
O O6 0.113504 0.308408 0.616194
O O7 0.228389 0.478392 0.593534
O O8 0.978471 0.872103 0.123499
O O9 0.743237 0.723879 0.069805
O O10 0.965753 0.732619 0.215571
O O11 0.226926 0.729783 0.063279
O O12 0.537445 0.203663 0.813214
O O13 0.306376 0.168409 0.678539
O O14 0.808902 0.173337 0.674325
O O15 0.732814 0.002733 0.069157
#
# Coordination Sequence:
#
# PCOD9240681 Si02
#       8
#     4   4   4   4   4   4   2   4
#     4  11  20  31  56  76 116 155 179 234 286 355
#     4  11  21  36  54  75 113 160 191 238 282 345
#     4  10  19  33  51  75 109 142 185 230 282 344
#     4  10  19  32  46  81 105 144 184 218 285 345
#     4  11  21  36  54  75 113 160 191 238 282 345
#     4  10  19  32  46  81 105 144 184 218 285 345
#     4  10  26  36  52  86 104 162 218 234 282 346
#     4  10  19  33  51  75 109 142 185 230 282 344
#
# _framework density 24.413328
#
# number of rings (size 3 to 8) (size 9 to 14) (size 15 to 20)
#    0.000    1.600    5.333    3.600    3.733    0.000 
#    0.000    0.000    0.000    0.000    0.000    0.000 
#    0.000    6.400    0.000    0.000    0.000    0.000 
#
# Total GULP energy -167200.206107 kJ/mol
# GULP energy per Si atom -5573.340204 kJ/mol
# Density = 2.435776 g / cm^3
# Si number density = 24.413328 Si / 1000 Ang^3
#
#
#
# Elastic Constant Matrix: (Units=GPa)
#
#
# Indices 1 2 3 4 5 6 
#
# 1 184.6593 29.9399 12.9660 0.0000 -0.6138 0.0000
# 2 29.9399 95.1983 18.1726 0.0000 -8.9992 0.0000
# 3 12.9660 18.1726 29.4685 0.0000 -7.1119 0.0000
# 4 0.0000 0.0000 0.0000 33.4008 0.0000 -10.8505
# 5 -0.6138 -8.9992 -7.1119 0.0000 19.7309 0.0000
# 6 0.0000 0.0000 0.0000 -10.8505 0.0000 45.6359
#
#
#
# Elastic Compliance Matrix: (Units=1/GPa)
#
#
# Indices 1 2 3 4 5 6 
#
# 1 0.005799 -0.001582 -0.001869 0.000000 -0.001215 0.000000
# 2 -0.001582 0.012507 -0.006191 0.000000 0.003424 0.000000
# 3 -0.001869 -0.006191 0.041488 0.000000 0.012073 0.000000
# 4 0.000000 0.000000 0.000000 0.032445 0.000000 0.007714
# 5 -0.001215 0.003424 0.012073 0.000000 0.056557 0.000000
# 6 0.000000 0.000000 0.000000 0.007714 0.000000 0.023747
#
#
# Mechanical properties :
#
#
# Convention : Reuss Voigt Hill
#
# Bulk Modulus (GPa) = 24.68462 47.94259 36.31360
# Shear Modulus (GPa) = 24.35091 36.30337 30.32714
#
# Velocity S-wave (km/s) = 3.16166 3.86039 3.52836
# Velocity P-wave (km/s) = 4.84368 6.28893 5.61301
#
# Compressibility (1/GPa) = 0.04051105
#
# Stress axis : x y z
#
# Youngs Moduli (GPa) = 172.44164 79.95339 24.10323
#
# Poissons Ratio (x) = 0.12647 0.04506
# Poissons Ratio (y) = 0.27277 0.14922
# Poissons Ratio (z) = 0.32234 0.49496
#
# Static dielectric constant tensor:
#      x y z
#    x 2.237030 0.000000 -0.231030 
#    y 0.000000 2.040060 0.000000 
#    z -0.231030 0.000000 2.279140 
# 
# From -- ./inp_files/53321.got.cif
#   From: 2010.05.17/outbox.cif.g08.bks.cpg/sg14_27_cif.got.tgz:53321.got - 2010.06.03 17:49:19.
