data_PCOD9240778
_publ_section_title
;
Structure prediction by ZEFSAII (Michael W. Deem and Ramdas Pophale) SiO2 
 PCOD9240778
Probable space group: P 21/C
;
_chemical_formula_sum "Si O2"
_cell_formula_units_Z 24
_cell_length_a 12.807336
_cell_length_b 19.952995
_cell_length_c 5.221728
_cell_angle_alpha 90.000000
_cell_angle_beta 60.583177
_cell_angle_gamma 90.000000
_cell_volume 1162.342233
_symmetry_space_group_name_H-M "P 21/C"
_symmetry_group_IT_number 14
_symmetry_cell_setting 'monoclinic'
loop_
_space_group_symop_operation_xyz
x,y,z
-x,1/2+y,1/2-z
-x,-y,-z
x,1/2-y,1/2+z
loop_
_atom_site_type_symbol
_atom_site_label
_atom_site_fract_x
_atom_site_fract_y
_atom_site_fract_z
Si Si1 0.290920 0.918042 0.670225
Si Si2 0.042720 0.206864 0.159722
Si Si3 0.153170 0.080353 0.261751
Si Si4 0.954493 0.449435 0.342666
Si Si5 0.361769 0.996877 0.091206
Si Si6 0.754391 0.211733 0.531807
O O1 0.296899 0.969868 0.427311
O O2 0.323181 0.848950 0.491516
O O3 0.154755 0.906150 0.925936
O O4 0.352640 0.949747 0.847505
O O5 0.073441 0.254353 0.363543
O O6 0.112041 0.136331 0.111057
O O7 0.898057 0.197656 0.351548
O O8 0.062829 0.094138 0.605227
O O9 0.111194 0.003111 0.262872
O O10 0.294431 0.067786 0.117097
O O11 0.000000 0.500000 0.500000
O O12 0.500000 0.000000 0.000000
O O13 0.730417 0.228709 0.856875
#
# Coordination Sequence:
#
# PCOD9240778 Si02
#       6
#     4   4   4   4   4   4
#     4  11  22  37  61  86 119 153 192 243 298 357
#     4  10  23  35  54  84 124 159 188 227 288 368
#     4  10  22  35  56  85 120 152 192 240 296 357
#     4  10  19  32  56  89 116 148 182 239 309 357
#     4  11  24  41  61  87 114 156 202 254 299 338
#     4  10  21  35  55  86 124 156 186 230 288 361
#
# _framework density 20.647963000000001
#
# number of rings (size 3 to 8) (size 9 to 14) (size 15 to 20)
#    0.000    1.667    1.667    2.500   14.000    0.000 
#    0.000    0.000    0.000    6.000    0.000    0.000 
#    0.000    0.000    0.000    0.000    0.000    0.000 
#
# Total GULP energy -133661.544373 kJ/mol
# GULP energy per Si atom -5569.231016 kJ/mol
# Density = 2.060097 g / cm^3
# Si number density = 20.647963 Si / 1000 Ang^3
#
#
#
# Elastic Constant Matrix: (Units=GPa)
#
#
# Indices 1 2 3 4 5 6 
#
# 1 116.7872 31.1641 44.7573 0.0000 25.9494 0.0000
# 2 31.1641 71.3555 18.5153 0.0000 14.3135 0.0000
# 3 44.7573 18.5153 61.7512 0.0000 23.3691 0.0000
# 4 0.0000 0.0000 0.0000 20.1623 0.0000 18.7280
# 5 25.9494 14.3135 23.3691 0.0000 28.5835 0.0000
# 6 0.0000 0.0000 0.0000 18.7280 0.0000 34.2187
#
#
#
# Elastic Compliance Matrix: (Units=1/GPa)
#
#
# Indices 1 2 3 4 5 6 
#
# 1 0.012997 -0.002968 -0.006701 0.000000 -0.004835 0.000000
# 2 -0.002968 0.016526 -0.001002 0.000000 -0.004762 0.000000
# 3 -0.006701 -0.001002 0.027308 0.000000 -0.015742 0.000000
# 4 0.000000 0.000000 0.000000 0.100884 0.000000 -0.055214
# 5 -0.004835 -0.004762 -0.015742 0.000000 0.054629 0.000000
# 6 0.000000 0.000000 0.000000 -0.055214 0.000000 0.059443
#
#
# Mechanical properties :
#
#
# Convention : Reuss Voigt Hill
#
# Bulk Modulus (GPa) = 28.17663 48.75193 38.46428
# Shear Modulus (GPa) = 16.39581 26.95672 21.67626
#
# Velocity S-wave (km/s) = 2.82097 3.61714 3.24358
# Velocity P-wave (km/s) = 4.92812 6.41149 5.71811
#
# Compressibility (1/GPa) = 0.03549041
#
# Stress axis : x y z
#
# Youngs Moduli (GPa) = 76.94303 60.51182 36.61897
#
# Poissons Ratio (x) = 0.17958 0.24537
# Poissons Ratio (y) = 0.22835 0.03669
# Poissons Ratio (z) = 0.51556 0.06062
#
# Static dielectric constant tensor:
#      x y z
#    x 1.787340 0.000000 0.004580 
#    y 0.000000 1.887480 0.000000 
#    z 0.004580 0.000000 1.852400 
# 
# From -- ./inp_files/2822.got.cif
#   From: 2010.05.17/outbox.cif.g08.bks.cpg/sg14_2_cif.got.tgz:2822.got - 2010.06.03 17:49:19.
