data_PCOD9240380
_publ_section_title
;
Structure prediction by ZEFSAII (Michael W. Deem and Ramdas Pophale) SiO2 
 PCOD9240380
Probable space group: P 21/C
;
_chemical_formula_sum "Si O2"
_cell_formula_units_Z 28
_cell_length_a 7.138195
_cell_length_b 9.972366
_cell_length_c 19.149876
_cell_angle_alpha 90.000000
_cell_angle_beta 62.325543
_cell_angle_gamma 90.000000
_cell_volume 1207.231526
_symmetry_space_group_name_H-M "P 21/C"
_symmetry_group_IT_number 14
_symmetry_cell_setting 'monoclinic'
loop_
_space_group_symop_operation_xyz
x,y,z
-x,1/2+y,1/2-z
-x,-y,-z
x,1/2-y,1/2+z
loop_
_atom_site_type_symbol
_atom_site_label
_atom_site_fract_x
_atom_site_fract_y
_atom_site_fract_z
Si Si1 0.511171 0.204647 0.656385
Si Si2 0.177801 0.076843 0.208092
Si Si3 0.550269 0.181545 0.854121
Si Si4 0.268050 0.952779 0.664379
Si Si5 0.935439 0.356511 0.606887
Si Si6 0.100138 0.335012 0.429203
Si Si7 0.656194 0.286018 0.971473
O O1 0.308930 0.294806 0.710004
O O2 0.727381 0.262600 0.652427
O O3 0.563967 0.215569 0.564257
O O4 0.425042 0.052805 0.677079
O O5 0.978413 0.017898 0.285010
O O6 0.078912 0.117380 0.149760
O O7 0.351617 0.960152 0.178084
O O8 0.706439 0.302648 0.810519
O O9 0.322788 0.218947 0.864266
O O10 0.526870 0.189886 0.942324
O O11 0.329980 0.927214 0.572619
O O12 0.875087 0.506204 0.590041
O O13 0.062097 0.302404 0.517521
O O14 0.893028 0.274791 0.429667
#
# Coordination Sequence:
#
# PCOD9240380 Si02
#       7
#     4   4   4   4   4   4   4
#     4  11  22  41  65  89 124 160 210 255 310 363
#     4  12  22  41  62  91 124 164 209 254 309 375
#     4  10  21  38  62  88 119 162 200 254 307 361
#     4  10  24  43  57  89 130 166 200 251 317 381
#     4  10  21  35  61  94 117 153 204 260 300 361
#     4  10  18  37  62  92 116 149 210 258 303 352
#     4   9  21  40  64  86 122 161 207 258 305 367
#
# _framework density 23.193563999999999
#
# number of rings (size 3 to 8) (size 9 to 14) (size 15 to 20)
#    0.857    0.857    2.857    2.143    0.000    1.143 
#    7.714    1.429    0.000    0.000    0.000    0.000 
#    0.000    0.000    0.000    0.000    0.000    0.000 
#
# Total GULP energy -156123.669029 kJ/mol
# GULP energy per Si atom -5575.845322 kJ/mol
# Density = 2.314077 g / cm^3
# Si number density = 23.193564 Si / 1000 Ang^3
#
#
#
# Elastic Constant Matrix: (Units=GPa)
#
#
# Indices 1 2 3 4 5 6 
#
# 1 605.2321 146.6790 -38.0939 0.0000 104.1264 0.0000
# 2 146.6790 97.9443 -22.0160 0.0000 39.7945 0.0000
# 3 -38.0939 -22.0160 89.6054 0.0000 -5.7817 0.0000
# 4 0.0000 0.0000 0.0000 14.5843 0.0000 -5.7887
# 5 104.1264 39.7945 -5.7817 0.0000 60.7714 0.0000
# 6 0.0000 0.0000 0.0000 -5.7887 0.0000 6.5400
#
#
#
# Elastic Compliance Matrix: (Units=1/GPa)
#
#
# Indices 1 2 3 4 5 6 
#
# 1 0.002939 -0.003136 0.000288 0.000000 -0.002954 0.000000
# 2 -0.003136 0.018019 0.002696 0.000000 -0.006170 0.000000
# 3 0.000288 0.002696 0.011872 0.000000 -0.001130 0.000000
# 4 0.000000 0.000000 0.000000 0.105701 0.000000 0.093557
# 5 -0.002954 -0.006170 -0.001130 0.000000 0.025450 0.000000
# 6 0.000000 0.000000 0.000000 0.093557 0.000000 0.235713
#
#
# Mechanical properties :
#
#
# Convention : Reuss Voigt Hill
#
# Bulk Modulus (GPa) = 30.74431 107.32443 69.03437
# Shear Modulus (GPa) = 12.17027 63.46000 37.81513
#
# Velocity S-wave (km/s) = 2.29317 5.23645 4.04222
# Velocity P-wave (km/s) = 4.50509 9.10683 7.18437
#
# Compressibility (1/GPa) = 0.03252634
#
# Stress axis : x y z
#
# Youngs Moduli (GPa) = 340.29759 55.49835 84.23123
#
# Poissons Ratio (x) = 0.17402 -0.02428
# Poissons Ratio (y) = 1.06706 -0.22709
# Poissons Ratio (z) = -0.09809 -0.14962
#
# Static dielectric constant tensor:
#      x y z
#    x 1.873590 0.000000 0.001220 
#    y 0.000000 1.843240 0.000000 
#    z 0.001220 0.000000 1.965610 
# 
# From -- ./inp_files/63486.got.cif
#   From: 2010.05.17/outbox.cif.g08.bks.cpg/sg14_32_cif.got.tgz:63486.got - 2010.06.03 17:49:19.
