data_PCOD9240445
_publ_section_title
;
Structure prediction by ZEFSAII (Michael W. Deem and Ramdas Pophale) SiO2 
 PCOD9240445
Probable space group: P 21/C
;
_chemical_formula_sum "Si O2"
_cell_formula_units_Z 28
_cell_length_a 17.252137
_cell_length_b 11.405583
_cell_length_c 8.881927
_cell_angle_alpha 90.000000
_cell_angle_beta 142.647155
_cell_angle_gamma 90.000000
_cell_volume 1060.369441
_symmetry_space_group_name_H-M "P 21/C"
_symmetry_group_IT_number 14
_symmetry_cell_setting 'monoclinic'
loop_
_space_group_symop_operation_xyz
x,y,z
-x,1/2+y,1/2-z
-x,-y,-z
x,1/2-y,1/2+z
loop_
_atom_site_type_symbol
_atom_site_label
_atom_site_fract_x
_atom_site_fract_y
_atom_site_fract_z
Si Si1 0.976504 0.829497 0.825755
Si Si2 0.182087 0.005143 0.262559
Si Si3 0.085186 0.641479 0.201656
Si Si4 0.427745 0.170550 0.913622
Si Si5 0.302284 0.982037 0.941402
Si Si6 0.569100 0.590062 0.934888
Si Si7 0.721954 0.173705 0.364182
O O1 0.966641 0.840371 0.632677
O O2 0.857367 0.865640 0.744673
O O3 0.038387 0.710057 0.980832
O O4 0.073913 0.937250 0.006872
O O5 0.314092 0.000839 0.378687
O O6 0.200200 0.931687 0.441717
O O7 0.158509 0.518231 0.286825
O O8 0.197712 0.714218 0.463571
O O9 0.425773 0.134498 0.734406
O O10 0.345192 0.082959 0.890219
O O11 0.395533 0.304561 0.898743
O O12 0.576268 0.166672 0.196105
O O13 0.292277 0.859604 0.831352
O O14 0.428324 0.963660 0.238193
#
# Coordination Sequence:
#
# PCOD9240445 Si02
#       7
#     4   4   4   4   4   4   4
#     4  10  24  40  65  88 119 168 208 250 302 355
#     4  10  21  42  63  84 123 163 206 250 306 358
#     4  11  21  39  65  93 119 156 209 251 297 373
#     4  11  22  36  60  97 121 165 196 250 318 370
#     4  11  20  38  63  94 119 163 196 253 309 371
#     4  11  22  38  62  89 128 158 201 254 313 362
#     4  10  18  38  63  86 121 156 201 247 307 366
#
# _framework density 26.405889999999999
#
# number of rings (size 3 to 8) (size 9 to 14) (size 15 to 20)
#    0.000    1.429    5.714    0.857    0.000    2.286 
#    0.000    5.000    0.000    0.000    0.000    0.000 
#    0.000    0.000    0.000    0.000    0.000    0.000 
#
# Total GULP energy -156478.696360 kJ/mol
# GULP energy per Si atom -5588.524870 kJ/mol
# Density = 2.634579 g / cm^3
# Si number density = 26.405890 Si / 1000 Ang^3
#
#
#
# Elastic Constant Matrix: (Units=GPa)
#
#
# Indices 1 2 3 4 5 6 
#
# 1 100.3203 15.3226 13.1630 0.0000 -1.4563 0.0000
# 2 15.3226 58.1400 11.7495 0.0000 0.9760 0.0000
# 3 13.1630 11.7495 54.0676 0.0000 5.6311 0.0000
# 4 0.0000 0.0000 0.0000 42.9166 0.0000 4.2896
# 5 -1.4563 0.9760 5.6311 0.0000 29.6882 0.0000
# 6 0.0000 0.0000 0.0000 4.2896 0.0000 44.3774
#
#
#
# Elastic Compliance Matrix: (Units=1/GPa)
#
#
# Indices 1 2 3 4 5 6 
#
# 1 0.010632 -0.002379 -0.002177 0.000000 0.001013 0.000000
# 2 -0.002379 0.018523 -0.003438 0.000000 -0.000073 0.000000
# 3 -0.002177 -0.003438 0.020170 0.000000 -0.003820 0.000000
# 4 0.000000 0.000000 0.000000 0.023528 0.000000 -0.002274
# 5 0.001013 -0.000073 -0.003820 0.000000 0.034460 0.000000
# 6 0.000000 0.000000 0.000000 -0.002274 0.000000 0.022754
#
#
# Mechanical properties :
#
#
# Convention : Reuss Voigt Hill
#
# Bulk Modulus (GPa) = 29.99716 32.55534 31.27625
# Shear Modulus (GPa) = 31.81312 34.88263 33.34787
#
# Velocity S-wave (km/s) = 3.47475 3.63852 3.55758
# Velocity P-wave (km/s) = 5.24244 5.47790 5.36146
#
# Compressibility (1/GPa) = 0.03333649
#
# Stress axis : x y z
#
# Youngs Moduli (GPa) = 94.05777 53.98709 49.57781
#
# Poissons Ratio (x) = 0.12844 0.10792
# Poissons Ratio (y) = 0.22377 0.17047
# Poissons Ratio (z) = 0.20475 0.18563
#
# Static dielectric constant tensor:
#      x y z
#    x 2.227530 0.000000 0.046000 
#    y 0.000000 2.136830 0.000000 
#    z 0.046000 0.000000 2.075620 
# 
# From -- ./inp_files/19107.got.cif
#   From: 2010.05.17/outbox.cif.g08.bks.cpg/sg14_10_cif.got.tgz:19107.got - 2010.06.03 17:49:19.
