data_PCOD9240411
_publ_section_title
;
Structure prediction by ZEFSAII (Michael W. Deem and Ramdas Pophale) SiO2 
 PCOD9240411
Probable space group: P 21/C
;
_chemical_formula_sum "Si O2"
_cell_formula_units_Z 28
_cell_length_a 6.049090
_cell_length_b 13.235020
_cell_length_c 14.681330
_cell_angle_alpha 90.000000
_cell_angle_beta 76.378116
_cell_angle_gamma 90.000000
_cell_volume 1142.322483
_symmetry_space_group_name_H-M "P 21/C"
_symmetry_group_IT_number 14
_symmetry_cell_setting 'monoclinic'
loop_
_space_group_symop_operation_xyz
x,y,z
-x,1/2+y,1/2-z
-x,-y,-z
x,1/2-y,1/2+z
loop_
_atom_site_type_symbol
_atom_site_label
_atom_site_fract_x
_atom_site_fract_y
_atom_site_fract_z
Si Si1 0.347736 0.039856 0.288233
Si Si2 0.280584 0.856610 0.403333
Si Si3 0.757092 0.054435 0.108329
Si Si4 0.435641 0.813583 0.024372
Si Si5 0.666390 0.742234 0.760215
Si Si6 0.115658 0.270479 0.571134
Si Si7 0.937778 0.410951 0.325890
O O1 0.583118 0.033458 0.208014
O O2 0.319926 0.159670 0.304226
O O3 0.341395 0.973361 0.380754
O O4 0.155304 0.989683 0.240608
O O5 0.360772 0.792630 0.483978
O O6 0.420448 0.806393 0.304488
O O7 0.010375 0.836356 0.424904
O O8 0.604417 0.088454 0.037472
O O9 0.906347 0.155159 0.102261
O O10 0.952085 0.970348 0.099298
O O11 0.700776 0.801563 0.022257
O O12 0.270523 0.840947 0.122458
O O13 0.736455 0.782473 0.853208
O O14 0.857421 0.659767 0.724776
#
# Coordination Sequence:
#
# PCOD9240411 Si02
#       7
#     4   4   4   4   4   4   4
#     4  12  22  36  64  93 114 160 204 250 301 350
#     4  10  21  39  59  83 119 160 196 247 298 349
#     4  11  20  36  59  88 121 153 197 245 309 354
#     4  10  23  39  56  88 125 161 194 245 312 360
#     4  11  21  38  59  93 115 156 209 244 294 363
#     4  10  18  38  58  81 121 153 198 243 290 361
#     4  12  24  36  60  90 126 154 200 254 301 354
#
# _framework density 24.511469999999999
#
# number of rings (size 3 to 8) (size 9 to 14) (size 15 to 20)
#    0.000    1.143    8.571    0.429    0.000    4.571 
#    0.000    0.714    0.000    0.857    0.000    0.000 
#    0.000    0.000    0.000    0.000    0.000    0.000 
#
# Total GULP energy -156282.847341 kJ/mol
# GULP energy per Si atom -5581.530262 kJ/mol
# Density = 2.445568 g / cm^3
# Si number density = 24.511470 Si / 1000 Ang^3
#
#
#
# Elastic Constant Matrix: (Units=GPa)
#
#
# Indices 1 2 3 4 5 6 
#
# 1 91.7409 12.2872 21.5579 0.0000 -34.8529 0.0000
# 2 12.2872 66.8615 0.8161 0.0000 -10.8504 0.0000
# 3 21.5579 0.8161 39.2150 0.0000 -14.7032 0.0000
# 4 0.0000 0.0000 0.0000 36.3430 0.0000 -3.4634
# 5 -34.8529 -10.8504 -14.7032 0.0000 49.6843 0.0000
# 6 0.0000 0.0000 0.0000 -3.4634 0.0000 35.8399
#
#
#
# Elastic Compliance Matrix: (Units=1/GPa)
#
#
# Indices 1 2 3 4 5 6 
#
# 1 0.015822 -0.001340 -0.005195 0.000000 0.009269 0.000000
# 2 -0.001340 0.015659 0.001508 0.000000 0.002926 0.000000
# 3 -0.005195 0.001508 0.030462 0.000000 0.005700 0.000000
# 4 0.000000 0.000000 0.000000 0.027771 0.000000 0.002684
# 5 0.009269 0.002926 0.005700 0.000000 0.028955 0.000000
# 6 0.000000 0.000000 0.000000 0.002684 0.000000 0.028161
#
#
# Mechanical properties :
#
#
# Convention : Reuss Voigt Hill
#
# Bulk Modulus (GPa) = 19.27194 29.68220 24.47707
# Shear Modulus (GPa) = 28.70596 35.25052 31.97824
#
# Velocity S-wave (km/s) = 3.42588 3.79637 3.61588
# Velocity P-wave (km/s) = 4.85060 5.59932 5.23836
#
# Compressibility (1/GPa) = 0.05188892
#
# Stress axis : x y z
#
# Youngs Moduli (GPa) = 63.20449 63.86117 32.82791
#
# Poissons Ratio (x) = 0.08557 0.17053
# Poissons Ratio (y) = 0.08469 -0.04950
# Poissons Ratio (z) = 0.32832 -0.09629
#
# Static dielectric constant tensor:
#      x y z
#    x 2.000490 0.000000 0.005670 
#    y 0.000000 1.997000 0.000000 
#    z 0.005670 0.000000 2.053810 
# 
# From -- ./inp_files/53175.got.cif
#   From: 2010.05.17/outbox.cif.g08.bks.cpg/sg14_27_cif.got.tgz:53175.got - 2010.06.03 17:49:19.
