data_PCOD9240056
_publ_section_title
;
Structure prediction by ZEFSAII (Michael W. Deem and Ramdas Pophale) SiO2 
 PCOD9240056
Probable space group: P 21/C
;
_chemical_formula_sum "Si O2"
_cell_formula_units_Z 24
_cell_length_a 8.898213
_cell_length_b 12.765966
_cell_length_c 8.233739
_cell_angle_alpha 90.000000
_cell_angle_beta 66.188350
_cell_angle_gamma 90.000000
_cell_volume 855.690222
_symmetry_space_group_name_H-M "P 21/C"
_symmetry_group_IT_number 14
_symmetry_cell_setting 'monoclinic'
loop_
_space_group_symop_operation_xyz
x,y,z
-x,1/2+y,1/2-z
-x,-y,-z
x,1/2-y,1/2+z
loop_
_atom_site_type_symbol
_atom_site_label
_atom_site_fract_x
_atom_site_fract_y
_atom_site_fract_z
Si Si1 0.489207 0.789917 0.760388
Si Si2 0.251682 0.356767 0.434943
Si Si3 0.370773 0.902562 0.535393
Si Si4 0.864026 0.046196 0.930921
Si Si5 0.937771 0.797295 0.299652
Si Si6 0.204541 0.055580 0.377849
O O1 0.597587 0.717465 0.591583
O O2 0.346522 0.848260 0.721347
O O3 0.425221 0.697587 0.903936
O O4 0.625631 0.880586 0.741133
O O5 0.290300 0.478502 0.439122
O O6 0.199461 0.333806 0.272108
O O7 0.105900 0.317431 0.618979
O O8 0.500000 0.000000 0.500000
O O9 0.233521 0.963927 0.496995
O O10 0.900502 0.166792 0.869816
O O11 0.867018 0.000123 0.747400
O O12 0.000000 0.000000 0.000000
O O13 0.905310 0.859463 0.481040
#
# Coordination Sequence:
#
# PCOD9240056 Si02
#       6
#     4   4   4   4   4   4
#     4  10  19  37  62  85 112 153 199 241 289 353
#     4  10  18  34  58  83 107 146 193 233 280 348
#     4  10  21  37  59  87 116 149 196 249 294 345
#     4  10  21  36  57  85 114 147 190 235 288 350
#     4  10  20  34  58  84 111 146 189 238 287 344
#     4  10  20  38  59  84 117 155 194 244 295 348
#
# _framework density 28.047533000000001
#
# number of rings (size 3 to 8) (size 9 to 14) (size 15 to 20)
#    0.000    2.000    0.000    6.500    0.000    0.000 
#    0.000   15.833    0.000    0.000    0.000    0.000 
#    0.000    0.000    0.000    0.000    0.000    0.000 
#
# Total GULP energy -133702.886063 kJ/mol
# GULP energy per Si atom -5570.953586 kJ/mol
# Density = 2.798370 g / cm^3
# Si number density = 28.047533 Si / 1000 Ang^3
#
#
#
# Elastic Constant Matrix: (Units=GPa)
#
#
# Indices 1 2 3 4 5 6 
#
# 1 42.8094 40.4457 10.0278 0.0000 5.9959 0.0000
# 2 40.4457 155.9017 61.9979 0.0000 -10.3735 0.0000
# 3 10.0278 61.9979 94.8539 0.0000 11.4354 0.0000
# 4 0.0000 0.0000 0.0000 90.0520 0.0000 -10.5825
# 5 5.9959 -10.3735 11.4354 0.0000 30.0575 0.0000
# 6 0.0000 0.0000 0.0000 -10.5825 0.0000 43.3425
#
#
#
# Elastic Compliance Matrix: (Units=1/GPa)
#
#
# Indices 1 2 3 4 5 6 
#
# 1 0.035826 -0.012668 0.006164 0.000000 -0.013864 0.000000
# 2 -0.012668 0.014070 -0.009168 0.000000 0.010871 0.000000
# 3 0.006164 -0.009168 0.017202 0.000000 -0.010938 0.000000
# 4 0.000000 0.000000 0.000000 0.011433 0.000000 0.002791
# 5 -0.013864 0.010871 -0.010938 0.000000 0.043948 0.000000
# 6 0.000000 0.000000 0.000000 0.002791 0.000000 0.023754
#
#
# Mechanical properties :
#
#
# Convention : Reuss Voigt Hill
#
# Bulk Modulus (GPa) = 27.96886 57.61198 42.79042
# Shear Modulus (GPa) = 26.38620 44.76332 35.57476
#
# Velocity S-wave (km/s) = 3.07052 3.99931 3.56529
# Velocity P-wave (km/s) = 4.75020 6.47390 5.67784
#
# Compressibility (1/GPa) = 0.03575404
#
# Stress axis : x y z
#
# Youngs Moduli (GPa) = 27.91275 71.07423 58.13422
#
# Poissons Ratio (x) = 0.90038 -0.35834
# Poissons Ratio (y) = 0.35360 0.53295
# Poissons Ratio (z) = -0.17205 0.65158
#
# Static dielectric constant tensor:
#      x y z
#    x 2.303320 0.000000 -0.030030 
#    y 0.000000 2.397610 0.000000 
#    z -0.030030 0.000000 2.318320 
# 
# From -- ./inp_files/12439.got.cif
#   From: 2010.05.17/outbox.cif.g08.bks.cpg/sg14_7_cif.got.tgz:12439.got - 2010.06.03 17:49:19.
