data_PCOD9240103
_publ_section_title
;
Structure prediction by ZEFSAII (Michael W. Deem and Ramdas Pophale) SiO2 
 PCOD9240103
Probable space group: P 21/C
;
_chemical_formula_sum "Si O2"
_cell_formula_units_Z 32
_cell_length_a 8.196511
_cell_length_b 8.870656
_cell_length_c 21.978692
_cell_angle_alpha 90.000000
_cell_angle_beta 115.222513
_cell_angle_gamma 90.000000
_cell_volume 1445.678901
_symmetry_space_group_name_H-M "P 21/C"
_symmetry_group_IT_number 14
_symmetry_cell_setting 'monoclinic'
loop_
_space_group_symop_operation_xyz
x,y,z
-x,1/2+y,1/2-z
-x,-y,-z
x,1/2-y,1/2+z
loop_
_atom_site_type_symbol
_atom_site_label
_atom_site_fract_x
_atom_site_fract_y
_atom_site_fract_z
Si Si1 0.281351 0.871949 0.700645
Si Si2 0.340064 0.430816 0.698607
Si Si3 0.612987 0.917469 0.604349
Si Si4 0.258740 0.412981 0.010164
Si Si5 0.833364 0.382164 0.234619
Si Si6 0.097053 0.326453 0.177999
Si Si7 0.944918 0.230412 0.529122
Si Si8 0.655681 0.339418 0.400546
O O1 0.476785 0.949651 0.734407
O O2 0.267461 0.768880 0.758678
O O3 0.263992 0.766200 0.639910
O O4 0.132106 0.998708 0.671530
O O5 0.174606 0.516900 0.705809
O O6 0.284305 0.258851 0.697172
O O7 0.373359 0.502092 0.637937
O O8 0.708688 0.881692 0.555595
O O9 0.520258 0.759017 0.609464
O O10 0.452649 0.040450 0.568331
O O11 0.743762 0.005614 0.671125
O O12 0.153223 0.570933 0.996535
O O13 0.138973 0.290297 0.027007
O O14 0.015348 0.322443 0.232326
O O15 0.971549 0.256179 0.105611
O O16 0.806009 0.347300 0.477013
#
# Coordination Sequence:
#
# PCOD9240103 Si02
#       8
#     4   4   4   4   4   4   4   4
#     4  11  23  40  63  89 122 164 212 257 311 386
#     4  11  25  42  62  90 128 175 208 255 321 388
#     4  10  18  34  61  87 128 153 206 259 311 372
#     4   9  18  32  56  95 117 161 204 257 305 374
#     4  11  23  39  61  96 124 160 212 268 325 366
#     4  12  23  41  65  90 129 165 211 265 321 381
#     4  10  20  35  62  91 124 159 213 261 320 368
#     4  10  22  40  60  92 124 158 211 262 306 379
#
# _framework density 22.134931999999999
#
# number of rings (size 3 to 8) (size 9 to 14) (size 15 to 20)
#    0.000    1.500    2.500    4.500    1.750    0.500 
#    0.000    1.250    0.000    1.500    0.000    0.000 
#    0.000    0.000    0.000    0.000    0.000    0.000 
#
# Total GULP energy -178490.712325 kJ/mol
# GULP energy per Si atom -5577.834760 kJ/mol
# Density = 2.208455 g / cm^3
# Si number density = 22.134932 Si / 1000 Ang^3
#
#
#
# Elastic Constant Matrix: (Units=GPa)
#
#
# Indices 1 2 3 4 5 6 
#
# 1 53.3763 16.6403 -7.6944 0.0000 -6.1549 0.0000
# 2 16.6403 58.5127 1.1057 0.0000 -2.6701 0.0000
# 3 -7.6944 1.1057 50.2485 0.0000 9.2843 0.0000
# 4 0.0000 0.0000 0.0000 16.9272 0.0000 -3.9419
# 5 -6.1549 -2.6701 9.2843 0.0000 26.6142 0.0000
# 6 0.0000 0.0000 0.0000 -3.9419 0.0000 12.0055
#
#
#
# Elastic Compliance Matrix: (Units=1/GPa)
#
#
# Indices 1 2 3 4 5 6 
#
# 1 0.021390 -0.005982 0.002783 0.000000 0.003376 0.000000
# 2 -0.005982 0.018868 -0.001523 0.000000 0.001041 0.000000
# 3 0.002783 -0.001523 0.021667 0.000000 -0.007067 0.000000
# 4 0.000000 0.000000 0.000000 0.063968 0.000000 0.021003
# 5 0.003376 0.001041 -0.007067 0.000000 0.040924 0.000000
# 6 0.000000 0.000000 0.000000 0.021003 0.000000 0.090191
#
#
# Mechanical properties :
#
#
# Convention : Reuss Voigt Hill
#
# Bulk Modulus (GPa) = 19.05453 20.24895 19.65174
# Shear Modulus (GPa) = 17.60904 21.24844 19.42874
#
# Velocity S-wave (km/s) = 2.82358 3.10167 2.96588
# Velocity P-wave (km/s) = 4.38830 4.68988 4.54159
#
# Compressibility (1/GPa) = 0.05248095
#
# Stress axis : x y z
#
# Youngs Moduli (GPa) = 46.75035 53.00056 46.15389
#
# Poissons Ratio (x) = 0.31703 -0.12846
# Poissons Ratio (y) = 0.27964 0.07031
# Poissons Ratio (z) = -0.13012 0.08075
#
# Static dielectric constant tensor:
#      x y z
#    x 1.863030 0.000000 0.003800 
#    y 0.000000 1.832000 0.000000 
#    z 0.003800 0.000000 1.848940 
# 
# From -- ./inp_files/72090.got.cif
#   From: 2010.05.17/outbox.cif.g08.bks.cpg/sg14_37_cif.got.tgz:72090.got - 2010.06.03 17:49:19.
