data_PCOD9240049
_publ_section_title
;
Structure prediction by ZEFSAII (Michael W. Deem and Ramdas Pophale) SiO2 
 PCOD9240049
Probable space group: P 21/C
;
_chemical_formula_sum "Si O2"
_cell_formula_units_Z 32
_cell_length_a 12.726121
_cell_length_b 17.774796
_cell_length_c 12.740650
_cell_angle_alpha 90.000000
_cell_angle_beta 149.416342
_cell_angle_gamma 90.000000
_cell_volume 1466.343963
_symmetry_space_group_name_H-M "P 21/C"
_symmetry_group_IT_number 14
_symmetry_cell_setting 'monoclinic'
loop_
_space_group_symop_operation_xyz
x,y,z
-x,1/2+y,1/2-z
-x,-y,-z
x,1/2-y,1/2+z
loop_
_atom_site_type_symbol
_atom_site_label
_atom_site_fract_x
_atom_site_fract_y
_atom_site_fract_z
Si Si1 0.699073 0.205267 0.076381
Si Si2 0.758964 0.378929 0.192624
Si Si3 0.962182 0.729934 0.282086
Si Si4 0.256500 0.844078 0.652106
Si Si5 0.377752 0.225613 0.172997
Si Si6 0.389746 0.523862 0.133929
Si Si7 0.224499 0.426006 0.628732
Si Si8 0.346367 0.400017 0.948238
O O1 0.761102 0.291514 0.159653
O O2 0.852144 0.184572 0.113559
O O3 0.722963 0.161576 0.205200
O O4 0.472933 0.210370 0.829254
O O5 0.982543 0.412048 0.411836
O O6 0.684819 0.424470 0.027366
O O7 0.586414 0.381445 0.135358
O O8 0.058300 0.796646 0.436859
O O9 0.804574 0.670529 0.196017
O O10 0.823349 0.760389 0.067723
O O11 0.445933 0.800431 0.757682
O O12 0.288293 0.930857 0.642677
O O13 0.322764 0.156311 0.199129
O O14 0.641586 0.527625 0.342145
O O15 0.321204 0.441240 0.038000
O O16 0.283675 0.452975 0.795920
#
# Coordination Sequence:
#
# PCOD9240049 Si02
#       8
#     4   4   4   4   4   4   4   4
#     4  11  20  35  59  87 112 149 202 243 286 341
#     4  11  18  36  57  87 116 148 193 240 298 352
#     4  11  22  37  56  86 118 153 198 242 291 346
#     4  10  21  38  60  82 115 157 196 240 291 349
#     4  10  19  34  56  85 116 143 190 249 288 338
#     4  10  21  38  53  85 120 151 192 239 292 357
#     4  10  18  34  57  83 114 149 186 235 299 348
#     4  11  23  34  55  84 121 153 188 241 298 348
#
# _framework density 21.822984999999999
#
# number of rings (size 3 to 8) (size 9 to 14) (size 15 to 20)
#    0.000    1.500    6.250    3.000    0.000    3.000 
#    0.000    0.625    0.000    0.750    0.000    0.000 
#    0.000    0.000    0.000    0.000    0.000    0.000 
#
# Total GULP energy -178394.390529 kJ/mol
# GULP energy per Si atom -5574.824704 kJ/mol
# Density = 2.177331 g / cm^3
# Si number density = 21.822985 Si / 1000 Ang^3
#
#
#
# Elastic Constant Matrix: (Units=GPa)
#
#
# Indices 1 2 3 4 5 6 
#
# 1 44.1325 -1.8132 10.0974 0.0000 7.4054 0.0000
# 2 -1.8132 16.9819 -1.1553 0.0000 15.0981 0.0000
# 3 10.0974 -1.1553 102.7346 0.0000 22.2536 0.0000
# 4 0.0000 0.0000 0.0000 22.8821 0.0000 -0.2495
# 5 7.4054 15.0981 22.2536 0.0000 36.8545 0.0000
# 6 0.0000 0.0000 0.0000 -0.2495 0.0000 28.0540
#
#
#
# Elastic Compliance Matrix: (Units=1/GPa)
#
#
# Indices 1 2 3 4 5 6 
#
# 1 0.024718 0.010797 -0.000315 0.000000 -0.009200 0.000000
# 2 0.010797 0.108719 0.011826 0.000000 -0.053849 0.000000
# 3 -0.000315 0.011826 0.012579 0.000000 -0.012377 0.000000
# 4 0.000000 0.000000 0.000000 0.043707 0.000000 0.000389
# 5 -0.009200 -0.053849 -0.012377 0.000000 0.058516 0.000000
# 6 0.000000 0.000000 0.000000 0.000389 0.000000 0.035649
#
#
# Mechanical properties :
#
#
# Convention : Reuss Voigt Hill
#
# Bulk Modulus (GPa) = 5.24573 19.78965 12.51769
# Shear Modulus (GPa) = 16.51162 28.00612 22.25887
#
# Velocity S-wave (km/s) = 2.75365 3.58625 3.19717
# Velocity P-wave (km/s) = 3.53823 5.12213 4.40200
#
# Compressibility (1/GPa) = 0.19063106
#
# Stress axis : x y z
#
# Youngs Moduli (GPa) = 40.45559 9.19800 79.49929
#
# Poissons Ratio (x) = -0.09931 0.02507
# Poissons Ratio (y) = -0.43679 -0.94014
# Poissons Ratio (z) = 0.01276 -0.10877
#
# Static dielectric constant tensor:
#      x y z
#    x 1.861320 0.000000 -0.004210 
#    y 0.000000 1.904010 0.000000 
#    z -0.004210 0.000000 1.902360 
# 
# From -- ./inp_files/30753.got.cif
#   From: 2010.05.17/outbox.cif.g08.bks.cpg/sg14_16_cif.got.tgz:30753.got - 2010.06.03 17:49:19.
