data_PCOD9240918
_publ_section_title
;
Structure prediction by ZEFSAII (Michael W. Deem and Ramdas Pophale) SiO2 
 PCOD9240918
Probable space group: P 21/C
;
_chemical_formula_sum "Si O2"
_cell_formula_units_Z 20
_cell_length_a 10.833081
_cell_length_b 4.982847
_cell_length_c 20.922962
_cell_angle_alpha 90.000000
_cell_angle_beta 114.221017
_cell_angle_gamma 90.000000
_cell_volume 1029.990248
_symmetry_space_group_name_H-M "P 21/C"
_symmetry_group_IT_number 14
_symmetry_cell_setting 'monoclinic'
loop_
_space_group_symop_operation_xyz
x,y,z
-x,1/2+y,1/2-z
-x,-y,-z
x,1/2-y,1/2+z
loop_
_atom_site_type_symbol
_atom_site_label
_atom_site_fract_x
_atom_site_fract_y
_atom_site_fract_z
Si Si1 0.177181 0.565857 0.272471
Si Si2 0.890842 0.933491 0.658863
Si Si3 0.569806 0.263272 0.934981
Si Si4 0.469115 0.485519 0.282938
Si Si5 0.680379 0.761901 0.020059
O O1 0.164905 0.269913 0.299127
O O2 0.323438 0.598088 0.273397
O O3 0.052667 0.597481 0.196910
O O4 0.151850 0.773241 0.325280
O O5 0.820018 0.843788 0.578733
O O6 0.429764 0.255456 0.945698
O O7 0.540938 0.149388 0.859191
O O8 0.625876 0.562473 0.953707
O O9 0.672625 0.062684 0.992836
O O10 0.453379 0.239291 0.230186
#
# Coordination Sequence:
#
# PCOD9240918 Si02
#       5
#     4   4   4   4   4
#     4  10  21  35  55  85 111 147 188 222 288 327
#     4  10  19  35  59  83 115 137 178 249 283 327
#     4  10  21  33  54  84 111 142 186 221 291 326
#     4  12  24  38  57  78 119 156 187 224 260 347
#     4  10  19  33  58  83 112 136 173 252 283 323
#
# _framework density 19.417660000000001
#
# number of rings (size 3 to 8) (size 9 to 14) (size 15 to 20)
#    0.000    1.600    2.000    3.600    5.600    0.000 
#    0.000    0.000    0.000    7.200    0.000    0.000 
#    0.000    0.000    0.000    0.000    0.000    0.000 
#
# Total GULP energy -111684.239444 kJ/mol
# GULP energy per Si atom -5584.211972 kJ/mol
# Density = 1.937346 g / cm^3
# Si number density = 19.417660 Si / 1000 Ang^3
#
#
#
# Elastic Constant Matrix: (Units=GPa)
#
#
# Indices 1 2 3 4 5 6 
#
# 1 27.4442 -8.7112 25.4302 0.0000 13.0815 0.0000
# 2 -8.7112 59.1017 -2.6122 0.0000 -3.0400 0.0000
# 3 25.4302 -2.6122 84.6938 0.0000 17.1820 0.0000
# 4 0.0000 0.0000 0.0000 18.9503 0.0000 2.9769
# 5 13.0815 -3.0400 17.1820 0.0000 18.3287 0.0000
# 6 0.0000 0.0000 0.0000 2.9769 0.0000 19.6615
#
#
#
# Elastic Compliance Matrix: (Units=1/GPa)
#
#
# Indices 1 2 3 4 5 6 
#
# 1 0.067388 0.007575 -0.012963 0.000000 -0.034687 0.000000
# 2 0.007575 0.017917 -0.001516 0.000000 -0.001013 0.000000
# 3 -0.012963 -0.001516 0.017074 0.000000 -0.007005 0.000000
# 4 0.000000 0.000000 0.000000 0.054055 0.000000 -0.008184
# 5 -0.034687 -0.001013 -0.007005 0.000000 0.085715 0.000000
# 6 0.000000 0.000000 0.000000 -0.008184 0.000000 0.052100
#
#
# Mechanical properties :
#
#
# Convention : Reuss Voigt Hill
#
# Bulk Modulus (GPa) = 11.29041 22.16147 16.72594
# Shear Modulus (GPa) = 14.81125 21.86364 18.33744
#
# Velocity S-wave (km/s) = 2.76483 3.35918 3.07639
# Velocity P-wave (km/s) = 4.00244 5.14619 4.60992
#
# Compressibility (1/GPa) = 0.08857078
#
# Stress axis : x y z
#
# Youngs Moduli (GPa) = 14.83945 55.81169 58.56855
#
# Poissons Ratio (x) = -0.42279 0.75924
# Poissons Ratio (y) = -0.11241 0.08881
# Poissons Ratio (z) = 0.19237 0.08463
#
# Static dielectric constant tensor:
#      x y z
#    x 1.661160 0.000000 0.019300 
#    y 0.000000 1.663360 0.000000 
#    z 0.019300 0.000000 1.703450 
# 
# From -- ./inp_files/56469.got.cif
#   From: 2010.05.17/outbox.cif.g08.bks.cpg/sg14_29_cif.got.tgz:56469.got - 2010.06.03 17:49:19.
