data_PCOD9240069
_publ_section_title
;
Structure prediction by ZEFSAII (Michael W. Deem and Ramdas Pophale) SiO2 
 PCOD9240069
Probable space group: P 21/C
;
_chemical_formula_sum "Si O2"
_cell_formula_units_Z 28
_cell_length_a 12.674652
_cell_length_b 13.664977
_cell_length_c 9.730031
_cell_angle_alpha 90.000000
_cell_angle_beta 127.787082
_cell_angle_gamma 90.000000
_cell_volume 1331.825748
_symmetry_space_group_name_H-M "P 21/C"
_symmetry_group_IT_number 14
_symmetry_cell_setting 'monoclinic'
loop_
_space_group_symop_operation_xyz
x,y,z
-x,1/2+y,1/2-z
-x,-y,-z
x,1/2-y,1/2+z
loop_
_atom_site_type_symbol
_atom_site_label
_atom_site_fract_x
_atom_site_fract_y
_atom_site_fract_z
Si Si1 0.688714 0.991343 0.552438
Si Si2 0.605069 0.309088 0.423135
Si Si3 0.436144 0.369419 0.817197
Si Si4 0.881231 0.072731 0.936354
Si Si5 0.843573 0.490614 0.909860
Si Si6 0.779300 0.265483 0.820592
Si Si7 0.298496 0.011514 0.979460
O O1 0.628168 0.900691 0.589030
O O2 0.568871 0.062562 0.409888
O O3 0.769360 0.049575 0.733488
O O4 0.788587 0.966378 0.508733
O O5 0.477379 0.242939 0.347914
O O6 0.720496 0.275592 0.621497
O O7 0.661221 0.280683 0.318855
O O8 0.590153 0.425043 0.432750
O O9 0.345828 0.401528 0.615660
O O10 0.900244 0.188893 0.936460
O O11 0.822331 0.043183 0.036645
O O12 0.000000 0.000000 0.000000
O O13 0.814172 0.374197 0.895538
O O14 0.755141 0.532953 0.713996
O O15 0.000000 0.500000 0.000000
#
# Coordination Sequence:
#
# PCOD9240069 Si02
#       7
#     4   4   4   4   4   4   4
#     4  10  20  34  58  86 111 157 189 237 303 342
#     4  10  19  36  58  85 110 150 199 244 285 346
#     4  10  19  38  61  81 122 148 195 250 285 355
#     4  10  18  34  59  83 111 151 202 246 284 349
#     4  11  21  37  58  85 121 152 191 245 298 345
#     4  10  19  35  56  85 107 150 208 236 280 356
#     4   9  22  34  59  91 113 153 204 239 301 350
#
# _framework density 21.023772000000001
#
# number of rings (size 3 to 8) (size 9 to 14) (size 15 to 20)
#    0.000    2.000    2.857    0.857    2.000    0.571 
#    0.000    0.000    9.429    0.000    0.000    0.000 
#    0.000    0.000    0.000    0.000    0.000    0.000 
#
# Total GULP energy -156332.627631 kJ/mol
# GULP energy per Si atom -5583.308130 kJ/mol
# Density = 2.097592 g / cm^3
# Si number density = 21.023772 Si / 1000 Ang^3
#
#
#
# Elastic Constant Matrix: (Units=GPa)
#
#
# Indices 1 2 3 4 5 6 
#
# 1 107.0164 22.6481 34.5184 0.0000 -19.7070 0.0000
# 2 22.6481 62.3981 13.5342 0.0000 4.9080 0.0000
# 3 34.5184 13.5342 62.7032 0.0000 -18.8006 0.0000
# 4 0.0000 0.0000 0.0000 10.5177 0.0000 5.9878
# 5 -19.7070 4.9080 -18.8006 0.0000 32.0707 0.0000
# 6 0.0000 0.0000 0.0000 5.9878 0.0000 31.3597
#
#
#
# Elastic Compliance Matrix: (Units=1/GPa)
#
#
# Indices 1 2 3 4 5 6 
#
# 1 0.012703 -0.004135 -0.004332 0.000000 0.005899 0.000000
# 2 -0.004135 0.019065 -0.004217 0.000000 -0.007931 0.000000
# 3 -0.004332 -0.004217 0.022613 0.000000 0.011240 0.000000
# 4 0.000000 0.000000 0.000000 0.106673 0.000000 -0.020368
# 5 0.005899 -0.007931 0.011240 0.000000 0.042609 0.000000
# 6 0.000000 0.000000 0.000000 -0.020368 0.000000 0.035777
#
#
# Mechanical properties :
#
#
# Convention : Reuss Voigt Hill
#
# Bulk Modulus (GPa) = 34.46557 41.50212 37.98385
# Shear Modulus (GPa) = 18.21631 25.55078 21.88355
#
# Velocity S-wave (km/s) = 2.94677 3.48994 3.22979
# Velocity P-wave (km/s) = 5.29218 6.00191 5.65818
#
# Compressibility (1/GPa) = 0.02901446
#
# Stress axis : x y z
#
# Youngs Moduli (GPa) = 78.72126 52.45102 44.22238
#
# Poissons Ratio (x) = 0.21689 0.19156
# Poissons Ratio (y) = 0.32553 0.18647
# Poissons Ratio (z) = 0.34100 0.22117
#
# Static dielectric constant tensor:
#      x y z
#    x 1.784140 0.000000 0.002320 
#    y 0.000000 1.817070 0.000000 
#    z 0.002320 0.000000 1.742110 
# 
# From -- ./inp_files/13403.got.cif
#   From: 2010.05.17/outbox.cif.g08.bks.cpg/sg14_7_cif.got.tgz:13403.got - 2010.06.03 17:49:19.
