data_PCOD9240719
_publ_section_title
;
Structure prediction by ZEFSAII (Michael W. Deem and Ramdas Pophale) SiO2 
 PCOD9240719
Probable space group: P 21/C
;
_chemical_formula_sum "Si O2"
_cell_formula_units_Z 30
_cell_length_a 13.518103
_cell_length_b 11.777364
_cell_length_c 14.764731
_cell_angle_alpha 90.000000
_cell_angle_beta 148.276817
_cell_angle_gamma 90.000000
_cell_volume 1236.013095
_symmetry_space_group_name_H-M "P 21/C"
_symmetry_group_IT_number 14
_symmetry_cell_setting 'monoclinic'
loop_
_space_group_symop_operation_xyz
x,y,z
-x,1/2+y,1/2-z
-x,-y,-z
x,1/2-y,1/2+z
loop_
_atom_site_type_symbol
_atom_site_label
_atom_site_fract_x
_atom_site_fract_y
_atom_site_fract_z
Si Si1 0.322144 0.871972 0.506323
Si Si2 0.977214 0.472232 0.670351
Si Si3 0.932448 0.118577 0.333438
Si Si4 0.500000 0.000000 0.500000
Si Si5 0.545126 0.821935 0.157686
Si Si6 0.259436 0.215414 0.354660
Si Si7 0.798621 0.686808 0.491890
Si Si8 0.282199 0.960174 0.670510
O O1 0.150428 0.940640 0.326690
O O2 0.495929 0.937944 0.595963
O O3 0.348660 0.743373 0.493781
O O4 0.305504 0.883490 0.600500
O O5 0.071804 0.363314 0.695095
O O6 0.908917 0.433496 0.715544
O O7 0.831315 0.552959 0.505683
O O8 0.016411 0.244384 0.395402
O O9 0.107533 0.043100 0.509604
O O10 0.764670 0.104053 0.273654
O O11 0.576650 0.878926 0.514083
O O12 0.683385 0.800590 0.180402
O O13 0.635058 0.749538 0.309888
O O14 0.545633 0.953686 0.180811
O O15 0.231157 0.282821 0.425678
#
# Coordination Sequence:
#
# PCOD9240719 Si02
#       8
#     4   4   4   2   4   4   4   4
#     4   9  18  32  50  72  97 130 169 204 247 299
#     4   9  17  32  51  71 101 132 162 204 248 297
#     4   8  16  30  51  71  93 131 169 197 237 295
#     4   8  14  30  50  66  88 124 166 200 230 286
#     4  10  19  32  53  75  97 131 170 207 247 291
#     4   9  18  32  52  74 100 133 169 202 246 301
#     4  10  19  32  52  78 101 128 167 207 249 293
#     4   9  16  31  50  71  97 127 167 206 239 291
#
# _framework density 24.271588000000001
#
# number of rings (size 3 to 8) (size 9 to 14) (size 15 to 20)
#    0.000    2.933    0.000    3.200    0.000    1.600 
#    0.000   10.667    0.000    2.400    0.000    0.000 
#    0.000    0.000    0.000    0.000    0.000    0.000 
#
# Total GULP energy -167028.823318 kJ/mol
# GULP energy per Si atom -5567.627444 kJ/mol
# Density = 2.421634 g / cm^3
# Si number density = 24.271588 Si / 1000 Ang^3
#
#
#
# Elastic Constant Matrix: (Units=GPa)
#
#
# Indices 1 2 3 4 5 6 
#
# 1 93.5209 28.2891 7.9688 0.0000 -12.0956 0.0000
# 2 28.2891 52.6199 11.3266 0.0000 2.3593 0.0000
# 3 7.9688 11.3266 38.5179 0.0000 9.6078 0.0000
# 4 0.0000 0.0000 0.0000 34.8066 0.0000 7.2742
# 5 -12.0956 2.3593 9.6078 0.0000 14.7237 0.0000
# 6 0.0000 0.0000 0.0000 7.2742 0.0000 15.6649
#
#
#
# Elastic Compliance Matrix: (Units=1/GPa)
#
#
# Indices 1 2 3 4 5 6 
#
# 1 0.015955 -0.008229 -0.005350 0.000000 0.017917 0.000000
# 2 -0.008229 0.024540 -0.003400 0.000000 -0.008474 0.000000
# 3 -0.005350 -0.003400 0.034673 0.000000 -0.026476 0.000000
# 4 0.000000 0.000000 0.000000 0.031818 0.000000 -0.014775
# 5 0.017917 -0.008474 -0.026476 0.000000 0.101271 0.000000
# 6 0.000000 0.000000 0.000000 -0.014775 0.000000 0.070698
#
#
# Mechanical properties :
#
#
# Convention : Reuss Voigt Hill
#
# Bulk Modulus (GPa) = 24.26660 31.09198 27.67929
# Shear Modulus (GPa) = 15.30685 22.17731 18.74208
#
# Velocity S-wave (km/s) = 2.51400 3.02605 2.78183
# Velocity P-wave (km/s) = 4.29495 5.00471 4.66335
#
# Compressibility (1/GPa) = 0.04120890
#
# Stress axis : x y z
#
# Youngs Moduli (GPa) = 62.67488 40.74927 28.84119
#
# Poissons Ratio (x) = 0.33535 0.15431
# Poissons Ratio (y) = 0.51578 0.09806
# Poissons Ratio (z) = 0.33532 0.13855
#
# Static dielectric constant tensor:
#      x y z
#    x 1.961160 0.000000 0.142440 
#    y 0.000000 1.960410 0.000000 
#    z 0.142440 0.000000 2.144990 
# 
# From -- ./inp_files/46996.got.cif
#   From: 2010.05.17/outbox.cif.g08.bks.cpg/sg14_24_cif.got.tgz:46996.got - 2010.06.03 17:49:19.
