data_PCOD9240657
_publ_section_title
;
Structure prediction by ZEFSAII (Michael W. Deem and Ramdas Pophale) SiO2 
 PCOD9240657
Probable space group: P 21/C
;
_chemical_formula_sum "Si O2"
_cell_formula_units_Z 28
_cell_length_a 11.935499
_cell_length_b 24.910386
_cell_length_c 9.101192
_cell_angle_alpha 90.000000
_cell_angle_beta 142.369215
_cell_angle_gamma 90.000000
_cell_volume 1652.172258
_symmetry_space_group_name_H-M "P 21/C"
_symmetry_group_IT_number 14
_symmetry_cell_setting 'monoclinic'
loop_
_space_group_symop_operation_xyz
x,y,z
-x,1/2+y,1/2-z
-x,-y,-z
x,1/2-y,1/2+z
loop_
_atom_site_type_symbol
_atom_site_label
_atom_site_fract_x
_atom_site_fract_y
_atom_site_fract_z
Si Si1 0.725034 0.348412 0.924856
Si Si2 0.981064 0.659366 0.522904
Si Si3 0.691013 0.435902 0.638661
Si Si4 0.296001 0.151266 0.012220
Si Si5 0.997201 0.714551 0.977932
Si Si6 0.733335 0.943018 0.248569
Si Si7 0.978873 0.378487 0.762353
O O1 0.734394 0.400230 0.828052
O O2 0.512469 0.337183 0.737654
O O3 0.847155 0.356674 0.195966
O O4 0.826694 0.301675 0.937849
O O5 0.798144 0.647898 0.427019
O O6 0.991832 0.723262 0.508227
O O7 0.988344 0.630738 0.374047
O O8 0.472104 0.439835 0.399737
O O9 0.767373 0.495684 0.739533
O O10 0.783761 0.404803 0.600431
O O11 0.179961 0.195360 0.799663
O O12 0.264232 0.095865 0.890568
O O13 0.004717 0.677764 0.131774
O O14 0.875102 0.918428 0.511001
#
# Coordination Sequence:
#
# PCOD9240657 Si02
#       7
#     4   4   4   4   4   4   4
#     4   9  19  35  53  73  98 131 168 203 245 295
#     4  11  21  33  49  76 111 132 155 207 258 293
#     4   9  18  35  56  73  94 130 173 209 241 290
#     4   9  19  35  53  73  98 131 168 203 245 295
#     4   9  19  36  52  69  97 135 172 201 233 287
#     4   9  18  35  56  73  94 130 173 209 241 290
#     4  10  19  31  52  77 100 129 166 204 246 296
#
# _framework density 16.947386999999999
#
# number of rings (size 3 to 8) (size 9 to 14) (size 15 to 20)
#    0.000    2.571    0.000    3.000    0.000    2.286 
#    0.000    8.571    0.000    5.143    0.000    0.000 
#    0.000    0.000    0.000    0.000    0.000    0.000 
#
# Total GULP energy -156165.998797 kJ/mol
# GULP energy per Si atom -5577.357100 kJ/mol
# Density = 1.690881 g / cm^3
# Si number density = 16.947387 Si / 1000 Ang^3
#
#
#
# Elastic Constant Matrix: (Units=GPa)
#
#
# Indices 1 2 3 4 5 6 
#
# 1 136.3938 31.9775 63.4773 0.0000 0.3278 0.0000
# 2 31.9775 71.4365 10.1277 0.0000 9.4584 0.0000
# 3 63.4773 10.1277 50.4121 0.0000 6.4353 0.0000
# 4 0.0000 0.0000 0.0000 9.6091 0.0000 4.0159
# 5 0.3278 9.4584 6.4353 0.0000 27.2394 0.0000
# 6 0.0000 0.0000 0.0000 4.0159 0.0000 11.1307
#
#
#
# Elastic Compliance Matrix: (Units=1/GPa)
#
#
# Indices 1 2 3 4 5 6 
#
# 1 0.021194 -0.006854 -0.026377 0.000000 0.008357 0.000000
# 2 -0.006854 0.017169 0.006116 0.000000 -0.007324 0.000000
# 3 -0.026377 0.006116 0.053670 0.000000 -0.014486 0.000000
# 4 0.000000 0.000000 0.000000 0.122546 0.000000 -0.044214
# 5 0.008357 -0.007324 -0.014486 0.000000 0.042577 0.000000
# 6 0.000000 0.000000 0.000000 -0.044214 0.000000 0.105794
#
#
# Mechanical properties :
#
#
# Convention : Reuss Voigt Hill
#
# Bulk Modulus (GPa) = 26.45235 52.15635 39.30435
# Shear Modulus (GPa) = 11.63384 19.77317 15.70350
#
# Velocity S-wave (km/s) = 2.62290 3.41946 3.04732
# Velocity P-wave (km/s) = 4.98148 6.81414 5.96857
#
# Compressibility (1/GPa) = 0.03780383
#
# Stress axis : x y z
#
# Youngs Moduli (GPa) = 47.18226 58.24357 18.63238
#
# Poissons Ratio (x) = 0.39922 0.49147
# Poissons Ratio (y) = 0.32340 -0.11396
# Poissons Ratio (z) = 1.24453 -0.35624
#
# Static dielectric constant tensor:
#      x y z
#    x 1.574840 0.000000 0.017070 
#    y 0.000000 1.557590 0.000000 
#    z 0.017070 0.000000 1.563020 
# 
# From -- ./inp_files/14354.got.cif
#   From: 2010.05.17/outbox.cif.g08.bks.cpg/sg14_8_cif.got.tgz:14354.got - 2010.06.03 17:49:19.
