data_PCOD9240786
_publ_section_title
;
Structure prediction by ZEFSAII (Michael W. Deem and Ramdas Pophale) SiO2 
 PCOD9240786
Probable space group: P 21/C
;
_chemical_formula_sum "Si O2"
_cell_formula_units_Z 28
_cell_length_a 7.598962
_cell_length_b 12.060385
_cell_length_c 15.239835
_cell_angle_alpha 90.000000
_cell_angle_beta 60.853551
_cell_angle_gamma 90.000000
_cell_volume 1219.825740
_symmetry_space_group_name_H-M "P 21/C"
_symmetry_group_IT_number 14
_symmetry_cell_setting 'monoclinic'
loop_
_space_group_symop_operation_xyz
x,y,z
-x,1/2+y,1/2-z
-x,-y,-z
x,1/2-y,1/2+z
loop_
_atom_site_type_symbol
_atom_site_label
_atom_site_fract_x
_atom_site_fract_y
_atom_site_fract_z
Si Si1 0.019182 0.344239 0.445033
Si Si2 0.402923 0.655407 0.512871
Si Si3 0.526962 0.168525 0.631912
Si Si4 0.328989 0.511493 0.276047
Si Si5 0.107497 0.737582 0.348959
Si Si6 0.123715 0.294706 0.762081
Si Si7 0.325597 0.007522 0.165291
O O1 0.788906 0.385811 0.497626
O O2 0.046784 0.304460 0.537404
O O3 0.163688 0.434288 0.365869
O O4 0.025988 0.240760 0.376759
O O5 0.434111 0.781172 0.474233
O O6 0.594080 0.584998 0.434230
O O7 0.339867 0.616894 0.624723
O O8 0.419566 0.050924 0.669320
O O9 0.731310 0.182419 0.640595
O O10 0.355348 0.252244 0.711520
O O11 0.237656 0.631876 0.286127
O O12 0.517964 0.515239 0.294792
O O13 0.978666 0.768768 0.294964
O O14 0.127205 0.426853 0.743059
#
# Coordination Sequence:
#
# PCOD9240786 Si02
#       7
#     4   4   4   4   4   4   4
#     4  10  21  34  56  94 118 147 209 250 287 378
#     4   9  18  34  54  82 117 148 192 252 289 354
#     4   9  21  38  52  93 125 146 207 250 293 369
#     4  11  20  34  62  90 120 154 197 257 301 365
#     4  11  21  39  61  84 125 165 197 249 316 348
#     4  10  21  37  55  89 127 154 200 253 302 360
#     4  10  19  32  58  85 117 154 197 248 305 356
#
# _framework density 22.954098999999999
#
# number of rings (size 3 to 8) (size 9 to 14) (size 15 to 20)
#    0.000    2.000    4.286    1.286    8.000    0.000 
#    0.000    0.000    0.000    6.857    0.000    0.000 
#    0.000    0.000    0.000    0.000    0.000    0.000 
#
# Total GULP energy -156070.283183 kJ/mol
# GULP energy per Si atom -5573.938685 kJ/mol
# Density = 2.290185 g / cm^3
# Si number density = 22.954099 Si / 1000 Ang^3
#
#
#
# Elastic Constant Matrix: (Units=GPa)
#
#
# Indices 1 2 3 4 5 6 
#
# 1 67.4476 -6.9344 18.6871 0.0000 5.9289 0.0000
# 2 -6.9344 45.6345 28.5421 0.0000 -2.7866 0.0000
# 3 18.6871 28.5421 59.1383 0.0000 1.3879 0.0000
# 4 0.0000 0.0000 0.0000 44.8941 0.0000 -6.3130
# 5 5.9289 -2.7866 1.3879 0.0000 27.4014 0.0000
# 6 0.0000 0.0000 0.0000 -6.3130 0.0000 13.9269
#
#
#
# Elastic Compliance Matrix: (Units=1/GPa)
#
#
# Indices 1 2 3 4 5 6 
#
# 1 0.018857 0.009158 -0.010317 0.000000 -0.002626 0.000000
# 2 0.009158 0.036272 -0.020464 0.000000 0.002744 0.000000
# 3 -0.010317 -0.020464 0.030078 0.000000 -0.001372 0.000000
# 4 0.000000 0.000000 0.000000 0.023791 0.000000 0.010784
# 5 -0.002626 0.002744 -0.001372 0.000000 0.037411 0.000000
# 6 0.000000 0.000000 0.000000 0.010784 0.000000 0.076692
#
#
# Mechanical properties :
#
#
# Convention : Reuss Voigt Hill
#
# Bulk Modulus (GPa) = 23.83178 28.09002 25.96090
# Shear Modulus (GPa) = 17.83584 26.03952 21.93768
#
# Velocity S-wave (km/s) = 2.79054 3.37176 3.09483
# Velocity P-wave (km/s) = 4.55935 5.23664 4.90969
#
# Compressibility (1/GPa) = 0.04196077
#
# Stress axis : x y z
#
# Youngs Moduli (GPa) = 53.03043 27.56981 33.24653
#
# Poissons Ratio (x) = -0.25248 0.34300
# Poissons Ratio (y) = -0.48564 0.68036
# Poissons Ratio (z) = 0.54711 0.56419
#
# Static dielectric constant tensor:
#      x y z
#    x 1.900560 0.000000 -0.004180 
#    y 0.000000 1.969370 0.000000 
#    z -0.004180 0.000000 1.915420 
# 
# From -- ./inp_files/40858.got.cif
#   From: 2010.05.17/outbox.cif.g08.bks.cpg/sg14_21_cif.got.tgz:40858.got - 2010.06.03 17:49:19.
