data_PCOD9240271
_publ_section_title
;
Structure prediction by ZEFSAII (Michael W. Deem and Ramdas Pophale) SiO2 
 PCOD9240271
Probable space group: P 21/C
;
_chemical_formula_sum "Si O2"
_cell_formula_units_Z 26
_cell_length_a 7.599677
_cell_length_b 6.945342
_cell_length_c 23.674081
_cell_angle_alpha 90.000000
_cell_angle_beta 47.803357
_cell_angle_gamma 90.000000
_cell_volume 925.739168
_symmetry_space_group_name_H-M "P 21/C"
_symmetry_group_IT_number 14
_symmetry_cell_setting 'monoclinic'
loop_
_space_group_symop_operation_xyz
x,y,z
-x,1/2+y,1/2-z
-x,-y,-z
x,1/2-y,1/2+z
loop_
_atom_site_type_symbol
_atom_site_label
_atom_site_fract_x
_atom_site_fract_y
_atom_site_fract_z
Si Si1 0.366877 0.540853 0.970455
Si Si2 0.772838 0.969235 0.777043
Si Si3 0.000000 0.500000 0.500000
Si Si4 0.742735 0.540646 0.665599
Si Si5 0.477746 0.989280 0.938055
Si Si6 0.398137 0.053005 0.689426
Si Si7 0.115648 0.491944 0.863890
O O1 0.376899 0.768908 0.951765
O O2 0.096235 0.494336 0.045203
O O3 0.500000 0.500000 0.000000
O O4 0.519206 0.454549 0.885957
O O5 0.765414 0.738243 0.785932
O O6 0.947775 0.030427 0.688485
O O7 0.520093 0.014950 0.802141
O O8 0.721588 0.034368 0.852417
O O9 0.068085 0.536418 0.418847
O O10 0.261197 0.399720 0.455724
O O11 0.736409 0.450209 0.730021
O O12 0.802628 0.768050 0.656192
O O13 0.500000 0.000000 0.000000
O O14 0.654960 0.104095 0.661885
#
# Coordination Sequence:
#
# PCOD9240271 Si02
#       7
#     4   4   2   4   4   4   4
#     4  11  23  39  51  82 125 157 191 241 295 362
#     4   8  18  35  58  86 117 139 195 255 289 350
#     4  10  18  36  64  88 108 148 200 242 300 342
#     4   9  17  33  61  84 113 143 196 248 288 348
#     4  10  21  40  59  86 115 152 199 254 292 345
#     4   9  19  36  58  82 115 150 189 243 299 353
#     4  10  18  36  59  84 110 159 190 235 303 357
#
# _framework density 28.085663
#
# number of rings (size 3 to 8) (size 9 to 14) (size 15 to 20)
#    0.000    2.462    1.538    0.462    0.000    2.462 
#   11.077    0.000    0.000    0.000    0.000    0.000 
#    0.000    0.000    0.000    0.000    0.000    0.000 
#
# Total GULP energy -144757.431554 kJ/mol
# GULP energy per Si atom -5567.593521 kJ/mol
# Density = 2.802174 g / cm^3
# Si number density = 28.085663 Si / 1000 Ang^3
#
#
#
# Elastic Constant Matrix: (Units=GPa)
#
#
# Indices 1 2 3 4 5 6 
#
# 1 89.7677 -3.4951 49.1646 0.0000 3.3441 0.0000
# 2 -3.4951 102.6015 9.1490 0.0000 -1.7292 0.0000
# 3 49.1646 9.1490 319.8775 0.0000 47.1503 0.0000
# 4 0.0000 0.0000 0.0000 22.2583 0.0000 7.8786
# 5 3.3441 -1.7292 47.1503 0.0000 55.2158 0.0000
# 6 0.0000 0.0000 0.0000 7.8786 0.0000 13.7424
#
#
#
# Elastic Compliance Matrix: (Units=1/GPa)
#
#
# Indices 1 2 3 4 5 6 
#
# 1 0.012250 0.000618 -0.002052 0.000000 0.001030 0.000000
# 2 0.000618 0.009821 -0.000476 0.000000 0.000676 0.000000
# 3 -0.002052 -0.000476 0.003934 0.000000 -0.003250 0.000000
# 4 0.000000 0.000000 0.000000 0.056365 0.000000 -0.032315
# 5 0.001030 0.000676 -0.003250 0.000000 0.020845 0.000000
# 6 0.000000 0.000000 0.000000 -0.032315 0.000000 0.091294
#
#
# Mechanical properties :
#
#
# Convention : Reuss Voigt Hill
#
# Bulk Modulus (GPa) = 45.07565 69.09822 57.08693
# Shear Modulus (GPa) = 24.30438 48.73851 36.52145
#
# Velocity S-wave (km/s) = 2.94490 4.17027 3.60996
# Velocity P-wave (km/s) = 5.25808 6.91696 6.14377
#
# Compressibility (1/GPa) = 0.02218493
#
# Stress axis : x y z
#
# Youngs Moduli (GPa) = 81.63595 101.81968 254.17483
#
# Poissons Ratio (x) = -0.06289 0.52162
# Poissons Ratio (y) = -0.05042 0.12086
# Poissons Ratio (z) = 0.16753 0.04842
#
# Static dielectric constant tensor:
#      x y z
#    x 2.230970 0.000000 -0.062460 
#    y 0.000000 4.686750 0.000000 
#    z -0.062460 0.000000 2.529370 
# 
# From -- ./inp_files/64982.got.cif
#   From: 2010.05.17/outbox.cif.g08.bks.cpg/sg14_33_cif.got.tgz:64982.got - 2010.06.03 17:49:19.
