data_PCOD9240704
_publ_section_title
;
Structure prediction by ZEFSAII (Michael W. Deem and Ramdas Pophale) SiO2 
 PCOD9240704
Probable space group: P 21/C
;
_chemical_formula_sum "Si O2"
_cell_formula_units_Z 28
_cell_length_a 21.775482
_cell_length_b 10.496992
_cell_length_c 8.226646
_cell_angle_alpha 90.000000
_cell_angle_beta 123.475879
_cell_angle_gamma 90.000000
_cell_volume 1568.494508
_symmetry_space_group_name_H-M "P 21/C"
_symmetry_group_IT_number 14
_symmetry_cell_setting 'monoclinic'
loop_
_space_group_symop_operation_xyz
x,y,z
-x,1/2+y,1/2-z
-x,-y,-z
x,1/2-y,1/2+z
loop_
_atom_site_type_symbol
_atom_site_label
_atom_site_fract_x
_atom_site_fract_y
_atom_site_fract_z
Si Si1 0.942905 0.692507 0.476287
Si Si2 0.436128 0.594092 0.346126
Si Si3 0.136874 0.420825 0.948585
Si Si4 0.497846 0.175048 0.371196
Si Si5 0.689838 0.588427 0.841656
Si Si6 0.613019 0.679615 0.036017
Si Si7 0.974707 0.106207 0.591332
O O1 0.892244 0.806552 0.475923
O O2 0.898364 0.612344 0.278492
O O3 0.973688 0.613903 0.673695
O O4 0.010967 0.760785 0.480483
O O5 0.500000 0.500000 0.500000
O O6 0.450113 0.598800 0.173784
O O7 0.452610 0.729291 0.451115
O O8 0.358199 0.534359 0.277235
O O9 0.103889 0.554628 0.964015
O O10 0.224330 0.421757 0.065683
O O11 0.437743 0.110490 0.402330
O O12 0.446096 0.257781 0.173871
O O13 0.655853 0.707707 0.692834
O O14 0.670685 0.609534 0.004208
O O15 0.000000 0.000000 0.500000
#
# Coordination Sequence:
#
# PCOD9240704 Si02
#       7
#     4   4   4   4   4   4   4
#     4   9  18  34  56  78 108 139 173 223 251 305
#     4  11  19  35  53  72 100 137 176 220 259 308
#     4  10  19  32  51  81 110 136 172 218 269 315
#     4   9  18  33  50  73  94 127 183 217 245 312
#     4  11  20  32  51  77 110 133 166 224 276 298
#     4   9  17  31  50  75  96 128 176 216 259 310
#     4   9  18  33  56  81 102 141 178 203 259 322
#
# _framework density 17.851514000000002
#
# number of rings (size 3 to 8) (size 9 to 14) (size 15 to 20)
#    0.000    2.286    4.286    1.286    0.000    0.571 
#    0.000    1.429    0.000    0.000    0.000    0.000 
#    0.000    0.000    0.000    0.000    0.000    0.000 
#
# Total GULP energy -155931.123872 kJ/mol
# GULP energy per Si atom -5568.968710 kJ/mol
# Density = 1.781088 g / cm^3
# Si number density = 17.851514 Si / 1000 Ang^3
#
#
#
# Elastic Constant Matrix: (Units=GPa)
#
#
# Indices 1 2 3 4 5 6 
#
# 1 130.1316 40.9498 53.4315 0.0000 14.6077 0.0000
# 2 40.9498 41.3158 33.1398 0.0000 7.3934 0.0000
# 3 53.4315 33.1398 77.0014 0.0000 -5.6186 0.0000
# 4 0.0000 0.0000 0.0000 29.4926 0.0000 -3.5345
# 5 14.6077 7.3934 -5.6186 0.0000 35.8432 0.0000
# 6 0.0000 0.0000 0.0000 -3.5345 0.0000 21.7471
#
#
#
# Elastic Compliance Matrix: (Units=1/GPa)
#
#
# Indices 1 2 3 4 5 6 
#
# 1 0.013050 -0.006880 -0.006453 0.000000 -0.004911 0.000000
# 2 -0.006880 0.044718 -0.015113 0.000000 -0.008789 0.000000
# 3 -0.006453 -0.015113 0.024670 0.000000 0.009615 0.000000
# 4 0.000000 0.000000 0.000000 0.034580 0.000000 0.005620
# 5 -0.004911 -0.008789 0.009615 0.000000 0.033221 0.000000
# 6 0.000000 0.000000 0.000000 0.005620 0.000000 0.046897
#
#
# Mechanical properties :
#
#
# Convention : Reuss Voigt Hill
#
# Bulk Modulus (GPa) = 39.14391 55.94343 47.54367
# Shear Modulus (GPa) = 19.04444 25.47843 22.26143
#
# Velocity S-wave (km/s) = 3.26977 3.78198 3.53517
# Velocity P-wave (km/s) = 6.01916 7.10475 6.58437
#
# Compressibility (1/GPa) = 0.02554676
#
# Stress axis : x y z
#
# Youngs Moduli (GPa) = 76.62615 22.36249 40.53428
#
# Poissons Ratio (x) = 0.15385 0.26157
# Poissons Ratio (y) = 0.52718 0.61259
# Poissons Ratio (z) = 0.49448 0.33796
#
# Static dielectric constant tensor:
#      x y z
#    x 1.635920 0.000000 -0.042140 
#    y 0.000000 1.655590 0.000000 
#    z -0.042140 0.000000 1.600260 
# 
# From -- ./inp_files/18881.got.cif
#   From: 2010.05.17/outbox.cif.g08.bks.cpg/sg14_10_cif.got.tgz:18881.got - 2010.06.03 17:49:19.
