data_PCOD9240968
_publ_section_title
;
Structure prediction by ZEFSAII (Michael W. Deem and Ramdas Pophale) SiO2 
 PCOD9240968
Probable space group: P 21/C
;
_chemical_formula_sum "Si O2"
_cell_formula_units_Z 28
_cell_length_a 11.542704
_cell_length_b 13.271896
_cell_length_c 9.658362
_cell_angle_alpha 90.000000
_cell_angle_beta 139.113475
_cell_angle_gamma 90.000000
_cell_volume 968.490759
_symmetry_space_group_name_H-M "P 21/C"
_symmetry_group_IT_number 14
_symmetry_cell_setting 'monoclinic'
loop_
_space_group_symop_operation_xyz
x,y,z
-x,1/2+y,1/2-z
-x,-y,-z
x,1/2-y,1/2+z
loop_
_atom_site_type_symbol
_atom_site_label
_atom_site_fract_x
_atom_site_fract_y
_atom_site_fract_z
Si Si1 0.583810 0.099547 0.818130
Si Si2 0.430464 0.264404 0.846004
Si Si3 0.917741 0.686395 0.059157
Si Si4 0.106519 0.586837 0.894720
Si Si5 0.207346 0.988770 0.769491
Si Si6 0.199453 0.717696 0.651170
Si Si7 0.256052 0.073930 0.350664
O O1 0.512913 0.213316 0.784246
O O2 0.618920 0.042147 0.991785
O O3 0.766604 0.115419 0.902440
O O4 0.441881 0.050117 0.593275
O O5 0.610076 0.264711 0.100181
O O6 0.328363 0.370398 0.777466
O O7 0.258277 0.190766 0.696405
O O8 0.843667 0.660950 0.145687
O O9 0.068870 0.603975 0.168518
O O10 0.038285 0.780698 0.116065
O O11 0.211023 0.517054 0.106857
O O12 0.161156 0.696819 0.999871
O O13 0.151242 0.528310 0.793029
O O14 0.899575 0.573932 0.744088
#
# Coordination Sequence:
#
# PCOD9240968 Si02
#       7
#     4   4   4   4   4   4   4
#     4  10  19  34  53  79 104 138 174 209 251 312
#     4  10  19  34  50  76 106 134 177 207 250 313
#     4   9  18  31  51  76  98 135 169 208 258 292
#     4   9  17  33  48  76 107 127 171 214 261 297
#     4   9  17  32  52  76 105 132 171 214 262 293
#     4  10  20  34  53  76 105 135 172 213 256 303
#     4   9  20  32  51  78 104 136 171 212 261 302
#
# _framework density 28.910962999999999
#
# number of rings (size 3 to 8) (size 9 to 14) (size 15 to 20)
#    0.000    2.571    2.857    0.857    4.000    0.571 
#    7.714    0.714    0.000    0.000    0.000    3.000 
#    0.000    0.000    0.000    0.000    0.000    0.000 
#
# Total GULP energy -155914.718379 kJ/mol
# GULP energy per Si atom -5568.382799 kJ/mol
# Density = 2.884516 g / cm^3
# Si number density = 28.910963 Si / 1000 Ang^3
#
#
#
# Elastic Constant Matrix: (Units=GPa)
#
#
# Indices 1 2 3 4 5 6 
#
# 1 153.2127 36.8217 15.1559 0.0000 8.1821 0.0000
# 2 36.8217 82.9323 4.3920 0.0000 20.0914 0.0000
# 3 15.1559 4.3920 111.4361 0.0000 26.4173 0.0000
# 4 0.0000 0.0000 0.0000 32.4408 0.0000 10.8082
# 5 8.1821 20.0914 26.4173 0.0000 40.1004 0.0000
# 6 0.0000 0.0000 0.0000 10.8082 0.0000 59.6480
#
#
#
# Elastic Compliance Matrix: (Units=1/GPa)
#
#
# Indices 1 2 3 4 5 6 
#
# 1 0.007417 -0.003464 -0.001096 0.000000 0.000944 0.000000
# 2 -0.003464 0.015500 0.001818 0.000000 -0.008257 0.000000
# 3 -0.001096 0.001818 0.010919 0.000000 -0.007880 0.000000
# 4 0.000000 0.000000 0.000000 0.032806 0.000000 -0.005944
# 5 0.000944 -0.008257 -0.007880 0.000000 0.034073 0.000000
# 6 0.000000 0.000000 0.000000 -0.005944 0.000000 0.017842
#
#
# Mechanical properties :
#
#
# Convention : Reuss Voigt Hill
#
# Bulk Modulus (GPa) = 35.27140 51.14671 43.20905
# Shear Modulus (GPa) = 37.45504 45.85194 41.65349
#
# Velocity S-wave (km/s) = 3.60325 3.98675 3.79984
# Velocity P-wave (km/s) = 5.43486 6.23873 5.85062
#
# Compressibility (1/GPa) = 0.02835158
#
# Stress axis : x y z
#
# Youngs Moduli (GPa) = 134.81838 64.51602 91.58060
#
# Poissons Ratio (x) = 0.22348 0.10038
# Poissons Ratio (y) = 0.46701 -0.16645
# Poissons Ratio (z) = 0.14778 -0.11726
#
# Static dielectric constant tensor:
#      x y z
#    x 2.338040 0.000000 -0.046550 
#    y 0.000000 2.542700 0.000000 
#    z -0.046550 0.000000 2.300320 
# 
# From -- ./inp_files/30334.got.cif
#   From: 2010.05.17/outbox.cif.g08.bks.cpg/sg14_16_cif.got.tgz:30334.got - 2010.06.03 17:49:19.
