data_PCOD9240064
_publ_section_title
;
Structure prediction by ZEFSAII (Michael W. Deem and Ramdas Pophale) SiO2 
 PCOD9240064
Probable space group: P 21/C
;
_chemical_formula_sum "Si O2"
_cell_formula_units_Z 32
_cell_length_a 12.478508
_cell_length_b 15.299108
_cell_length_c 11.390105
_cell_angle_alpha 90.000000
_cell_angle_beta 48.999393
_cell_angle_gamma 90.000000
_cell_volume 1641.089864
_symmetry_space_group_name_H-M "P 21/C"
_symmetry_group_IT_number 14
_symmetry_cell_setting 'monoclinic'
loop_
_space_group_symop_operation_xyz
x,y,z
-x,1/2+y,1/2-z
-x,-y,-z
x,1/2-y,1/2+z
loop_
_atom_site_type_symbol
_atom_site_label
_atom_site_fract_x
_atom_site_fract_y
_atom_site_fract_z
Si Si1 0.898731 0.672636 0.630176
Si Si2 0.381657 0.632322 0.111378
Si Si3 0.195818 0.878790 0.977821
Si Si4 0.356050 0.340406 0.916747
Si Si5 0.212086 0.480792 0.124343
Si Si6 0.082473 0.433050 0.618535
Si Si7 0.725018 0.683543 0.372620
Si Si8 0.443936 0.812339 0.947311
O O1 0.817766 0.593233 0.754926
O O2 0.928058 0.638633 0.477668
O O3 0.806456 0.760495 0.712820
O O4 0.052106 0.678490 0.584017
O O5 0.275201 0.641348 0.298524
O O6 0.536126 0.627733 0.058617
O O7 0.333661 0.548205 0.074007
O O8 0.388108 0.717615 0.025563
O O9 0.304882 0.864996 0.006802
O O10 0.146870 0.979290 0.014683
O O11 0.455315 0.314692 0.738664
O O12 0.251388 0.423011 0.981818
O O13 0.280589 0.254512 0.018705
O O14 0.069586 0.538330 0.221773
O O15 0.183912 0.396720 0.647007
O O16 0.561416 0.659933 0.460045
#
# Coordination Sequence:
#
# PCOD9240064 Si02
#       8
#     4   4   4   4   4   4   4   4
#     4  10  19  35  60  88 117 147 194 249 295 332
#     4  10  18  35  61  86 111 145 194 242 289 337
#     4  10  20  36  61  89 114 147 193 251 288 336
#     4   9  20  37  54  82 117 151 191 240 290 346
#     4  10  18  34  58  89 109 144 197 246 289 337
#     4  11  20  36  61  87 117 151 199 241 289 346
#     4  10  22  36  58  81 121 163 185 231 302 357
#     4  10  22  38  54  84 123 152 194 237 293 354
#
# _framework density 19.499237000000001
#
# number of rings (size 3 to 8) (size 9 to 14) (size 15 to 20)
#    0.000    2.000    2.500    1.875    1.750    0.500 
#    4.500    0.625    2.750    0.000    0.000    0.000 
#    0.000    0.000    0.000    0.000    0.000    0.000 
#
# Total GULP energy -178303.442224 kJ/mol
# GULP energy per Si atom -5571.982569 kJ/mol
# Density = 1.945486 g / cm^3
# Si number density = 19.499237 Si / 1000 Ang^3
#
#
#
# Elastic Constant Matrix: (Units=GPa)
#
#
# Indices 1 2 3 4 5 6 
#
# 1 85.0766 28.7152 8.9344 0.0000 -17.3979 0.0000
# 2 28.7152 41.2373 31.0875 0.0000 -5.3169 0.0000
# 3 8.9344 31.0875 59.3711 0.0000 -13.0627 0.0000
# 4 0.0000 0.0000 0.0000 34.7927 0.0000 -5.4025
# 5 -17.3979 -5.3169 -13.0627 0.0000 23.3772 0.0000
# 6 0.0000 0.0000 0.0000 -5.4025 0.0000 32.7925
#
#
#
# Elastic Compliance Matrix: (Units=1/GPa)
#
#
# Indices 1 2 3 4 5 6 
#
# 1 0.021463 -0.021754 0.012071 0.000000 0.017770 0.000000
# 2 -0.021754 0.062296 -0.033966 0.000000 -0.021001 0.000000
# 3 0.012071 -0.033966 0.037727 0.000000 0.022339 0.000000
# 4 0.000000 0.000000 0.000000 0.029496 0.000000 0.004859
# 5 0.017770 -0.021001 0.022339 0.000000 0.063708 0.000000
# 6 0.000000 0.000000 0.000000 0.004859 0.000000 0.031295
#
#
# Mechanical properties :
#
#
# Convention : Reuss Voigt Hill
#
# Bulk Modulus (GPa) = 29.25069 35.90659 32.57864
# Shear Modulus (GPa) = 14.50618 25.98899 20.24758
#
# Velocity S-wave (km/s) = 2.73048 3.65474 3.22588
# Velocity P-wave (km/s) = 4.99742 6.02195 5.53345
#
# Compressibility (1/GPa) = 0.03418723
#
# Stress axis : x y z
#
# Youngs Moduli (GPa) = 46.59204 16.05228 26.50625
#
# Poissons Ratio (x) = 0.34920 -0.31995
# Poissons Ratio (y) = 1.01356 0.90032
# Poissons Ratio (z) = -0.56240 0.54524
#
# Static dielectric constant tensor:
#      x y z
#    x 1.742850 0.000000 0.002670 
#    y 0.000000 1.672570 0.000000 
#    z 0.002670 0.000000 1.709580 
# 
# From -- ./inp_files/30007.got.cif
#   From: 2010.05.17/outbox.cif.g08.bks.cpg/sg14_16_cif.got.tgz:30007.got - 2010.06.03 17:49:19.
