data_PCOD9240414
_publ_section_title
;
Structure prediction by ZEFSAII (Michael W. Deem and Ramdas Pophale) SiO2 
 PCOD9240414
Probable space group: P 21/C
;
_chemical_formula_sum "Si O2"
_cell_formula_units_Z 32
_cell_length_a 24.160548
_cell_length_b 12.218844
_cell_length_c 12.261658
_cell_angle_alpha 90.000000
_cell_angle_beta 29.572544
_cell_angle_gamma 90.000000
_cell_volume 1786.468606
_symmetry_space_group_name_H-M "P 21/C"
_symmetry_group_IT_number 14
_symmetry_cell_setting 'monoclinic'
loop_
_space_group_symop_operation_xyz
x,y,z
-x,1/2+y,1/2-z
-x,-y,-z
x,1/2-y,1/2+z
loop_
_atom_site_type_symbol
_atom_site_label
_atom_site_fract_x
_atom_site_fract_y
_atom_site_fract_z
Si Si1 0.801211 0.084199 0.546877
Si Si2 0.911116 0.096399 0.135129
Si Si3 0.971709 0.341959 0.087521
Si Si4 0.434452 0.837618 0.570586
Si Si5 0.568117 0.476885 0.710802
Si Si6 0.829037 0.519311 0.206824
Si Si7 0.462920 0.590823 0.476115
Si Si8 0.170941 0.669904 0.456550
O O1 0.821805 0.075872 0.383910
O O2 0.670631 0.090442 0.790793
O O3 0.849719 0.199068 0.508189
O O4 0.841087 0.985862 0.555078
O O5 0.962485 0.215006 0.075118
O O6 0.858509 0.109904 0.105531
O O7 0.000000 0.000000 0.000000
O O8 0.897768 0.414628 0.132631
O O9 0.910864 0.368493 0.306791
O O10 0.100372 0.379685 0.868547
O O11 0.502942 0.922664 0.378464
O O12 0.488348 0.716979 0.463353
O O13 0.302888 0.841332 0.760528
O O14 0.436467 0.879107 0.692396
O O15 0.699093 0.508790 0.464602
O O16 0.511601 0.441818 0.692891
O O17 0.500000 0.500000 0.500000
#
# Coordination Sequence:
#
# PCOD9240414 Si02
#       8
#     4   4   4   4   4   4   4   4
#     4   9  20  35  58  82 112 150 193 233 279 346
#     4  11  22  36  55  87 119 148 188 239 290 340
#     4  10  20  34  60  82 108 151 193 231 288 333
#     4  10  22  39  64  88 117 157 201 248 292 359
#     4  10  22  40  61  90 119 154 201 244 299 355
#     4  10  18  38  59  81 112 147 194 237 280 349
#     4  10  23  37  63  89 118 157 197 246 300 347
#     4  10  19  35  60  85 112 148 196 235 282 339
#
# _framework density 17.912434999999999
#
# number of rings (size 3 to 8) (size 9 to 14) (size 15 to 20)
#    0.000    2.000    2.500    0.750    3.500    0.000 
#    2.250    0.000    2.750    0.000    0.000    0.000 
#    0.000    0.000    0.000    0.000    0.000    0.000 
#
# Total GULP energy -178189.033831 kJ/mol
# GULP energy per Si atom -5568.407307 kJ/mol
# Density = 1.787167 g / cm^3
# Si number density = 17.912435 Si / 1000 Ang^3
#
#
#
# Elastic Constant Matrix: (Units=GPa)
#
#
# Indices 1 2 3 4 5 6 
#
# 1 111.4526 40.9467 31.0973 0.0000 34.9638 0.0000
# 2 40.9467 84.8233 21.3435 0.0000 9.0797 0.0000
# 3 31.0973 21.3435 46.9134 0.0000 11.3757 0.0000
# 4 0.0000 0.0000 0.0000 20.6348 0.0000 -3.6931
# 5 34.9638 9.0797 11.3757 0.0000 29.9318 0.0000
# 6 0.0000 0.0000 0.0000 -3.6931 0.0000 20.6483
#
#
#
# Elastic Compliance Matrix: (Units=1/GPa)
#
#
# Indices 1 2 3 4 5 6 
#
# 1 0.017808 -0.005460 -0.005153 0.000000 -0.017187 0.000000
# 2 -0.005460 0.015088 -0.004055 0.000000 0.003343 0.000000
# 3 -0.005153 -0.004055 0.027338 0.000000 -0.003141 0.000000
# 4 0.000000 0.000000 0.000000 0.050064 0.000000 0.008954
# 5 -0.017187 0.003343 -0.003141 0.000000 0.053666 0.000000
# 6 0.000000 0.000000 0.000000 0.008954 0.000000 0.050032
#
#
# Mechanical properties :
#
#
# Convention : Reuss Voigt Hill
#
# Bulk Modulus (GPa) = 32.36527 47.77383 40.06955
# Shear Modulus (GPa) = 19.71374 24.22977 21.97176
#
# Velocity S-wave (km/s) = 3.32107 3.68187 3.50611
# Velocity P-wave (km/s) = 5.72834 6.69354 6.22966
#
# Compressibility (1/GPa) = 0.03089731
#
# Stress axis : x y z
#
# Youngs Moduli (GPa) = 56.15497 66.27959 36.57921
#
# Poissons Ratio (x) = 0.36190 0.18848
# Poissons Ratio (y) = 0.30661 0.14834
# Poissons Ratio (z) = 0.28934 0.26879
#
# Static dielectric constant tensor:
#      x y z
#    x 1.626740 0.000000 0.007730 
#    y 0.000000 1.610500 0.000000 
#    z 0.007730 0.000000 1.586080 
# 
# From -- ./inp_files/29395.got.cif
#   From: 2010.05.17/outbox.cif.g08.bks.cpg/sg14_15_cif.got.tgz:29395.got - 2010.06.03 17:49:19.
