data_PCOD9240453
_publ_section_title
;
Structure prediction by ZEFSAII (Michael W. Deem and Ramdas Pophale) SiO2 
 PCOD9240453
Probable space group: P 21/C
;
_chemical_formula_sum "Si O2"
_cell_formula_units_Z 32
_cell_length_a 17.905763
_cell_length_b 11.229068
_cell_length_c 12.798431
_cell_angle_alpha 90.000000
_cell_angle_beta 38.597963
_cell_angle_gamma 90.000000
_cell_volume 1605.368420
_symmetry_space_group_name_H-M "P 21/C"
_symmetry_group_IT_number 14
_symmetry_cell_setting 'monoclinic'
loop_
_space_group_symop_operation_xyz
x,y,z
-x,1/2+y,1/2-z
-x,-y,-z
x,1/2-y,1/2+z
loop_
_atom_site_type_symbol
_atom_site_label
_atom_site_fract_x
_atom_site_fract_y
_atom_site_fract_z
Si Si1 0.580233 0.171527 0.893383
Si Si2 0.821469 0.425648 0.479083
Si Si3 0.546881 0.068983 0.345170
Si Si4 0.036159 0.539668 0.346231
Si Si5 0.832914 0.574349 0.961649
Si Si6 0.854404 0.175268 0.554481
Si Si7 0.558999 0.940304 0.770375
Si Si8 0.053508 0.814018 0.334095
O O1 0.536078 0.292759 0.888996
O O2 0.722934 0.180257 0.749760
O O3 0.555393 0.065061 0.838083
O O4 0.522180 0.145325 0.069248
O O5 0.687816 0.452126 0.663498
O O6 0.864949 0.301060 0.484702
O O7 0.845076 0.394822 0.332289
O O8 0.915915 0.525683 0.408946
O O9 0.479844 0.045976 0.307959
O O10 0.500000 0.000000 0.500000
O O11 0.131109 0.445411 0.197542
O O12 0.082395 0.674178 0.294398
O O13 0.000000 0.500000 0.500000
O O14 0.928425 0.657556 0.914353
O O15 0.853479 0.440805 0.984007
O O16 0.695420 0.605687 0.125488
O O17 0.951525 0.159393 0.538066
#
# Coordination Sequence:
#
# PCOD9240453 Si02
#       8
#     4   4   4   4   4   4   4   4
#     4   9  22  41  66  90 121 172 206 257 319 371
#     4  10  22  39  57  92 119 156 206 251 299 367
#     4  11  25  39  67  95 124 166 218 260 310 378
#     4  11  22  37  60  87 122 156 199 250 308 357
#     4  10  23  38  59  89 121 159 198 251 308 366
#     4  10  18  38  64  85 117 156 209 243 297 371
#     4  10  22  44  63  90 131 162 209 262 317 372
#     4  11  21  37  62  88 121 161 198 253 307 365
#
# _framework density 19.933119000000001
#
# number of rings (size 3 to 8) (size 9 to 14) (size 15 to 20)
#    0.000    1.750    2.500    1.125    3.500    1.000 
#    0.000    0.000    0.000    0.000    0.000    0.000 
#    0.000    0.000    0.000    0.000    0.000    0.000 
#
# Total GULP energy -178513.642665 kJ/mol
# GULP energy per Si atom -5578.551333 kJ/mol
# Density = 1.988775 g / cm^3
# Si number density = 19.933119 Si / 1000 Ang^3
#
#
#
# Elastic Constant Matrix: (Units=GPa)
#
#
# Indices 1 2 3 4 5 6 
#
# 1 64.8311 4.2699 25.2679 0.0000 19.9038 0.0000
# 2 4.2699 27.0805 0.3911 0.0000 -2.3851 0.0000
# 3 25.2679 0.3911 97.6091 0.0000 0.7467 0.0000
# 4 0.0000 0.0000 0.0000 27.3439 0.0000 -1.1010
# 5 19.9038 -2.3851 0.7467 0.0000 31.3375 0.0000
# 6 0.0000 0.0000 0.0000 -1.1010 0.0000 19.4826
#
#
#
# Elastic Compliance Matrix: (Units=1/GPa)
#
#
# Indices 1 2 3 4 5 6 
#
# 1 0.022374 -0.004717 -0.005663 0.000000 -0.014435 0.000000
# 2 -0.004717 0.038174 0.001023 0.000000 0.005877 0.000000
# 3 -0.005663 0.001023 0.011681 0.000000 0.003396 0.000000
# 4 0.000000 0.000000 0.000000 0.036655 0.000000 0.002071
# 5 -0.014435 0.005877 0.003396 0.000000 0.041445 0.000000
# 6 0.000000 0.000000 0.000000 0.002071 0.000000 0.051445
#
#
# Mechanical properties :
#
#
# Convention : Reuss Voigt Hill
#
# Bulk Modulus (GPa) = 18.68634 27.70872 23.19753
# Shear Modulus (GPa) = 20.97980 26.27226 23.62603
#
# Velocity S-wave (km/s) = 3.24776 3.63439 3.44650
# Velocity P-wave (km/s) = 4.84343 5.61630 5.24412
#
# Compressibility (1/GPa) = 0.05351501
#
# Stress axis : x y z
#
# Youngs Moduli (GPa) = 44.69480 26.19609 85.61108
#
# Poissons Ratio (x) = 0.12358 0.48478
# Poissons Ratio (y) = 0.21084 -0.08760
# Poissons Ratio (z) = 0.25309 -0.02680
#
# Static dielectric constant tensor:
#      x y z
#    x 1.728460 0.000000 0.022910 
#    y 0.000000 1.680340 0.000000 
#    z 0.022910 0.000000 1.724940 
# 
# From -- ./inp_files/33912.got.cif
#   From: 2010.05.17/outbox.cif.g08.bks.cpg/sg14_17_cif.got.tgz:33912.got - 2010.06.03 17:49:19.
