data_PCOD9240696
_publ_section_title
;
Structure prediction by ZEFSAII (Michael W. Deem and Ramdas Pophale) SiO2 
 PCOD9240696
Probable space group: P 21/C
;
_chemical_formula_sum "Si O2"
_cell_formula_units_Z 28
_cell_length_a 15.699195
_cell_length_b 19.132428
_cell_length_c 5.695373
_cell_angle_alpha 90.000000
_cell_angle_beta 118.527398
_cell_angle_gamma 90.000000
_cell_volume 1502.987356
_symmetry_space_group_name_H-M "P 21/C"
_symmetry_group_IT_number 14
_symmetry_cell_setting 'monoclinic'
loop_
_space_group_symop_operation_xyz
x,y,z
-x,1/2+y,1/2-z
-x,-y,-z
x,1/2-y,1/2+z
loop_
_atom_site_type_symbol
_atom_site_label
_atom_site_fract_x
_atom_site_fract_y
_atom_site_fract_z
Si Si1 0.164070 0.505124 0.230871
Si Si2 0.530710 0.943320 0.737143
Si Si3 0.348372 0.532406 0.224499
Si Si4 0.765615 0.725411 0.105984
Si Si5 0.008571 0.438466 0.699978
Si Si6 0.286610 0.080695 0.263413
Si Si7 0.991035 0.723049 0.403261
O O1 0.249488 0.551667 0.227498
O O2 0.083976 0.552312 0.252126
O O3 0.214433 0.451329 0.476994
O O4 0.105189 0.457446 0.970544
O O5 0.611791 0.895295 0.723187
O O6 0.500000 0.000000 0.500000
O O7 0.430420 0.916864 0.721699
O O8 0.591380 0.984858 0.013856
O O9 0.312328 0.482526 0.969300
O O10 0.724153 0.760537 0.290721
O O11 0.758188 0.643985 0.154033
O O12 0.878469 0.748248 0.245415
O O13 0.000000 0.500000 0.500000
O O14 0.008875 0.361094 0.596056
O O15 0.032920 0.751323 0.706079
#
# Coordination Sequence:
#
# PCOD9240696 Si02
#       7
#     4   4   4   4   4   4   4
#     4  10  21  31  53  77 109 140 181 227 285 323
#     4   8  16  28  48  74 102 129 164 201 268 319
#     4   9  16  30  49  74 104 131 166 213 267 323
#     4  10  22  33  50  74 104 144 186 217 264 328
#     4  11  23  36  53  79 111 146 189 236 284 335
#     4  10  19  32  50  75 108 141 172 224 269 327
#     4  10  23  38  56  76 108 150 191 233 280 340
#
# _framework density 18.629566000000001
#
# number of rings (size 3 to 8) (size 9 to 14) (size 15 to 20)
#    0.000    2.286    0.000    2.571   14.000    0.000 
#    0.000    0.000    0.000    0.000    0.000    2.000 
#    0.000    0.000    0.000    0.000    0.000    0.000 
#
# Total GULP energy -155886.773401 kJ/mol
# GULP energy per Si atom -5567.384764 kJ/mol
# Density = 1.858716 g / cm^3
# Si number density = 18.629566 Si / 1000 Ang^3
#
#
#
# Elastic Constant Matrix: (Units=GPa)
#
#
# Indices 1 2 3 4 5 6 
#
# 1 113.4903 -4.4521 21.4506 0.0000 -1.5468 0.0000
# 2 -4.4521 48.6153 34.0415 0.0000 -10.8797 0.0000
# 3 21.4506 34.0415 126.5898 0.0000 -11.1609 0.0000
# 4 0.0000 0.0000 0.0000 13.4199 0.0000 -9.5115
# 5 -1.5468 -10.8797 -11.1609 0.0000 28.5103 0.0000
# 6 0.0000 0.0000 0.0000 -9.5115 0.0000 19.6393
#
#
#
# Elastic Compliance Matrix: (Units=1/GPa)
#
#
# Indices 1 2 3 4 5 6 
#
# 1 0.009337 0.002540 -0.002211 0.000000 0.000610 0.000000
# 2 0.002540 0.027568 -0.007151 0.000000 0.007859 0.000000
# 3 -0.002211 -0.007151 0.010302 0.000000 0.001184 0.000000
# 4 0.000000 0.000000 0.000000 0.113463 0.000000 0.054951
# 5 0.000610 0.007859 0.001184 0.000000 0.038570 0.000000
# 6 0.000000 0.000000 0.000000 0.054951 0.000000 0.077532
#
#
# Mechanical properties :
#
#
# Convention : Reuss Voigt Hill
#
# Bulk Modulus (GPa) = 29.79513 43.41947 36.60730
# Shear Modulus (GPa) = 16.57800 28.15760 22.36780
#
# Velocity S-wave (km/s) = 2.98631 3.89195 3.46882
# Velocity P-wave (km/s) = 5.28384 6.59952 5.97799
#
# Compressibility (1/GPa) = 0.03356253
#
# Stress axis : x y z
#
# Youngs Moduli (GPa) = 107.09756 36.27366 97.07203
#
# Poissons Ratio (x) = -0.09214 0.21467
# Poissons Ratio (y) = -0.27205 0.69416
# Poissons Ratio (z) = 0.23684 0.25939
#
# Static dielectric constant tensor:
#      x y z
#    x 1.762820 0.000000 -0.038720 
#    y 0.000000 1.609090 0.000000 
#    z -0.038720 0.000000 1.629700 
# 
# From -- ./inp_files/3822.got.cif
#   From: 2010.05.17/outbox.cif.g08.bks.cpg/sg14_2_cif.got.tgz:3822.got - 2010.06.03 17:49:19.
