data_PCOD9240158
_publ_section_title
;
Structure prediction by ZEFSAII (Michael W. Deem and Ramdas Pophale) SiO2 
 PCOD9240158
Probable space group: P 21/C
;
_chemical_formula_sum "Si O2"
_cell_formula_units_Z 24
_cell_length_a 9.303572
_cell_length_b 14.286797
_cell_length_c 9.562245
_cell_angle_alpha 90.000000
_cell_angle_beta 98.057541
_cell_angle_gamma 90.000000
_cell_volume 1258.449285
_symmetry_space_group_name_H-M "P 21/C"
_symmetry_group_IT_number 14
_symmetry_cell_setting 'monoclinic'
loop_
_space_group_symop_operation_xyz
x,y,z
-x,1/2+y,1/2-z
-x,-y,-z
x,1/2-y,1/2+z
loop_
_atom_site_type_symbol
_atom_site_label
_atom_site_fract_x
_atom_site_fract_y
_atom_site_fract_z
Si Si1 0.801956 0.056695 0.885573
Si Si2 0.118207 0.392221 0.394362
Si Si3 0.324659 0.288570 0.950741
Si Si4 0.572757 0.559745 0.239342
Si Si5 0.470736 0.635276 0.519597
Si Si6 0.670465 0.932707 0.304240
O O1 0.696409 0.115567 0.973106
O O2 0.944870 0.112283 0.861839
O O3 0.696860 0.019452 0.749019
O O4 0.848109 0.960616 0.970635
O O5 0.202101 0.292645 0.420817
O O6 0.186327 0.445314 0.269483
O O7 0.358954 0.347281 0.816144
O O8 0.477278 0.238910 0.008942
O O9 0.292291 0.362181 0.067482
O O10 0.530291 0.575932 0.396635
O O11 0.421787 0.521651 0.154613
O O12 0.559793 0.612096 0.673786
#
# Coordination Sequence:
#
# PCOD9240158 Si02
#       6
#     4   4   4   4   4   4
#     4  10  19  36  58  80 104 153 191 221 265 338
#     4  10  20  35  57  80 110 148 187 224 269 336
#     4  11  22  33  57  87 116 139 182 241 286 312
#     4  11  19  37  58  83 109 149 185 230 275 332
#     4  10  18  35  58  81 106 145 195 227 260 332
#     4  10  19  36  56  83 111 145 183 227 283 327
#
# _framework density 19.071089000000001
#
# number of rings (size 3 to 8) (size 9 to 14) (size 15 to 20)
#    0.000    1.667    5.000    3.500    0.000    0.000 
#    0.000    7.500    0.000    0.000    0.000    0.000 
#    0.000    0.000    0.000    0.000    0.000    0.000 
#
# Total GULP energy -133601.854566 kJ/mol
# GULP energy per Si atom -5566.743940 kJ/mol
# Density = 1.902768 g / cm^3
# Si number density = 19.071089 Si / 1000 Ang^3
#
#
#
# Elastic Constant Matrix: (Units=GPa)
#
#
# Indices 1 2 3 4 5 6 
#
# 1 153.8603 45.4661 25.9051 0.0000 -28.4194 0.0000
# 2 45.4661 75.9491 18.9804 0.0000 -11.2071 0.0000
# 3 25.9051 18.9804 53.5335 0.0000 -13.0008 0.0000
# 4 0.0000 0.0000 0.0000 27.1487 0.0000 -4.0644
# 5 -28.4194 -11.2071 -13.0008 0.0000 16.0384 0.0000
# 6 0.0000 0.0000 0.0000 -4.0644 0.0000 11.3547
#
#
#
# Elastic Compliance Matrix: (Units=1/GPa)
#
#
# Indices 1 2 3 4 5 6 
#
# 1 0.010654 -0.004037 0.000218 0.000000 0.016235 0.000000
# 2 -0.004037 0.016718 -0.003579 0.000000 0.001628 0.000000
# 3 0.000218 -0.003579 0.024068 0.000000 0.017396 0.000000
# 4 0.000000 0.000000 0.000000 0.038920 0.000000 0.013931
# 5 0.016235 0.001628 0.017396 0.000000 0.106356 0.000000
# 6 0.000000 0.000000 0.000000 0.013931 0.000000 0.093056
#
#
# Mechanical properties :
#
#
# Convention : Reuss Voigt Hill
#
# Bulk Modulus (GPa) = 27.28845 51.56067 39.42456
# Shear Modulus (GPa) = 15.78372 23.77444 19.77908
#
# Velocity S-wave (km/s) = 2.87997 3.53458 3.22393
# Velocity P-wave (km/s) = 5.03973 6.61456 5.88011
#
# Compressibility (1/GPa) = 0.03664555
#
# Stress axis : x y z
#
# Youngs Moduli (GPa) = 93.85832 59.81599 41.54969
#
# Poissons Ratio (x) = 0.24148 -0.00907
# Poissons Ratio (y) = 0.37891 0.14869
# Poissons Ratio (z) = -0.02050 0.21405
#
# Static dielectric constant tensor:
#      x y z
#    x 1.702420 0.000000 0.003910 
#    y 0.000000 1.750320 0.000000 
#    z 0.003910 0.000000 1.703740 
# 
# From -- ./inp_files/24569.got.cif
#   From: 2010.05.17/outbox.cif.g08.bks.cpg/sg14_13_cif.got.tgz:24569.got - 2010.06.03 17:49:19.
