data_PCOD9240952
_publ_section_title
;
Structure prediction by ZEFSAII (Michael W. Deem and Ramdas Pophale) SiO2 
 PCOD9240952
Probable space group: P 21/C
;
_chemical_formula_sum "Si O2"
_cell_formula_units_Z 32
_cell_length_a 11.611339
_cell_length_b 11.688730
_cell_length_c 11.840908
_cell_angle_alpha 90.000000
_cell_angle_beta 81.145753
_cell_angle_gamma 90.000000
_cell_volume 1587.918128
_symmetry_space_group_name_H-M "P 21/C"
_symmetry_group_IT_number 14
_symmetry_cell_setting 'monoclinic'
loop_
_space_group_symop_operation_xyz
x,y,z
-x,1/2+y,1/2-z
-x,-y,-z
x,1/2-y,1/2+z
loop_
_atom_site_type_symbol
_atom_site_label
_atom_site_fract_x
_atom_site_fract_y
_atom_site_fract_z
Si Si1 0.928544 0.830744 0.243981
Si Si2 0.355872 0.572890 0.428404
Si Si3 0.703360 0.685682 0.940205
Si Si4 0.945218 0.574849 0.275504
Si Si5 0.822751 0.603319 0.529510
Si Si6 0.522558 0.760762 0.799848
Si Si7 0.427924 0.592280 0.661998
Si Si8 0.292864 0.063072 0.326821
O O1 0.814166 0.828292 0.340979
O O2 0.992591 0.707000 0.254343
O O3 0.889307 0.833114 0.119185
O O4 0.987829 0.954977 0.256133
O O5 0.239504 0.508695 0.409638
O O6 0.404040 0.687816 0.367556
O O7 0.348805 0.588911 0.563852
O O8 0.463607 0.489806 0.381681
O O9 0.586741 0.681322 0.882374
O O10 0.724268 0.810849 0.994152
O O11 0.705252 0.596435 0.042798
O O12 0.902684 0.570509 0.412000
O O13 0.834240 0.571190 0.208400
O O14 0.487699 0.709479 0.685359
O O15 0.624960 0.849799 0.755525
O O16 0.354091 0.554835 0.782115
#
# Coordination Sequence:
#
# PCOD9240952 Si02
#       8
#     4   4   4   4   4   4   4   4
#     4  11  24  41  67  93 123 163 215 264 316 378
#     4  10  19  33  61  87 116 162 204 250 300 376
#     4  11  20  36  63  87 120 166 204 251 316 377
#     4  11  23  43  65  94 120 164 210 268 318 371
#     4  11  19  41  64  90 120 161 215 255 310 381
#     4  11  20  35  58  91 121 163 205 250 305 376
#     4  10  20  34  56  88 120 155 206 248 302 372
#     4  11  20  38  60  83 123 164 197 257 310 372
#
# _framework density 20.152170999999999
#
# number of rings (size 3 to 8) (size 9 to 14) (size 15 to 20)
#    0.000    1.250    5.000    4.125    0.000    1.000 
#    2.250    2.500    0.000    0.000    0.000    0.000 
#    0.000    0.000    0.000    0.000    0.000    0.000 
#
# Total GULP energy -178334.363162 kJ/mol
# GULP energy per Si atom -5572.948849 kJ/mol
# Density = 2.010630 g / cm^3
# Si number density = 20.152171 Si / 1000 Ang^3
#
#
#
# Elastic Constant Matrix: (Units=GPa)
#
#
# Indices 1 2 3 4 5 6 
#
# 1 30.2662 37.4609 5.9069 0.0000 -3.8338 0.0000
# 2 37.4609 98.2884 17.5433 0.0000 -9.9029 0.0000
# 3 5.9069 17.5433 42.3065 0.0000 -13.4413 0.0000
# 4 0.0000 0.0000 0.0000 32.3778 0.0000 -1.5767
# 5 -3.8338 -9.9029 -13.4413 0.0000 19.9412 0.0000
# 6 0.0000 0.0000 0.0000 -1.5767 0.0000 26.3129
#
#
#
# Elastic Compliance Matrix: (Units=1/GPa)
#
#
# Indices 1 2 3 4 5 6 
#
# 1 0.062627 -0.024035 0.001598 0.000000 0.001182 0.000000
# 2 -0.024035 0.020358 -0.004253 0.000000 0.002622 0.000000
# 3 0.001598 -0.004253 0.031309 0.000000 0.019299 0.000000
# 4 0.000000 0.000000 0.000000 0.030976 0.000000 0.001856
# 5 0.001182 0.002622 0.019299 0.000000 0.064685 0.000000
# 6 0.000000 0.000000 0.000000 0.001856 0.000000 0.038115
#
#
# Mechanical properties :
#
#
# Convention : Reuss Voigt Hill
#
# Bulk Modulus (GPa) = 16.41669 32.52036 24.46853
# Shear Modulus (GPa) = 15.53977 23.05639 19.29808
#
# Velocity S-wave (km/s) = 2.77992 3.38615 3.09790
# Velocity P-wave (km/s) = 4.29744 5.60896 4.99642
#
# Compressibility (1/GPa) = 0.06091363
#
# Stress axis : x y z
#
# Youngs Moduli (GPa) = 15.96759 49.12051 31.93975
#
# Poissons Ratio (x) = 1.18063 -0.05104
# Poissons Ratio (y) = 0.38379 0.13584
# Poissons Ratio (z) = -0.02552 0.20891
#
# Static dielectric constant tensor:
#      x y z
#    x 1.703700 0.000000 -0.007280 
#    y 0.000000 1.826930 0.000000 
#    z -0.007280 0.000000 1.697620 
# 
# From -- ./inp_files/29073.got.cif
#   From: 2010.05.17/outbox.cif.g08.bks.cpg/sg14_15_cif.got.tgz:29073.got - 2010.06.03 17:49:19.
