data_PCOD9240313
_publ_section_title
;
Structure prediction by ZEFSAII (Michael W. Deem and Ramdas Pophale) SiO2 
 PCOD9240313
Probable space group: P 21/C
;
_chemical_formula_sum "Si O2"
_cell_formula_units_Z 24
_cell_length_a 7.498016
_cell_length_b 13.007662
_cell_length_c 14.882714
_cell_angle_alpha 90.000000
_cell_angle_beta 123.171895
_cell_angle_gamma 90.000000
_cell_volume 1214.983058
_symmetry_space_group_name_H-M "P 21/C"
_symmetry_group_IT_number 14
_symmetry_cell_setting 'monoclinic'
loop_
_space_group_symop_operation_xyz
x,y,z
-x,1/2+y,1/2-z
-x,-y,-z
x,1/2-y,1/2+z
loop_
_atom_site_type_symbol
_atom_site_label
_atom_site_fract_x
_atom_site_fract_y
_atom_site_fract_z
Si Si1 0.954044 0.446070 0.849562
Si Si2 0.930295 0.233439 0.209947
Si Si3 0.326886 0.938859 0.554924
Si Si4 0.308604 0.364396 0.286769
Si Si5 0.483781 0.738309 0.494937
Si Si6 0.437617 0.638613 0.819396
O O1 0.006016 0.350937 0.800912
O O2 0.817939 0.410985 0.898944
O O3 0.799363 0.525316 0.755541
O O4 0.161776 0.506062 0.941471
O O5 0.802673 0.325297 0.226719
O O6 0.125263 0.282491 0.211813
O O7 0.745501 0.190625 0.094544
O O8 0.431626 0.839951 0.539168
O O9 0.498451 0.024441 0.631924
O O10 0.380046 0.337079 0.406884
O O11 0.494314 0.351647 0.264725
O O12 0.566356 0.783130 0.422059
#
# Coordination Sequence:
#
# PCOD9240313 Si02
#       6
#     4   4   4   4   4   4
#     4  10  20  35  61  88 116 154 195 241 289 343
#     4  10  22  37  55  89 116 149 195 238 289 344
#     4  10  18  36  64  87 111 153 203 241 280 340
#     4  11  21  39  58  84 121 152 189 246 291 338
#     4  10  21  36  59  87 115 154 192 236 291 345
#     4   9  21  36  57  89 114 148 197 239 286 338
#
# _framework density 19.753363
#
# number of rings (size 3 to 8) (size 9 to 14) (size 15 to 20)
#    1.000    1.000    1.667    2.500    0.000    2.000 
#    3.000    0.000    0.000    1.000    0.000    0.000 
#    0.000    0.000    0.000    0.000    0.000    0.000 
#
# Total GULP energy -133826.273182 kJ/mol
# GULP energy per Si atom -5576.094716 kJ/mol
# Density = 1.970840 g / cm^3
# Si number density = 19.753363 Si / 1000 Ang^3
#
#
#
# Elastic Constant Matrix: (Units=GPa)
#
#
# Indices 1 2 3 4 5 6 
#
# 1 38.1566 4.3062 -11.7483 0.0000 -4.9335 0.0000
# 2 4.3062 31.2105 10.3817 0.0000 -4.9599 0.0000
# 3 -11.7483 10.3817 37.7571 0.0000 1.6265 0.0000
# 4 0.0000 0.0000 0.0000 25.2526 0.0000 -0.4134
# 5 -4.9335 -4.9599 1.6265 0.0000 25.5972 0.0000
# 6 0.0000 0.0000 0.0000 -0.4134 0.0000 14.4935
#
#
#
# Elastic Compliance Matrix: (Units=1/GPa)
#
#
# Indices 1 2 3 4 5 6 
#
# 1 0.031121 -0.007547 0.011595 0.000000 0.003799 0.000000
# 2 -0.007547 0.038581 -0.013252 0.000000 0.006863 0.000000
# 3 0.011595 -0.013252 0.033844 0.000000 -0.002484 0.000000
# 4 0.000000 0.000000 0.000000 0.039618 0.000000 0.001130
# 5 0.003799 0.006863 -0.002484 0.000000 0.041287 0.000000
# 6 0.000000 0.000000 0.000000 0.001130 0.000000 0.069029
#
#
# Mechanical properties :
#
#
# Convention : Reuss Voigt Hill
#
# Bulk Modulus (GPa) = 11.74582 12.55593 12.15087
# Shear Modulus (GPa) = 16.65189 20.01429 18.33309
#
# Velocity S-wave (km/s) = 2.90658 3.18655 3.04978
# Velocity P-wave (km/s) = 4.15011 4.46194 4.30885
#
# Compressibility (1/GPa) = 0.08513666
#
# Stress axis : x y z
#
# Youngs Moduli (GPa) = 32.13291 25.91975 29.54761
#
# Poissons Ratio (x) = 0.19562 -0.34260
# Poissons Ratio (y) = 0.24251 0.39157
# Poissons Ratio (z) = -0.37258 0.34349
#
# Static dielectric constant tensor:
#      x y z
#    x 1.694450 0.000000 0.014040 
#    y 0.000000 1.679500 0.000000 
#    z 0.014040 0.000000 1.719230 
# 
# From -- ./inp_files/40524.got.cif
#   From: 2010.05.17/outbox.cif.g08.bks.cpg/sg14_21_cif.got.tgz:40524.got - 2010.06.03 17:49:19.
