data_PCOD9240230
_publ_section_title
;
Structure prediction by ZEFSAII (Michael W. Deem and Ramdas Pophale) SiO2 
 PCOD9240230
Probable space group: P 21/C
;
_chemical_formula_sum "Si O2"
_cell_formula_units_Z 30
_cell_length_a 14.110188
_cell_length_b 9.287407
_cell_length_c 21.301411
_cell_angle_alpha 90.000000
_cell_angle_beta 27.552831
_cell_angle_gamma 90.000000
_cell_volume 1291.247954
_symmetry_space_group_name_H-M "P 21/C"
_symmetry_group_IT_number 14
_symmetry_cell_setting 'monoclinic'
loop_
_space_group_symop_operation_xyz
x,y,z
-x,1/2+y,1/2-z
-x,-y,-z
x,1/2-y,1/2+z
loop_
_atom_site_type_symbol
_atom_site_label
_atom_site_fract_x
_atom_site_fract_y
_atom_site_fract_z
Si Si1 0.000000 0.500000 0.500000
Si Si2 0.981123 0.613572 0.119238
Si Si3 0.114836 0.660989 0.756467
Si Si4 0.677376 0.504148 0.472640
Si Si5 0.631777 0.565267 0.239297
Si Si6 0.678774 0.247807 0.651327
Si Si7 0.883376 0.019383 0.212550
Si Si8 0.766640 0.778702 0.360039
O O1 0.173413 0.631478 0.406100
O O2 0.078690 0.473344 0.380888
O O3 0.962987 0.444437 0.143518
O O4 0.848756 0.629380 0.133406
O O5 0.883754 0.685594 0.237810
O O6 0.202117 0.680407 0.978614
O O7 0.280979 0.588518 0.613596
O O8 0.176242 0.814835 0.746442
O O9 0.923990 0.676640 0.821599
O O10 0.505886 0.436866 0.617130
O O11 0.627624 0.666158 0.479291
O O12 0.891894 0.507968 0.385619
O O13 0.524612 0.668122 0.251388
O O14 0.637657 0.398128 0.214687
O O15 0.722735 0.921121 0.345462
#
# Coordination Sequence:
#
# PCOD9240230 Si02
#       8
#     2   4   4   4   4   4   4   4
#     4  12  22  42  72  92 150 186 236 298 366 440
#     4  11  23  45  68 102 143 194 242 302 371 439
#     4   9  19  36  69 101 138 186 242 291 371 434
#     4   9  19  39  61  94 139 178 231 310 347 424
#     4  12  27  45  71 111 145 196 257 302 375 443
#     4  12  28  47  73 103 150 200 243 310 366 453
#     4  10  18  35  65 102 129 193 233 288 362 433
#     4   9  18  35  66  96 137 186 237 291 366 423
#
# _framework density 23.233338
#
# number of rings (size 3 to 8) (size 9 to 14) (size 15 to 20)
#    0.000    1.600    2.667    2.800    1.867    4.267 
#    0.000    0.000    0.000    4.800    0.000    0.000 
#    0.000    0.000    0.000    0.000    0.000    0.000 
#
# Total GULP energy -167058.283513 kJ/mol
# GULP energy per Si atom -5568.609450 kJ/mol
# Density = 2.318046 g / cm^3
# Si number density = 23.233338 Si / 1000 Ang^3
#
#
#
# Elastic Constant Matrix: (Units=GPa)
#
#
# Indices 1 2 3 4 5 6 
#
# 1 91.4308 24.1607 10.4897 0.0000 0.7868 0.0000
# 2 24.1607 98.0285 -1.3847 0.0000 0.4036 0.0000
# 3 10.4897 -1.3847 28.0876 0.0000 7.7076 0.0000
# 4 0.0000 0.0000 0.0000 -11.4829 0.0000 -10.8272
# 5 0.7868 0.4036 7.7076 0.0000 26.0218 0.0000
# 6 0.0000 0.0000 0.0000 -10.8272 0.0000 33.1711
#
#
#
# Elastic Compliance Matrix: (Units=1/GPa)
#
#
# Indices 1 2 3 4 5 6 
#
# 1 0.012334 -0.003117 -0.005084 0.000000 0.001181 0.000000
# 2 -0.003117 0.010998 0.001880 0.000000 -0.000633 0.000000
# 3 -0.005084 0.001880 0.040883 0.000000 -0.011985 0.000000
# 4 0.000000 0.000000 0.000000 -0.066591 0.000000 -0.021736
# 5 0.001181 -0.000633 -0.011985 0.000000 0.041953 0.000000
# 6 0.000000 0.000000 0.000000 -0.021736 0.000000 0.023052
#
#
# Mechanical properties :
#
#
# Convention : Reuss Voigt Hill
#
# Bulk Modulus (GPa) = 19.38966 31.56427 25.47697
# Shear Modulus (GPa) = 54.07603 21.82739 37.95171
#
# Velocity S-wave (km/s) = 4.82967 3.06843 4.04605
# Velocity P-wave (km/s) = 6.28209 5.11556 5.72860
#
# Compressibility (1/GPa) = 0.05157388
#
# Stress axis : x y z
#
# Youngs Moduli (GPa) = 81.07727 90.92222 24.45997
#
# Poissons Ratio (x) = 0.28337 0.12436
# Poissons Ratio (y) = 0.25268 -0.04598
# Poissons Ratio (z) = 0.41220 -0.17092
#
# Static dielectric constant tensor:
#      x y z
#    x 1.876370 0.000000 -0.039320 
#    y 0.000000 1.933780 0.000000 
#    z -0.039320 0.000000 1.875660 
# 
# From -- ./inp_files/68340.got.cif
#   From: 2010.05.17/outbox.cif.g08.bks.cpg/sg14_35_cif.got.tgz:68340.got - 2010.06.03 17:49:19.
