data_PCOD9240496
_publ_section_title
;
Structure prediction by ZEFSAII (Michael W. Deem and Ramdas Pophale) SiO2 
 PCOD9240496
Probable space group: P 21/C
;
_chemical_formula_sum "Si O2"
_cell_formula_units_Z 32
_cell_length_a 15.669881
_cell_length_b 14.780299
_cell_length_c 20.500738
_cell_angle_alpha 90.000000
_cell_angle_beta 16.529991
_cell_angle_gamma 90.000000
_cell_volume 1350.911589
_symmetry_space_group_name_H-M "P 21/C"
_symmetry_group_IT_number 14
_symmetry_cell_setting 'monoclinic'
loop_
_space_group_symop_operation_xyz
x,y,z
-x,1/2+y,1/2-z
-x,-y,-z
x,1/2-y,1/2+z
loop_
_atom_site_type_symbol
_atom_site_label
_atom_site_fract_x
_atom_site_fract_y
_atom_site_fract_z
Si Si1 0.444435 0.639738 0.063101
Si Si2 0.220784 0.502193 0.755403
Si Si3 0.813478 0.186055 0.755758
Si Si4 0.623668 0.120642 0.030772
Si Si5 0.611727 0.479618 0.123619
Si Si6 0.675152 0.790965 0.192698
Si Si7 0.889710 0.496752 0.775471
Si Si8 0.863249 0.096581 0.077958
O O1 0.464451 0.745010 0.034752
O O2 0.185570 0.593474 0.209029
O O3 0.342681 0.632507 0.212363
O O4 0.731502 0.575780 0.848316
O O5 0.500000 0.500000 0.500000
O O6 0.232786 0.608052 0.763785
O O7 0.307915 0.423246 0.740601
O O8 0.896822 0.487932 0.961204
O O9 0.098232 0.242434 0.523366
O O10 0.829482 0.144050 0.816402
O O11 0.562185 0.214611 0.112262
O O12 0.788046 0.036631 0.944859
O O13 0.462767 0.380884 0.238557
O O14 0.372277 0.562626 0.304030
O O15 0.730602 0.483115 0.961766
O O16 0.864301 0.831071 0.116911
O O17 0.000000 0.000000 0.000000
#
# Coordination Sequence:
#
# PCOD9240496 Si02
#       8
#     4   4   4   4   4   4   4   4
#     4   9  19  35  61  90 120 155 215 269 303 372
#     4  10  21  40  63  87 131 171 206 250 327 386
#     4  10  21  43  60  89 129 164 210 263 314 381
#     4  11  23  41  62  93 130 173 205 256 327 388
#     4  10  18  39  65  89 123 171 209 263 327 372
#     4  10  22  40  63  97 122 163 226 260 313 392
#     4  10  19  37  61  95 122 162 212 265 322 370
#     4   8  17  36  61  86 122 160 203 267 319 360
#
# _framework density 23.687709000000002
#
# number of rings (size 3 to 8) (size 9 to 14) (size 15 to 20)
#    0.000    2.250    2.500    0.750    0.000    3.500 
#   11.250    0.000    0.000    0.000    0.000    0.000 
#    0.000    0.000    0.000    0.000    0.000    0.000 
#
# Total GULP energy -178498.847339 kJ/mol
# GULP energy per Si atom -5578.088979 kJ/mol
# Density = 2.363379 g / cm^3
# Si number density = 23.687709 Si / 1000 Ang^3
#
#
#
# Elastic Constant Matrix: (Units=GPa)
#
#
# Indices 1 2 3 4 5 6 
#
# 1 51.4331 12.3036 20.2529 0.0000 -2.8915 0.0000
# 2 12.3036 117.7918 23.6513 0.0000 -13.5750 0.0000
# 3 20.2529 23.6513 86.2419 0.0000 -16.3734 0.0000
# 4 0.0000 0.0000 0.0000 44.6815 0.0000 0.7943
# 5 -2.8915 -13.5750 -16.3734 0.0000 44.2029 0.0000
# 6 0.0000 0.0000 0.0000 0.7943 0.0000 9.7145
#
#
#
# Elastic Compliance Matrix: (Units=1/GPa)
#
#
# Indices 1 2 3 4 5 6 
#
# 1 0.021640 -0.001378 -0.004857 0.000000 -0.000807 0.000000
# 2 -0.001378 0.009237 -0.001816 0.000000 0.002074 0.000000
# 3 -0.004857 -0.001816 0.014056 0.000000 0.004331 0.000000
# 4 0.000000 0.000000 0.000000 0.022413 0.000000 -0.001833
# 5 -0.000807 0.002074 0.004331 0.000000 0.024811 0.000000
# 6 0.000000 0.000000 0.000000 -0.001833 0.000000 0.103089
#
#
# Mechanical properties :
#
#
# Convention : Reuss Voigt Hill
#
# Bulk Modulus (GPa) = 34.68483 40.87582 37.78033
# Shear Modulus (GPa) = 22.62868 33.00370 27.81619
#
# Velocity S-wave (km/s) = 3.09413 3.73672 3.43051
# Velocity P-wave (km/s) = 5.23825 5.99258 5.62807
#
# Compressibility (1/GPa) = 0.02883104
#
# Stress axis : x y z
#
# Youngs Moduli (GPa) = 46.21153 108.25891 71.14287
#
# Poissons Ratio (x) = 0.14919 0.34555
# Poissons Ratio (y) = 0.06368 0.12918
# Poissons Ratio (z) = 0.22445 0.19658
#
# Static dielectric constant tensor:
#      x y z
#    x 1.973550 0.000000 0.002120 
#    y 0.000000 1.927760 0.000000 
#    z 0.002120 0.000000 1.976470 
# 
# From -- ./inp_files/68686.got.cif
#   From: 2010.05.17/outbox.cif.g08.bks.cpg/sg14_35_cif.got.tgz:68686.got - 2010.06.03 17:49:19.
