data_PCOD9240736
_publ_section_title
;
Structure prediction by ZEFSAII (Michael W. Deem and Ramdas Pophale) SiO2 
 PCOD9240736
Probable space group: P 21/C
;
_chemical_formula_sum "Si O2"
_cell_formula_units_Z 32
_cell_length_a 18.183139
_cell_length_b 13.477063
_cell_length_c 11.246935
_cell_angle_alpha 90.000000
_cell_angle_beta 149.870155
_cell_angle_gamma 90.000000
_cell_volume 1383.466208
_symmetry_space_group_name_H-M "P 21/C"
_symmetry_group_IT_number 14
_symmetry_cell_setting 'monoclinic'
loop_
_space_group_symop_operation_xyz
x,y,z
-x,1/2+y,1/2-z
-x,-y,-z
x,1/2-y,1/2+z
loop_
_atom_site_type_symbol
_atom_site_label
_atom_site_fract_x
_atom_site_fract_y
_atom_site_fract_z
Si Si1 0.783240 0.443117 0.660358
Si Si2 0.517623 0.859950 0.604139
Si Si3 0.054659 0.629713 0.336164
Si Si4 0.974528 0.159110 0.801198
Si Si5 0.759938 0.223651 0.690370
Si Si6 0.533598 0.928052 0.372958
Si Si7 0.159808 0.131222 0.280309
Si Si8 0.847150 0.637676 0.672163
O O1 0.846275 0.430029 0.615331
O O2 0.812944 0.337983 0.763015
O O3 0.608739 0.442838 0.405378
O O4 0.841546 0.553800 0.768089
O O5 0.413598 0.783124 0.528145
O O6 0.511049 0.852300 0.451902
O O7 0.443193 0.965092 0.533615
O O8 0.686780 0.863127 0.882453
O O9 0.991798 0.724017 0.176038
O O10 0.160546 0.671167 0.588050
O O11 0.921498 0.581544 0.222064
O O12 0.817316 0.169976 0.649131
O O13 0.023734 0.117144 0.742686
O O14 0.079743 0.108373 0.044841
O O15 0.673248 0.896970 0.494551
O O16 0.139628 0.249846 0.264918
#
# Coordination Sequence:
#
# PCOD9240736 Si02
#       8
#     4   4   4   4   4   4   4   4
#     4  10  20  35  55  80 107 136 174 215 260 312
#     4  10  19  32  53  81 104 132 175 218 260 308
#     4   9  19  34  51  76 104 136 176 211 254 310
#     4   9  19  34  51  76 104 136 176 211 254 310
#     4  10  19  34  55  77 105 140 172 214 263 307
#     4  10  19  32  53  81 104 132 175 218 260 308
#     4  10  19  34  55  77 105 140 172 214 263 307
#     4  10  20  35  55  80 107 136 174 215 260 312
#
# _framework density 23.130307999999999
#
# number of rings (size 3 to 8) (size 9 to 14) (size 15 to 20)
#    0.000    2.250    2.500    0.750    0.000    1.000 
#    0.000   12.500    0.000    2.250    0.000    0.000 
#    0.000    0.000    0.000    0.000    0.000    0.000 
#
# Total GULP energy -178554.028166 kJ/mol
# GULP energy per Si atom -5579.813380 kJ/mol
# Density = 2.307766 g / cm^3
# Si number density = 23.130308 Si / 1000 Ang^3
#
#
#
# Elastic Constant Matrix: (Units=GPa)
#
#
# Indices 1 2 3 4 5 6 
#
# 1 106.3526 15.3756 34.3923 0.0000 32.8852 0.0000
# 2 15.3756 72.6067 3.8331 0.0000 10.7079 0.0000
# 3 34.3923 3.8331 59.9453 0.0000 21.6844 0.0000
# 4 0.0000 0.0000 0.0000 27.3614 0.0000 5.5413
# 5 32.8852 10.7079 21.6844 0.0000 30.1317 0.0000
# 6 0.0000 0.0000 0.0000 5.5413 0.0000 29.5770
#
#
#
# Elastic Compliance Matrix: (Units=1/GPa)
#
#
# Indices 1 2 3 4 5 6 
#
# 1 0.014803 -0.001000 -0.003668 0.000000 -0.013160 0.000000
# 2 -0.001000 0.014674 0.001524 0.000000 -0.005220 0.000000
# 3 -0.003668 0.001524 0.023574 0.000000 -0.013503 0.000000
# 4 0.000000 0.000000 0.000000 0.037989 0.000000 -0.007117
# 5 -0.013160 -0.005220 -0.013503 0.000000 0.059123 0.000000
# 6 0.000000 0.000000 0.000000 -0.007117 0.000000 0.035144
#
#
# Mechanical properties :
#
#
# Convention : Reuss Voigt Hill
#
# Bulk Modulus (GPa) = 21.38554 38.45630 29.92092
# Shear Modulus (GPa) = 24.13332 29.76756 26.95044
#
# Velocity S-wave (km/s) = 3.23362 3.59130 3.41714
# Velocity P-wave (km/s) = 4.81741 5.81882 5.34163
#
# Compressibility (1/GPa) = 0.04676056
#
# Stress axis : x y z
#
# Youngs Moduli (GPa) = 67.55489 68.14784 42.42046
#
# Poissons Ratio (x) = 0.06816 0.15561
# Poissons Ratio (y) = 0.06757 -0.06464
# Poissons Ratio (z) = 0.24781 -0.10384
#
# Static dielectric constant tensor:
#      x y z
#    x 1.883790 0.000000 0.001260 
#    y 0.000000 1.941960 0.000000 
#    z 0.001260 0.000000 1.862120 
# 
# From -- ./inp_files/34230.got.cif
#   From: 2010.05.17/outbox.cif.g08.bks.cpg/sg14_18_cif.got.tgz:34230.got - 2010.06.03 17:49:19.
