data_PCOD9240659
_publ_section_title
;
Structure prediction by ZEFSAII (Michael W. Deem and Ramdas Pophale) SiO2 
 PCOD9240659
Probable space group: P 21/C
;
_chemical_formula_sum "Si O2"
_cell_formula_units_Z 32
_cell_length_a 10.296486
_cell_length_b 13.819754
_cell_length_c 9.384221
_cell_angle_alpha 90.000000
_cell_angle_beta 88.937088
_cell_angle_gamma 90.000000
_cell_volume 1335.097052
_symmetry_space_group_name_H-M "P 21/C"
_symmetry_group_IT_number 14
_symmetry_cell_setting 'monoclinic'
loop_
_space_group_symop_operation_xyz
x,y,z
-x,1/2+y,1/2-z
-x,-y,-z
x,1/2-y,1/2+z
loop_
_atom_site_type_symbol
_atom_site_label
_atom_site_fract_x
_atom_site_fract_y
_atom_site_fract_z
Si Si1 0.318911 0.399398 0.241396
Si Si2 0.810047 0.255186 0.852772
Si Si3 0.183822 0.933968 0.452891
Si Si4 0.600095 0.068226 0.084678
Si Si5 0.471295 0.726992 0.606588
Si Si6 0.048601 0.040261 0.730636
Si Si7 0.599224 0.576617 0.059803
Si Si8 0.889987 0.121725 0.076410
O O1 0.375266 0.508279 0.269943
O O2 0.412460 0.332634 0.327782
O O3 0.167789 0.395418 0.283419
O O4 0.332424 0.373106 0.076953
O O5 0.767595 0.336322 0.972942
O O6 0.912160 0.188502 0.937874
O O7 0.669719 0.209508 0.819050
O O8 0.863469 0.308439 0.712847
O O9 0.115356 0.986655 0.591011
O O10 0.287568 0.007831 0.380842
O O11 0.077196 0.912504 0.335307
O O12 0.751719 0.073021 0.036893
O O13 0.549650 0.176744 0.049823
O O14 0.500000 0.000000 0.000000
O O15 0.518652 0.836431 0.627672
O O16 0.020839 0.960971 0.854175
O O17 0.500000 0.500000 0.000000
#
# Coordination Sequence:
#
# PCOD9240659 Si02
#       8
#     4   4   4   4   4   4   4   4
#     4   9  19  33  52  74  99 138 174 219 262 316
#     4  10  19  31  52  79 106 137 173 219 270 323
#     4   9  17  33  52  72 100 138 178 219 256 313
#     4   8  16  32  49  71 101 134 174 206 257 315
#     4  10  20  30  48  76 110 133 164 214 268 326
#     4   8  16  34  55  70  95 137 186 215 252 315
#     4  11  21  31  48  77 107 133 172 218 270 313
#     4   9  18  31  53  80 101 135 179 221 263 317
#
# _framework density 23.968295000000001
#
# number of rings (size 3 to 8) (size 9 to 14) (size 15 to 20)
#    0.000    2.750    1.250    0.750    3.500    0.000 
#    2.250    0.000    0.000    0.750    0.000    0.000 
#    0.000    0.000    0.000    0.000    0.000    0.000 
#
# Total GULP energy -178179.857686 kJ/mol
# GULP energy per Si atom -5568.120553 kJ/mol
# Density = 2.391374 g / cm^3
# Si number density = 23.968295 Si / 1000 Ang^3
#
#
#
# Elastic Constant Matrix: (Units=GPa)
#
#
# Indices 1 2 3 4 5 6 
#
# 1 63.0936 17.8471 33.2140 0.0000 27.3216 0.0000
# 2 17.8471 66.7000 3.3175 0.0000 8.5248 0.0000
# 3 33.2140 3.3175 86.7952 0.0000 12.3351 0.0000
# 4 0.0000 0.0000 0.0000 25.4958 0.0000 10.0383
# 5 27.3216 8.5248 12.3351 0.0000 42.9628 0.0000
# 6 0.0000 0.0000 0.0000 10.0383 0.0000 17.1932
#
#
#
# Elastic Compliance Matrix: (Units=1/GPa)
#
#
# Indices 1 2 3 4 5 6 
#
# 1 0.028001 -0.005239 -0.008478 0.000000 -0.014333 0.000000
# 2 -0.005239 0.016365 0.001425 0.000000 -0.000325 0.000000
# 3 -0.008478 0.001425 0.014580 0.000000 0.000923 0.000000
# 4 0.000000 0.000000 0.000000 0.050930 0.000000 -0.029736
# 5 -0.014333 -0.000325 0.000923 0.000000 0.032191 0.000000
# 6 0.000000 0.000000 0.000000 -0.029736 0.000000 0.075524
#
#
# Mechanical properties :
#
#
# Convention : Reuss Voigt Hill
#
# Bulk Modulus (GPa) = 29.10072 36.14957 32.62514
# Shear Modulus (GPa) = 19.71395 27.94435 23.82915
#
# Velocity S-wave (km/s) = 2.87104 3.41821 3.15651
# Velocity P-wave (km/s) = 4.81230 5.54021 5.18903
#
# Compressibility (1/GPa) = 0.03436342
#
# Stress axis : x y z
#
# Youngs Moduli (GPa) = 35.71283 61.10642 68.58681
#
# Poissons Ratio (x) = 0.32012 0.58148
# Poissons Ratio (y) = 0.18709 -0.09776
# Poissons Ratio (z) = 0.30277 -0.08710
#
# Static dielectric constant tensor:
#      x y z
#    x 1.947660 0.000000 -0.102470 
#    y 0.000000 2.036530 0.000000 
#    z -0.102470 0.000000 2.070720 
# 
# From -- ./inp_files/29822.got.cif
#   From: 2010.05.17/outbox.cif.g08.bks.cpg/sg14_15_cif.got.tgz:29822.got - 2010.06.03 17:49:19.
