data_PCOD9240563
_publ_section_title
;
Structure prediction by ZEFSAII (Michael W. Deem and Ramdas Pophale) SiO2 
 PCOD9240563
Probable space group: P 21/C
;
_chemical_formula_sum "Si O2"
_cell_formula_units_Z 22
_cell_length_a 11.357236
_cell_length_b 8.911992
_cell_length_c 19.353908
_cell_angle_alpha 90.000000
_cell_angle_beta 155.466626
_cell_angle_gamma 90.000000
_cell_volume 813.387950
_symmetry_space_group_name_H-M "P 21/C"
_symmetry_group_IT_number 14
_symmetry_cell_setting 'monoclinic'
loop_
_space_group_symop_operation_xyz
x,y,z
-x,1/2+y,1/2-z
-x,-y,-z
x,1/2-y,1/2+z
loop_
_atom_site_type_symbol
_atom_site_label
_atom_site_fract_x
_atom_site_fract_y
_atom_site_fract_z
Si Si1 0.294968 0.063885 0.236837
Si Si2 0.000000 0.500000 0.000000
Si Si3 0.171613 0.619957 0.340812
Si Si4 0.211638 0.326407 0.554351
Si Si5 0.580418 0.821764 0.472246
Si Si6 0.693757 0.613177 0.701881
O O1 0.411385 0.101799 0.221564
O O2 0.217327 0.219118 0.230765
O O3 0.517375 0.980074 0.403111
O O4 0.041391 0.945106 0.091955
O O5 0.901417 0.672596 0.972538
O O6 0.822662 0.518780 0.832590
O O7 0.322143 0.749872 0.375699
O O8 0.352432 0.614523 0.507576
O O9 0.209191 0.465304 0.317767
O O10 0.843013 0.653435 0.162541
O O11 0.346228 0.284812 0.553282
#
# Coordination Sequence:
#
# PCOD9240563 Si02
#       6
#     4   2   4   4   4   4
#     4  10  23  43  71 106 144 192 252 309 381 445
#     4  10  18  44  76  96 146 190 246 314 360 444
#     4  11  26  47  73 106 154 194 251 303 385 451
#     4  10  22  43  70 107 144 191 252 308 378 444
#     4  12  23  48  70 104 151 199 243 322 367 459
#     4  10  23  46  71 110 141 198 245 308 375 451
#
# _framework density 27.047363000000001
#
# number of rings (size 3 to 8) (size 9 to 14) (size 15 to 20)
#    0.000    1.455    3.636    0.000    0.000    8.000 
#   13.091    0.000    0.000    0.000    0.000    0.000 
#    0.000    0.000    0.000    0.000    0.000    0.000 
#
# Total GULP energy -122954.338222 kJ/mol
# GULP energy per Si atom -5588.833556 kJ/mol
# Density = 2.698580 g / cm^3
# Si number density = 27.047363 Si / 1000 Ang^3
#
#
#
# Elastic Constant Matrix: (Units=GPa)
#
#
# Indices 1 2 3 4 5 6 
#
# 1 91.6522 18.5738 39.8830 0.0000 -26.7303 0.0000
# 2 18.5738 157.3204 42.9476 0.0000 -12.7793 0.0000
# 3 39.8830 42.9476 157.5621 0.0000 -53.5932 0.0000
# 4 0.0000 0.0000 0.0000 60.1155 0.0000 -17.8925
# 5 -26.7303 -12.7793 -53.5932 0.0000 45.3641 0.0000
# 6 0.0000 0.0000 0.0000 -17.8925 0.0000 37.1689
#
#
#
# Elastic Compliance Matrix: (Units=1/GPa)
#
#
# Indices 1 2 3 4 5 6 
#
# 1 0.013394 -0.000791 -0.000946 0.000000 0.006551 0.000000
# 2 -0.000791 0.006920 -0.001975 0.000000 -0.000850 0.000000
# 3 -0.000946 -0.001975 0.011277 0.000000 0.012209 0.000000
# 4 0.000000 0.000000 0.000000 0.019417 0.000000 0.009347
# 5 0.006551 -0.000850 0.012209 0.000000 0.040088 0.000000
# 6 0.000000 0.000000 0.000000 0.009347 0.000000 0.031404
#
#
# Mechanical properties :
#
#
# Convention : Reuss Voigt Hill
#
# Bulk Modulus (GPa) = 41.37997 67.70485 54.54241
# Shear Modulus (GPa) = 36.23718 48.87173 42.55445
#
# Velocity S-wave (km/s) = 3.66425 4.25537 3.97083
# Velocity P-wave (km/s) = 5.76495 7.01645 6.42126
#
# Compressibility (1/GPa) = 0.02416628
#
# Stress axis : x y z
#
# Youngs Moduli (GPa) = 74.66293 144.50908 88.67236
#
# Poissons Ratio (x) = 0.11427 0.08392
# Poissons Ratio (y) = 0.05904 0.17514
# Poissons Ratio (z) = 0.07066 0.28543
#
# Static dielectric constant tensor:
#      x y z
#    x 2.175580 0.000000 0.080970 
#    y 0.000000 2.097840 0.000000 
#    z 0.080970 0.000000 2.090860 
# 
# From -- ./inp_files/73797.got.cif
#   From: 2010.05.17/outbox.cif.g08.bks.cpg/sg14_37_cif.got.tgz:73797.got - 2010.06.03 17:49:19.
