data_PCOD9240272
_publ_section_title
;
Structure prediction by ZEFSAII (Michael W. Deem and Ramdas Pophale) SiO2 
 PCOD9240272
Probable space group: P 21/C
;
_chemical_formula_sum "Si O2"
_cell_formula_units_Z 32
_cell_length_a 22.501416
_cell_length_b 18.216704
_cell_length_c 11.664039
_cell_angle_alpha 90.000000
_cell_angle_beta 22.083777
_cell_angle_gamma 90.000000
_cell_volume 1797.514724
_symmetry_space_group_name_H-M "P 21/C"
_symmetry_group_IT_number 14
_symmetry_cell_setting 'monoclinic'
loop_
_space_group_symop_operation_xyz
x,y,z
-x,1/2+y,1/2-z
-x,-y,-z
x,1/2-y,1/2+z
loop_
_atom_site_type_symbol
_atom_site_label
_atom_site_fract_x
_atom_site_fract_y
_atom_site_fract_z
Si Si1 0.552604 0.872181 0.115277
Si Si2 0.680048 0.526237 0.202677
Si Si3 0.232596 0.411479 0.193679
Si Si4 0.561547 0.775011 0.729449
Si Si5 0.493747 0.984304 0.645880
Si Si6 0.113724 0.890713 0.589802
Si Si7 0.667801 0.286520 0.154378
Si Si8 0.280285 0.849529 0.082785
O O1 0.606596 0.802720 0.093829
O O2 0.396201 0.840708 0.330897
O O3 0.525246 0.941091 0.247478
O O4 0.663978 0.903417 0.814610
O O5 0.500000 0.500000 0.500000
O O6 0.757163 0.541713 0.941705
O O7 0.775865 0.462453 0.094328
O O8 0.059861 0.406808 0.555339
O O9 0.297275 0.332210 0.037885
O O10 0.352978 0.444700 0.072596
O O11 0.485507 0.769546 0.991780
O O12 0.417190 0.812138 0.916484
O O13 0.500000 0.000000 0.500000
O O14 0.350273 0.927320 0.920025
O O15 0.199557 0.829611 0.513435
O O16 0.128555 0.862858 0.433031
O O17 0.736550 0.209993 0.986345
#
# Coordination Sequence:
#
# PCOD9240272 Si02
#       8
#     4   4   4   4   4   4   4   4
#     4  11  19  33  64  87 110 146 207 248 287 340
#     4  12  18  37  65  89 113 149 206 250 284 349
#     4  11  22  38  58  91 121 152 192 247 308 345
#     4   9  19  34  56  84 111 147 198 245 285 341
#     4  11  21  37  60  86 112 153 202 246 286 352
#     4  11  21  36  58  87 125 153 186 248 307 353
#     4  10  18  36  59  85 112 155 198 244 291 354
#     4   9  19  35  55  77 113 153 192 229 286 353
#
# _framework density 17.802358000000002
#
# number of rings (size 3 to 8) (size 9 to 14) (size 15 to 20)
#    0.000    1.500    5.000    1.875    0.000    0.000 
#    2.250    0.625    5.500    0.000    0.000    0.000 
#    0.000    0.000    0.000    0.000    0.000    0.000 
#
# Total GULP energy -178452.912633 kJ/mol
# GULP energy per Si atom -5576.653520 kJ/mol
# Density = 1.776184 g / cm^3
# Si number density = 17.802358 Si / 1000 Ang^3
#
#
#
# Elastic Constant Matrix: (Units=GPa)
#
#
# Indices 1 2 3 4 5 6 
#
# 1 70.7560 36.7166 22.8555 0.0000 29.3918 0.0000
# 2 36.7166 110.3383 35.2438 0.0000 20.6555 0.0000
# 3 22.8555 35.2438 96.2435 0.0000 22.9710 0.0000
# 4 0.0000 0.0000 0.0000 24.2983 0.0000 15.5766
# 5 29.3918 20.6555 22.9710 0.0000 26.2138 0.0000
# 6 0.0000 0.0000 0.0000 15.5766 0.0000 36.0776
#
#
#
# Elastic Compliance Matrix: (Units=1/GPa)
#
#
# Indices 1 2 3 4 5 6 
#
# 1 0.028207 -0.004444 0.002076 0.000000 -0.029945 0.000000
# 2 -0.004444 0.011786 -0.002824 0.000000 -0.001830 0.000000
# 3 0.002076 -0.002824 0.013853 0.000000 -0.012242 0.000000
# 4 0.000000 0.000000 0.000000 0.056905 0.000000 -0.024569
# 5 -0.029945 -0.001830 -0.012242 0.000000 0.083892 0.000000
# 6 0.000000 0.000000 0.000000 -0.024569 0.000000 0.038326
#
#
# Mechanical properties :
#
#
# Convention : Reuss Voigt Hill
#
# Bulk Modulus (GPa) = 23.00808 51.88551 37.44680
# Shear Modulus (GPa) = 19.39173 29.48608 24.43891
#
# Velocity S-wave (km/s) = 3.30400 4.07418 3.70914
# Velocity P-wave (km/s) = 5.24476 7.16523 6.27885
#
# Compressibility (1/GPa) = 0.04346299
#
# Stress axis : x y z
#
# Youngs Moduli (GPa) = 35.45167 84.84362 72.18482
#
# Poissons Ratio (x) = 0.37703 -0.14984
# Poissons Ratio (y) = 0.15754 0.20385
# Poissons Ratio (z) = -0.07359 0.23960
#
# Static dielectric constant tensor:
#      x y z
#    x 1.630670 0.000000 0.030330 
#    y 0.000000 1.621360 0.000000 
#    z 0.030330 0.000000 1.590160 
# 
# From -- ./inp_files/26117.got.cif
#   From: 2010.05.17/outbox.cif.g08.bks.cpg/sg14_14_cif.got.tgz:26117.got - 2010.06.03 17:49:19.
