data_PCOD9240463
_publ_section_title
;
Structure prediction by ZEFSAII (Michael W. Deem and Ramdas Pophale) SiO2 
 PCOD9240463
Probable space group: P 21/C
;
_chemical_formula_sum "Si O2"
_cell_formula_units_Z 28
_cell_length_a 7.303530
_cell_length_b 24.378267
_cell_length_c 7.605638
_cell_angle_alpha 90.000000
_cell_angle_beta 76.101554
_cell_angle_gamma 90.000000
_cell_volume 1314.518238
_symmetry_space_group_name_H-M "P 21/C"
_symmetry_group_IT_number 14
_symmetry_cell_setting 'monoclinic'
loop_
_space_group_symop_operation_xyz
x,y,z
-x,1/2+y,1/2-z
-x,-y,-z
x,1/2-y,1/2+z
loop_
_atom_site_type_symbol
_atom_site_label
_atom_site_fract_x
_atom_site_fract_y
_atom_site_fract_z
Si Si1 0.061702 0.118074 0.384575
Si Si2 0.008661 0.807643 0.286268
Si Si3 0.339958 0.777342 0.686179
Si Si4 0.876429 0.130957 0.075994
Si Si5 0.585217 0.691023 0.810978
Si Si6 0.235806 0.538507 0.169446
Si Si7 0.369012 0.078925 0.579115
O O1 0.256415 0.104831 0.438120
O O2 0.970216 0.164640 0.528686
O O3 0.041903 0.137476 0.186682
O O4 0.934379 0.063065 0.408313
O O5 0.151646 0.758762 0.216152
O O6 0.793001 0.789032 0.316495
O O7 0.050938 0.854568 0.131999
O O8 0.285390 0.824588 0.837250
O O9 0.500673 0.732737 0.692070
O O10 0.426754 0.806590 0.498559
O O11 0.795760 0.070681 0.138878
O O12 0.609612 0.625969 0.778566
O O13 0.428670 0.559355 0.035945
O O14 0.253142 0.473465 0.174243
#
# Coordination Sequence:
#
# PCOD9240463 Si02
#       7
#     4   4   4   4   4   4   4
#     4   9  21  39  63  89 121 163 205 252 315 364
#     4  11  24  41  62  91 129 159 212 269 304 379
#     4  12  22  43  59  87 131 162 209 261 318 366
#     4  10  22  40  63  91 124 167 206 258 313 375
#     4  11  25  39  64  94 119 168 211 255 319 373
#     4   9  19  37  66  90 123 166 207 250 319 372
#     4  10  18  38  66  91 123 165 207 258 308 380
#
# _framework density 21.30058
#
# number of rings (size 3 to 8) (size 9 to 14) (size 15 to 20)
#    0.857    0.857    2.857    2.143    2.000    1.143 
#    2.571    2.857    0.000    2.571    0.000    0.000 
#    0.000    0.000    0.000    0.000    0.000    0.000 
#
# Total GULP energy -156074.757221 kJ/mol
# GULP energy per Si atom -5574.098472 kJ/mol
# Density = 2.125210 g / cm^3
# Si number density = 21.300580 Si / 1000 Ang^3
#
#
#
# Elastic Constant Matrix: (Units=GPa)
#
#
# Indices 1 2 3 4 5 6 
#
# 1 60.0319 10.4734 -18.2055 0.0000 -2.3110 0.0000
# 2 10.4734 100.9265 -10.8077 0.0000 11.5592 0.0000
# 3 -18.2055 -10.8077 15.3856 0.0000 0.1965 0.0000
# 4 0.0000 0.0000 0.0000 14.7875 0.0000 6.4286
# 5 -2.3110 11.5592 0.1965 0.0000 24.3920 0.0000
# 6 0.0000 0.0000 0.0000 6.4286 0.0000 84.0520
#
#
#
# Elastic Compliance Matrix: (Units=1/GPa)
#
#
# Indices 1 2 3 4 5 6 
#
# 1 0.026115 0.000392 0.031151 0.000000 0.002037 0.000000
# 2 0.000392 0.011405 0.008545 0.000000 -0.005437 0.000000
# 3 0.031151 0.008545 0.107884 0.000000 -0.001967 0.000000
# 4 0.000000 0.000000 0.000000 0.069951 0.000000 -0.005350
# 5 0.002037 -0.005437 -0.001967 0.000000 0.043782 0.000000
# 6 0.000000 0.000000 0.000000 -0.005350 0.000000 0.012307
#
#
# Mechanical properties :
#
#
# Convention : Reuss Voigt Hill
#
# Bulk Modulus (GPa) = 4.43300 15.47382 9.95341
# Shear Modulus (GPa) = 18.76456 37.63853 28.20155
#
# Velocity S-wave (km/s) = 2.97129 4.20815 3.64260
# Velocity P-wave (km/s) = 3.72251 5.55803 4.73016
#
# Compressibility (1/GPa) = 0.22558076
#
# Stress axis : x y z
#
# Youngs Moduli (GPa) = 38.29271 87.67921 9.26923
#
# Poissons Ratio (x) = -0.03441 -0.28874
# Poissons Ratio (y) = -0.01503 -0.07921
# Poissons Ratio (z) = -1.19284 -0.74926
#
# Static dielectric constant tensor:
#      x y z
#    x 1.792700 0.000000 0.031640 
#    y 0.000000 1.888280 0.000000 
#    z 0.031640 0.000000 1.774530 
# 
# From -- ./inp_files/10532.got.cif
#   From: 2010.05.17/outbox.cif.g08.bks.cpg/sg14_6_cif.got.tgz:10532.got - 2010.06.03 17:49:19.
