data_PCOD9240653
_publ_section_title
;
Structure prediction by ZEFSAII (Michael W. Deem and Ramdas Pophale) SiO2 
 PCOD9240653
Probable space group: P 21/C
;
_chemical_formula_sum "Si O2"
_cell_formula_units_Z 32
_cell_length_a 10.945858
_cell_length_b 27.033470
_cell_length_c 5.765058
_cell_angle_alpha 90.000000
_cell_angle_beta 66.602527
_cell_angle_gamma 90.000000
_cell_volume 1565.633683
_symmetry_space_group_name_H-M "P 21/C"
_symmetry_group_IT_number 14
_symmetry_cell_setting 'monoclinic'
loop_
_space_group_symop_operation_xyz
x,y,z
-x,1/2+y,1/2-z
-x,-y,-z
x,1/2-y,1/2+z
loop_
_atom_site_type_symbol
_atom_site_label
_atom_site_fract_x
_atom_site_fract_y
_atom_site_fract_z
Si Si1 0.586681 0.923344 0.926683
Si Si2 0.110993 0.970709 0.766882
Si Si3 0.750739 0.631457 0.612871
Si Si4 0.602067 0.020386 0.225335
Si Si5 0.005716 0.871359 0.620768
Si Si6 0.157997 0.431136 0.075160
Si Si7 0.189464 0.228206 0.695897
Si Si8 0.116563 0.736425 0.049175
O O1 0.458818 0.932343 0.864082
O O2 0.712283 0.917375 0.665912
O O3 0.610565 0.879984 0.096311
O O4 0.607449 0.975086 0.042850
O O5 0.253616 0.967687 0.783415
O O6 0.066948 0.916791 0.718846
O O7 0.132441 0.011275 0.548122
O O8 0.000000 0.000000 0.000000
O O9 0.867386 0.645775 0.345598
O O10 0.801444 0.580842 0.693117
O O11 0.758706 0.672855 0.802542
O O12 0.500000 0.000000 0.500000
O O13 0.963701 0.896804 0.410684
O O14 0.091734 0.822274 0.542441
O O15 0.233279 0.245643 0.406172
O O16 0.028133 0.235259 0.823203
O O17 0.179066 0.745959 0.257144
#
# Coordination Sequence:
#
# PCOD9240653 Si02
#       8
#     4   4   4   4   4   4   4   4
#     4  10  21  35  60  79 104 159 204 239 289 353
#     4  12  22  37  55  86 123 160 193 247 300 358
#     4  11  19  33  54  81 114 151 196 244 299 357
#     4  11  21  41  57  78 116 160 201 241 289 354
#     4  11  22  31  52  82 117 154 193 243 308 361
#     4  11  20  36  53  81 120 157 190 242 294 358
#     4  10  19  31  51  79 116 153 192 246 309 362
#     4  10  19  34  52  77 113 157 196 246 304 367
#
# _framework density 20.439008000000001
#
# number of rings (size 3 to 8) (size 9 to 14) (size 15 to 20)
#    0.000    1.250    6.250    2.625    1.750    0.000 
#    0.000    0.000    0.000    0.000    0.000    1.750 
#    0.000    0.000    0.000    0.000    0.000    0.000 
#
# Total GULP energy -178297.297871 kJ/mol
# GULP energy per Si atom -5571.790558 kJ/mol
# Density = 2.039249 g / cm^3
# Si number density = 20.439008 Si / 1000 Ang^3
#
#
#
# Elastic Constant Matrix: (Units=GPa)
#
#
# Indices 1 2 3 4 5 6 
#
# 1 87.7080 24.2233 24.1596 0.0000 16.8399 0.0000
# 2 24.2233 89.5633 14.2326 0.0000 12.1855 0.0000
# 3 24.1596 14.2326 76.1224 0.0000 21.9341 0.0000
# 4 0.0000 0.0000 0.0000 36.0789 0.0000 17.1465
# 5 16.8399 12.1855 21.9341 0.0000 20.1727 0.0000
# 6 0.0000 0.0000 0.0000 17.1465 0.0000 24.6957
#
#
#
# Elastic Compliance Matrix: (Units=1/GPa)
#
#
# Indices 1 2 3 4 5 6 
#
# 1 0.014158 -0.002402 -0.001539 0.000000 -0.008695 0.000000
# 2 -0.002402 0.012575 0.000032 0.000000 -0.005626 0.000000
# 3 -0.001539 0.000032 0.019302 0.000000 -0.019722 0.000000
# 4 0.000000 0.000000 0.000000 0.041367 0.000000 -0.028722
# 5 -0.008695 -0.005626 -0.019722 0.000000 0.081673 0.000000
# 6 0.000000 0.000000 0.000000 -0.028722 0.000000 0.060435
#
#
# Mechanical properties :
#
#
# Convention : Reuss Voigt Hill
#
# Bulk Modulus (GPa) = 26.16553 42.06939 34.11746
# Shear Modulus (GPa) = 19.99469 28.90800 24.45134
#
# Velocity S-wave (km/s) = 3.13111 3.76487 3.46252
# Velocity P-wave (km/s) = 5.08934 6.28702 5.71961
#
# Compressibility (1/GPa) = 0.03821821
#
# Stress axis : x y z
#
# Youngs Moduli (GPa) = 70.63089 79.52153 51.80824
#
# Poissons Ratio (x) = 0.19098 0.07974
# Poissons Ratio (y) = 0.16963 -0.00167
# Poissons Ratio (z) = 0.10871 -0.00256
#
# Static dielectric constant tensor:
#      x y z
#    x 1.780290 0.000000 0.017420 
#    y 0.000000 1.813380 0.000000 
#    z 0.017420 0.000000 1.867850 
# 
# From -- ./inp_files/3279.got.cif
#   From: 2010.05.17/outbox.cif.g08.bks.cpg/sg14_2_cif.got.tgz:3279.got - 2010.06.03 17:49:19.
