data_PCOD9240658
_publ_section_title
;
Structure prediction by ZEFSAII (Michael W. Deem and Ramdas Pophale) SiO2 
 PCOD9240658
Probable space group: P 21/C
;
_chemical_formula_sum "Si O2"
_cell_formula_units_Z 32
_cell_length_a 8.005600
_cell_length_b 7.830637
_cell_length_c 24.411097
_cell_angle_alpha 90.000000
_cell_angle_beta 46.203942
_cell_angle_gamma 90.000000
_cell_volume 1104.586864
_symmetry_space_group_name_H-M "P 21/C"
_symmetry_group_IT_number 14
_symmetry_cell_setting 'monoclinic'
loop_
_space_group_symop_operation_xyz
x,y,z
-x,1/2+y,1/2-z
-x,-y,-z
x,1/2-y,1/2+z
loop_
_atom_site_type_symbol
_atom_site_label
_atom_site_fract_x
_atom_site_fract_y
_atom_site_fract_z
Si Si1 0.311835 0.507817 0.199521
Si Si2 0.239900 0.354599 0.014093
Si Si3 0.541817 0.798653 0.421774
Si Si4 0.694144 0.487237 0.255717
Si Si5 0.163267 0.405733 0.883998
Si Si6 0.147165 0.909816 0.045538
Si Si7 0.676105 0.321001 0.372901
Si Si8 0.209696 0.631675 0.331852
O O1 0.573161 0.564655 0.157908
O O2 0.228313 0.641589 0.173109
O O3 0.171897 0.513719 0.286696
O O4 0.334189 0.330180 0.163633
O O5 0.379284 0.536732 0.971715
O O6 0.982995 0.429211 0.063232
O O7 0.278817 0.306899 0.069217
O O8 0.402279 0.225287 0.943396
O O9 0.377066 0.635145 0.459295
O O10 0.838507 0.605181 0.181753
O O11 0.740341 0.444643 0.308078
O O12 0.434379 0.557568 0.310357
O O13 0.724463 0.309476 0.213112
O O14 0.041475 0.231791 0.929707
O O15 0.242734 0.869287 0.085042
O O16 0.008357 0.088302 0.079423
#
# Coordination Sequence:
#
# PCOD9240658 Si02
#       8
#     4   4   4   4   4   4   4   4
#     4   9  17  29  47  72 100 127 164 201 239 283
#     4   8  15  28  47  72 100 125 163 206 240 280
#     4   8  15  28  46  72 100 127 161 205 240 281
#     4  10  21  35  52  72 100 131 164 204 244 290
#     4  10  19  31  52  78 101 129 162 204 248 289
#     4  10  19  31  52  77 101 127 161 203 249 292
#     4   9  18  31  49  75 101 129 165 204 242 287
#     4  10  20  35  51  71  99 130 164 203 242 291
#
# _framework density 28.970108
#
# number of rings (size 3 to 8) (size 9 to 14) (size 15 to 20)
#    0.000    2.750    0.000    4.500    0.000    8.500 
#    0.000    0.000    0.000   11.250    0.000    0.000 
#    0.000    0.000    0.000    0.000    0.000    0.000 
#
# Total GULP energy -179171.713761 kJ/mol
# GULP energy per Si atom -5599.116055 kJ/mol
# Density = 2.890417 g / cm^3
# Si number density = 28.970108 Si / 1000 Ang^3
#
#
#
# Elastic Constant Matrix: (Units=GPa)
#
#
# Indices 1 2 3 4 5 6 
#
# 1 95.2751 -2.2207 16.4686 0.0000 6.6617 0.0000
# 2 -2.2207 77.6253 -15.0109 0.0000 -2.5735 0.0000
# 3 16.4686 -15.0109 100.2921 0.0000 8.3839 0.0000
# 4 0.0000 0.0000 0.0000 36.3497 0.0000 0.4827
# 5 6.6617 -2.5735 8.3839 0.0000 53.8023 0.0000
# 6 0.0000 0.0000 0.0000 0.4827 0.0000 26.0962
#
#
#
# Elastic Compliance Matrix: (Units=1/GPa)
#
#
# Indices 1 2 3 4 5 6 
#
# 1 0.010864 -0.000054 -0.001702 0.000000 -0.001083 0.000000
# 2 -0.000054 0.013272 0.001967 0.000000 0.000335 0.000000
# 3 -0.001702 0.001967 0.010658 0.000000 -0.001356 0.000000
# 4 0.000000 0.000000 0.000000 0.027517 0.000000 -0.000509
# 5 -0.001083 0.000335 -0.001356 0.000000 0.018948 0.000000
# 6 0.000000 0.000000 0.000000 -0.000509 0.000000 0.038329
#
#
# Mechanical properties :
#
#
# Convention : Reuss Voigt Hill
#
# Bulk Modulus (GPa) = 28.39435 30.18517 29.28976
# Shear Modulus (GPa) = 38.19547 41.51335 39.85441
#
# Velocity S-wave (km/s) = 3.63498 3.78957 3.71308
# Velocity P-wave (km/s) = 5.23832 5.43965 5.33993
#
# Compressibility (1/GPa) = 0.03521828
#
# Stress axis : x y z
#
# Youngs Moduli (GPa) = 92.04297 75.34430 93.82529
#
# Poissons Ratio (x) = 0.00408 0.15965
# Poissons Ratio (y) = 0.00498 -0.18459
# Poissons Ratio (z) = 0.15662 -0.14823
#
# Static dielectric constant tensor:
#      x y z
#    x 2.201360 0.000000 -0.004420 
#    y 0.000000 2.406830 0.000000 
#    z -0.004420 0.000000 2.268940 
# 
# From -- ./inp_files/76355.got.cif
#   From: 2010.05.17/outbox.cif.g08.bks.cpg/sg14_39_cif.got.tgz:76355.got - 2010.06.03 17:49:19.
