data_PCOD9240632
_publ_section_title
;
Structure prediction by ZEFSAII (Michael W. Deem and Ramdas Pophale) SiO2 
 PCOD9240632
Probable space group: P 21/C
;
_chemical_formula_sum "Si O2"
_cell_formula_units_Z 24
_cell_length_a 13.187263
_cell_length_b 7.981650
_cell_length_c 17.124487
_cell_angle_alpha 90.000000
_cell_angle_beta 148.050562
_cell_angle_gamma 90.000000
_cell_volume 953.807403
_symmetry_space_group_name_H-M "P 21/C"
_symmetry_group_IT_number 14
_symmetry_cell_setting 'monoclinic'
loop_
_space_group_symop_operation_xyz
x,y,z
-x,1/2+y,1/2-z
-x,-y,-z
x,1/2-y,1/2+z
loop_
_atom_site_type_symbol
_atom_site_label
_atom_site_fract_x
_atom_site_fract_y
_atom_site_fract_z
Si Si1 0.979845 0.097369 0.877190
Si Si2 0.848937 0.541982 0.145531
Si Si3 0.071776 0.255552 0.087816
Si Si4 0.598757 0.009993 0.909764
Si Si5 0.768662 0.902660 0.169305
Si Si6 0.332882 0.633668 0.104818
O O1 0.187764 0.041208 0.981578
O O2 0.025333 0.250189 0.965329
O O3 0.849448 0.099659 0.714227
O O4 0.890522 0.940577 0.867505
O O5 0.824964 0.718126 0.172266
O O6 0.054453 0.524252 0.237725
O O7 0.693105 0.509539 0.977189
O O8 0.226287 0.370875 0.233914
O O9 0.875188 0.311656 0.000318
O O10 0.455977 0.916797 0.758984
O O11 0.582081 0.206508 0.883303
O O12 0.599858 0.957267 0.000653
#
# Coordination Sequence:
#
# PCOD9240632 Si02
#       6
#     4   4   4   4   4   4
#     4   8  15  29  49  71  91 116 155 195 227 266
#     4   9  16  28  48  70  93 122 155 190 227 273
#     4   8  15  29  49  71  91 116 155 195 227 266
#     4  10  19  31  49  70  94 123 155 193 232 274
#     4   9  16  28  48  70  93 122 155 190 227 273
#     4  10  19  31  49  70  94 123 155 193 232 274
#
# _framework density 25.162313000000001
#
# number of rings (size 3 to 8) (size 9 to 14) (size 15 to 20)
#    0.000    3.000    0.000    4.000    0.000    0.000 
#    0.000    1.667    0.000   46.000    0.000    0.000 
#    0.000    0.000    0.000    0.000    0.000    0.000 
#
# Total GULP energy -134050.080152 kJ/mol
# GULP energy per Si atom -5585.420006 kJ/mol
# Density = 2.510504 g / cm^3
# Si number density = 25.162313 Si / 1000 Ang^3
#
#
#
# Elastic Constant Matrix: (Units=GPa)
#
#
# Indices 1 2 3 4 5 6 
#
# 1 63.9588 16.9451 26.9403 0.0000 -26.7170 0.0000
# 2 16.9451 90.7072 43.9911 0.0000 -16.7747 0.0000
# 3 26.9403 43.9911 200.9887 0.0000 -34.3480 0.0000
# 4 0.0000 0.0000 0.0000 44.4337 0.0000 -12.7088
# 5 -26.7170 -16.7747 -34.3480 0.0000 38.9962 0.0000
# 6 0.0000 0.0000 0.0000 -12.7088 0.0000 14.3970
#
#
#
# Elastic Compliance Matrix: (Units=1/GPa)
#
#
# Indices 1 2 3 4 5 6 
#
# 1 0.022083 -0.001370 -0.000206 0.000000 0.014358 0.000000
# 2 -0.001370 0.012825 -0.002167 0.000000 0.002669 0.000000
# 3 -0.000206 -0.002167 0.006232 0.000000 0.004416 0.000000
# 4 0.000000 0.000000 0.000000 0.030107 0.000000 0.026576
# 5 0.014358 0.002669 0.004416 0.000000 0.040518 0.000000
# 6 0.000000 0.000000 0.000000 0.026576 0.000000 0.092919
#
#
# Mechanical properties :
#
#
# Convention : Reuss Voigt Hill
#
# Bulk Modulus (GPa) = 29.71526 59.04530 44.38028
# Shear Modulus (GPa) = 22.38261 37.41727 29.89994
#
# Velocity S-wave (km/s) = 2.98573 3.86039 3.45089
# Velocity P-wave (km/s) = 4.87044 6.58687 5.79259
#
# Compressibility (1/GPa) = 0.03365275
#
# Stress axis : x y z
#
# Youngs Moduli (GPa) = 45.28437 77.97187 160.46185
#
# Poissons Ratio (x) = 0.10682 0.03311
# Poissons Ratio (y) = 0.06204 0.34776
# Poissons Ratio (z) = 0.00934 0.16899
#
# Static dielectric constant tensor:
#      x y z
#    x 2.017150 0.000000 -0.012360 
#    y 0.000000 1.988020 0.000000 
#    z -0.012360 0.000000 2.063150 
# 
# From -- ./inp_files/54559.got.cif
#   From: 2010.05.17/outbox.cif.g08.bks.cpg/sg14_28_cif.got.tgz:54559.got - 2010.06.03 17:49:19.
