data_PCOD9240476
_publ_section_title
;
Structure prediction by ZEFSAII (Michael W. Deem and Ramdas Pophale) SiO2 
 PCOD9240476
Probable space group: P 21/C
;
_chemical_formula_sum "Si O2"
_cell_formula_units_Z 22
_cell_length_a 10.903015
_cell_length_b 10.855697
_cell_length_c 8.415739
_cell_angle_alpha 90.000000
_cell_angle_beta 125.013286
_cell_angle_gamma 90.000000
_cell_volume 815.812898
_symmetry_space_group_name_H-M "P 21/C"
_symmetry_group_IT_number 14
_symmetry_cell_setting 'monoclinic'
loop_
_space_group_symop_operation_xyz
x,y,z
-x,1/2+y,1/2-z
-x,-y,-z
x,1/2-y,1/2+z
loop_
_atom_site_type_symbol
_atom_site_label
_atom_site_fract_x
_atom_site_fract_y
_atom_site_fract_z
Si Si1 0.677472 0.302506 0.490590
Si Si2 0.896621 0.204025 0.891652
Si Si3 0.732969 0.917434 0.496715
Si Si4 0.000000 0.000000 0.500000
Si Si5 0.485801 0.897717 0.830871
Si Si6 0.771205 0.652121 0.387490
O O1 0.768159 0.203894 0.664277
O O2 0.812977 0.353113 0.482533
O O3 0.584328 0.384553 0.546157
O O4 0.566443 0.229804 0.292615
O O5 0.937934 0.349667 0.945226
O O6 0.051130 0.138015 0.964207
O O7 0.740660 0.796012 0.393352
O O8 0.723377 0.885391 0.674821
O O9 0.890564 0.977729 0.568374
O O10 0.597910 0.999939 0.334309
O O11 0.663414 0.906590 0.939303
#
# Coordination Sequence:
#
# PCOD9240476 Si02
#       6
#     4   4   4   2   4   4
#     4  10  20  39  67  93 127 177 213 263 325 390
#     4  10  20  38  66  95 130 168 221 269 322 387
#     4  11  23  44  68  93 137 175 219 269 339 383
#     4  10  18  38  70  90 124 180 204 268 334 378
#     4  11  23  43  68  94 136 173 214 269 336 384
#     4  11  24  40  70  97 128 176 220 272 324 393
#
# _framework density 26.966968000000001
#
# number of rings (size 3 to 8) (size 9 to 14) (size 15 to 20)
#    0.000    1.455    3.636    3.818    0.000    0.000 
#    0.000    8.182    8.000    0.000    0.000    0.000 
#    0.000    0.000    0.000    0.000    0.000    0.000 
#
# Total GULP energy -122749.273790 kJ/mol
# GULP energy per Si atom -5579.512445 kJ/mol
# Density = 2.690559 g / cm^3
# Si number density = 26.966968 Si / 1000 Ang^3
#
#
#
# Elastic Constant Matrix: (Units=GPa)
#
#
# Indices 1 2 3 4 5 6 
#
# 1 261.2578 50.7602 63.5787 0.0000 -24.1857 0.0000
# 2 50.7602 95.1230 9.6891 0.0000 -10.0531 0.0000
# 3 63.5787 9.6891 75.8692 0.0000 -7.0984 0.0000
# 4 0.0000 0.0000 0.0000 39.9152 0.0000 -0.7752
# 5 -24.1857 -10.0531 -7.0984 0.0000 38.3867 0.0000
# 6 0.0000 0.0000 0.0000 -0.7752 0.0000 18.4848
#
#
#
# Elastic Compliance Matrix: (Units=1/GPa)
#
#
# Indices 1 2 3 4 5 6 
#
# 1 0.005458 -0.002275 -0.004088 0.000000 0.002087 0.000000
# 2 -0.002275 0.011858 0.000559 0.000000 0.001775 0.000000
# 3 -0.004088 0.000559 0.016595 0.000000 0.000639 0.000000
# 4 0.000000 0.000000 0.000000 0.025074 0.000000 0.001052
# 5 0.002087 0.001775 0.000639 0.000000 0.027949 0.000000
# 6 0.000000 0.000000 0.000000 0.001052 0.000000 0.054142
#
#
# Mechanical properties :
#
#
# Convention : Reuss Voigt Hill
#
# Bulk Modulus (GPa) = 44.84146 75.58955 60.21550
# Shear Modulus (GPa) = 31.22709 39.90548 35.56629
#
# Velocity S-wave (km/s) = 3.40660 3.85098 3.63558
# Velocity P-wave (km/s) = 5.66900 6.91843 6.32464
#
# Compressibility (1/GPa) = 0.02230079
#
# Stress axis : x y z
#
# Youngs Moduli (GPa) = 183.22721 84.33368 60.26049
#
# Poissons Ratio (x) = 0.19190 0.24633
# Poissons Ratio (y) = 0.41693 -0.03366
# Poissons Ratio (z) = 0.74899 -0.04711
#
# Static dielectric constant tensor:
#      x y z
#    x 2.061610 0.000000 0.038790 
#    y 0.000000 2.294310 0.000000 
#    z 0.038790 0.000000 2.072880 
# 
# From -- ./inp_files/12231.got.cif
#   From: 2010.05.17/outbox.cif.g08.bks.cpg/sg14_7_cif.got.tgz:12231.got - 2010.06.03 17:49:19.
