data_PCOD9240433
_publ_section_title
;
Structure prediction by ZEFSAII (Michael W. Deem and Ramdas Pophale) SiO2 
 PCOD9240433
Probable space group: P 21/C
;
_chemical_formula_sum "Si O2"
_cell_formula_units_Z 30
_cell_length_a 16.651738
_cell_length_b 6.997691
_cell_length_c 26.855542
_cell_angle_alpha 90.000000
_cell_angle_beta 22.782458
_cell_angle_gamma 90.000000
_cell_volume 1211.772180
_symmetry_space_group_name_H-M "P 21/C"
_symmetry_group_IT_number 14
_symmetry_cell_setting 'monoclinic'
loop_
_space_group_symop_operation_xyz
x,y,z
-x,1/2+y,1/2-z
-x,-y,-z
x,1/2-y,1/2+z
loop_
_atom_site_type_symbol
_atom_site_label
_atom_site_fract_x
_atom_site_fract_y
_atom_site_fract_z
Si Si1 0.227220 0.047753 0.706181
Si Si2 0.042800 0.272319 0.578622
Si Si3 0.622257 0.547282 0.548132
Si Si4 0.193658 0.060379 0.338315
Si Si5 0.866535 0.194673 0.427921
Si Si6 0.677484 0.921405 0.462753
Si Si7 0.000000 0.500000 0.500000
Si Si8 0.211444 0.720619 0.917019
O O1 0.233142 0.055045 0.643239
O O2 0.101498 0.229836 0.799080
O O3 0.111428 0.857920 0.791644
O O4 0.463150 0.038074 0.589320
O O5 0.973012 0.062959 0.599419
O O6 0.999976 0.395575 0.554606
O O7 0.270537 0.330038 0.468194
O O8 0.405111 0.457743 0.688164
O O9 0.770894 0.370828 0.451155
O O10 0.618658 0.702081 0.506622
O O11 0.244583 0.955654 0.361730
O O12 0.051955 0.244461 0.435406
O O13 0.742930 0.207159 0.551188
O O14 0.831341 0.005101 0.416587
O O15 0.746853 0.417753 0.633337
#
# Coordination Sequence:
#
# PCOD9240433 Si02
#       8
#     4   4   4   4   4   4   2   4
#     4  10  23  45  68  97 135 176 221 285 343 400
#     4  10  20  41  64  91 134 172 215 272 338 386
#     4  11  23  43  67 102 130 178 228 272 339 409
#     4  10  22  41  66  97 132 177 221 273 331 413
#     4  11  25  44  67 102 128 177 228 281 332 410
#     4  11  25  46  69  98 138 175 229 283 342 399
#     4  10  18  38  62  86 132 174 200 266 326 392
#     4  10  21  42  61  96 133 171 219 270 339 389
#
# _framework density 24.757131000000001
#
# number of rings (size 3 to 8) (size 9 to 14) (size 15 to 20)
#    0.000    1.600    4.000    0.800    5.600    0.000 
#   12.000    2.667    0.000    0.000    0.000    0.000 
#    0.000    0.000    0.000    0.000    0.000    0.000 
#
# Total GULP energy -167156.107490 kJ/mol
# GULP energy per Si atom -5571.870250 kJ/mol
# Density = 2.470078 g / cm^3
# Si number density = 24.757131 Si / 1000 Ang^3
#
#
#
# Elastic Constant Matrix: (Units=GPa)
#
#
# Indices 1 2 3 4 5 6 
#
# 1 81.7149 -5.2362 11.1508 0.0000 7.9652 0.0000
# 2 -5.2362 90.7683 10.8428 0.0000 2.5772 0.0000
# 3 11.1508 10.8428 89.2441 0.0000 -1.7577 0.0000
# 4 0.0000 0.0000 0.0000 29.1522 0.0000 -3.7038
# 5 7.9652 2.5772 -1.7577 0.0000 32.2650 0.0000
# 6 0.0000 0.0000 0.0000 -3.7038 0.0000 28.7827
#
#
#
# Elastic Compliance Matrix: (Units=1/GPa)
#
#
# Indices 1 2 3 4 5 6 
#
# 1 0.012879 0.001054 -0.001803 0.000000 -0.003362 0.000000
# 2 0.001054 0.011296 -0.001529 0.000000 -0.001246 0.000000
# 3 -0.001803 -0.001529 0.011640 0.000000 0.001201 0.000000
# 4 0.000000 0.000000 0.000000 0.034873 0.000000 0.004488
# 5 -0.003362 -0.001246 0.001201 0.000000 0.031988 0.000000
# 6 0.000000 0.000000 0.000000 0.004488 0.000000 0.035321
#
#
# Mechanical properties :
#
#
# Convention : Reuss Voigt Hill
#
# Bulk Modulus (GPa) = 31.99147 32.80468 32.39807
# Shear Modulus (GPa) = 32.68565 34.37130 33.52848
#
# Velocity S-wave (km/s) = 3.63747 3.73009 3.68407
# Velocity P-wave (km/s) = 5.53098 5.64187 5.58670
#
# Compressibility (1/GPa) = 0.03125834
#
# Stress axis : x y z
#
# Youngs Moduli (GPa) = 77.64581 88.52831 85.91105
#
# Poissons Ratio (x) = -0.09330 0.15494
# Poissons Ratio (y) = -0.08183 0.13132
# Poissons Ratio (z) = 0.14003 0.13533
#
# Static dielectric constant tensor:
#      x y z
#    x 1.315330 0.000000 -0.337800 
#    y 0.000000 -0.523850 0.000000 
#    z -0.337800 0.000000 1.890170 
# 
# From -- ./inp_files/73728.got.cif
#   From: 2010.05.17/outbox.cif.g08.bks.cpg/sg14_37_cif.got.tgz:73728.got - 2010.06.03 17:49:19.
