data_PCOD9240751
_publ_section_title
;
Structure prediction by ZEFSAII (Michael W. Deem and Ramdas Pophale) SiO2 
 PCOD9240751
Probable space group: P 21/C
;
_chemical_formula_sum "Si O2"
_cell_formula_units_Z 32
_cell_length_a 18.652385
_cell_length_b 8.950478
_cell_length_c 18.079561
_cell_angle_alpha 90.000000
_cell_angle_beta 36.759692
_cell_angle_gamma 90.000000
_cell_volume 1806.357489
_symmetry_space_group_name_H-M "P 21/C"
_symmetry_group_IT_number 14
_symmetry_cell_setting 'monoclinic'
loop_
_space_group_symop_operation_xyz
x,y,z
-x,1/2+y,1/2-z
-x,-y,-z
x,1/2-y,1/2+z
loop_
_atom_site_type_symbol
_atom_site_label
_atom_site_fract_x
_atom_site_fract_y
_atom_site_fract_z
Si Si1 0.665462 0.567766 0.977004
Si Si2 0.534149 0.986625 0.815361
Si Si3 0.359399 0.760245 0.033402
Si Si4 0.268704 0.312693 0.926548
Si Si5 0.438300 0.697433 0.127617
Si Si6 0.337765 0.519577 0.347256
Si Si7 0.091257 0.023756 0.668733
Si Si8 0.847136 0.180275 0.898186
O O1 0.627787 0.396108 0.021540
O O2 0.809239 0.557702 0.849086
O O3 0.656550 0.667123 0.058417
O O4 0.572555 0.638554 0.997154
O O5 0.662002 0.919244 0.686964
O O6 0.448160 0.994108 0.814101
O O7 0.549935 0.144764 0.841069
O O8 0.465859 0.871927 0.925802
O O9 0.362833 0.716725 0.115925
O O10 0.235885 0.830266 0.106387
O O11 0.276549 0.142987 0.894612
O O12 0.140764 0.376410 0.059090
O O13 0.383170 0.581072 0.231644
O O14 0.242486 0.634301 0.462032
O O15 0.959595 0.070729 0.800074
O O16 0.105930 0.850134 0.636362
#
# Coordination Sequence:
#
# PCOD9240751 Si02
#       8
#     4   4   4   4   4   4   4   4
#     4   9  19  34  53  79 105 141 182 222 267 320
#     4  11  19  33  53  79 111 141 187 221 267 320
#     4  10  23  35  53  81 120 149 171 222 283 336
#     4  10  19  32  54  83 101 136 183 237 262 306
#     4  12  21  34  54  83 118 148 177 219 282 336
#     4  11  19  32  56  78 106 142 188 228 265 313
#     4   9  18  33  54  80 102 135 183 237 266 311
#     4  10  20  35  58  81 106 139 186 232 273 319
#
# _framework density 17.715209000000002
#
# number of rings (size 3 to 8) (size 9 to 14) (size 15 to 20)
#    0.750    1.000    2.500    3.000    1.750    0.000 
#    0.000    0.000    0.000   11.250    0.000    0.000 
#    0.000    0.000    0.000    0.000    0.000    0.000 
#
# Total GULP energy -178237.084100 kJ/mol
# GULP energy per Si atom -5569.908878 kJ/mol
# Density = 1.767489 g / cm^3
# Si number density = 17.715209 Si / 1000 Ang^3
#
#
#
# Elastic Constant Matrix: (Units=GPa)
#
#
# Indices 1 2 3 4 5 6 
#
# 1 44.3096 6.2069 23.8530 0.0000 -9.6757 0.0000
# 2 6.2069 25.3537 -1.4291 0.0000 7.0599 0.0000
# 3 23.8530 -1.4291 52.9317 0.0000 -4.9770 0.0000
# 4 0.0000 0.0000 0.0000 30.4201 0.0000 -9.7582
# 5 -9.6757 7.0599 -4.9770 0.0000 19.5262 0.0000
# 6 0.0000 0.0000 0.0000 -9.7582 0.0000 18.1314
#
#
#
# Elastic Compliance Matrix: (Units=1/GPa)
#
#
# Indices 1 2 3 4 5 6 
#
# 1 0.037510 -0.015716 -0.015415 0.000000 0.020340 0.000000
# 2 -0.015716 0.050447 0.006144 0.000000 -0.024461 0.000000
# 3 -0.015415 0.006144 0.025693 0.000000 -0.003311 0.000000
# 4 0.000000 0.000000 0.000000 0.039733 0.000000 0.021384
# 5 0.020340 -0.024461 -0.003311 0.000000 0.069293 0.000000
# 6 0.000000 0.000000 0.000000 0.021384 0.000000 0.066662
#
#
# Mechanical properties :
#
#
# Convention : Reuss Voigt Hill
#
# Bulk Modulus (GPa) = 15.70425 19.98406 17.84415
# Shear Modulus (GPa) = 13.86823 19.87983 16.87403
#
# Velocity S-wave (km/s) = 2.80097 3.35354 3.08963
# Velocity P-wave (km/s) = 4.39826 5.12838 4.77728
#
# Compressibility (1/GPa) = 0.06367704
#
# Stress axis : x y z
#
# Youngs Moduli (GPa) = 26.65964 19.82272 38.92048
#
# Poissons Ratio (x) = 0.31153 0.59996
# Poissons Ratio (y) = 0.41898 -0.23913
# Poissons Ratio (z) = 0.41096 -0.12179
#
# Static dielectric constant tensor:
#      x y z
#    x 1.610500 0.000000 -0.007660 
#    y 0.000000 1.619550 0.000000 
#    z -0.007660 0.000000 1.593790 
# 
# From -- ./inp_files/50086.got.cif
#   From: 2010.05.17/outbox.cif.g08.bks.cpg/sg14_26_cif.got.tgz:50086.got - 2010.06.03 17:49:19.
