data_PCOD9240317
_publ_section_title
;
Structure prediction by ZEFSAII (Michael W. Deem and Ramdas Pophale) SiO2 
 PCOD9240317
Probable space group: P 21/C
;
_chemical_formula_sum "Si O2"
_cell_formula_units_Z 28
_cell_length_a 22.398069
_cell_length_b 5.916490
_cell_length_c 19.997731
_cell_angle_alpha 90.000000
_cell_angle_beta 31.843445
_cell_angle_gamma 90.000000
_cell_volume 1398.170999
_symmetry_space_group_name_H-M "P 21/C"
_symmetry_group_IT_number 14
_symmetry_cell_setting 'monoclinic'
loop_
_space_group_symop_operation_xyz
x,y,z
-x,1/2+y,1/2-z
-x,-y,-z
x,1/2-y,1/2+z
loop_
_atom_site_type_symbol
_atom_site_label
_atom_site_fract_x
_atom_site_fract_y
_atom_site_fract_z
Si Si1 0.566477 0.171784 0.128433
Si Si2 0.555707 0.250983 0.927907
Si Si3 0.153083 0.986915 0.553330
Si Si4 0.921872 0.315243 0.255706
Si Si5 0.277135 0.595449 0.128588
Si Si6 0.621145 0.373858 0.219602
Si Si7 0.744031 0.794837 0.930088
O O1 0.580199 0.249600 0.191096
O O2 0.439440 0.119368 0.227216
O O3 0.633062 0.334634 0.014931
O O4 0.636983 0.941825 0.051848
O O5 0.675225 0.277349 0.852983
O O6 0.578000 0.241363 0.827806
O O7 0.500000 0.500000 0.000000
O O8 0.500000 0.000000 0.000000
O O9 0.094957 0.794362 0.654699
O O10 0.243731 0.892975 0.414919
O O11 0.225801 0.126531 0.538492
O O12 0.053064 0.139103 0.618808
O O13 0.849286 0.165588 0.273056
O O14 0.852575 0.546817 0.320735
O O15 0.278438 0.326321 0.119405
#
# Coordination Sequence:
#
# PCOD9240317 Si02
#       7
#     4   4   4   4   4   4   4
#     4  11  22  37  61  98 126 162 210 283 337 388
#     4  12  28  48  69  98 141 189 223 272 342 427
#     4  11  20  36  59 101 122 169 215 284 326 393
#     4  10  20  35  64  91 133 165 222 268 345 385
#     4  10  22  42  62  94 129 181 216 266 343 409
#     4  12  24  39  66 100 134 165 231 278 340 399
#     4  10  18  36  64  88 131 166 211 270 330 400
#
# _framework density 20.026164000000001
#
# number of rings (size 3 to 8) (size 9 to 14) (size 15 to 20)
#    0.000    1.143    7.143    1.714    4.000    1.143 
#    0.000    0.714    0.000    0.857    0.000    0.000 
#    0.000    0.000    0.000    0.000    0.000    0.000 
#
# Total GULP energy -156098.748190 kJ/mol
# GULP energy per Si atom -5574.955293 kJ/mol
# Density = 1.998058 g / cm^3
# Si number density = 20.026164 Si / 1000 Ang^3
#
#
#
# Elastic Constant Matrix: (Units=GPa)
#
#
# Indices 1 2 3 4 5 6 
#
# 1 67.3943 -3.9990 22.2354 0.0000 -7.7230 0.0000
# 2 -3.9990 59.7792 8.3406 0.0000 -5.5190 0.0000
# 3 22.2354 8.3406 81.8179 0.0000 -12.2788 0.0000
# 4 0.0000 0.0000 0.0000 13.0452 0.0000 -7.1672
# 5 -7.7230 -5.5190 -12.2788 0.0000 39.2228 0.0000
# 6 0.0000 0.0000 0.0000 -7.1672 0.0000 26.7566
#
#
#
# Elastic Compliance Matrix: (Units=1/GPa)
#
#
# Indices 1 2 3 4 5 6 
#
# 1 0.016652 0.001928 -0.004396 0.000000 0.002174 0.000000
# 2 0.001928 0.017334 -0.001960 0.000000 0.002205 0.000000
# 3 -0.004396 -0.001960 0.014108 0.000000 0.003275 0.000000
# 4 0.000000 0.000000 0.000000 0.089885 0.000000 0.024077
# 5 0.002174 0.002205 0.003275 0.000000 0.027259 0.000000
# 6 0.000000 0.000000 0.000000 0.024077 0.000000 0.043823
#
#
# Mechanical properties :
#
#
# Convention : Reuss Voigt Hill
#
# Bulk Modulus (GPa) = 25.48507 29.12726 27.30617
# Shear Modulus (GPa) = 21.64533 27.96590 24.80561
#
# Velocity S-wave (km/s) = 3.29120 3.74099 3.52328
# Velocity P-wave (km/s) = 5.21499 5.76508 5.49692
#
# Compressibility (1/GPa) = 0.03923866
#
# Stress axis : x y z
#
# Youngs Moduli (GPa) = 60.05338 57.68927 70.88064
#
# Poissons Ratio (x) = -0.11122 0.31157
# Poissons Ratio (y) = -0.11578 0.13893
# Poissons Ratio (z) = 0.26398 0.11308
#
# Static dielectric constant tensor:
#      x y z
#    x 1.761040 0.000000 -0.033340 
#    y 0.000000 1.818530 0.000000 
#    z -0.033340 0.000000 1.721810 
# 
# From -- ./inp_files/60924.got.cif
#   From: 2010.05.17/outbox.cif.g08.bks.cpg/sg14_31_cif.got.tgz:60924.got - 2010.06.03 17:49:19.
