data_PCOD9240402
_publ_section_title
;
Structure prediction by ZEFSAII (Michael W. Deem and Ramdas Pophale) SiO2 
 PCOD9240402
Probable space group: P 21/C
;
_chemical_formula_sum "Si O2"
_cell_formula_units_Z 28
_cell_length_a 19.195321
_cell_length_b 5.594072
_cell_length_c 27.647737
_cell_angle_alpha 90.000000
_cell_angle_beta 152.785596
_cell_angle_gamma 90.000000
_cell_volume 1357.702597
_symmetry_space_group_name_H-M "P 21/C"
_symmetry_group_IT_number 14
_symmetry_cell_setting 'monoclinic'
loop_
_space_group_symop_operation_xyz
x,y,z
-x,1/2+y,1/2-z
-x,-y,-z
x,1/2-y,1/2+z
loop_
_atom_site_type_symbol
_atom_site_label
_atom_site_fract_x
_atom_site_fract_y
_atom_site_fract_z
Si Si1 0.866698 0.960943 0.489999
Si Si2 0.710205 0.752290 0.802196
Si Si3 0.048092 0.039773 0.111391
Si Si4 0.443954 0.602869 0.360998
Si Si5 0.586274 0.983017 0.388853
Si Si6 0.401719 0.778069 0.498156
Si Si7 0.710743 0.020669 0.664167
O O1 0.788355 0.911632 0.389999
O O2 0.734769 0.972390 0.448652
O O3 0.965003 0.717540 0.559309
O O4 0.951034 0.217403 0.543125
O O5 0.826672 0.951657 0.854444
O O6 0.664911 0.600899 0.727008
O O7 0.551000 0.868162 0.720352
O O8 0.134500 0.068013 0.216228
O O9 0.515950 0.727431 0.358728
O O10 0.582135 0.498254 0.478272
O O11 0.347792 0.777165 0.334776
O O12 0.615609 0.093809 0.460593
O O13 0.283298 0.867382 0.385455
O O14 0.569063 0.836779 0.578729
#
# Coordination Sequence:
#
# PCOD9240402 Si02
#       7
#     4   4   4   4   4   4   4
#     4  12  30  42  68  99 146 181 219 283 356 402
#     4  11  24  43  70  92 135 182 238 275 333 406
#     4  12  25  46  64 102 139 178 230 277 344 418
#     4  10  18  37  67  98 130 161 236 287 326 394
#     4  10  24  42  65 100 131 175 234 283 333 414
#     4   9  19  37  68  95 129 164 237 279 338 384
#     4  10  19  37  65 100 124 176 219 289 332 401
#
# _framework density 20.623073999999999
#
# number of rings (size 3 to 8) (size 9 to 14) (size 15 to 20)
#    0.000    1.429    4.286    2.143    8.000    0.000 
#    0.000    1.429    0.000    0.000    0.000    0.000 
#    0.000    0.000    0.000    0.000    0.000    0.000 
#
# Total GULP energy -156245.716701 kJ/mol
# GULP energy per Si atom -5580.204168 kJ/mol
# Density = 2.057614 g / cm^3
# Si number density = 20.623074 Si / 1000 Ang^3
#
#
#
# Elastic Constant Matrix: (Units=GPa)
#
#
# Indices 1 2 3 4 5 6 
#
# 1 81.2922 -4.6017 6.8175 0.0000 -7.4880 0.0000
# 2 -4.6017 111.9267 81.9733 0.0000 21.6341 0.0000
# 3 6.8175 81.9733 187.4419 0.0000 8.2296 0.0000
# 4 0.0000 0.0000 0.0000 42.2889 0.0000 -2.2291
# 5 -7.4880 21.6341 8.2296 0.0000 46.9470 0.0000
# 6 0.0000 0.0000 0.0000 -2.2291 0.0000 15.0379
#
#
#
# Elastic Compliance Matrix: (Units=1/GPa)
#
#
# Indices 1 2 3 4 5 6 
#
# 1 0.012588 0.000832 -0.000900 0.000000 0.001782 0.000000
# 2 0.000832 0.014528 -0.006143 0.000000 -0.005485 0.000000
# 3 -0.000900 -0.006143 0.007998 0.000000 0.001285 0.000000
# 4 0.000000 0.000000 0.000000 0.023833 0.000000 0.003533
# 5 0.001782 -0.005485 0.001285 0.000000 0.023887 0.000000
# 6 0.000000 0.000000 0.000000 0.003533 0.000000 0.067022
#
#
# Mechanical properties :
#
#
# Convention : Reuss Voigt Hill
#
# Bulk Modulus (GPa) = 44.06779 61.00434 52.53606
# Shear Modulus (GPa) = 29.43921 40.61953 35.02937
#
# Velocity S-wave (km/s) = 3.78231 4.44285 4.12582
# Velocity P-wave (km/s) = 6.36310 7.48087 6.94451
#
# Compressibility (1/GPa) = 0.02269231
#
# Stress axis : x y z
#
# Youngs Moduli (GPa) = 79.44049 68.83380 125.03574
#
# Poissons Ratio (x) = -0.05729 0.11254
# Poissons Ratio (y) = -0.06612 0.76807
# Poissons Ratio (z) = 0.07150 0.42283
#
# Static dielectric constant tensor:
#      x y z
#    x 1.710640 0.000000 -0.013930 
#    y 0.000000 1.834540 0.000000 
#    z -0.013930 0.000000 1.783720 
# 
# From -- ./inp_files/77718.got.cif
#   From: 2010.05.17/outbox.cif.g08.bks.cpg/sg14_39_cif.got.tgz:77718.got - 2010.06.03 17:49:19.
