data_PCOD9240370
_publ_section_title
;
Structure prediction by ZEFSAII (Michael W. Deem and Ramdas Pophale) SiO2 
 PCOD9240370
Probable space group: P 21/C
;
_chemical_formula_sum "Si O2"
_cell_formula_units_Z 32
_cell_length_a 9.692057
_cell_length_b 13.268528
_cell_length_c 27.361910
_cell_angle_alpha 90.000000
_cell_angle_beta 26.337286
_cell_angle_gamma 90.000000
_cell_volume 1561.097411
_symmetry_space_group_name_H-M "P 21/C"
_symmetry_group_IT_number 14
_symmetry_cell_setting 'monoclinic'
loop_
_space_group_symop_operation_xyz
x,y,z
-x,1/2+y,1/2-z
-x,-y,-z
x,1/2-y,1/2+z
loop_
_atom_site_type_symbol
_atom_site_label
_atom_site_fract_x
_atom_site_fract_y
_atom_site_fract_z
Si Si1 0.759214 0.532699 0.694835
Si Si2 0.565629 0.379207 0.670289
Si Si3 0.403064 0.786581 0.215489
Si Si4 0.141289 0.142996 0.119426
Si Si5 0.068419 0.155610 0.396081
Si Si6 0.313176 0.841962 0.977552
Si Si7 0.185585 0.226852 0.999806
Si Si8 0.885255 0.079033 0.606597
O O1 0.650035 0.468744 0.681428
O O2 0.442334 0.574680 0.818827
O O3 0.960943 0.459930 0.664742
O O4 0.990674 0.615975 0.601248
O O5 0.217286 0.345200 0.794315
O O6 0.614411 0.392475 0.597493
O O7 0.826624 0.298919 0.602914
O O8 0.644268 0.708615 0.165410
O O9 0.241436 0.867315 0.302746
O O10 0.124023 0.722030 0.281422
O O11 0.608549 0.827906 0.106033
O O12 0.264577 0.185940 0.028195
O O13 0.411727 0.135667 0.072488
O O14 0.766890 0.223276 0.501024
O O15 0.016062 0.037742 0.423668
O O16 0.167172 0.348128 0.001462
#
# Coordination Sequence:
#
# PCOD9240370 Si02
#       8
#     4   4   4   4   4   4   4   4
#     4  10  18  37  60  86 115 156 196 254 300 358
#     4  10  19  35  60  86 111 150 204 241 295 357
#     4  11  19  39  59  85 116 161 196 246 306 360
#     4  10  23  37  54  86 125 150 197 249 312 354
#     4  11  21  36  60  90 116 155 206 251 299 349
#     4  12  22  36  57  89 120 155 198 256 303 361
#     4  10  19  37  63  83 112 162 199 240 297 360
#     4  10  19  37  62  92 116 147 209 258 280 363
#
# _framework density 20.498401999999999
#
# number of rings (size 3 to 8) (size 9 to 14) (size 15 to 20)
#    0.000    1.500    7.500    0.750    0.000    4.500 
#    0.000    2.500    0.000    6.000    0.000    0.000 
#    0.000    0.000    0.000    0.000    0.000    0.000 
#
# Total GULP energy -178331.037350 kJ/mol
# GULP energy per Si atom -5572.844917 kJ/mol
# Density = 2.045175 g / cm^3
# Si number density = 20.498402 Si / 1000 Ang^3
#
#
#
# Elastic Constant Matrix: (Units=GPa)
#
#
# Indices 1 2 3 4 5 6 
#
# 1 96.4922 14.3750 16.4954 0.0000 -8.0726 0.0000
# 2 14.3750 55.0032 -7.5926 0.0000 -8.4655 0.0000
# 3 16.4954 -7.5926 43.4159 0.0000 4.8810 0.0000
# 4 0.0000 0.0000 0.0000 22.6115 0.0000 -6.2686
# 5 -8.0726 -8.4655 4.8810 0.0000 9.4475 0.0000
# 6 0.0000 0.0000 0.0000 -6.2686 0.0000 9.4988
#
#
#
# Elastic Compliance Matrix: (Units=1/GPa)
#
#
# Indices 1 2 3 4 5 6 
#
# 1 0.012900 -0.002398 -0.006708 0.000000 0.012339 0.000000
# 2 -0.002398 0.021648 0.002916 0.000000 0.015843 0.000000
# 3 -0.006708 0.002916 0.028073 0.000000 -0.017623 0.000000
# 4 0.000000 0.000000 0.000000 0.054128 0.000000 0.035721
# 5 0.012339 0.015843 -0.017623 0.000000 0.139693 0.000000
# 6 0.000000 0.000000 0.000000 0.035721 0.000000 0.128850
#
#
# Mechanical properties :
#
#
# Convention : Reuss Voigt Hill
#
# Bulk Modulus (GPa) = 19.90412 26.82967 23.36690
# Shear Modulus (GPa) = 12.06509 19.75379 15.90944
#
# Velocity S-wave (km/s) = 2.42871 3.10768 2.78893
# Velocity P-wave (km/s) = 4.19476 5.09843 4.66851
#
# Compressibility (1/GPa) = 0.05024084
#
# Stress axis : x y z
#
# Youngs Moduli (GPa) = 77.52057 46.19291 35.62179
#
# Poissons Ratio (x) = 0.11078 0.23894
# Poissons Ratio (y) = 0.18591 -0.10387
# Poissons Ratio (z) = 0.51999 -0.13469
#
# Static dielectric constant tensor:
#      x y z
#    x 1.722650 0.000000 0.054010 
#    y 0.000000 1.847020 0.000000 
#    z 0.054010 0.000000 1.767160 
# 
# From -- ./inp_files/76728.got.cif
#   From: 2010.05.17/outbox.cif.g08.bks.cpg/sg14_39_cif.got.tgz:76728.got - 2010.06.03 17:49:19.
