data_PCOD9240970
_publ_section_title
;
Structure prediction by ZEFSAII (Michael W. Deem and Ramdas Pophale) SiO2 
 PCOD9240970
Probable space group: P 21/C
;
_chemical_formula_sum "Si O2"
_cell_formula_units_Z 24
_cell_length_a 10.194871
_cell_length_b 22.068031
_cell_length_c 5.939379
_cell_angle_alpha 90.000000
_cell_angle_beta 40.232947
_cell_angle_gamma 90.000000
_cell_volume 863.076884
_symmetry_space_group_name_H-M "P 21/C"
_symmetry_group_IT_number 14
_symmetry_cell_setting 'monoclinic'
loop_
_space_group_symop_operation_xyz
x,y,z
-x,1/2+y,1/2-z
-x,-y,-z
x,1/2-y,1/2+z
loop_
_atom_site_type_symbol
_atom_site_label
_atom_site_fract_x
_atom_site_fract_y
_atom_site_fract_z
Si Si1 0.755934 0.326920 0.151872
Si Si2 0.723912 0.507410 0.286611
Si Si3 0.243859 0.818261 0.850230
Si Si4 0.905069 0.961246 0.936443
Si Si5 0.730022 0.833406 0.242110
Si Si6 0.731337 0.847986 0.735266
O O1 0.827790 0.344320 0.800646
O O2 0.783363 0.254153 0.116144
O O3 0.515245 0.342645 0.454417
O O4 0.828974 0.344219 0.311527
O O5 0.500000 0.500000 0.500000
O O6 0.735667 0.499021 0.536244
O O7 0.776995 0.579406 0.184099
O O8 0.890308 0.459603 0.983124
O O9 0.488811 0.824628 0.543805
O O10 0.788631 0.903360 0.168129
O O11 0.000000 0.000000 0.000000
O O12 0.795715 0.815756 0.414390
O O13 0.795965 0.818776 0.893450
#
# Coordination Sequence:
#
# PCOD9240970 Si02
#       6
#     4   4   4   4   4   4
#     4   8  13  21  36  57  89 116 148 196 250 283
#     4  10  21  34  50  73 102 137 177 213 257 306
#     4   8  13  21  35  60  86 117 148 198 244 292
#     4  10  19  34  51  70 101 139 170 214 257 303
#     4   9  16  27  45  64  94 126 161 202 252 293
#     4   9  16  28  43  65  93 128 158 206 247 297
#
# _framework density 27.807486000000001
#
# number of rings (size 3 to 8) (size 9 to 14) (size 15 to 20)
#    0.000    3.000    1.667    0.000    0.000    0.667 
#    0.000    0.000    0.000    0.000    0.000    0.000 
#    0.000   80.000    1.333    0.500    0.000    0.333 
#
# Total GULP energy -133796.900803 kJ/mol
# GULP energy per Si atom -5574.870867 kJ/mol
# Density = 2.774419 g / cm^3
# Si number density = 27.807486 Si / 1000 Ang^3
#
#
#
# Elastic Constant Matrix: (Units=GPa)
#
#
# Indices 1 2 3 4 5 6 
#
# 1 227.2178 30.0010 57.3605 0.0000 65.4591 0.0000
# 2 30.0010 98.2523 20.4827 0.0000 4.6711 0.0000
# 3 57.3605 20.4827 168.2699 0.0000 41.8304 0.0000
# 4 0.0000 0.0000 0.0000 22.4768 0.0000 -9.1827
# 5 65.4591 4.6711 41.8304 0.0000 78.9341 0.0000
# 6 0.0000 0.0000 0.0000 -9.1827 0.0000 32.1941
#
#
#
# Elastic Compliance Matrix: (Units=1/GPa)
#
#
# Indices 1 2 3 4 5 6 
#
# 1 0.006108 -0.001488 -0.000764 0.000000 -0.004572 0.000000
# 2 -0.001488 0.010806 -0.001101 0.000000 0.001178 0.000000
# 3 -0.000764 -0.001101 0.007099 0.000000 -0.003063 0.000000
# 4 0.000000 0.000000 0.000000 0.050359 0.000000 0.014364
# 5 -0.004572 0.001178 -0.003063 0.000000 0.018014 0.000000
# 6 0.000000 0.000000 0.000000 0.014364 0.000000 0.035159
#
#
# Mechanical properties :
#
#
# Convention : Reuss Voigt Hill
#
# Bulk Modulus (GPa) = 57.78564 78.82536 68.30550
# Shear Modulus (GPa) = 35.70960 52.44736 44.07848
#
# Velocity S-wave (km/s) = 3.58742 4.34762 3.98569
# Velocity P-wave (km/s) = 6.16321 7.32194 6.76742
#
# Compressibility (1/GPa) = 0.01730534
#
# Stress axis : x y z
#
# Youngs Moduli (GPa) = 163.72984 92.54285 140.86873
#
# Poissons Ratio (x) = 0.13773 0.10767
# Poissons Ratio (y) = 0.24367 0.15508
# Poissons Ratio (z) = 0.12514 0.10188
#
# Static dielectric constant tensor:
#      x y z
#    x 2.234310 0.000000 0.092120 
#    y 0.000000 1.896390 0.000000 
#    z 0.092120 0.000000 2.636270 
# 
# From -- ./inp_files/3362.got.cif
#   From: 2010.05.17/outbox.cif.g08.bks.cpg/sg14_2_cif.got.tgz:3362.got - 2010.06.03 17:49:19.
