data_PCOD9240074
_publ_section_title
;
Structure prediction by ZEFSAII (Michael W. Deem and Ramdas Pophale) SiO2 
 PCOD9240074
Probable space group: P 21/C
;
_chemical_formula_sum "Si O2"
_cell_formula_units_Z 24
_cell_length_a 8.161506
_cell_length_b 7.118405
_cell_length_c 18.543164
_cell_angle_alpha 90.000000
_cell_angle_beta 57.594621
_cell_angle_gamma 90.000000
_cell_volume 909.540649
_symmetry_space_group_name_H-M "P 21/C"
_symmetry_group_IT_number 14
_symmetry_cell_setting 'monoclinic'
loop_
_space_group_symop_operation_xyz
x,y,z
-x,1/2+y,1/2-z
-x,-y,-z
x,1/2-y,1/2+z
loop_
_atom_site_type_symbol
_atom_site_label
_atom_site_fract_x
_atom_site_fract_y
_atom_site_fract_z
Si Si1 0.411207 0.461600 0.441700
Si Si2 0.606341 0.407047 0.906821
Si Si3 0.007111 0.301415 0.550744
Si Si4 0.241039 0.060480 0.224272
Si Si5 0.850344 0.376430 0.728276
Si Si6 0.966973 0.384727 0.907558
O O1 0.500000 0.500000 0.500000
O O2 0.457190 0.244521 0.413101
O O3 0.180558 0.448334 0.498125
O O4 0.543184 0.588215 0.357941
O O5 0.708194 0.501570 0.812780
O O6 0.793372 0.309177 0.899441
O O7 0.500000 0.500000 0.000000
O O8 0.857629 0.400932 0.640792
O O9 0.951127 0.201259 0.489700
O O10 0.068206 0.110675 0.580469
O O11 0.069648 0.103175 0.207012
O O12 0.166836 0.148490 0.317191
O O13 0.221371 0.836434 0.242734
#
# Coordination Sequence:
#
# PCOD9240074 Si02
#       6
#     4   4   4   4   4   4
#     4  11  20  32  59  88 118 148 200 255 306 355
#     4  10  19  35  58  86 113 159 212 245 287 379
#     4  10  18  34  59  86 116 159 192 252 308 357
#     4   9  18  33  55  83 114 153 201 246 298 370
#     4   9  18  31  56  84 112 152 202 247 301 359
#     4   9  19  35  60  80 119 161 203 239 306 368
#
# _framework density 26.386948
#
# number of rings (size 3 to 8) (size 9 to 14) (size 15 to 20)
#    0.000    2.333    3.333    0.000    0.000    0.000 
#    0.000    0.833   14.667    6.000    0.000    0.000 
#    0.000    0.000    0.000    0.000    0.000    0.000 
#
# Total GULP energy -133993.895453 kJ/mol
# GULP energy per Si atom -5583.078977 kJ/mol
# Density = 2.632689 g / cm^3
# Si number density = 26.386948 Si / 1000 Ang^3
#
#
#
# Elastic Constant Matrix: (Units=GPa)
#
#
# Indices 1 2 3 4 5 6 
#
# 1 32.1679 -0.3124 46.7089 0.0000 -1.4123 0.0000
# 2 -0.3124 83.3980 36.8018 0.0000 -4.7449 0.0000
# 3 46.7089 36.8018 276.2938 0.0000 7.6792 0.0000
# 4 0.0000 0.0000 0.0000 44.8544 0.0000 1.7627
# 5 -1.4123 -4.7449 7.6792 0.0000 41.9558 0.0000
# 6 0.0000 0.0000 0.0000 1.7627 0.0000 31.7631
#
#
#
# Elastic Compliance Matrix: (Units=1/GPa)
#
#
# Indices 1 2 3 4 5 6 
#
# 1 0.042587 0.003787 -0.007795 0.000000 0.003289 0.000000
# 2 0.003787 0.013207 -0.002457 0.000000 0.002071 0.000000
# 3 -0.007795 -0.002457 0.005306 0.000000 -0.001511 0.000000
# 4 0.000000 0.000000 0.000000 0.022343 0.000000 -0.001240
# 5 0.003289 0.002071 -0.001511 0.000000 0.024456 0.000000
# 6 0.000000 0.000000 0.000000 -0.001240 0.000000 0.031552
#
#
# Mechanical properties :
#
#
# Convention : Reuss Voigt Hill
#
# Bulk Modulus (GPa) = 20.76015 62.02850 41.39433
# Shear Modulus (GPa) = 29.68430 44.29209 36.98820
#
# Velocity S-wave (km/s) = 3.35768 4.10147 3.74807
# Velocity P-wave (km/s) = 4.78714 6.78142 5.86960
#
# Compressibility (1/GPa) = 0.04816920
#
# Stress axis : x y z
#
# Youngs Moduli (GPa) = 23.48124 75.71839 188.45048
#
# Poissons Ratio (x) = -0.28671 1.46904
# Poissons Ratio (y) = -0.08891 0.46299
# Poissons Ratio (z) = 0.18304 0.18603
#
# Static dielectric constant tensor:
#      x y z
#    x 2.032800 0.000000 -0.037560 
#    y 0.000000 2.246220 0.000000 
#    z -0.037560 0.000000 2.211240 
# 
# From -- ./inp_files/61740.got.cif
#   From: 2010.05.17/outbox.cif.g08.bks.cpg/sg14_31_cif.got.tgz:61740.got - 2010.06.03 17:49:19.
