data_PCOD9240567
_publ_section_title
;
Structure prediction by ZEFSAII (Michael W. Deem and Ramdas Pophale) SiO2 
 PCOD9240567
Probable space group: P 21/C
;
_chemical_formula_sum "Si O2"
_cell_formula_units_Z 24
_cell_length_a 5.216320
_cell_length_b 10.179586
_cell_length_c 18.364140
_cell_angle_alpha 90.000000
_cell_angle_beta 96.915482
_cell_angle_gamma 90.000000
_cell_volume 968.041168
_symmetry_space_group_name_H-M "P 21/C"
_symmetry_group_IT_number 14
_symmetry_cell_setting 'monoclinic'
loop_
_space_group_symop_operation_xyz
x,y,z
-x,1/2+y,1/2-z
-x,-y,-z
x,1/2-y,1/2+z
loop_
_atom_site_type_symbol
_atom_site_label
_atom_site_fract_x
_atom_site_fract_y
_atom_site_fract_z
Si Si1 0.080712 0.295099 0.523491
Si Si2 0.624254 0.507628 0.706750
Si Si3 0.559644 0.139974 0.940696
Si Si4 0.143690 0.146705 0.663656
Si Si5 0.848053 0.937080 0.718099
Si Si6 0.853186 0.122404 0.403844
O O1 0.337056 0.339345 0.491493
O O2 0.123121 0.267566 0.609478
O O3 0.832027 0.380784 0.491492
O O4 0.997597 0.154608 0.483792
O O5 0.523305 0.538222 0.623638
O O6 0.687767 0.639348 0.757245
O O7 0.900753 0.436419 0.720298
O O8 0.410045 0.430871 0.745624
O O9 0.621778 0.274502 0.899015
O O10 0.870992 0.084301 0.681834
O O11 0.242984 0.022547 0.618041
O O12 0.943948 0.846903 0.654479
#
# Coordination Sequence:
#
# PCOD9240567 Si02
#       6
#     4   4   4   4   4   4
#     4  10  19  27  44  65  95 111 149 173 218 253
#     4   9  18  31  42  57  91 121 149 171 214 251
#     4  10  20  28  43  64  93 119 140 187 210 252
#     4   8  19  28  45  64  88 124 145 171 209 270
#     4   8  18  28  45  58  84 121 150 169 206 259
#     4   7  19  26  45  63  92 114 149 169 217 248
#
# _framework density 24.792332999999999
#
# number of rings (size 3 to 8) (size 9 to 14) (size 15 to 20)
#    3.000    0.000    0.000    1.500    7.000    0.667 
#    0.000    0.000    0.000    0.000    0.000    0.000 
#    0.000   18.667    0.000    0.000    0.000    0.000 
#
# Total GULP energy -133618.665189 kJ/mol
# GULP energy per Si atom -5567.444383 kJ/mol
# Density = 2.473590 g / cm^3
# Si number density = 24.792333 Si / 1000 Ang^3
#
#
#
# Elastic Constant Matrix: (Units=GPa)
#
#
# Indices 1 2 3 4 5 6 
#
# 1 137.3686 -10.3523 59.2432 0.0000 10.7255 0.0000
# 2 -10.3523 -20.2703 76.6153 0.0000 12.8288 0.0000
# 3 59.2432 76.6153 125.2507 0.0000 -7.9499 0.0000
# 4 0.0000 0.0000 0.0000 43.0827 0.0000 -13.4978
# 5 10.7255 12.8288 -7.9499 0.0000 28.2236 0.0000
# 6 0.0000 0.0000 0.0000 -13.4978 0.0000 5.6527
#
#
#
# Elastic Compliance Matrix: (Units=1/GPa)
#
#
# Indices 1 2 3 4 5 6 
#
# 1 0.007066 -0.005030 -0.000296 0.000000 -0.000482 0.000000
# 2 -0.005030 -0.009169 0.008526 0.000000 0.008481 0.000000
# 3 -0.000296 0.008526 0.002718 0.000000 -0.002998 0.000000
# 4 0.000000 0.000000 0.000000 0.092148 0.000000 0.220035
# 5 -0.000482 0.008481 -0.002998 0.000000 0.030915 0.000000
# 6 0.000000 0.000000 0.000000 0.220035 0.000000 0.702315
#
#
# Mechanical properties :
#
#
# Convention : Reuss Voigt Hill
#
# Bulk Modulus (GPa) = 142.54440 54.81794 98.68117
# Shear Modulus (GPa) = 6.08324 23.18131 14.63228
#
# Velocity S-wave (km/s) = 1.56812 3.06113 2.43203
# Velocity P-wave (km/s) = 7.80377 5.88667 6.91201
#
# Compressibility (1/GPa) = 0.00701536
#
# Stress axis : x y z
#
# Youngs Moduli (GPa) = 141.52974 -109.06046 367.93212
#
# Poissons Ratio (x) = -0.54862 0.10873
# Poissons Ratio (y) = 0.71195 -3.13716
# Poissons Ratio (z) = 0.04183 0.92990
#
# Static dielectric constant tensor:
#      x y z
#    x 1.921390 0.000000 0.025750 
#    y 0.000000 2.154060 0.000000 
#    z 0.025750 0.000000 1.946740 
# 
# From -- ./inp_files/53561.got.cif
#   From: 2010.05.17/outbox.cif.g08.bks.cpg/sg14_27_cif.got.tgz:53561.got - 2010.06.03 17:49:19.
