data_PCOD9240394
_publ_section_title
;
Structure prediction by ZEFSAII (Michael W. Deem and Ramdas Pophale) SiO2 
 PCOD9240394
Probable space group: P 21/C
;
_chemical_formula_sum "Si O2"
_cell_formula_units_Z 32
_cell_length_a 11.638150
_cell_length_b 17.207466
_cell_length_c 10.721704
_cell_angle_alpha 90.000000
_cell_angle_beta 130.072453
_cell_angle_gamma 90.000000
_cell_volume 1643.074433
_symmetry_space_group_name_H-M "P 21/C"
_symmetry_group_IT_number 14
_symmetry_cell_setting 'monoclinic'
loop_
_space_group_symop_operation_xyz
x,y,z
-x,1/2+y,1/2-z
-x,-y,-z
x,1/2-y,1/2+z
loop_
_atom_site_type_symbol
_atom_site_label
_atom_site_fract_x
_atom_site_fract_y
_atom_site_fract_z
Si Si1 0.781958 0.184950 0.893244
Si Si2 0.347930 0.903492 0.828506
Si Si3 0.396673 0.428712 0.296770
Si Si4 0.492534 0.788319 0.744265
Si Si5 0.242546 0.190461 0.513465
Si Si6 0.582430 0.617880 0.087960
Si Si7 0.635660 0.035345 0.750669
Si Si8 0.107642 0.783873 0.759910
O O1 0.610656 0.213970 0.798252
O O2 0.772620 0.091343 0.885105
O O3 0.836338 0.217130 0.797487
O O4 0.867127 0.221715 0.072557
O O5 0.402106 0.859235 0.742266
O O6 0.210075 0.857080 0.790961
O O7 0.312449 0.993930 0.783777
O O8 0.493427 0.898532 0.019024
O O9 0.293027 0.362378 0.166249
O O10 0.510823 0.459619 0.270671
O O11 0.656420 0.768265 0.911475
O O12 0.518276 0.809255 0.618985
O O13 0.298872 0.144473 0.431305
O O14 0.067310 0.204726 0.387526
O O15 0.658444 0.554238 0.231853
O O16 0.441927 0.576246 0.923153
#
# Coordination Sequence:
#
# PCOD9240394 Si02
#       8
#     4   4   4   4   4   4   4   4
#     4  11  22  41  64  90 122 165 210 255 304 374
#     4  10  21  37  64  89 119 156 206 253 301 368
#     4  10  19  38  62  92 115 154 205 254 302 364
#     4  11  21  35  63  89 114 157 208 250 303 362
#     4  11  25  38  61  87 128 161 197 260 309 378
#     4  10  21  36  62  91 118 153 203 258 310 362
#     4  10  18  37  64  90 117 153 205 262 302 364
#     4  11  25  40  61  91 131 165 201 256 320 370
#
# _framework density 19.475683
#
# number of rings (size 3 to 8) (size 9 to 14) (size 15 to 20)
#    0.000    1.500    5.000    0.750    5.250    0.500 
#    0.000    0.625    5.500    0.000    0.000    0.000 
#    0.000    0.000    0.000    0.000    0.000    0.000 
#
# Total GULP energy -178536.335391 kJ/mol
# GULP energy per Si atom -5579.260481 kJ/mol
# Density = 1.943136 g / cm^3
# Si number density = 19.475683 Si / 1000 Ang^3
#
#
#
# Elastic Constant Matrix: (Units=GPa)
#
#
# Indices 1 2 3 4 5 6 
#
# 1 35.9047 14.7394 14.9406 0.0000 4.8468 0.0000
# 2 14.7394 35.4354 0.1400 0.0000 4.2721 0.0000
# 3 14.9406 0.1400 53.6475 0.0000 0.8138 0.0000
# 4 0.0000 0.0000 0.0000 27.2587 0.0000 -8.7329
# 5 4.8468 4.2721 0.8138 0.0000 31.5671 0.0000
# 6 0.0000 0.0000 0.0000 -8.7329 0.0000 17.5979
#
#
#
# Elastic Compliance Matrix: (Units=1/GPa)
#
#
# Indices 1 2 3 4 5 6 
#
# 1 0.039395 -0.015908 -0.010875 0.000000 -0.003616 0.000000
# 2 -0.015908 0.035112 0.004375 0.000000 -0.002422 0.000000
# 3 -0.010875 0.004375 0.021650 0.000000 0.000519 0.000000
# 4 0.000000 0.000000 0.000000 0.043620 0.000000 0.021646
# 5 -0.003616 -0.002422 0.000519 0.000000 0.032548 0.000000
# 6 0.000000 0.000000 0.000000 0.021646 0.000000 0.067567
#
#
# Mechanical properties :
#
#
# Convention : Reuss Voigt Hill
#
# Bulk Modulus (GPa) = 19.47723 20.51417 19.99570
# Shear Modulus (GPa) = 16.56612 21.62924 19.09768
#
# Velocity S-wave (km/s) = 2.91968 3.33615 3.13484
# Velocity P-wave (km/s) = 4.62477 5.03944 4.83655
#
# Compressibility (1/GPa) = 0.05134199
#
# Stress axis : x y z
#
# Youngs Moduli (GPa) = 25.38379 28.48037 46.19028
#
# Poissons Ratio (x) = 0.45306 0.50232
# Poissons Ratio (y) = 0.40380 -0.20210
# Poissons Ratio (z) = 0.27605 -0.12461
#
# Static dielectric constant tensor:
#      x y z
#    x 1.653010 0.000000 -0.047830 
#    y 0.000000 1.722440 0.000000 
#    z -0.047830 0.000000 1.723070 
# 
# From -- ./inp_files/30312.got.cif
#   From: 2010.05.17/outbox.cif.g08.bks.cpg/sg14_16_cif.got.tgz:30312.got - 2010.06.03 17:49:19.
