data_PCOD9240639
_publ_section_title
;
Structure prediction by ZEFSAII (Michael W. Deem and Ramdas Pophale) SiO2 
 PCOD9240639
Probable space group: P 21/C
;
_chemical_formula_sum "Si O2"
_cell_formula_units_Z 28
_cell_length_a 14.779485
_cell_length_b 5.307077
_cell_length_c 23.101577
_cell_angle_alpha 90.000000
_cell_angle_beta 61.784572
_cell_angle_gamma 90.000000
_cell_volume 1596.684335
_symmetry_space_group_name_H-M "P 21/C"
_symmetry_group_IT_number 14
_symmetry_cell_setting 'monoclinic'
loop_
_space_group_symop_operation_xyz
x,y,z
-x,1/2+y,1/2-z
-x,-y,-z
x,1/2-y,1/2+z
loop_
_atom_site_type_symbol
_atom_site_label
_atom_site_fract_x
_atom_site_fract_y
_atom_site_fract_z
Si Si1 0.636124 0.979005 0.696106
Si Si2 0.553374 0.021156 0.162059
Si Si3 0.978702 0.049915 0.291457
Si Si4 0.595700 0.000609 0.015562
Si Si5 0.376252 0.499350 0.040670
Si Si6 0.234322 0.470657 0.185123
Si Si7 0.811243 0.029422 0.727414
O O1 0.559402 0.984829 0.774957
O O2 0.605169 0.218761 0.666984
O O3 0.749998 0.000853 0.686631
O O4 0.612999 0.719568 0.670096
O O5 0.553937 0.005670 0.092969
O O6 0.858068 0.998073 0.333900
O O7 0.008628 0.838920 0.233535
O O8 0.065123 0.995324 0.313126
O O9 0.658679 0.248723 0.980598
O O10 0.500000 0.000000 0.000000
O O11 0.657846 0.749554 0.982497
O O12 0.338917 0.491678 0.117857
O O13 0.500000 0.500000 0.000000
O O14 0.218679 0.703717 0.233912
O O15 0.223352 0.204166 0.220881
#
# Coordination Sequence:
#
# PCOD9240639 Si02
#       7
#     4   4   4   4   4   4   4
#     4  10  21  33  52  73  96 139 166 203 256 291
#     4  10  21  36  48  71 104 129 172 208 241 305
#     4   8  16  30  46  72 100 130 161 206 256 297
#     4  10  21  35  50  70  98 133 171 207 245 290
#     4  10  21  30  46  75  97 136 168 190 257 288
#     4  10  19  31  49  75 110 130 162 214 247 305
#     4  10  19  31  53  74 100 135 170 200 260 304
#
# _framework density 17.536339000000002
#
# number of rings (size 3 to 8) (size 9 to 14) (size 15 to 20)
#    0.000    2.286    0.000    2.571    8.000    0.000 
#    0.000    0.000    0.000    0.000    0.000    6.000 
#    0.000    0.000    0.000    0.000    0.000    0.000 
#
# Total GULP energy -155994.795416 kJ/mol
# GULP energy per Si atom -5571.242693 kJ/mol
# Density = 1.749643 g / cm^3
# Si number density = 17.536339 Si / 1000 Ang^3
#
#
#
# Elastic Constant Matrix: (Units=GPa)
#
#
# Indices 1 2 3 4 5 6 
#
# 1 72.8352 -14.6976 -4.6764 0.0000 4.1060 0.0000
# 2 -14.6976 124.1294 7.3680 0.0000 2.0378 0.0000
# 3 -4.6764 7.3680 44.1555 0.0000 13.0241 0.0000
# 4 0.0000 0.0000 0.0000 16.8190 0.0000 1.4580
# 5 4.1060 2.0378 13.0241 0.0000 20.8328 0.0000
# 6 0.0000 0.0000 0.0000 1.4580 0.0000 9.3243
#
#
#
# Elastic Compliance Matrix: (Units=1/GPa)
#
#
# Indices 1 2 3 4 5 6 
#
# 1 0.014492 0.001636 0.002638 0.000000 -0.004665 0.000000
# 2 0.001636 0.008321 -0.001079 0.000000 -0.000462 0.000000
# 3 0.002638 -0.001079 0.028481 0.000000 -0.018220 0.000000
# 4 0.000000 0.000000 0.000000 0.060273 0.000000 -0.009424
# 5 -0.004665 -0.000462 -0.018220 0.000000 0.060356 0.000000
# 6 0.000000 0.000000 0.000000 -0.009424 0.000000 0.108720
#
#
# Mechanical properties :
#
#
# Convention : Reuss Voigt Hill
#
# Bulk Modulus (GPa) = 17.33584 24.12315 20.72949
# Shear Modulus (GPa) = 17.03678 26.27031 21.65355
#
# Velocity S-wave (km/s) = 3.12029 3.87466 3.51776
# Velocity P-wave (km/s) = 4.78422 5.81406 5.32410
#
# Compressibility (1/GPa) = 0.05768397
#
# Stress axis : x y z
#
# Youngs Moduli (GPa) = 69.00304 120.17144 35.11137
#
# Poissons Ratio (x) = -0.19659 -0.09262
# Poissons Ratio (y) = -0.11289 0.03789
# Poissons Ratio (z) = -0.18203 0.12968
#
# Static dielectric constant tensor:
#      x y z
#    x 1.616340 0.000000 -0.015690 
#    y 0.000000 1.617200 0.000000 
#    z -0.015690 0.000000 1.576790 
# 
# From -- ./inp_files/58477.got.cif
#   From: 2010.05.17/outbox.cif.g08.bks.cpg/sg14_30_cif.got.tgz:58477.got - 2010.06.03 17:49:19.
