data_PCOD9240078
_publ_section_title
;
Structure prediction by ZEFSAII (Michael W. Deem and Ramdas Pophale) SiO2 
 PCOD9240078
Probable space group: P 21/C
;
_chemical_formula_sum "Si O2"
_cell_formula_units_Z 32
_cell_length_a 9.304038
_cell_length_b 20.164446
_cell_length_c 14.913011
_cell_angle_alpha 90.000000
_cell_angle_beta 148.909897
_cell_angle_gamma 90.000000
_cell_volume 1444.764542
_symmetry_space_group_name_H-M "P 21/C"
_symmetry_group_IT_number 14
_symmetry_cell_setting 'monoclinic'
loop_
_space_group_symop_operation_xyz
x,y,z
-x,1/2+y,1/2-z
-x,-y,-z
x,1/2-y,1/2+z
loop_
_atom_site_type_symbol
_atom_site_label
_atom_site_fract_x
_atom_site_fract_y
_atom_site_fract_z
Si Si1 0.545018 0.074107 0.562653
Si Si2 0.408474 0.719452 0.311755
Si Si3 0.857907 0.335721 0.096322
Si Si4 0.319807 0.380438 0.216133
Si Si5 0.834443 0.208531 0.992601
Si Si6 0.144470 0.331407 0.923261
Si Si7 0.642969 0.633072 0.289647
Si Si8 0.324536 0.515878 0.681689
O O1 0.767613 0.123219 0.635132
O O2 0.249585 0.112067 0.411670
O O3 0.645329 0.063132 0.717134
O O4 0.500000 0.000000 0.500000
O O5 0.228684 0.754762 0.136281
O O6 0.632831 0.771727 0.467408
O O7 0.582990 0.661632 0.356086
O O8 0.174271 0.691545 0.252943
O O9 0.076144 0.380041 0.157910
O O10 0.954520 0.259589 0.131001
O O11 0.566788 0.330352 0.888353
O O12 0.545131 0.325185 0.363840
O O13 0.188518 0.359179 0.049323
O O14 0.495772 0.447721 0.298130
O O15 0.053201 0.151495 0.082878
O O16 0.556717 0.556963 0.237620
O O17 0.000000 0.500000 0.500000
#
# Coordination Sequence:
#
# PCOD9240078 Si02
#       8
#     4   4   4   4   4   4   4   4
#     4  11  25  43  59  90 134 168 205 258 323 377
#     4  10  18  34  59  97 118 153 211 269 294 357
#     4  11  21  38  61  92 122 167 205 263 311 371
#     4  10  20  36  64  93 122 162 218 255 298 378
#     4  10  18  35  61  91 126 158 209 252 312 366
#     4  10  20  37  61  89 127 162 203 264 310 363
#     4  11  19  34  67  91 123 158 213 249 312 370
#     4  11  23  41  67  89 121 174 211 256 311 369
#
# _framework density 22.148938000000001
#
# number of rings (size 3 to 8) (size 9 to 14) (size 15 to 20)
#    0.000    1.500    6.250    1.500    0.000    1.500 
#    4.500    0.625    0.000    0.000    0.000    0.000 
#    0.000    0.000    0.000    0.000    0.000    0.000 
#
# Total GULP energy -178598.251908 kJ/mol
# GULP energy per Si atom -5581.195372 kJ/mol
# Density = 2.209853 g / cm^3
# Si number density = 22.148938 Si / 1000 Ang^3
#
#
#
# Elastic Constant Matrix: (Units=GPa)
#
#
# Indices 1 2 3 4 5 6 
#
# 1 95.6513 40.4290 15.4058 0.0000 28.6798 0.0000
# 2 40.4290 97.7540 -12.4824 0.0000 10.5600 0.0000
# 3 15.4058 -12.4824 36.8108 0.0000 20.9839 0.0000
# 4 0.0000 0.0000 0.0000 15.5825 0.0000 2.7001
# 5 28.6798 10.5600 20.9839 0.0000 29.3037 0.0000
# 6 0.0000 0.0000 0.0000 2.7001 0.0000 39.8360
#
#
#
# Elastic Compliance Matrix: (Units=1/GPa)
#
#
# Indices 1 2 3 4 5 6 
#
# 1 0.017287 -0.005809 -0.001273 0.000000 -0.013914 0.000000
# 2 -0.005809 0.015196 0.012614 0.000000 -0.008823 0.000000
# 3 -0.001273 0.012614 0.057210 0.000000 -0.044267 0.000000
# 4 0.000000 0.000000 0.000000 0.064937 0.000000 -0.004401
# 5 -0.013914 -0.008823 -0.044267 0.000000 0.082621 0.000000
# 6 0.000000 0.000000 0.000000 -0.004401 0.000000 0.025401
#
#
# Mechanical properties :
#
#
# Convention : Reuss Voigt Hill
#
# Bulk Modulus (GPa) = 9.92493 35.21346 22.56919
# Shear Modulus (GPa) = 17.53311 29.40201 23.46756
#
# Velocity S-wave (km/s) = 2.81659 3.64740 3.25858
# Velocity P-wave (km/s) = 3.88179 5.80267 4.93656
#
# Compressibility (1/GPa) = 0.10075642
#
# Stress axis : x y z
#
# Youngs Moduli (GPa) = 57.84739 65.80659 17.47944
#
# Poissons Ratio (x) = 0.38227 0.02225
# Poissons Ratio (y) = 0.33603 -0.22048
# Poissons Ratio (z) = 0.07364 -0.83007
#
# Static dielectric constant tensor:
#      x y z
#    x 1.873230 0.000000 -0.016670 
#    y 0.000000 2.111970 0.000000 
#    z -0.016670 0.000000 1.815470 
# 
# From -- ./inp_files/56241.got.cif
#   From: 2010.05.17/outbox.cif.g08.bks.cpg/sg14_29_cif.got.tgz:56241.got - 2010.06.03 17:49:19.
