data_PCOD9240774
_publ_section_title
;
Structure prediction by ZEFSAII (Michael W. Deem and Ramdas Pophale) SiO2 
 PCOD9240774
Probable space group: P 21/C
;
_chemical_formula_sum "Si O2"
_cell_formula_units_Z 28
_cell_length_a 9.438013
_cell_length_b 7.888694
_cell_length_c 29.665160
_cell_angle_alpha 90.000000
_cell_angle_beta 143.653641
_cell_angle_gamma 90.000000
_cell_volume 1309.006226
_symmetry_space_group_name_H-M "P 21/C"
_symmetry_group_IT_number 14
_symmetry_cell_setting 'monoclinic'
loop_
_space_group_symop_operation_xyz
x,y,z
-x,1/2+y,1/2-z
-x,-y,-z
x,1/2-y,1/2+z
loop_
_atom_site_type_symbol
_atom_site_label
_atom_site_fract_x
_atom_site_fract_y
_atom_site_fract_z
Si Si1 0.839314 0.827418 0.673395
Si Si2 0.688595 0.488742 0.735776
Si Si3 0.892298 0.558080 0.925128
Si Si4 0.467753 0.259476 0.618178
Si Si5 0.393204 0.497474 0.022252
Si Si6 0.510446 0.844723 0.728242
Si Si7 0.131481 0.519336 0.733713
O O1 0.905071 0.641013 0.672803
O O2 0.568162 0.877883 0.594696
O O3 0.894919 0.856068 0.740669
O O4 0.028541 0.956638 0.698000
O O5 0.565686 0.444435 0.656207
O O6 0.595740 0.662556 0.733039
O O7 0.595130 0.353279 0.748970
O O8 0.754799 0.726143 0.905293
O O9 0.696707 0.427330 0.855879
O O10 0.000000 0.500000 0.000000
O O11 0.120972 0.562456 0.951735
O O12 0.406800 0.183100 0.553191
O O13 0.681145 0.137794 0.690833
O O14 0.500000 0.500000 0.000000
O O15 0.744921 0.961062 0.780476
#
# Coordination Sequence:
#
# PCOD9240774 Si02
#       7
#     4   4   4   4   4   4   4
#     4  10  19  33  54  84 113 143 181 228 285 338
#     4  11  21  35  57  84 113 142 189 249 290 331
#     4   9  18  35  55  78 112 152 190 224 276 351
#     4   8  18  35  52  77 109 141 184 229 273 329
#     4  10  19  32  56  83 113 154 189 223 276 347
#     4  11  21  35  58  84 109 148 190 239 292 333
#     4   9  18  33  53  80 108 136 178 228 283 339
#
# _framework density 21.390270999999998
#
# number of rings (size 3 to 8) (size 9 to 14) (size 15 to 20)
#    0.000    2.286    0.000    5.143    0.000    0.000 
#    0.000    2.857    0.000    6.857    0.000   45.000 
#    0.000    0.000    0.000    0.000    0.000    0.000 
#
# Total GULP energy -156018.552056 kJ/mol
# GULP energy per Si atom -5572.091145 kJ/mol
# Density = 2.134159 g / cm^3
# Si number density = 21.390271 Si / 1000 Ang^3
#
#
#
# Elastic Constant Matrix: (Units=GPa)
#
#
# Indices 1 2 3 4 5 6 
#
# 1 122.5630 15.8452 2.7888 0.0000 9.5010 0.0000
# 2 15.8452 62.5984 12.2714 0.0000 9.9634 0.0000
# 3 2.7888 12.2714 46.3822 0.0000 5.3587 0.0000
# 4 0.0000 0.0000 0.0000 25.4870 0.0000 1.5040
# 5 9.5010 9.9634 5.3587 0.0000 37.0503 0.0000
# 6 0.0000 0.0000 0.0000 1.5040 0.0000 38.0345
#
#
#
# Elastic Compliance Matrix: (Units=1/GPa)
#
#
# Indices 1 2 3 4 5 6 
#
# 1 0.008536 -0.001928 0.000193 0.000000 -0.001698 0.000000
# 2 -0.001928 0.017873 -0.004185 0.000000 -0.003707 0.000000
# 3 0.000193 -0.004185 0.022914 0.000000 -0.002238 0.000000
# 4 0.000000 0.000000 0.000000 0.039328 0.000000 -0.001555
# 5 -0.001698 -0.003707 -0.002238 0.000000 0.028746 0.000000
# 6 0.000000 0.000000 0.000000 -0.001555 0.000000 0.026353
#
#
# Mechanical properties :
#
#
# Convention : Reuss Voigt Hill
#
# Bulk Modulus (GPa) = 26.67819 32.59492 29.63655
# Shear Modulus (GPa) = 29.74705 33.49022 31.61864
#
# Velocity S-wave (km/s) = 3.73323 3.96115 3.84888
# Velocity P-wave (km/s) = 5.57511 6.01600 5.79975
#
# Compressibility (1/GPa) = 0.03748381
#
# Stress axis : x y z
#
# Youngs Moduli (GPa) = 117.15651 55.94975 43.64123
#
# Poissons Ratio (x) = 0.10788 -0.00843
# Poissons Ratio (y) = 0.22589 0.18262
# Poissons Ratio (z) = -0.02262 0.23412
#
# Static dielectric constant tensor:
#      x y z
#    x 1.860110 0.000000 0.015840 
#    y 0.000000 1.871480 0.000000 
#    z 0.015840 0.000000 1.806760 
# 
# From -- ./inp_files/79498.got.cif
#   From: 2010.05.17/outbox.cif.g08.bks.cpg/sg14_40_cif.got.tgz:79498.got - 2010.06.03 17:49:19.
