data_PCOD9240517
_publ_section_title
;
Structure prediction by ZEFSAII (Michael W. Deem and Ramdas Pophale) SiO2 
 PCOD9240517
Probable space group: P 21/C
;
_chemical_formula_sum "Si O2"
_cell_formula_units_Z 26
_cell_length_a 11.713128
_cell_length_b 9.121868
_cell_length_c 9.046261
_cell_angle_alpha 90.000000
_cell_angle_beta 71.405063
_cell_angle_gamma 90.000000
_cell_volume 916.095878
_symmetry_space_group_name_H-M "P 21/C"
_symmetry_group_IT_number 14
_symmetry_cell_setting 'monoclinic'
loop_
_space_group_symop_operation_xyz
x,y,z
-x,1/2+y,1/2-z
-x,-y,-z
x,1/2-y,1/2+z
loop_
_atom_site_type_symbol
_atom_site_label
_atom_site_fract_x
_atom_site_fract_y
_atom_site_fract_z
Si Si1 0.812213 0.856352 0.024274
Si Si2 0.418098 0.733143 0.764647
Si Si3 0.500000 0.000000 0.500000
Si Si4 0.081578 0.138154 0.320136
Si Si5 0.279283 0.507502 0.166726
Si Si6 0.416764 0.307859 0.558753
Si Si7 0.151813 0.853508 0.445775
O O1 0.811443 0.712175 0.128138
O O2 0.801669 0.971216 0.160257
O O3 0.697644 0.883512 0.966096
O O4 0.911675 0.842325 0.857172
O O5 0.474420 0.655027 0.595059
O O6 0.267543 0.729037 0.836544
O O7 0.433571 0.596854 0.890011
O O8 0.533370 0.818157 0.800003
O O9 0.600687 0.096480 0.338398
O O10 0.965557 0.221999 0.434195
O O11 0.094930 0.967142 0.351806
O O12 0.369796 0.369893 0.069543
O O13 0.195215 0.556532 0.072154
#
# Coordination Sequence:
#
# PCOD9240517 Si02
#       7
#     4   4   2   4   4   4   4
#     4  12  26  46  69 107 134 186 225 292 337 418
#     4  11  23  42  67 102 133 180 224 284 343 416
#     4  10  18  40  64  94 136 176 206 276 334 412
#     4  11  27  45  73  97 138 181 239 278 347 402
#     4  11  25  42  71 100 141 180 226 283 352 402
#     4  11  23  39  68 100 136 175 224 277 348 406
#     4  11  25  49  68  99 135 189 226 291 336 413
#
# _framework density 28.381308000000001
#
# number of rings (size 3 to 8) (size 9 to 14) (size 15 to 20)
#    0.000    0.923    3.077    4.615    4.308    2.462 
#    2.769    0.000    0.000    0.000    0.000    0.000 
#    0.000    0.000    0.000    0.000    0.000    0.000 
#
# Total GULP energy -144755.345943 kJ/mol
# GULP energy per Si atom -5567.513305 kJ/mol
# Density = 2.831671 g / cm^3
# Si number density = 28.381308 Si / 1000 Ang^3
#
#
#
# Elastic Constant Matrix: (Units=GPa)
#
#
# Indices 1 2 3 4 5 6 
#
# 1 115.6154 4.2325 66.1707 0.0000 -7.8937 0.0000
# 2 4.2325 73.9835 32.3472 0.0000 5.0883 0.0000
# 3 66.1707 32.3472 204.3897 0.0000 -12.3040 0.0000
# 4 0.0000 0.0000 0.0000 47.8639 0.0000 -0.3365
# 5 -7.8937 5.0883 -12.3040 0.0000 63.6185 0.0000
# 6 0.0000 0.0000 0.0000 -0.3365 0.0000 37.2831
#
#
#
# Elastic Compliance Matrix: (Units=1/GPa)
#
#
# Indices 1 2 3 4 5 6 
#
# 1 0.010700 0.000912 -0.003575 0.000000 0.000563 0.000000
# 2 0.000912 0.014767 -0.002728 0.000000 -0.001596 0.000000
# 3 -0.003575 -0.002728 0.006544 0.000000 0.001040 0.000000
# 4 0.000000 0.000000 0.000000 0.020894 0.000000 0.000189
# 5 0.000563 -0.001596 0.001040 0.000000 0.016117 0.000000
# 6 0.000000 0.000000 0.000000 0.000189 0.000000 0.026823
#
#
# Mechanical properties :
#
#
# Convention : Reuss Voigt Hill
#
# Bulk Modulus (GPa) = 47.10395 66.60994 56.85694
# Shear Modulus (GPa) = 43.97345 49.16899 46.57122
#
# Velocity S-wave (km/s) = 3.94049 4.16678 4.05521
# Velocity P-wave (km/s) = 6.11033 6.83154 6.48098
#
# Compressibility (1/GPa) = 0.02122964
#
# Stress axis : x y z
#
# Youngs Moduli (GPa) = 93.45513 67.71863 152.80438
#
# Poissons Ratio (x) = -0.06176 0.54622
# Poissons Ratio (y) = -0.08523 0.41691
# Poissons Ratio (z) = 0.33407 0.18476
#
# Static dielectric constant tensor:
#      x y z
#    x 2.260890 0.000000 -0.199970 
#    y 0.000000 2.684920 0.000000 
#    z -0.199970 0.000000 2.296120 
# 
# From -- ./inp_files/12762.got.cif
#   From: 2010.05.17/outbox.cif.g08.bks.cpg/sg14_7_cif.got.tgz:12762.got - 2010.06.03 17:49:19.
