data_PCOD9240542
_publ_section_title
;
Structure prediction by ZEFSAII (Michael W. Deem and Ramdas Pophale) SiO2 
 PCOD9240542
Probable space group: P 21/C
;
_chemical_formula_sum "Si O2"
_cell_formula_units_Z 24
_cell_length_a 7.838952
_cell_length_b 9.170598
_cell_length_c 18.315437
_cell_angle_alpha 90.000000
_cell_angle_beta 124.332957
_cell_angle_gamma 90.000000
_cell_volume 1087.261871
_symmetry_space_group_name_H-M "P 21/C"
_symmetry_group_IT_number 14
_symmetry_cell_setting 'monoclinic'
loop_
_space_group_symop_operation_xyz
x,y,z
-x,1/2+y,1/2-z
-x,-y,-z
x,1/2-y,1/2+z
loop_
_atom_site_type_symbol
_atom_site_label
_atom_site_fract_x
_atom_site_fract_y
_atom_site_fract_z
Si Si1 0.836371 0.107668 0.423897
Si Si2 0.799542 0.364535 0.172186
Si Si3 0.259495 0.427746 0.236997
Si Si4 0.593095 0.829486 0.639578
Si Si5 0.322301 0.565501 0.407196
Si Si6 0.944546 0.815985 0.128886
O O1 0.652744 0.171722 0.428744
O O2 0.968790 0.238576 0.420869
O O3 0.715720 0.014965 0.331685
O O4 0.000000 0.000000 0.500000
O O5 0.663311 0.503500 0.157008
O O6 0.692283 0.238253 0.100624
O O7 0.011165 0.416655 0.185255
O O8 0.882600 0.295106 0.267462
O O9 0.348771 0.265421 0.273833
O O10 0.345226 0.512598 0.328681
O O11 0.736979 0.759355 0.610864
O O12 0.500000 0.500000 0.500000
O O13 0.113049 0.486900 0.385819
#
# Coordination Sequence:
#
# PCOD9240542 Si02
#       6
#     4   4   4   4   4   4
#     4  12  26  40  65 100 137 182 229 277 340 413
#     4  10  18  41  71  92 124 178 212 280 341 393
#     4  10  21  44  61  98 129 165 229 271 333 404
#     4  10  23  40  71  91 129 183 216 283 338 394
#     4  10  21  36  70  96 124 172 217 275 338 395
#     4  10  21  45  61  97 132 166 231 270 338 405
#
# _framework density 22.073799000000001
#
# number of rings (size 3 to 8) (size 9 to 14) (size 15 to 20)
#    0.000    2.000    3.333    3.000    4.667    3.333 
#    0.000    0.000    0.000    6.000    0.000    0.000 
#    0.000    0.000    0.000    0.000    0.000    0.000 
#
# Total GULP energy -133978.727533 kJ/mol
# GULP energy per Si atom -5582.446981 kJ/mol
# Density = 2.202356 g / cm^3
# Si number density = 22.073799 Si / 1000 Ang^3
#
#
#
# Elastic Constant Matrix: (Units=GPa)
#
#
# Indices 1 2 3 4 5 6 
#
# 1 76.9581 24.7029 13.9675 0.0000 8.2262 0.0000
# 2 24.7029 113.4365 33.9663 0.0000 -11.0961 0.0000
# 3 13.9675 33.9663 97.6229 0.0000 -1.7156 0.0000
# 4 0.0000 0.0000 0.0000 29.2153 0.0000 -4.1603
# 5 8.2262 -11.0961 -1.7156 0.0000 17.7255 0.0000
# 6 0.0000 0.0000 0.0000 -4.1603 0.0000 29.3575
#
#
#
# Elastic Compliance Matrix: (Units=1/GPa)
#
#
# Indices 1 2 3 4 5 6 
#
# 1 0.015523 -0.004047 -0.000986 0.000000 -0.009833 0.000000
# 2 -0.004047 0.011539 -0.003281 0.000000 0.008784 0.000000
# 3 -0.000986 -0.003281 0.011518 0.000000 -0.000482 0.000000
# 4 0.000000 0.000000 0.000000 0.034934 0.000000 0.004951
# 5 -0.009833 0.008784 -0.000482 0.000000 0.066431 0.000000
# 6 0.000000 0.000000 0.000000 0.004951 0.000000 0.034764
#
#
# Mechanical properties :
#
#
# Convention : Reuss Voigt Hill
#
# Bulk Modulus (GPa) = 45.55537 48.14345 46.84941
# Shear Modulus (GPa) = 25.16939 29.61838 27.39388
#
# Velocity S-wave (km/s) = 3.38040 3.66702 3.52662
# Velocity P-wave (km/s) = 5.99322 6.30769 6.15247
#
# Compressibility (1/GPa) = 0.02195131
#
# Stress axis : x y z
#
# Youngs Moduli (GPa) = 64.41991 86.66593 86.82287
#
# Poissons Ratio (x) = 0.35075 0.08558
# Poissons Ratio (y) = 0.26072 0.28489
# Poissons Ratio (z) = 0.06350 0.28437
#
# Static dielectric constant tensor:
#      x y z
#    x 1.814850 0.000000 -0.017730 
#    y 0.000000 1.917730 0.000000 
#    z -0.017730 0.000000 1.829480 
# 
# From -- ./inp_files/64882.got.cif
#   From: 2010.05.17/outbox.cif.g08.bks.cpg/sg14_33_cif.got.tgz:64882.got - 2010.06.03 17:49:19.
