data_PCOD9240434
_publ_section_title
;
Structure prediction by ZEFSAII (Michael W. Deem and Ramdas Pophale) SiO2 
 PCOD9240434
Probable space group: P 21/C
;
_chemical_formula_sum "Si O2"
_cell_formula_units_Z 28
_cell_length_a 9.234299
_cell_length_b 17.380916
_cell_length_c 9.427239
_cell_angle_alpha 90.000000
_cell_angle_beta 84.169264
_cell_angle_gamma 90.000000
_cell_volume 1505.249157
_symmetry_space_group_name_H-M "P 21/C"
_symmetry_group_IT_number 14
_symmetry_cell_setting 'monoclinic'
loop_
_space_group_symop_operation_xyz
x,y,z
-x,1/2+y,1/2-z
-x,-y,-z
x,1/2-y,1/2+z
loop_
_atom_site_type_symbol
_atom_site_label
_atom_site_fract_x
_atom_site_fract_y
_atom_site_fract_z
Si Si1 0.951611 0.936046 0.315605
Si Si2 0.443737 0.661657 0.613950
Si Si3 0.898815 0.395136 0.913540
Si Si4 0.304945 0.713150 0.923149
Si Si5 0.218792 0.124862 0.924305
Si Si6 0.955773 0.326196 0.615950
Si Si7 0.201047 0.954687 0.060021
O O1 0.848878 0.885651 0.225587
O O2 0.998402 0.899389 0.459311
O O3 0.097761 0.951707 0.208720
O O4 0.881585 0.018367 0.358137
O O5 0.386213 0.687202 0.773806
O O6 0.396205 0.726866 0.506715
O O7 0.615519 0.650423 0.595873
O O8 0.355009 0.584469 0.580499
O O9 0.965539 0.344711 0.780584
O O10 0.746669 0.358183 0.976300
O O11 0.154202 0.756055 0.896160
O O12 0.111262 0.179552 0.024850
O O13 0.210749 0.040388 0.998801
O O14 0.878388 0.399344 0.546323
#
# Coordination Sequence:
#
# PCOD9240434 Si02
#       7
#     4   4   4   4   4   4   4
#     4  10  20  35  66  94 116 147 205 259 291 338
#     4  11  24  40  61  84 124 161 197 236 307 358
#     4  11  19  37  66  90 114 150 209 248 288 344
#     4  11  23  42  60  83 118 170 198 236 292 376
#     4  11  21  40  59  94 121 149 199 254 294 350
#     4  10  20  37  66  85 114 159 205 240 291 352
#     4  10  18  38  62  88 116 161 194 239 297 365
#
# _framework density 18.601569999999999
#
# number of rings (size 3 to 8) (size 9 to 14) (size 15 to 20)
#    0.000    1.429    5.714    1.286    0.000    0.000 
#    5.143    0.714    0.000    0.000    0.000    0.000 
#    0.000    0.000    0.000    0.000    0.000    0.000 
#
# Total GULP energy -156433.485476 kJ/mol
# GULP energy per Si atom -5586.910196 kJ/mol
# Density = 1.855923 g / cm^3
# Si number density = 18.601570 Si / 1000 Ang^3
#
#
#
# Elastic Constant Matrix: (Units=GPa)
#
#
# Indices 1 2 3 4 5 6 
#
# 1 124.8663 20.3398 40.0990 0.0000 -22.4779 0.0000
# 2 20.3398 29.8659 13.7939 0.0000 -13.8625 0.0000
# 3 40.0990 13.7939 121.8696 0.0000 -3.9759 0.0000
# 4 0.0000 0.0000 0.0000 20.7339 0.0000 -4.5045
# 5 -22.4779 -13.8625 -3.9759 0.0000 24.2045 0.0000
# 6 0.0000 0.0000 0.0000 -4.5045 0.0000 14.5501
#
#
#
# Elastic Compliance Matrix: (Units=1/GPa)
#
#
# Indices 1 2 3 4 5 6 
#
# 1 0.010836 -0.002084 -0.003056 0.000000 0.008367 0.000000
# 2 -0.002084 0.048403 -0.003973 0.000000 0.025134 0.000000
# 3 -0.003056 -0.003973 0.009545 0.000000 -0.003546 0.000000
# 4 0.000000 0.000000 0.000000 0.051708 0.000000 0.016008
# 5 0.008367 0.025134 -0.003546 0.000000 0.062897 0.000000
# 6 0.000000 0.000000 0.000000 0.016008 0.000000 0.073684
#
#
# Mechanical properties :
#
#
# Convention : Reuss Voigt Hill
#
# Bulk Modulus (GPa) = 19.77954 47.22967 33.50461
# Shear Modulus (GPa) = 17.11431 25.38896 21.25164
#
# Velocity S-wave (km/s) = 3.03652 3.69844 3.38370
# Velocity P-wave (km/s) = 4.79064 6.60933 5.77207
#
# Compressibility (1/GPa) = 0.05055730
#
# Stress axis : x y z
#
# Youngs Moduli (GPa) = 92.28643 20.65970 104.76526
#
# Poissons Ratio (x) = 0.04306 0.32021
# Poissons Ratio (y) = 0.19235 0.41621
# Poissons Ratio (z) = 0.28207 0.08208
#
# Static dielectric constant tensor:
#      x y z
#    x 1.614170 0.000000 0.009500 
#    y 0.000000 1.660710 0.000000 
#    z 0.009500 0.000000 1.639560 
# 
# From -- ./inp_files/9379.got.cif
#   From: 2010.05.17/outbox.cif.g08.bks.cpg/sg14_5_cif.got.tgz:9379.got - 2010.06.03 17:49:19.
