data_PCOD9240273
_publ_section_title
;
Structure prediction by ZEFSAII (Michael W. Deem and Ramdas Pophale) SiO2 
 PCOD9240273
Probable space group: P 21/C
;
_chemical_formula_sum "Si O2"
_cell_formula_units_Z 32
_cell_length_a 9.414408
_cell_length_b 21.907937
_cell_length_c 10.117229
_cell_angle_alpha 90.000000
_cell_angle_beta 54.233308
_cell_angle_gamma 90.000000
_cell_volume 1693.140832
_symmetry_space_group_name_H-M "P 21/C"
_symmetry_group_IT_number 14
_symmetry_cell_setting 'monoclinic'
loop_
_space_group_symop_operation_xyz
x,y,z
-x,1/2+y,1/2-z
-x,-y,-z
x,1/2-y,1/2+z
loop_
_atom_site_type_symbol
_atom_site_label
_atom_site_fract_x
_atom_site_fract_y
_atom_site_fract_z
Si Si1 0.688734 0.619837 0.148462
Si Si2 0.020057 0.453483 0.867996
Si Si3 0.018307 0.562045 0.679644
Si Si4 0.693466 0.126876 0.456182
Si Si5 0.877072 0.243493 0.466398
Si Si6 0.949920 0.809127 0.363284
Si Si7 0.295855 0.870800 0.865575
Si Si8 0.628189 0.556699 0.909651
O O1 0.833185 0.596267 0.172952
O O2 0.494193 0.624275 0.309668
O O3 0.758106 0.679404 0.031084
O O4 0.676211 0.572238 0.034899
O O5 0.068220 0.499218 0.723735
O O6 0.838266 0.419297 0.936094
O O7 0.000000 0.500000 0.000000
O O8 0.010741 0.622822 0.780395
O O9 0.818065 0.552571 0.739381
O O10 0.162350 0.579582 0.494658
O O11 0.750070 0.193417 0.472126
O O12 0.701256 0.123987 0.293561
O O13 0.494580 0.106863 0.593940
O O14 0.777064 0.305311 0.554194
O O15 0.021623 0.264168 0.277105
O O16 0.945218 0.216007 0.567556
O O17 0.500000 0.500000 0.000000
#
# Coordination Sequence:
#
# PCOD9240273 Si02
#       8
#     4   4   4   4   4   4   4   4
#     4  10  21  38  58  89 120 156 198 254 302 359
#     4  12  19  36  65  89 117 160 205 248 305 371
#     4  10  21  38  63  87 124 161 200 253 304 363
#     4  11  21  36  64  87 119 160 203 251 313 361
#     4  11  20  40  61  86 119 162 205 253 307 361
#     4  10  20  38  63  85 118 159 204 251 303 359
#     4  10  24  41  56  88 128 157 202 256 309 359
#     4  10  18  36  59  89 114 158 201 242 296 376
#
# _framework density 18.899788000000001
#
# number of rings (size 3 to 8) (size 9 to 14) (size 15 to 20)
#    0.000    1.500    6.250    0.000    0.000    1.000 
#    9.000    0.000    8.250    0.000    0.000    0.000 
#    0.000    0.000    0.000    0.000    0.000    0.000 
#
# Total GULP energy -178285.399367 kJ/mol
# GULP energy per Si atom -5571.418730 kJ/mol
# Density = 1.885677 g / cm^3
# Si number density = 18.899788 Si / 1000 Ang^3
#
#
#
# Elastic Constant Matrix: (Units=GPa)
#
#
# Indices 1 2 3 4 5 6 
#
# 1 101.6501 24.0977 35.0985 0.0000 -13.0550 0.0000
# 2 24.0977 57.8927 9.1131 0.0000 -3.6093 0.0000
# 3 35.0985 9.1131 75.9643 0.0000 -19.6011 0.0000
# 4 0.0000 0.0000 0.0000 22.2606 0.0000 -1.2158
# 5 -13.0550 -3.6093 -19.6011 0.0000 28.8084 0.0000
# 6 0.0000 0.0000 0.0000 -1.2158 0.0000 33.1336
#
#
#
# Elastic Compliance Matrix: (Units=1/GPa)
#
#
# Indices 1 2 3 4 5 6 
#
# 1 0.012831 -0.004450 -0.004898 0.000000 0.001924 0.000000
# 2 -0.004450 0.019170 -0.000175 0.000000 0.000266 0.000000
# 3 -0.004898 -0.000175 0.018036 0.000000 0.010030 0.000000
# 4 0.000000 0.000000 0.000000 0.045013 0.000000 0.001652
# 5 0.001924 0.000266 0.010030 0.000000 0.042442 0.000000
# 6 0.000000 0.000000 0.000000 0.001652 0.000000 0.030241
#
#
# Mechanical properties :
#
#
# Convention : Reuss Voigt Hill
#
# Bulk Modulus (GPa) = 32.26733 41.34732 36.80733
# Shear Modulus (GPa) = 25.36660 27.98701 26.67680
#
# Velocity S-wave (km/s) = 3.66753 3.85230 3.76105
# Velocity P-wave (km/s) = 5.91982 6.45845 6.19499
#
# Compressibility (1/GPa) = 0.03099110
#
# Stress axis : x y z
#
# Youngs Moduli (GPa) = 77.93642 52.16556 55.44382
#
# Poissons Ratio (x) = 0.23213 0.27156
# Poissons Ratio (y) = 0.34681 0.00971
# Poissons Ratio (z) = 0.38173 0.00913
#
# Static dielectric constant tensor:
#      x y z
#    x 1.665670 0.000000 -0.014790 
#    y 0.000000 1.763700 0.000000 
#    z -0.014790 0.000000 1.700710 
# 
# From -- ./inp_files/26793.got.cif
#   From: 2010.05.17/outbox.cif.g08.bks.cpg/sg14_14_cif.got.tgz:26793.got - 2010.06.03 17:49:19.
