data_PCOD9240730
_publ_section_title
;
Structure prediction by ZEFSAII (Michael W. Deem and Ramdas Pophale) SiO2 
 PCOD9240730
Probable space group: P 21/C
;
_chemical_formula_sum "Si O2"
_cell_formula_units_Z 28
_cell_length_a 20.779784
_cell_length_b 4.802422
_cell_length_c 17.881982
_cell_angle_alpha 90.000000
_cell_angle_beta 33.413862
_cell_angle_gamma 90.000000
_cell_volume 982.694305
_symmetry_space_group_name_H-M "P 21/C"
_symmetry_group_IT_number 14
_symmetry_cell_setting 'monoclinic'
loop_
_space_group_symop_operation_xyz
x,y,z
-x,1/2+y,1/2-z
-x,-y,-z
x,1/2-y,1/2+z
loop_
_atom_site_type_symbol
_atom_site_label
_atom_site_fract_x
_atom_site_fract_y
_atom_site_fract_z
Si Si1 0.428775 0.340989 0.823109
Si Si2 0.753234 0.701428 0.710279
Si Si3 0.233825 0.396782 0.595751
Si Si4 0.878353 0.396484 0.718394
Si Si5 0.675355 0.302277 0.207552
Si Si6 0.500000 0.000000 0.000000
Si Si7 0.500000 0.000000 0.500000
Si Si8 0.947048 0.038206 0.839973
O O1 0.512877 0.577813 0.774378
O O2 0.354475 0.530181 0.837557
O O3 0.365182 0.174635 0.950581
O O4 0.845210 0.550455 0.674145
O O5 0.768157 0.005739 0.663225
O O6 0.623211 0.727012 0.878544
O O7 0.726196 0.501246 0.667337
O O8 0.180728 0.597177 0.711166
O O9 0.181514 0.505430 0.568105
O O10 0.183030 0.093199 0.661299
O O11 0.011236 0.420194 0.620428
O O12 0.560044 0.279887 0.374738
O O13 0.553800 0.252398 0.002562
O O14 0.018154 0.856433 0.708440
#
# Coordination Sequence:
#
# PCOD9240730 Si02
#       8
#     4   4   4   4   4   2   2   4
#     4  12  26  40  56  78 111 156 195 222 263 340
#     4  10  19  32  53  77 106 138 174 229 276 322
#     4  10  21  36  56  82 115 147 180 232 281 326
#     4  10  19  34  60  89 109 137 187 233 286 336
#     4  10  21  36  51  73 106 143 182 224 276 315
#     4   8  16  30  48  64  88 128 168 212 254 294
#     4   8  16  26  40  66  92 124 158 196 262 300
#     4   8  16  32  54  82 111 138 175 231 286 326
#
# _framework density 28.493091
#
# number of rings (size 3 to 8) (size 9 to 14) (size 15 to 20)
#    0.000    2.286    0.000    2.571    0.000   10.286 
#    0.000    0.000    0.000    1.714    0.000    0.000 
#    0.000    0.000    0.000    0.000    0.000    0.000 
#
# Total GULP energy -155934.590373 kJ/mol
# GULP energy per Si atom -5569.092513 kJ/mol
# Density = 2.842824 g / cm^3
# Si number density = 28.493091 Si / 1000 Ang^3
#
#
#
# Elastic Constant Matrix: (Units=GPa)
#
#
# Indices 1 2 3 4 5 6 
#
# 1 155.2013 6.2615 12.3577 0.0000 2.3934 0.0000
# 2 6.2615 221.4284 22.4534 0.0000 -3.6911 0.0000
# 3 12.3577 22.4534 55.2238 0.0000 13.4457 0.0000
# 4 0.0000 0.0000 0.0000 19.3730 0.0000 -0.8170
# 5 2.3934 -3.6911 13.4457 0.0000 26.7807 0.0000
# 6 0.0000 0.0000 0.0000 -0.8170 0.0000 43.7891
#
#
#
# Elastic Compliance Matrix: (Units=1/GPa)
#
#
# Indices 1 2 3 4 5 6 
#
# 1 0.006561 -0.000031 -0.001494 0.000000 0.000160 0.000000
# 2 -0.000031 0.004791 -0.002395 0.000000 0.001866 0.000000
# 3 -0.001494 -0.002395 0.022175 0.000000 -0.011330 0.000000
# 4 0.000000 0.000000 0.000000 0.051659 0.000000 0.000964
# 5 0.000160 0.001866 -0.011330 0.000000 0.043272 0.000000
# 6 0.000000 0.000000 0.000000 0.000964 0.000000 0.022855
#
#
# Mechanical properties :
#
#
# Convention : Reuss Voigt Hill
#
# Bulk Modulus (GPa) = 38.93279 57.11097 48.02188
# Shear Modulus (GPa) = 29.81237 44.04062 36.92650
#
# Velocity S-wave (km/s) = 3.23817 3.93575 3.60388
# Velocity P-wave (km/s) = 5.26066 6.38286 5.84874
#
# Compressibility (1/GPa) = 0.02568529
#
# Stress axis : x y z
#
# Youngs Moduli (GPa) = 152.41510 208.72478 45.09590
#
# Poissons Ratio (x) = 0.00654 0.06739
# Poissons Ratio (y) = 0.00478 0.10801
# Poissons Ratio (z) = 0.22775 0.49994
#
# Static dielectric constant tensor:
#      x y z
#    x 2.409640 0.000000 -0.178040 
#    y 0.000000 3.030610 0.000000 
#    z -0.178040 0.000000 2.977260 
# 
# From -- ./inp_files/60935.got.cif
#   From: 2010.05.17/outbox.cif.g08.bks.cpg/sg14_31_cif.got.tgz:60935.got - 2010.06.03 17:49:19.
