data_PCOD9240674
_publ_section_title
;
Structure prediction by ZEFSAII (Michael W. Deem and Ramdas Pophale) SiO2 
 PCOD9240674
Probable space group: P 21/C
;
_chemical_formula_sum "Si O2"
_cell_formula_units_Z 28
_cell_length_a 12.403166
_cell_length_b 9.396213
_cell_length_c 18.300737
_cell_angle_alpha 90.000000
_cell_angle_beta 44.381189
_cell_angle_gamma 90.000000
_cell_volume 1491.754847
_symmetry_space_group_name_H-M "P 21/C"
_symmetry_group_IT_number 14
_symmetry_cell_setting 'monoclinic'
loop_
_space_group_symop_operation_xyz
x,y,z
-x,1/2+y,1/2-z
-x,-y,-z
x,1/2-y,1/2+z
loop_
_atom_site_type_symbol
_atom_site_label
_atom_site_fract_x
_atom_site_fract_y
_atom_site_fract_z
Si Si1 0.224008 0.555395 0.072333
Si Si2 0.027805 0.241990 0.879958
Si Si3 0.310710 0.226434 0.339965
Si Si4 0.426217 0.573148 0.836296
Si Si5 0.832454 0.233948 0.111111
Si Si6 0.895468 0.764879 0.425685
Si Si7 0.138199 0.950349 0.770167
O O1 0.172630 0.391930 0.087707
O O2 0.240535 0.582799 0.150130
O O3 0.084172 0.652250 0.108971
O O4 0.368114 0.577430 0.948454
O O5 0.172728 0.312724 0.851138
O O6 0.094797 0.114085 0.799768
O O7 0.922146 0.176300 0.996572
O O8 0.414270 0.347930 0.254176
O O9 0.230420 0.281427 0.453537
O O10 0.408042 0.086884 0.314970
O O11 0.303081 0.667461 0.850502
O O12 0.790442 0.111521 0.189295
O O13 0.961498 0.322241 0.094019
O O14 0.976421 0.637436 0.343083
#
# Coordination Sequence:
#
# PCOD9240674 Si02
#       7
#     4   4   4   4   4   4   4
#     4  10  19  35  53  80 111 139 169 216 276 314
#     4  10  19  33  56  82 105 138 180 218 256 314
#     4  10  21  34  55  78 106 138 183 221 255 306
#     4  10  21  35  56  77 104 145 177 222 258 312
#     4   8  18  33  55  77 103 133 180 216 262 299
#     4   8  18  33  53  77 105 131 176 218 264 301
#     4  10  19  31  57  81 107 134 174 217 265 313
#
# _framework density 18.769839000000001
#
# number of rings (size 3 to 8) (size 9 to 14) (size 15 to 20)
#    0.857    1.714    0.000    2.143    2.000    4.571 
#    0.000    0.714    3.143    0.857    0.000    0.000 
#    0.000    0.000    0.000    0.000    0.000    0.000 
#
# Total GULP energy -155933.892687 kJ/mol
# GULP energy per Si atom -5569.067596 kJ/mol
# Density = 1.872712 g / cm^3
# Si number density = 18.769839 Si / 1000 Ang^3
#
#
#
# Elastic Constant Matrix: (Units=GPa)
#
#
# Indices 1 2 3 4 5 6 
#
# 1 28.9512 2.8516 29.4039 0.0000 7.8353 0.0000
# 2 2.8516 63.0400 45.1882 0.0000 3.0633 0.0000
# 3 29.4039 45.1882 95.0109 0.0000 21.8878 0.0000
# 4 0.0000 0.0000 0.0000 24.6604 0.0000 -1.1536
# 5 7.8353 3.0633 21.8878 0.0000 26.1567 0.0000
# 6 0.0000 0.0000 0.0000 -1.1536 0.0000 13.4952
#
#
#
# Elastic Compliance Matrix: (Units=1/GPa)
#
#
# Indices 1 2 3 4 5 6 
#
# 1 0.059430 0.016406 -0.026822 0.000000 0.002721 0.000000
# 2 0.016406 0.030176 -0.021658 0.000000 0.009675 0.000000
# 3 -0.026822 -0.021658 0.033066 0.000000 -0.017098 0.000000
# 4 0.000000 0.000000 0.000000 0.040714 0.000000 0.003480
# 5 0.002721 0.009675 -0.017098 0.000000 0.050591 0.000000
# 6 0.000000 0.000000 0.000000 0.003480 0.000000 0.074398
#
#
# Mechanical properties :
#
#
# Convention : Reuss Voigt Hill
#
# Bulk Modulus (GPa) = 17.08718 37.98772 27.53745
# Shear Modulus (GPa) = 13.43980 20.16637 16.80308
#
# Velocity S-wave (km/s) = 2.67878 3.28136 2.99526
# Velocity P-wave (km/s) = 4.32332 5.88550 5.16383
#
# Compressibility (1/GPa) = 0.05852340
#
# Stress axis : x y z
#
# Youngs Moduli (GPa) = 16.82647 33.13945 30.24283
#
# Poissons Ratio (x) = -0.54369 0.81118
# Poissons Ratio (y) = -0.27606 0.65500
# Poissons Ratio (z) = 0.45132 0.71773
#
# Static dielectric constant tensor:
#      x y z
#    x 1.669030 0.000000 0.003680 
#    y 0.000000 1.637050 0.000000 
#    z 0.003680 0.000000 1.668510 
# 
# From -- ./inp_files/67994.got.cif
#   From: 2010.05.17/outbox.cif.g08.bks.cpg/sg14_34_cif.got.tgz:67994.got - 2010.06.03 17:49:19.
