data_PCOD9240680
_publ_section_title
;
Structure prediction by ZEFSAII (Michael W. Deem and Ramdas Pophale) SiO2 
 PCOD9240680
Probable space group: P 21/C
;
_chemical_formula_sum "Si O2"
_cell_formula_units_Z 28
_cell_length_a 7.900764
_cell_length_b 6.696592
_cell_length_c 24.444506
_cell_angle_alpha 90.000000
_cell_angle_beta 125.757177
_cell_angle_gamma 90.000000
_cell_volume 1049.525855
_symmetry_space_group_name_H-M "P 21/C"
_symmetry_group_IT_number 14
_symmetry_cell_setting 'monoclinic'
loop_
_space_group_symop_operation_xyz
x,y,z
-x,1/2+y,1/2-z
-x,-y,-z
x,1/2-y,1/2+z
loop_
_atom_site_type_symbol
_atom_site_label
_atom_site_fract_x
_atom_site_fract_y
_atom_site_fract_z
Si Si1 0.374087 0.659473 0.379342
Si Si2 0.468035 0.304952 0.915109
Si Si3 0.734415 0.622564 0.331791
Si Si4 0.753459 0.181727 0.377821
Si Si5 0.220255 0.235252 0.478150
Si Si6 0.853791 0.292174 0.556349
Si Si7 0.709570 0.284040 0.255676
O O1 0.399066 0.422106 0.389796
O O2 0.594335 0.757239 0.441727
O O3 0.218294 0.735485 0.395759
O O4 0.273479 0.715266 0.302717
O O5 0.545336 0.392896 0.870492
O O6 0.312760 0.348873 0.937466
O O7 0.695106 0.313570 0.986660
O O8 0.700978 0.423685 0.362842
O O9 0.794126 0.503368 0.287444
O O10 0.538888 0.758898 0.282928
O O11 0.903180 0.745767 0.397026
O O12 0.790505 0.142071 0.319903
O O13 0.986165 0.160714 0.446856
O O14 0.179409 0.472348 0.461223
#
# Coordination Sequence:
#
# PCOD9240680 Si02
#       7
#     4   4   4   4   4   4   4
#     4   9  15  28  47  71  98 125 159 213 255 298
#     4   9  15  28  50  75  97 119 167 220 257 286
#     4   9  19  32  46  73 102 134 168 199 249 308
#     4   9  18  29  48  72 101 132 160 206 255 288
#     4   8  16  27  46  74  98 119 166 215 255 287
#     4   8  16  28  47  77  93 120 169 220 253 286
#     4  10  19  32  46  74 104 136 167 198 253 305
#
# _framework density 26.678716000000001
#
# number of rings (size 3 to 8) (size 9 to 14) (size 15 to 20)
#    0.857    2.286    1.429    1.714    2.000    1.714 
#    2.571    1.429    0.000    0.857    0.000    2.000 
#    0.000    0.000    0.000    0.000    0.000    0.000 
#
# Total GULP energy -155984.320631 kJ/mol
# GULP energy per Si atom -5570.868594 kJ/mol
# Density = 2.661799 g / cm^3
# Si number density = 26.678716 Si / 1000 Ang^3
#
#
#
# Elastic Constant Matrix: (Units=GPa)
#
#
# Indices 1 2 3 4 5 6 
#
# 1 91.6405 -4.2766 9.9599 0.0000 -13.3497 0.0000
# 2 -4.2766 98.6413 14.0538 0.0000 -9.5903 0.0000
# 3 9.9599 14.0538 75.3003 0.0000 -16.2889 0.0000
# 4 0.0000 0.0000 0.0000 38.3557 0.0000 -2.2097
# 5 -13.3497 -9.5903 -16.2889 0.0000 58.9329 0.0000
# 6 0.0000 0.0000 0.0000 -2.2097 0.0000 -5.5989
#
#
#
# Elastic Compliance Matrix: (Units=1/GPa)
#
#
# Indices 1 2 3 4 5 6 
#
# 1 0.011432 0.000895 -0.001157 0.000000 0.002416 0.000000
# 2 0.000895 0.010569 -0.001782 0.000000 0.001430 0.000000
# 3 -0.001157 -0.001782 0.014514 0.000000 0.003460 0.000000
# 4 0.000000 0.000000 0.000000 0.025492 0.000000 -0.010061
# 5 0.002416 0.001430 0.003460 0.000000 0.018705 0.000000
# 6 0.000000 0.000000 0.000000 -0.010061 0.000000 -0.174635
#
#
# Mechanical properties :
#
#
# Convention : Reuss Voigt Hill
#
# Bulk Modulus (GPa) = 30.83652 33.89513 32.36583
# Shear Modulus (GPa) = -63.26947 34.72762 -14.27093
#
# Velocity S-wave (km/s) = -4.87512 3.61182 -2.31534
# Velocity P-wave (km/s) = 4.48392 5.48873 2.23837
#
# Compressibility (1/GPa) = 0.03242908
#
# Stress axis : x y z
#
# Youngs Moduli (GPa) = 87.47702 94.61223 68.89870
#
# Poissons Ratio (x) = -0.08470 0.07969
# Poissons Ratio (y) = -0.07831 0.12275
# Poissons Ratio (z) = 0.10118 0.16857
#
# Static dielectric constant tensor:
#      x y z
#    x 2.116100 0.000000 -0.061110 
#    y 0.000000 2.188650 0.000000 
#    z -0.061110 0.000000 2.094880 
# 
# From -- ./inp_files/72208.got.cif
#   From: 2010.05.17/outbox.cif.g08.bks.cpg/sg14_37_cif.got.tgz:72208.got - 2010.06.03 17:49:19.
