data_PCOD9240306
_publ_section_title
;
Structure prediction by ZEFSAII (Michael W. Deem and Ramdas Pophale) SiO2 
 PCOD9240306
Probable space group: P 21/C
;
_chemical_formula_sum "Si O2"
_cell_formula_units_Z 32
_cell_length_a 12.225786
_cell_length_b 15.417353
_cell_length_c 16.091344
_cell_angle_alpha 90.000000
_cell_angle_beta 152.379551
_cell_angle_gamma 90.000000
_cell_volume 1406.157181
_symmetry_space_group_name_H-M "P 21/C"
_symmetry_group_IT_number 14
_symmetry_cell_setting 'monoclinic'
loop_
_space_group_symop_operation_xyz
x,y,z
-x,1/2+y,1/2-z
-x,-y,-z
x,1/2-y,1/2+z
loop_
_atom_site_type_symbol
_atom_site_label
_atom_site_fract_x
_atom_site_fract_y
_atom_site_fract_z
Si Si1 0.336279 0.807728 0.448935
Si Si2 0.311965 0.492899 0.466657
Si Si3 0.926168 0.574496 0.090122
Si Si4 0.162070 0.882577 0.504447
Si Si5 0.367322 0.366375 0.346657
Si Si6 0.349069 0.337262 0.588983
Si Si7 0.512882 0.669069 0.899893
Si Si8 0.039567 0.745528 0.598847
O O1 0.250377 0.859598 0.470610
O O2 0.474251 0.718152 0.557871
O O3 0.489954 0.856358 0.481163
O O4 0.111632 0.779655 0.242665
O O5 0.388468 0.420680 0.448364
O O6 0.521334 0.557308 0.635281
O O7 0.233687 0.428650 0.486627
O O8 0.110743 0.551631 0.288514
O O9 0.024293 0.650804 0.097431
O O10 0.893578 0.483467 0.024160
O O11 0.675710 0.605359 0.958008
O O12 0.381192 0.857006 0.707690
O O13 0.905675 0.839744 0.345936
O O14 0.363768 0.262993 0.528186
O O15 0.218611 0.295097 0.580449
O O16 0.245154 0.692896 0.689875
#
# Coordination Sequence:
#
# PCOD9240306 Si02
#       8
#     4   4   4   4   4   4   4   4
#     4  10  20  39  62  88 113 156 209 250 293 350
#     4  10  18  36  63  87 112 151 205 253 288 347
#     4  10  20  39  61  93 116 149 209 260 290 349
#     4  11  26  37  57  92 132 155 192 257 308 358
#     4  10  20  36  62  90 113 153 205 251 292 350
#     4  11  22  40  57  88 127 161 193 242 311 369
#     4   9  21  38  68  84 113 161 209 239 298 358
#     4   9  19  39  67  85 112 160 209 247 290 357
#
# _framework density 22.757058000000001
#
# number of rings (size 3 to 8) (size 9 to 14) (size 15 to 20)
#    0.750    1.250    2.500    1.500    5.250    2.000 
#    4.500    0.625    0.000    0.000    0.000    0.000 
#    0.000    0.000    0.000    0.000    0.000    0.000 
#
# Total GULP energy -178309.528018 kJ/mol
# GULP energy per Si atom -5572.172751 kJ/mol
# Density = 2.270526 g / cm^3
# Si number density = 22.757058 Si / 1000 Ang^3
#
#
#
# Elastic Constant Matrix: (Units=GPa)
#
#
# Indices 1 2 3 4 5 6 
#
# 1 58.7368 0.2724 10.7091 0.0000 15.3485 0.0000
# 2 0.2724 44.4520 14.4798 0.0000 17.0048 0.0000
# 3 10.7091 14.4798 89.9319 0.0000 30.6672 0.0000
# 4 0.0000 0.0000 0.0000 35.3237 0.0000 14.8073
# 5 15.3485 17.0048 30.6672 0.0000 38.7682 0.0000
# 6 0.0000 0.0000 0.0000 14.8073 0.0000 24.3535
#
#
#
# Elastic Compliance Matrix: (Units=1/GPa)
#
#
# Indices 1 2 3 4 5 6 
#
# 1 0.019414 0.003380 0.000370 0.000000 -0.009462 0.000000
# 2 0.003380 0.027632 -0.000359 0.000000 -0.013174 0.000000
# 3 0.000370 -0.000359 0.015241 0.000000 -0.012045 0.000000
# 4 0.000000 0.000000 0.000000 0.037993 0.000000 -0.023100
# 5 -0.009462 -0.013174 -0.012045 0.000000 0.044847 0.000000
# 6 0.000000 0.000000 0.000000 -0.023100 0.000000 0.055107
#
#
# Mechanical properties :
#
#
# Convention : Reuss Voigt Hill
#
# Bulk Modulus (GPa) = 14.47806 27.11591 20.79699
# Shear Modulus (GPa) = 23.09730 30.86636 26.98183
#
# Velocity S-wave (km/s) = 3.18929 3.68685 3.44706
# Velocity P-wave (km/s) = 4.46519 5.48316 5.00015
#
# Compressibility (1/GPa) = 0.06907004
#
# Stress axis : x y z
#
# Youngs Moduli (GPa) = 51.50828 36.18968 65.61390
#
# Poissons Ratio (x) = -0.12232 -0.02431
# Poissons Ratio (y) = -0.17409 0.02355
# Poissons Ratio (z) = -0.01908 0.01299
#
# Static dielectric constant tensor:
#      x y z
#    x 1.931710 0.000000 -0.009460 
#    y 0.000000 1.844960 0.000000 
#    z -0.009460 0.000000 1.920620 
# 
# From -- ./inp_files/68661.got.cif
#   From: 2010.05.17/outbox.cif.g08.bks.cpg/sg14_35_cif.got.tgz:68661.got - 2010.06.03 17:49:19.
