data_PCOD9240278
_publ_section_title
;
Structure prediction by ZEFSAII (Michael W. Deem and Ramdas Pophale) SiO2 
 PCOD9240278
Probable space group: P 21/C
;
_chemical_formula_sum "Si O2"
_cell_formula_units_Z 24
_cell_length_a 7.821296
_cell_length_b 16.192671
_cell_length_c 9.077136
_cell_angle_alpha 90.000000
_cell_angle_beta 121.128049
_cell_angle_gamma 90.000000
_cell_volume 984.072243
_symmetry_space_group_name_H-M "P 21/C"
_symmetry_group_IT_number 14
_symmetry_cell_setting 'monoclinic'
loop_
_space_group_symop_operation_xyz
x,y,z
-x,1/2+y,1/2-z
-x,-y,-z
x,1/2-y,1/2+z
loop_
_atom_site_type_symbol
_atom_site_label
_atom_site_fract_x
_atom_site_fract_y
_atom_site_fract_z
Si Si1 0.748069 0.971165 0.360583
Si Si2 0.308111 0.754810 0.372940
Si Si3 0.411704 0.862211 0.149271
Si Si4 0.053887 0.121865 0.033613
Si Si5 0.991665 0.303987 0.005423
Si Si6 0.059877 0.996169 0.272753
O O1 0.531344 0.946368 0.211267
O O2 0.861541 0.881642 0.424887
O O3 0.770947 0.016116 0.527149
O O4 0.872335 0.019472 0.293183
O O5 0.419282 0.816235 0.310568
O O6 0.459430 0.698682 0.535111
O O7 0.160368 0.799402 0.423693
O O8 0.155437 0.704266 0.200060
O O9 0.178282 0.877327 0.022156
O O10 0.114694 0.217115 0.058854
O O11 0.146921 0.063204 0.198038
O O12 0.034273 0.076591 0.868435
#
# Coordination Sequence:
#
# PCOD9240278 Si02
#       6
#     4   4   4   4   4   4
#     4  11  22  34  56  85 110 138 180 227 268 318
#     4   8  18  34  54  78 108 138 176 226 270 312
#     4  10  20  34  54  82 110 138 178 228 272 310
#     4   9  20  40  58  75 108 150 184 217 268 322
#     4  10  18  36  60  78 104 145 182 217 264 326
#     4  10  22  38  54  78 112 148 180 216 270 330
#
# _framework density 24.388453999999999
#
# number of rings (size 3 to 8) (size 9 to 14) (size 15 to 20)
#    0.000    2.667    0.000    4.000    0.000    5.333 
#    0.000    5.000    0.000    0.000    0.000    0.000 
#    0.000    0.000    0.000    0.000    0.000    0.000 
#
# Total GULP energy -133959.037198 kJ/mol
# GULP energy per Si atom -5581.626550 kJ/mol
# Density = 2.433294 g / cm^3
# Si number density = 24.388454 Si / 1000 Ang^3
#
#
#
# Elastic Constant Matrix: (Units=GPa)
#
#
# Indices 1 2 3 4 5 6 
#
# 1 19.4278 0.9964 16.8562 0.0000 -5.5835 0.0000
# 2 0.9964 102.9491 19.2069 0.0000 -19.1564 0.0000
# 3 16.8562 19.2069 116.9945 0.0000 -48.5533 0.0000
# 4 0.0000 0.0000 0.0000 39.2794 0.0000 14.6498
# 5 -5.5835 -19.1564 -48.5533 0.0000 33.5015 0.0000
# 6 0.0000 0.0000 0.0000 14.6498 0.0000 24.2992
#
#
#
# Elastic Compliance Matrix: (Units=1/GPa)
#
#
# Indices 1 2 3 4 5 6 
#
# 1 0.059361 0.000386 -0.011087 0.000000 -0.005954 0.000000
# 2 0.000386 0.011061 0.001957 0.000000 0.009226 0.000000
# 3 -0.011087 0.001957 0.023890 0.000000 0.033895 0.000000
# 4 0.000000 0.000000 0.000000 0.032844 0.000000 -0.019801
# 5 -0.005954 0.009226 0.033895 0.000000 0.083256 0.000000
# 6 0.000000 0.000000 0.000000 -0.019801 0.000000 0.053091
#
#
# Mechanical properties :
#
#
# Convention : Reuss Voigt Hill
#
# Bulk Modulus (GPa) = 13.01656 34.83225 23.92441
# Shear Modulus (GPa) = 16.30793 32.90348 24.60570
#
# Velocity S-wave (km/s) = 2.58868 3.67705 3.17978
# Velocity P-wave (km/s) = 3.77939 5.68690 4.82828
#
# Compressibility (1/GPa) = 0.07682523
#
# Stress axis : x y z
#
# Youngs Moduli (GPa) = 16.84605 90.40462 41.85849
#
# Poissons Ratio (x) = -0.03490 0.46408
# Poissons Ratio (y) = -0.00650 -0.08193
# Poissons Ratio (z) = 0.18677 -0.17695
#
# Static dielectric constant tensor:
#      x y z
#    x 1.945220 0.000000 -0.010590 
#    y 0.000000 2.186980 0.000000 
#    z -0.010590 0.000000 1.968300 
# 
# From -- ./inp_files/9668.got.cif
#   From: 2010.05.17/outbox.cif.g08.bks.cpg/sg14_5_cif.got.tgz:9668.got - 2010.06.03 17:49:19.
