data_PCOD9240456
_publ_section_title
;
Structure prediction by ZEFSAII (Michael W. Deem and Ramdas Pophale) SiO2 
 PCOD9240456
Probable space group: P 21/C
;
_chemical_formula_sum "Si O2"
_cell_formula_units_Z 28
_cell_length_a 14.171282
_cell_length_b 9.690288
_cell_length_c 19.176435
_cell_angle_alpha 90.000000
_cell_angle_beta 154.602056
_cell_angle_gamma 90.000000
_cell_volume 1129.464268
_symmetry_space_group_name_H-M "P 21/C"
_symmetry_group_IT_number 14
_symmetry_cell_setting 'monoclinic'
loop_
_space_group_symop_operation_xyz
x,y,z
-x,1/2+y,1/2-z
-x,-y,-z
x,1/2-y,1/2+z
loop_
_atom_site_type_symbol
_atom_site_label
_atom_site_fract_x
_atom_site_fract_y
_atom_site_fract_z
Si Si1 0.946762 0.214955 0.542849
Si Si2 0.114437 0.557094 0.225609
Si Si3 0.625207 0.806369 0.611372
Si Si4 0.995069 0.689414 0.570407
Si Si5 0.622757 0.046033 0.832731
Si Si6 0.513262 0.071349 0.611336
Si Si7 0.459474 0.979202 0.064600
O O1 0.123168 0.313485 0.698526
O O2 0.012958 0.218357 0.505524
O O3 0.721832 0.298408 0.401769
O O4 0.979390 0.067046 0.600004
O O5 0.998954 0.704749 0.138137
O O6 0.343624 0.571378 0.334760
O O7 0.214589 0.509187 0.367421
O O8 0.614894 0.819484 0.521271
O O9 0.535737 0.669781 0.587598
O O10 0.485127 0.927456 0.552793
O O11 0.532215 0.551541 0.838059
O O12 0.229986 0.613023 0.723055
O O13 0.806361 0.926655 0.942478
O O14 0.528701 0.012608 0.845131
#
# Coordination Sequence:
#
# PCOD9240456 Si02
#       7
#     4   4   4   4   4   4   4
#     4  10  20  38  66  90 121 162 211 259 314 378
#     4  10  22  41  62  86 128 180 199 244 332 394
#     4  10  18  38  65  88 121 172 208 245 313 399
#     4  11  19  39  66  93 121 168 211 258 314 379
#     4  11  22  40  65  98 125 156 219 280 301 355
#     4  10  19  36  66  91 119 169 213 249 315 381
#     4  10  23  41  62  90 135 164 210 264 318 373
#
# _framework density 24.790514999999999
#
# number of rings (size 3 to 8) (size 9 to 14) (size 15 to 20)
#    0.000    1.714    4.286    1.286    0.000    1.143 
#    5.143    0.000    9.429    0.000    0.000    0.000 
#    0.000    0.000    0.000    0.000    0.000    0.000 
#
# Total GULP energy -156522.779398 kJ/mol
# GULP energy per Si atom -5590.099264 kJ/mol
# Density = 2.473409 g / cm^3
# Si number density = 24.790515 Si / 1000 Ang^3
#
#
#
# Elastic Constant Matrix: (Units=GPa)
#
#
# Indices 1 2 3 4 5 6 
#
# 1 63.0772 -6.0190 30.4423 0.0000 -26.3237 0.0000
# 2 -6.0190 94.2439 13.3673 0.0000 1.8737 0.0000
# 3 30.4423 13.3673 97.7245 0.0000 -32.0918 0.0000
# 4 0.0000 0.0000 0.0000 25.1982 0.0000 -13.9425
# 5 -26.3237 1.8737 -32.0918 0.0000 39.4707 0.0000
# 6 0.0000 0.0000 0.0000 -13.9425 0.0000 9.1093
#
#
#
# Elastic Compliance Matrix: (Units=1/GPa)
#
#
# Indices 1 2 3 4 5 6 
#
# 1 0.022782 0.001663 -0.003221 0.000000 0.012496 0.000000
# 2 0.001663 0.011103 -0.002518 0.000000 -0.001465 0.000000
# 3 -0.003221 -0.002518 0.014890 0.000000 0.010078 0.000000
# 4 0.000000 0.000000 0.000000 0.259195 0.000000 0.396719
# 5 0.012496 -0.001465 0.010078 0.000000 0.041932 0.000000
# 6 0.000000 0.000000 0.000000 0.396719 0.000000 0.716988
#
#
# Mechanical properties :
#
#
# Convention : Reuss Voigt Hill
#
# Bulk Modulus (GPa) = 24.61591 36.73631 30.67611
# Shear Modulus (GPa) = 4.59313 29.23931 16.91622
#
# Velocity S-wave (km/s) = 1.36264 3.43805 2.61505
# Velocity P-wave (km/s) = 3.52517 5.53273 4.63885
#
# Compressibility (1/GPa) = 0.04062413
#
# Stress axis : x y z
#
# Youngs Moduli (GPa) = 43.89523 90.06354 67.15873
#
# Poissons Ratio (x) = -0.14981 0.21630
# Poissons Ratio (y) = -0.07301 0.16911
# Poissons Ratio (z) = 0.14137 0.22678
#
# Static dielectric constant tensor:
#      x y z
#    x 1.977990 0.000000 0.009790 
#    y 0.000000 1.987510 0.000000 
#    z 0.009790 0.000000 2.048380 
# 
# From -- ./inp_files/59299.got.cif
#   From: 2010.05.17/outbox.cif.g08.bks.cpg/sg14_30_cif.got.tgz:59299.got - 2010.06.03 17:49:19.
