data_PCOD9240199
_publ_section_title
;
Structure prediction by ZEFSAII (Michael W. Deem and Ramdas Pophale) SiO2 
 PCOD9240199
Probable space group: P 21/C
;
_chemical_formula_sum "Si O2"
_cell_formula_units_Z 32
_cell_length_a 23.013803
_cell_length_b 7.833045
_cell_length_c 14.715265
_cell_angle_alpha 90.000000
_cell_angle_beta 149.873697
_cell_angle_gamma 90.000000
_cell_volume 1331.407781
_symmetry_space_group_name_H-M "P 21/C"
_symmetry_group_IT_number 14
_symmetry_cell_setting 'monoclinic'
loop_
_space_group_symop_operation_xyz
x,y,z
-x,1/2+y,1/2-z
-x,-y,-z
x,1/2-y,1/2+z
loop_
_atom_site_type_symbol
_atom_site_label
_atom_site_fract_x
_atom_site_fract_y
_atom_site_fract_z
Si Si1 0.424738 0.435540 0.066836
Si Si2 0.818967 0.143032 0.546490
Si Si3 0.655192 0.302040 0.466041
Si Si4 0.981452 0.784533 0.423007
Si Si5 0.700528 0.675539 0.272185
Si Si6 0.743842 0.770793 0.522015
Si Si7 0.947909 0.579622 0.563885
Si Si8 0.216961 0.541420 0.194329
O O1 0.551575 0.387911 0.271366
O O2 0.389047 0.622501 0.052738
O O3 0.337761 0.309838 0.003977
O O4 0.396766 0.402753 0.923712
O O5 0.760034 0.267805 0.538318
O O6 0.771616 0.156189 0.381134
O O7 0.958014 0.145957 0.736671
O O8 0.787254 0.954801 0.543016
O O9 0.699962 0.406887 0.612057
O O10 0.959400 0.710403 0.494588
O O11 0.022692 0.609278 0.430105
O O12 0.084942 0.920683 0.549993
O O13 0.858008 0.828382 0.210279
O O14 0.674483 0.694499 0.343151
O O15 0.819263 0.571365 0.426659
O O16 0.743384 0.857297 0.288725
#
# Coordination Sequence:
#
# PCOD9240199 Si02
#       8
#     4   4   4   4   4   4   4   4
#     4  11  23  43  63  83 113 154 197 240 288 344
#     4   9  20  38  60  84 118 158 191 228 291 353
#     4  11  23  43  63  83 113 154 197 240 288 344
#     4  10  18  35  61  86 117 159 193 227 285 350
#     4  11  22  37  59  90 119 150 192 240 288 340
#     4   9  20  38  60  84 118 158 191 228 291 353
#     4  10  18  35  61  86 117 159 193 227 285 350
#     4  11  22  37  59  90 119 150 192 240 288 340
#
# _framework density 24.03471
#
# number of rings (size 3 to 8) (size 9 to 14) (size 15 to 20)
#    0.000    1.750    2.500    2.250    0.000    1.500 
#    0.000   11.250    0.000    0.000    0.000    0.000 
#    0.000    0.000    0.000    0.000    0.000    0.000 
#
# Total GULP energy -179170.523009 kJ/mol
# GULP energy per Si atom -5599.078844 kJ/mol
# Density = 2.398001 g / cm^3
# Si number density = 24.034710 Si / 1000 Ang^3
#
#
#
# Elastic Constant Matrix: (Units=GPa)
#
#
# Indices 1 2 3 4 5 6 
#
# 1 46.8454 19.1329 22.4205 0.0000 -16.1008 0.0000
# 2 19.1329 98.5033 30.3609 0.0000 3.3681 0.0000
# 3 22.4205 30.3609 163.3783 0.0000 -16.7188 0.0000
# 4 0.0000 0.0000 0.0000 26.5406 0.0000 -1.5187
# 5 -16.1008 3.3681 -16.7188 0.0000 20.6946 0.0000
# 6 0.0000 0.0000 0.0000 -1.5187 0.0000 20.6072
#
#
#
# Elastic Compliance Matrix: (Units=1/GPa)
#
#
# Indices 1 2 3 4 5 6 
#
# 1 0.033948 -0.007368 -0.000506 0.000000 0.027203 0.000000
# 2 -0.007368 0.012630 -0.002325 0.000000 -0.009667 0.000000
# 3 -0.000506 -0.002325 0.007217 0.000000 0.005816 0.000000
# 4 0.000000 0.000000 0.000000 0.037838 0.000000 0.002789
# 5 0.027203 -0.009667 0.005816 0.000000 0.075758 0.000000
# 6 0.000000 0.000000 0.000000 0.002789 0.000000 0.048732
#
#
# Mechanical properties :
#
#
# Convention : Reuss Voigt Hill
#
# Bulk Modulus (GPa) = 29.94247 50.28394 40.11320
# Shear Modulus (GPa) = 20.18944 29.35597 24.77270
#
# Velocity S-wave (km/s) = 2.90144 3.49864 3.21394
# Velocity P-wave (km/s) = 4.86924 6.10635 5.52254
#
# Compressibility (1/GPa) = 0.03339738
#
# Stress axis : x y z
#
# Youngs Moduli (GPa) = 29.45693 79.17454 138.55416
#
# Poissons Ratio (x) = 0.58337 0.07007
# Poissons Ratio (y) = 0.21704 0.32216
# Poissons Ratio (z) = 0.01490 0.18410
#
# Static dielectric constant tensor:
#      x y z
#    x 1.904550 0.000000 0.003900 
#    y 0.000000 1.970400 0.000000 
#    z 0.003900 0.000000 1.875030 
# 
# From -- ./inp_files/51406.got.cif
#   From: 2010.05.17/outbox.cif.g08.bks.cpg/sg14_26_cif.got.tgz:51406.got - 2010.06.03 17:49:19.
