data_PCOD9240937
_publ_section_title
;
Structure prediction by ZEFSAII (Michael W. Deem and Ramdas Pophale) SiO2 
 PCOD9240937
Probable space group: P 21/C
;
_chemical_formula_sum "Si O2"
_cell_formula_units_Z 28
_cell_length_a 18.043954
_cell_length_b 18.848978
_cell_length_c 8.762980
_cell_angle_alpha 90.000000
_cell_angle_beta 148.197218
_cell_angle_gamma 90.000000
_cell_volume 1570.650413
_symmetry_space_group_name_H-M "P 21/C"
_symmetry_group_IT_number 14
_symmetry_cell_setting 'monoclinic'
loop_
_space_group_symop_operation_xyz
x,y,z
-x,1/2+y,1/2-z
-x,-y,-z
x,1/2-y,1/2+z
loop_
_atom_site_type_symbol
_atom_site_label
_atom_site_fract_x
_atom_site_fract_y
_atom_site_fract_z
Si Si1 0.721764 0.943749 0.107890
Si Si2 0.382290 0.337803 0.803030
Si Si3 0.373155 0.556348 0.761196
Si Si4 0.656418 0.687358 0.913703
Si Si5 0.116710 0.087210 0.309184
Si Si6 0.477590 0.581109 0.410075
Si Si7 0.201150 0.553228 0.772494
O O1 0.840713 0.933407 0.442961
O O2 0.723213 0.894762 0.960242
O O3 0.579841 0.915267 0.942463
O O4 0.705047 0.025251 0.024943
O O5 0.377554 0.266679 0.696080
O O6 0.540046 0.370690 0.092360
O O7 0.335053 0.320323 0.890938
O O8 0.271468 0.550808 0.728504
O O9 0.500000 0.500000 0.000000
O O10 0.536556 0.634769 0.637779
O O11 0.799680 0.658005 0.088571
O O12 0.175774 0.024828 0.301233
O O13 0.950173 0.089747 0.998656
O O14 0.500000 0.500000 0.500000
O O15 0.317288 0.590866 0.081628
#
# Coordination Sequence:
#
# PCOD9240937 Si02
#       7
#     4   4   4   4   4   4   4
#     4  10  19  34  58  88 115 147 191 236 291 333
#     4  11  22  35  62  84 109 150 195 243 286 343
#     4  10  19  33  59  89 116 144 191 248 277 333
#     4  11  22  37  59  83 111 148 201 234 291 350
#     4  10  22  35  57  87 120 157 185 236 291 352
#     4  11  18  33  60  85 111 150 187 242 279 333
#     4  11  20  35  58  88 122 148 190 233 293 332
#
# _framework density 17.827010000000001
#
# number of rings (size 3 to 8) (size 9 to 14) (size 15 to 20)
#    0.000    1.429    5.714    4.286    0.000    0.571 
#    0.000    0.000    6.286    0.000    0.000    0.000 
#    0.000    0.000    0.000    0.000    0.000    0.000 
#
# Total GULP energy -156138.706064 kJ/mol
# GULP energy per Si atom -5576.382359 kJ/mol
# Density = 1.778644 g / cm^3
# Si number density = 17.827010 Si / 1000 Ang^3
#
#
#
# Elastic Constant Matrix: (Units=GPa)
#
#
# Indices 1 2 3 4 5 6 
#
# 1 76.6011 17.2464 34.5626 0.0000 -10.7118 0.0000
# 2 17.2464 86.3910 31.7922 0.0000 -3.4038 0.0000
# 3 34.5626 31.7922 127.9149 0.0000 5.1176 0.0000
# 4 0.0000 0.0000 0.0000 16.8169 0.0000 -7.7718
# 5 -10.7118 -3.4038 5.1176 0.0000 34.3094 0.0000
# 6 0.0000 0.0000 0.0000 -7.7718 0.0000 25.8044
#
#
#
# Elastic Compliance Matrix: (Units=1/GPa)
#
#
# Indices 1 2 3 4 5 6 
#
# 1 0.016040 -0.001442 -0.004195 0.000000 0.005491 0.000000
# 2 -0.001442 0.012975 -0.002886 0.000000 0.001268 0.000000
# 3 -0.004195 -0.002886 0.009791 0.000000 -0.003057 0.000000
# 4 0.000000 0.000000 0.000000 0.069079 0.000000 0.020805
# 5 0.005491 0.001268 -0.003057 0.000000 0.031442 0.000000
# 6 0.000000 0.000000 0.000000 0.020805 0.000000 0.045019
#
#
# Mechanical properties :
#
#
# Convention : Reuss Voigt Hill
#
# Bulk Modulus (GPa) = 45.95664 50.90105 48.42884
# Shear Modulus (GPa) = 23.96398 29.20652 26.58525
#
# Velocity S-wave (km/s) = 3.67038 4.05202 3.86591
# Velocity P-wave (km/s) = 6.61796 7.10680 6.86673
#
# Compressibility (1/GPa) = 0.02175964
#
# Stress axis : x y z
#
# Youngs Moduli (GPa) = 62.34410 77.07062 102.13622
#
# Poissons Ratio (x) = 0.11113 0.42849
# Poissons Ratio (y) = 0.08989 0.29476
# Poissons Ratio (z) = 0.26155 0.22242
#
# Static dielectric constant tensor:
#      x y z
#    x 1.659100 0.000000 -0.032860 
#    y 0.000000 1.626940 0.000000 
#    z -0.032860 0.000000 1.632760 
# 
# From -- ./inp_files/18157.got.cif
#   From: 2010.05.17/outbox.cif.g08.bks.cpg/sg14_10_cif.got.tgz:18157.got - 2010.06.03 17:49:19.
