data_PCOD9240539
_publ_section_title
;
Structure prediction by ZEFSAII (Michael W. Deem and Ramdas Pophale) SiO2 
 PCOD9240539
Probable space group: P 21/C
;
_chemical_formula_sum "Si O2"
_cell_formula_units_Z 32
_cell_length_a 16.970077
_cell_length_b 9.279687
_cell_length_c 27.810151
_cell_angle_alpha 90.000000
_cell_angle_beta 19.453028
_cell_angle_gamma 90.000000
_cell_volume 1458.508626
_symmetry_space_group_name_H-M "P 21/C"
_symmetry_group_IT_number 14
_symmetry_cell_setting 'monoclinic'
loop_
_space_group_symop_operation_xyz
x,y,z
-x,1/2+y,1/2-z
-x,-y,-z
x,1/2-y,1/2+z
loop_
_atom_site_type_symbol
_atom_site_label
_atom_site_fract_x
_atom_site_fract_y
_atom_site_fract_z
Si Si1 0.623634 0.306467 0.227886
Si Si2 0.330501 0.548996 0.426939
Si Si3 0.757760 0.285905 0.787998
Si Si4 0.121081 0.939189 0.874297
Si Si5 0.265402 0.284711 0.590274
Si Si6 0.224469 0.368235 0.008133
Si Si7 0.997609 0.472843 0.292573
Si Si8 0.538657 0.371754 0.168837
O O1 0.546665 0.436942 0.306726
O O2 0.847849 0.204871 0.110662
O O3 0.397491 0.201392 0.368076
O O4 0.619040 0.378340 0.178222
O O5 0.184599 0.558158 0.559906
O O6 0.436114 0.703408 0.355197
O O7 0.132022 0.491504 0.501665
O O8 0.724620 0.389958 0.760944
O O9 0.954689 0.176349 0.654954
O O10 0.837298 0.400350 0.782160
O O11 0.543642 0.203530 0.935014
O O12 0.275495 0.063834 0.811049
O O13 0.254447 0.213948 0.542242
O O14 0.145673 0.439456 0.665167
O O15 0.139451 0.165577 0.694987
O O16 0.287751 0.535276 0.965629
#
# Coordination Sequence:
#
# PCOD9240539 Si02
#       8
#     4   4   4   4   4   4   4   4
#     4  11  20  41  66  88 122 176 220 250 317 382
#     4  11  22  44  61  97 136 155 219 269 315 381
#     4  10  18  41  67  85 123 168 209 243 325 388
#     4  10  21  42  65  85 126 180 194 266 327 359
#     4  11  20  40  65  88 124 162 203 259 317 379
#     4  10  21  41  61  90 127 169 206 262 317 379
#     4  10  23  36  65  93 116 167 208 255 311 382
#     4  11  24  37  65  97 126 165 216 272 311 377
#
# _framework density 21.940218999999999
#
# number of rings (size 3 to 8) (size 9 to 14) (size 15 to 20)
#    0.000    1.500    6.250    1.875    1.750    2.000 
#    4.500    3.125    0.000    0.000    0.000    0.000 
#    0.000    0.000    0.000    0.000    0.000    0.000 
#
# Total GULP energy -178264.943406 kJ/mol
# GULP energy per Si atom -5570.779481 kJ/mol
# Density = 2.189028 g / cm^3
# Si number density = 21.940219 Si / 1000 Ang^3
#
#
#
# Elastic Constant Matrix: (Units=GPa)
#
#
# Indices 1 2 3 4 5 6 
#
# 1 80.1989 56.7950 27.2918 0.0000 -83.2781 0.0000
# 2 56.7950 130.7433 46.2879 0.0000 -83.6697 0.0000
# 3 27.2918 46.2879 59.8689 0.0000 -29.2415 0.0000
# 4 0.0000 0.0000 0.0000 27.3010 0.0000 5.3555
# 5 -83.2781 -83.6697 -29.2415 0.0000 155.4392 0.0000
# 6 0.0000 0.0000 0.0000 5.3555 0.0000 30.6401
#
#
#
# Elastic Compliance Matrix: (Units=1/GPa)
#
#
# Indices 1 2 3 4 5 6 
#
# 1 0.030614 -0.002428 -0.005182 0.000000 0.014120 0.000000
# 2 -0.002428 0.014782 -0.007787 0.000000 0.005191 0.000000
# 3 -0.005182 -0.007787 0.023876 0.000000 -0.002476 0.000000
# 4 0.000000 0.000000 0.000000 0.037929 0.000000 -0.006630
# 5 0.014120 0.005191 -0.002476 0.000000 0.016327 0.000000
# 6 0.000000 0.000000 0.000000 -0.006630 0.000000 0.033796
#
#
# Mechanical properties :
#
#
# Convention : Reuss Voigt Hill
#
# Bulk Modulus (GPa) = 25.98781 59.06227 42.52504
# Shear Modulus (GPa) = 24.88259 52.03849 38.46054
#
# Velocity S-wave (km/s) = 3.37131 4.87543 4.19139
# Velocity P-wave (km/s) = 5.19854 7.65971 6.54584
#
# Compressibility (1/GPa) = 0.03847958
#
# Stress axis : x y z
#
# Youngs Moduli (GPa) = 32.66480 67.64881 41.88266
#
# Poissons Ratio (x) = 0.16426 0.21703
# Poissons Ratio (y) = 0.07931 0.32612
# Poissons Ratio (z) = 0.16926 0.52675
#
# Static dielectric constant tensor:
#      x y z
#    x 2.011340 0.000000 -0.114190 
#    y 0.000000 1.807320 0.000000 
#    z -0.114190 0.000000 1.877210 
# 
# From -- ./inp_files/80398.got.cif
#   From: 2010.05.17/outbox.cif.g08.bks.cpg/sg14_41_cif.got.tgz:80398.got - 2010.06.03 17:49:19.
