data_PCOD9240243
_publ_section_title
;
Structure prediction by ZEFSAII (Michael W. Deem and Ramdas Pophale) SiO2 
 PCOD9240243
Probable space group: P 21/C
;
_chemical_formula_sum "Si O2"
_cell_formula_units_Z 28
_cell_length_a 12.499968
_cell_length_b 13.946608
_cell_length_c 12.931598
_cell_angle_alpha 90.000000
_cell_angle_beta 36.596918
_cell_angle_gamma 90.000000
_cell_volume 1344.028025
_symmetry_space_group_name_H-M "P 21/C"
_symmetry_group_IT_number 14
_symmetry_cell_setting 'monoclinic'
loop_
_space_group_symop_operation_xyz
x,y,z
-x,1/2+y,1/2-z
-x,-y,-z
x,1/2-y,1/2+z
loop_
_atom_site_type_symbol
_atom_site_label
_atom_site_fract_x
_atom_site_fract_y
_atom_site_fract_z
Si Si1 0.577372 0.806716 0.539315
Si Si2 0.919957 0.739770 0.383300
Si Si3 0.821631 0.090588 0.807724
Si Si4 0.306359 0.273840 0.754428
Si Si5 0.625873 0.112136 0.757232
Si Si6 0.445078 0.576187 0.313887
Si Si7 0.990403 0.892584 0.643551
O O1 0.781349 0.805107 0.423631
O O2 0.590250 0.793749 0.406431
O O3 0.489489 0.708151 0.649238
O O4 0.467520 0.892237 0.677669
O O5 0.813668 0.716477 0.570119
O O6 0.974835 0.651600 0.269711
O O7 0.088295 0.806709 0.276773
O O8 0.662608 0.081538 0.847400
O O9 0.958230 0.005996 0.673171
O O10 0.747052 0.079734 0.981264
O O11 0.439127 0.343301 0.714051
O O12 0.169756 0.342519 0.796867
O O13 0.819292 0.129288 0.555574
O O14 0.527661 0.027195 0.773517
#
# Coordination Sequence:
#
# PCOD9240243 Si02
#       7
#     4   4   4   4   4   4   4
#     4  10  22  36  57  88 120 155 189 244 292 347
#     4  10  22  36  57  88 120 155 189 244 292 347
#     4  12  21  37  63  89 118 150 198 249 288 337
#     4  10  18  36  54  84 120 152 192 234 294 340
#     4  12  21  37  63  89 118 150 198 249 288 337
#     4  11  21  35  59  89 119 150 195 242 292 340
#     4  11  21  35  59  89 119 150 195 242 292 340
#
# _framework density 20.832899999999999
#
# number of rings (size 3 to 8) (size 9 to 14) (size 15 to 20)
#    0.000    1.143    4.286    5.143    0.000    0.000 
#    0.000    0.000    0.000   15.429   14.857    0.000 
#    0.000    0.000    0.000    0.000    0.000    0.000 
#
# Total GULP energy -156498.972831 kJ/mol
# GULP energy per Si atom -5589.249030 kJ/mol
# Density = 2.078548 g / cm^3
# Si number density = 20.832900 Si / 1000 Ang^3
#
#
#
# Elastic Constant Matrix: (Units=GPa)
#
#
# Indices 1 2 3 4 5 6 
#
# 1 28.8064 17.8470 7.1395 0.0000 8.7634 0.0000
# 2 17.8470 39.1664 -1.4291 0.0000 10.5744 0.0000
# 3 7.1395 -1.4291 91.8957 0.0000 9.9771 0.0000
# 4 0.0000 0.0000 0.0000 26.8089 0.0000 5.7593
# 5 8.7634 10.5744 9.9771 0.0000 24.4566 0.0000
# 6 0.0000 0.0000 0.0000 5.7593 0.0000 23.9260
#
#
#
# Elastic Compliance Matrix: (Units=1/GPa)
#
#
# Indices 1 2 3 4 5 6 
#
# 1 0.051143 -0.021359 -0.003472 0.000000 -0.007674 0.000000
# 2 -0.021359 0.038144 0.003361 0.000000 -0.010210 0.000000
# 3 -0.003472 0.003361 0.011747 0.000000 -0.005001 0.000000
# 4 0.000000 0.000000 0.000000 0.039335 0.000000 -0.009468
# 5 -0.007674 -0.010210 -0.005001 0.000000 0.050093 0.000000
# 6 0.000000 0.000000 0.000000 -0.009468 0.000000 0.044075
#
#
# Mechanical properties :
#
#
# Convention : Reuss Voigt Hill
#
# Bulk Modulus (GPa) = 17.21374 22.99816 20.10595
# Shear Modulus (GPa) = 16.84399 24.12572 20.48486
#
# Velocity S-wave (km/s) = 2.84655 3.40672 3.13915
# Velocity P-wave (km/s) = 4.36858 5.15147 4.77609
#
# Compressibility (1/GPa) = 0.05809312
#
# Stress axis : x y z
#
# Youngs Moduli (GPa) = 19.55313 26.21640 85.12857
#
# Poissons Ratio (x) = 0.55996 0.29560
# Poissons Ratio (y) = 0.41764 -0.28613
# Poissons Ratio (z) = 0.06790 -0.08812
#
# Static dielectric constant tensor:
#      x y z
#    x 1.774080 0.000000 0.021230 
#    y 0.000000 1.699110 0.000000 
#    z 0.021230 0.000000 1.774710 
# 
# From -- ./inp_files/12892.got.cif
#   From: 2010.05.17/outbox.cif.g08.bks.cpg/sg14_7_cif.got.tgz:12892.got - 2010.06.03 17:49:19.
