data_PCOD9240608
_publ_section_title
;
Structure prediction by ZEFSAII (Michael W. Deem and Ramdas Pophale) SiO2 
 PCOD9240608
Probable space group: P 21/C
;
_chemical_formula_sum "Si O2"
_cell_formula_units_Z 32
_cell_length_a 11.706091
_cell_length_b 12.870728
_cell_length_c 12.458667
_cell_angle_alpha 90.000000
_cell_angle_beta 46.809463
_cell_angle_gamma 90.000000
_cell_volume 1368.556622
_symmetry_space_group_name_H-M "P 21/C"
_symmetry_group_IT_number 14
_symmetry_cell_setting 'monoclinic'
loop_
_space_group_symop_operation_xyz
x,y,z
-x,1/2+y,1/2-z
-x,-y,-z
x,1/2-y,1/2+z
loop_
_atom_site_type_symbol
_atom_site_label
_atom_site_fract_x
_atom_site_fract_y
_atom_site_fract_z
Si Si1 0.908737 0.348143 0.569727
Si Si2 0.403956 0.410602 0.426716
Si Si3 0.794060 0.659957 0.267365
Si Si4 0.202419 0.225529 0.467829
Si Si5 0.000429 0.676068 0.721371
Si Si6 0.285697 0.688098 0.690001
Si Si7 0.464535 0.163710 0.531611
Si Si8 0.610569 0.029302 0.272201
O O1 0.967831 0.375851 0.413011
O O2 0.794052 0.247506 0.657511
O O3 0.789609 0.437933 0.683027
O O4 0.061426 0.309971 0.535628
O O5 0.282842 0.423143 0.603722
O O6 0.343453 0.305096 0.404098
O O7 0.577676 0.387546 0.358227
O O8 0.402081 0.504760 0.344903
O O9 0.793930 0.652367 0.139350
O O10 0.672042 0.755078 0.361110
O O11 0.957667 0.705299 0.208164
O O12 0.145053 0.156799 0.605272
O O13 0.145925 0.653291 0.704143
O O14 0.375438 0.772803 0.558308
O O15 0.436635 0.072324 0.632118
O O16 0.492876 0.115435 0.394926
#
# Coordination Sequence:
#
# PCOD9240608 Si02
#       8
#     4   4   4   4   4   4   4   4
#     4   9  19  33  51  75 104 135 166 211 263 304
#     4  10  19  30  53  79 103 131 170 218 252 304
#     4   9  17  33  54  77 102 133 173 213 255 298
#     4   9  17  33  52  76 101 130 175 218 255 292
#     4   9  18  32  52  73 102 135 173 211 246 303
#     4   9  19  32  52  78 100 136 173 208 252 302
#     4   9  18  33  52  78 108 130 165 218 265 297
#     4  10  19  32  51  79 108 131 164 215 267 307
#
# _framework density 23.382299
#
# number of rings (size 3 to 8) (size 9 to 14) (size 15 to 20)
#    0.000    2.750    1.250    0.000    1.750    0.500 
#    0.000    0.625    0.000    1.500    0.000    0.000 
#    0.000    0.000    0.000    0.000    0.000    0.000 
#
# Total GULP energy -178252.846232 kJ/mol
# GULP energy per Si atom -5570.401445 kJ/mol
# Density = 2.332908 g / cm^3
# Si number density = 23.382299 Si / 1000 Ang^3
#
#
#
# Elastic Constant Matrix: (Units=GPa)
#
#
# Indices 1 2 3 4 5 6 
#
# 1 71.3504 -2.6422 17.7325 0.0000 -18.3079 0.0000
# 2 -2.6422 32.0126 11.2917 0.0000 -13.5453 0.0000
# 3 17.7325 11.2917 123.3949 0.0000 14.0541 0.0000
# 4 0.0000 0.0000 0.0000 21.6614 0.0000 14.6419
# 5 -18.3079 -13.5453 14.0541 0.0000 38.2080 0.0000
# 6 0.0000 0.0000 0.0000 14.6419 0.0000 5.5283
#
#
#
# Elastic Compliance Matrix: (Units=1/GPa)
#
#
# Indices 1 2 3 4 5 6 
#
# 1 0.019510 0.009767 -0.005382 0.000000 0.014791 0.000000
# 2 0.009767 0.044937 -0.008207 0.000000 0.023630 0.000000
# 3 -0.005382 -0.008207 0.010702 0.000000 -0.009425 0.000000
# 4 0.000000 0.000000 0.000000 -0.058417 0.000000 0.154720
# 5 0.014791 0.023630 -0.009425 0.000000 0.045103 0.000000
# 6 0.000000 0.000000 0.000000 0.154720 0.000000 -0.228895
#
#
# Mechanical properties :
#
#
# Convention : Reuss Voigt Hill
#
# Bulk Modulus (GPa) = 14.81384 31.05801 22.93592
# Shear Modulus (GPa) = -36.51923 26.43793 -5.04065
#
# Velocity S-wave (km/s) = -3.95629 3.36621 -1.46984
# Velocity P-wave (km/s) = 3.81056 5.33104 2.63625
#
# Compressibility (1/GPa) = 0.06750446
#
# Stress axis : x y z
#
# Youngs Moduli (GPa) = 51.25652 22.25338 93.44095
#
# Poissons Ratio (x) = -0.21735 0.50290
# Poissons Ratio (y) = -0.50062 0.76687
# Poissons Ratio (z) = 0.27586 0.18263
#
# Static dielectric constant tensor:
#      x y z
#    x 1.926420 0.000000 0.022380 
#    y 0.000000 1.970060 0.000000 
#    z 0.022380 0.000000 1.941320 
# 
# From -- ./inp_files/30292.got.cif
#   From: 2010.05.17/outbox.cif.g08.bks.cpg/sg14_16_cif.got.tgz:30292.got - 2010.06.03 17:49:19.
