data_PCOD9240783
_publ_section_title
;
Structure prediction by ZEFSAII (Michael W. Deem and Ramdas Pophale) SiO2 
 PCOD9240783
Probable space group: P 21/C
;
_chemical_formula_sum "Si O2"
_cell_formula_units_Z 32
_cell_length_a 7.921652
_cell_length_b 12.315004
_cell_length_c 14.757151
_cell_angle_alpha 90.000000
_cell_angle_beta 56.186229
_cell_angle_gamma 90.000000
_cell_volume 1196.123022
_symmetry_space_group_name_H-M "P 21/C"
_symmetry_group_IT_number 14
_symmetry_cell_setting 'monoclinic'
loop_
_space_group_symop_operation_xyz
x,y,z
-x,1/2+y,1/2-z
-x,-y,-z
x,1/2-y,1/2+z
loop_
_atom_site_type_symbol
_atom_site_label
_atom_site_fract_x
_atom_site_fract_y
_atom_site_fract_z
Si Si1 0.134362 0.664123 0.807337
Si Si2 0.596579 0.803740 0.825068
Si Si3 0.849642 0.836300 0.924996
Si Si4 0.782949 0.998208 0.450246
Si Si5 0.038279 0.772383 0.642718
Si Si6 0.511952 0.536817 0.604544
Si Si7 0.458454 0.067462 0.657771
Si Si8 0.049562 0.458916 0.385969
O O1 0.034300 0.759350 0.901751
O O2 0.990861 0.566230 0.882509
O O3 0.079213 0.734080 0.733444
O O4 0.334404 0.601804 0.710350
O O5 0.692012 0.790193 0.897714
O O6 0.478102 0.692330 0.841711
O O7 0.801840 0.805184 0.704517
O O8 0.480454 0.916566 0.854038
O O9 0.943222 0.948012 0.856083
O O10 0.695950 0.876999 0.048476
O O11 0.823669 0.125891 0.422202
O O12 0.654457 0.993265 0.581819
O O13 0.655083 0.947714 0.405107
O O14 0.059065 0.656183 0.589862
O O15 0.500000 0.500000 0.500000
O O16 0.278626 0.044117 0.781346
O O17 0.000000 0.500000 0.500000
#
# Coordination Sequence:
#
# PCOD9240783 Si02
#       8
#     4   4   4   4   4   4   4   4
#     4  11  20  34  58  92 129 147 186 258 322 367
#     4   9  16  32  51  88 125 144 188 248 306 365
#     4  10  21  34  55  83 115 153 201 240 300 347
#     4  11  20  33  60  94 129 148 186 265 316 367
#     4  10  19  32  57  85 120 159 194 241 309 361
#     4  10  20  30  52  87 122 157 189 241 310 378
#     4  10  21  33  59  96 121 157 197 245 326 360
#     4  11  23  42  61  80 119 168 214 246 279 369
#
# _framework density 26.753101000000001
#
# number of rings (size 3 to 8) (size 9 to 14) (size 15 to 20)
#    0.000    1.750    5.000    3.000    5.250    1.000 
#    0.000    0.000    5.500    0.750    0.000    0.000 
#    0.000    0.000    0.000    0.000    0.000    0.000 
#
# Total GULP energy -178502.928009 kJ/mol
# GULP energy per Si atom -5578.216500 kJ/mol
# Density = 2.669221 g / cm^3
# Si number density = 26.753101 Si / 1000 Ang^3
#
#
#
# Elastic Constant Matrix: (Units=GPa)
#
#
# Indices 1 2 3 4 5 6 
#
# 1 33.3877 25.8457 28.8862 0.0000 -14.3779 0.0000
# 2 25.8457 199.1652 67.3757 0.0000 -23.2371 0.0000
# 3 28.8862 67.3757 158.8652 0.0000 -38.4343 0.0000
# 4 0.0000 0.0000 0.0000 53.7082 0.0000 -13.9779
# 5 -14.3779 -23.2371 -38.4343 0.0000 52.5356 0.0000
# 6 0.0000 0.0000 0.0000 -13.9779 0.0000 38.6199
#
#
#
# Elastic Compliance Matrix: (Units=1/GPa)
#
#
# Indices 1 2 3 4 5 6 
#
# 1 0.038515 -0.002820 -0.004324 0.000000 0.006130 0.000000
# 2 -0.002820 0.006107 -0.001957 0.000000 0.000498 0.000000
# 3 -0.004324 -0.001957 0.009010 0.000000 0.004542 0.000000
# 4 0.000000 0.000000 0.000000 0.020555 0.000000 0.007440
# 5 0.006130 0.000498 0.004542 0.000000 0.024256 0.000000
# 6 0.000000 0.000000 0.000000 0.007440 0.000000 0.028586
#
#
# Mechanical properties :
#
#
# Convention : Reuss Voigt Hill
#
# Bulk Modulus (GPa) = 28.22482 70.62594 49.42538
# Shear Modulus (GPa) = 31.83882 46.92676 39.38279
#
# Velocity S-wave (km/s) = 3.45352 4.19270 3.84094
# Velocity P-wave (km/s) = 5.14543 7.06363 6.17941
#
# Compressibility (1/GPa) = 0.03542981
#
# Stress axis : x y z
#
# Youngs Moduli (GPa) = 25.96382 163.74730 110.99108
#
# Poissons Ratio (x) = 0.46179 0.47994
# Poissons Ratio (y) = 0.07322 0.21719
# Poissons Ratio (z) = 0.11227 0.32042
#
# Static dielectric constant tensor:
#      x y z
#    x 2.336670 0.000000 0.032990 
#    y 0.000000 2.170950 0.000000 
#    z 0.032990 0.000000 2.197970 
# 
# From -- ./inp_files/57706.got.cif
#   From: 2010.05.17/outbox.cif.g08.bks.cpg/sg14_29_cif.got.tgz:57706.got - 2010.06.03 17:49:19.
