data_PCOD9240921
_publ_section_title
;
Structure prediction by ZEFSAII (Michael W. Deem and Ramdas Pophale) SiO2 
 PCOD9240921
Probable space group: P 21/C
;
_chemical_formula_sum "Si O2"
_cell_formula_units_Z 28
_cell_length_a 15.202965
_cell_length_b 7.689376
_cell_length_c 10.088863
_cell_angle_alpha 90.000000
_cell_angle_beta 106.569256
_cell_angle_gamma 90.000000
_cell_volume 1130.427566
_symmetry_space_group_name_H-M "P 21/C"
_symmetry_group_IT_number 14
_symmetry_cell_setting 'monoclinic'
loop_
_space_group_symop_operation_xyz
x,y,z
-x,1/2+y,1/2-z
-x,-y,-z
x,1/2-y,1/2+z
loop_
_atom_site_type_symbol
_atom_site_label
_atom_site_fract_x
_atom_site_fract_y
_atom_site_fract_z
Si Si1 0.892882 0.034693 0.745252
Si Si2 0.205820 0.978425 0.039861
Si Si3 0.439524 0.749945 0.904277
Si Si4 0.594749 0.037309 0.856964
Si Si5 0.096411 0.950349 0.740464
Si Si6 0.588235 0.961307 0.383292
Si Si7 0.786616 0.051500 0.451157
O O1 0.866276 0.969007 0.878431
O O2 0.892323 0.243031 0.752062
O O3 0.813887 0.986133 0.607925
O O4 0.992124 0.985806 0.733626
O O5 0.306642 0.052462 0.112216
O O6 0.215213 0.764456 0.044479
O O7 0.163818 0.026531 0.880804
O O8 0.391543 0.698170 0.745581
O O9 0.548733 0.721348 0.923197
O O10 0.413993 0.902287 0.994023
O O11 0.413724 0.588320 0.991445
O O12 0.493019 0.988272 0.756511
O O13 0.132924 0.005155 0.613421
O O14 0.689072 0.971791 0.368955
#
# Coordination Sequence:
#
# PCOD9240921 Si02
#       7
#     4   4   4   4   4   4   4
#     4  10  21  38  61  84 113 148 191 244 295 343
#     4  10  20  33  60  87 109 146 192 245 280 343
#     4   9  19  33  55  78 119 149 184 230 287 330
#     4  10  19  33  58  84 113 148 192 234 277 340
#     4  10  22  37  61  86 112 147 197 243 294 343
#     4   9  19  34  57  78 119 151 185 231 289 343
#     4  10  19  36  60  80 108 155 196 223 289 363
#
# _framework density 24.769389
#
# number of rings (size 3 to 8) (size 9 to 14) (size 15 to 20)
#    0.857    1.429    1.429    1.714    4.000    0.000 
#    0.000    4.286    3.143    0.000    0.000    0.000 
#    0.000    0.000    0.000    0.000    0.000    0.000 
#
# Total GULP energy -156250.356011 kJ/mol
# GULP energy per Si atom -5580.369858 kJ/mol
# Density = 2.471301 g / cm^3
# Si number density = 24.769389 Si / 1000 Ang^3
#
#
#
# Elastic Constant Matrix: (Units=GPa)
#
#
# Indices 1 2 3 4 5 6 
#
# 1 107.0145 -6.6582 -11.1637 0.0000 3.2089 0.0000
# 2 -6.6582 26.6532 -12.6924 0.0000 6.9906 0.0000
# 3 -11.1637 -12.6924 70.9209 0.0000 2.5612 0.0000
# 4 0.0000 0.0000 0.0000 5.8797 0.0000 4.4612
# 5 3.2089 6.9906 2.5612 0.0000 42.6437 0.0000
# 6 0.0000 0.0000 0.0000 4.4612 0.0000 31.2871
#
#
#
# Elastic Compliance Matrix: (Units=1/GPa)
#
#
# Indices 1 2 3 4 5 6 
#
# 1 0.009880 0.003977 0.002322 0.000000 -0.001535 0.000000
# 2 0.003977 0.044933 0.008964 0.000000 -0.008203 0.000000
# 3 0.002322 0.008964 0.016164 0.000000 -0.002615 0.000000
# 4 0.000000 0.000000 0.000000 0.190710 0.000000 -0.027193
# 5 -0.001535 -0.008203 -0.002615 0.000000 0.025067 0.000000
# 6 0.000000 0.000000 0.000000 -0.027193 0.000000 0.035840
#
#
# Mechanical properties :
#
#
# Convention : Reuss Voigt Hill
#
# Bulk Modulus (GPa) = 9.85197 15.95110 12.90153
# Shear Modulus (GPa) = 15.34197 31.63562 23.48880
#
# Velocity S-wave (km/s) = 2.49146 3.57768 3.08279
# Velocity P-wave (km/s) = 3.50180 4.84976 4.22982
#
# Compressibility (1/GPa) = 0.10150256
#
# Stress axis : x y z
#
# Youngs Moduli (GPa) = 101.21211 22.25557 61.86436
#
# Poissons Ratio (x) = -0.08850 -0.14367
# Poissons Ratio (y) = -0.40249 -0.55453
# Poissons Ratio (z) = -0.23505 -0.19949
#
# Static dielectric constant tensor:
#      x y z
#    x 1.976020 0.000000 -0.024950 
#    y 0.000000 2.226210 0.000000 
#    z -0.024950 0.000000 1.919130 
# 
# From -- ./inp_files/31614.got.cif
#   From: 2010.05.17/outbox.cif.g08.bks.cpg/sg14_16_cif.got.tgz:31614.got - 2010.06.03 17:49:19.
