data_PCOD9240712
_publ_section_title
;
Structure prediction by ZEFSAII (Michael W. Deem and Ramdas Pophale) SiO2 
 PCOD9240712
Probable space group: P 21/C
;
_chemical_formula_sum "Si O2"
_cell_formula_units_Z 28
_cell_length_a 17.767307
_cell_length_b 14.065408
_cell_length_c 17.925552
_cell_angle_alpha 90.000000
_cell_angle_beta 21.024487
_cell_angle_gamma 90.000000
_cell_volume 1607.159051
_symmetry_space_group_name_H-M "P 21/C"
_symmetry_group_IT_number 14
_symmetry_cell_setting 'monoclinic'
loop_
_space_group_symop_operation_xyz
x,y,z
-x,1/2+y,1/2-z
-x,-y,-z
x,1/2-y,1/2+z
loop_
_atom_site_type_symbol
_atom_site_label
_atom_site_fract_x
_atom_site_fract_y
_atom_site_fract_z
Si Si1 0.200753 0.265088 0.165254
Si Si2 0.200753 0.734912 0.165254
Si Si3 0.399590 0.892233 0.707991
Si Si4 0.600410 0.607767 0.792009
Si Si5 0.848426 0.889248 0.911056
Si Si6 0.848425 0.389248 0.411056
Si Si7 1.000000 0.691829 0.500000
O O1 0.217390 0.171241 0.099902
O O2 0.056125 0.339602 0.252792
O O3 0.422161 0.315853 0.973416
O O4 0.084108 0.249435 0.351625
O O5 0.217390 0.828759 0.099902
O O6 0.084108 0.750565 0.351626
O O7 0.056126 0.660397 0.252791
O O8 0.422161 0.815853 0.473416
O O9 0.192775 0.871808 0.850674
O O10 0.473820 1.000000 0.626262
O O11 0.325188 0.882919 0.862832
O O12 0.674813 0.617081 0.637168
O O13 0.807225 0.628192 0.649326
O O14 0.885221 0.000000 0.861251
#
# Coordination Sequence:
#
# PCOD9240712 Si02
#       7
#     4   4   4   4   4   4   4
#     4  10  19  33  52  73 101 131 159 199 246 289
#     4  10  19  33  52  73 101 131 159 199 246 289
#     4  10  19  32  52  75  99 128 161 201 248 290
#     4  10  19  32  52  75  99 128 161 201 248 290
#     4   9  19  34  52  75  98 125 166 205 238 286
#     4   9  19  34  52  75  98 125 166 205 238 286
#     4  10  21  32  47  74 104 130 161 198 241 294
#
# _framework density 17.422046999999999
#
# number of rings (size 3 to 8) (size 9 to 14) (size 15 to 20)
#    0.000    2.286    0.000    3.000    0.000    4.571 
#    0.000    0.714    0.000    3.429    0.000    0.000 
#    0.000    0.000    0.000    0.000    0.000    0.000 
#
# Total GULP energy -156244.688049 kJ/mol
# GULP energy per Si atom -5580.167430 kJ/mol
# Density = 1.738239 g / cm^3
# Si number density = 17.422047 Si / 1000 Ang^3
#
#
#
# Elastic Constant Matrix: (Units=GPa)
#
#
# Indices 1 2 3 4 5 6 
#
# 1 90.9135 43.2481 46.2705 0.0000 12.4943 0.0000
# 2 43.2481 86.0095 45.1278 0.0000 17.2766 0.0000
# 3 46.2705 45.1278 68.7957 0.0000 2.1361 0.0000
# 4 0.0000 0.0000 0.0000 16.7526 0.0000 -1.0784
# 5 12.4943 17.2766 2.1361 0.0000 33.1254 0.0000
# 6 0.0000 0.0000 0.0000 -1.0784 0.0000 10.7556
#
#
#
# Elastic Compliance Matrix: (Units=1/GPa)
#
#
# Indices 1 2 3 4 5 6 
#
# 1 0.018210 -0.002832 -0.010243 0.000000 -0.004731 0.000000
# 2 -0.002832 0.020939 -0.011548 0.000000 -0.009108 0.000000
# 3 -0.010243 -0.011548 0.028751 0.000000 0.008032 0.000000
# 4 0.000000 0.000000 0.000000 0.060080 0.000000 0.006024
# 5 -0.004731 -0.009108 0.008032 0.000000 0.036205 0.000000
# 6 0.000000 0.000000 0.000000 0.006024 0.000000 0.093578
#
#
# Mechanical properties :
#
#
# Convention : Reuss Voigt Hill
#
# Bulk Modulus (GPa) = 53.60772 57.22349 55.41560
# Shear Modulus (GPa) = 15.96284 19.53155 17.74720
#
# Velocity S-wave (km/s) = 3.03024 3.35189 3.19511
# Velocity P-wave (km/s) = 6.56353 6.92076 6.74451
#
# Compressibility (1/GPa) = 0.01865403
#
# Stress axis : x y z
#
# Youngs Moduli (GPa) = 54.91481 47.75761 34.78158
#
# Poissons Ratio (x) = 0.13524 0.35627
# Poissons Ratio (y) = 0.15551 0.40166
# Poissons Ratio (z) = 0.56250 0.55150
#
# Static dielectric constant tensor:
#      x y z
#    x 1.598380 0.000000 0.013760 
#    y 0.000000 1.547380 0.000000 
#    z 0.013760 0.000000 1.602820 
# 
# From -- ./inp_files/61399.got.cif
#   From: 2010.05.17/outbox.cif.g08.bks.cpg/sg14_31_cif.got.tgz:61399.got - 2010.06.03 17:49:19.
