data_PCOD9240228
_publ_section_title
;
Structure prediction by ZEFSAII (Michael W. Deem and Ramdas Pophale) SiO2 
 PCOD9240228
Probable space group: P 21/C
;
_chemical_formula_sum "Si O2"
_cell_formula_units_Z 28
_cell_length_a 16.542770
_cell_length_b 10.406682
_cell_length_c 9.063010
_cell_angle_alpha 90.000000
_cell_angle_beta 36.876162
_cell_angle_gamma 90.000000
_cell_volume 936.283842
_symmetry_space_group_name_H-M "P 21/C"
_symmetry_group_IT_number 14
_symmetry_cell_setting 'monoclinic'
loop_
_space_group_symop_operation_xyz
x,y,z
-x,1/2+y,1/2-z
-x,-y,-z
x,1/2-y,1/2+z
loop_
_atom_site_type_symbol
_atom_site_label
_atom_site_fract_x
_atom_site_fract_y
_atom_site_fract_z
Si Si1 0.494235 0.304639 0.493912
Si Si2 0.439367 0.493532 0.849030
Si Si3 0.731081 0.476962 0.501561
Si Si4 0.027312 0.649625 0.907980
Si Si5 0.203579 0.242517 0.950900
Si Si6 0.150891 0.493883 0.221712
Si Si7 0.219455 0.818559 0.360441
O O1 0.452244 0.388809 0.698020
O O2 0.531762 0.378399 0.289052
O O3 0.353676 0.238796 0.663146
O O4 0.637962 0.247120 0.331634
O O5 0.570310 0.475279 0.760353
O O6 0.284615 0.500220 0.130014
O O7 0.843829 0.373408 0.390802
O O8 0.793048 0.613413 0.457418
O O9 0.736260 0.439839 0.317774
O O10 0.908991 0.730352 0.008004
O O11 0.000000 0.500000 0.000000
O O12 0.175600 0.364440 0.094295
O O13 0.907554 0.224829 0.549869
O O14 0.172717 0.608662 0.073940
O O15 0.000000 0.500000 0.500000
#
# Coordination Sequence:
#
# PCOD9240228 Si02
#       7
#     4   4   4   4   4   4   4
#     4   8  14  29  61  91 108 155 221 257 320 400
#     4   8  14  31  57  86 118 160 208 264 327 395
#     4   9  19  33  60  93 131 174 228 273 331 415
#     4  10  18  35  64  92 125 173 222 275 338 401
#     4  11  19  33  61  98 127 173 229 279 332 401
#     4  10  19  34  64  98 132 169 225 276 338 399
#     4   8  17  36  63  91 127 175 215 270 341 396
#
# _framework density 29.905462
#
# number of rings (size 3 to 8) (size 9 to 14) (size 15 to 20)
#    0.857    2.000    1.429    3.429    0.000    0.000 
#    0.000    4.286   12.571    2.571    3.714    0.000 
#    0.000    0.000    0.000    0.000    0.000    0.000 
#
# Total GULP energy -156730.626714 kJ/mol
# GULP energy per Si atom -5597.522383 kJ/mol
# Density = 2.983740 g / cm^3
# Si number density = 29.905462 Si / 1000 Ang^3
#
#
#
# Elastic Constant Matrix: (Units=GPa)
#
#
# Indices 1 2 3 4 5 6 
#
# 1 179.9329 83.6631 100.5023 0.0000 -73.9032 0.0000
# 2 83.6631 103.5255 47.1329 0.0000 -38.1645 0.0000
# 3 100.5023 47.1329 292.5719 0.0000 -69.4793 0.0000
# 4 0.0000 0.0000 0.0000 15.5892 0.0000 8.5726
# 5 -73.9032 -38.1645 -69.4793 0.0000 83.3061 0.0000
# 6 0.0000 0.0000 0.0000 8.5726 0.0000 64.0484
#
#
#
# Elastic Compliance Matrix: (Units=1/GPa)
#
#
# Indices 1 2 3 4 5 6 
#
# 1 0.012246 -0.006807 -0.001585 0.000000 0.006424 0.000000
# 2 -0.006807 0.015542 0.000114 0.000000 0.001177 0.000000
# 3 -0.001585 0.000114 0.004517 0.000000 0.002414 0.000000
# 4 0.000000 0.000000 0.000000 0.069243 0.000000 -0.009268
# 5 0.006424 0.001177 0.002414 0.000000 0.020255 0.000000
# 6 0.000000 0.000000 0.000000 -0.009268 0.000000 0.016854
#
#
# Mechanical properties :
#
#
# Convention : Reuss Voigt Hill
#
# Bulk Modulus (GPa) = 63.49109 115.40297 89.44703
# Shear Modulus (GPa) = 31.15970 55.57089 43.36530
#
# Velocity S-wave (km/s) = 3.23141 4.31538 3.81212
# Velocity P-wave (km/s) = 5.93291 7.96888 7.02504
#
# Compressibility (1/GPa) = 0.01575024
#
# Stress axis : x y z
#
# Youngs Moduli (GPa) = 81.65743 64.33996 221.37649
#
# Poissons Ratio (x) = 0.43797 0.35079
# Poissons Ratio (y) = 0.55585 -0.02521
# Poissons Ratio (z) = 0.12939 -0.00733
#
# Static dielectric constant tensor:
#      x y z
#    x 2.505590 0.000000 0.098210 
#    y 0.000000 2.419690 0.000000 
#    z 0.098210 0.000000 2.475290 
# 
# From -- ./inp_files/51517.got.cif
#   From: 2010.05.17/outbox.cif.g08.bks.cpg/sg14_26_cif.got.tgz:51517.got - 2010.06.03 17:49:19.
