data_PCOD9240207
_publ_section_title
;
Structure prediction by ZEFSAII (Michael W. Deem and Ramdas Pophale) SiO2 
 PCOD9240207
Probable space group: P 21/C
;
_chemical_formula_sum "Si O2"
_cell_formula_units_Z 28
_cell_length_a 11.951884
_cell_length_b 13.536711
_cell_length_c 8.244310
_cell_angle_alpha 90.000000
_cell_angle_beta 116.450761
_cell_angle_gamma 90.000000
_cell_volume 1194.210558
_symmetry_space_group_name_H-M "P 21/C"
_symmetry_group_IT_number 14
_symmetry_cell_setting 'monoclinic'
loop_
_space_group_symop_operation_xyz
x,y,z
-x,1/2+y,1/2-z
-x,-y,-z
x,1/2-y,1/2+z
loop_
_atom_site_type_symbol
_atom_site_label
_atom_site_fract_x
_atom_site_fract_y
_atom_site_fract_z
Si Si1 0.155918 0.933227 0.659049
Si Si2 0.619691 0.408221 0.242218
Si Si3 0.895462 0.628820 0.024034
Si Si4 0.563058 0.109012 0.060474
Si Si5 0.517128 0.869026 0.651318
Si Si6 0.131538 0.486705 0.498329
Si Si7 0.782044 0.799102 0.776064
O O1 0.295569 0.897624 0.777935
O O2 0.040248 0.858588 0.566776
O O3 0.144511 0.014606 0.511747
O O4 0.121484 0.989758 0.803300
O O5 0.573811 0.355883 0.379974
O O6 0.546662 0.513256 0.185785
O O7 0.763622 0.439213 0.361573
O O8 0.593252 0.357661 0.052016
O O9 0.807465 0.689235 0.847291
O O10 0.868116 0.670389 0.182556
O O11 0.495208 0.161074 0.167952
O O12 0.500000 0.000000 0.000000
O O13 0.637955 0.819329 0.649789
O O14 0.181014 0.376198 0.558770
O O15 0.000000 0.500000 0.500000
#
# Coordination Sequence:
#
# PCOD9240207 Si02
#       7
#     4   4   4   4   4   4   4
#     4  10  22  39  64  93 124 169 215 267 325 389
#     4   8  17  29  52  90 119 154 196 248 309 370
#     4  11  24  40  61  90 127 167 216 266 327 388
#     4   9  18  32  59  94 121 153 203 257 309 386
#     4   9  18  33  56  87 120 156 198 250 318 369
#     4  10  18  35  61  92 124 161 215 262 319 389
#     4  11  23  39  61  90 126 167 212 274 323 383
#
# _framework density 23.446452000000001
#
# number of rings (size 3 to 8) (size 9 to 14) (size 15 to 20)
#    0.000    2.286    1.429    1.714    8.000    0.000 
#    0.000    0.000    0.000    6.857    0.000    0.000 
#    0.000    0.000    0.000    0.000    0.000    0.000 
#
# Total GULP energy -156413.396019 kJ/mol
# GULP energy per Si atom -5586.192715 kJ/mol
# Density = 2.339309 g / cm^3
# Si number density = 23.446452 Si / 1000 Ang^3
#
#
#
# Elastic Constant Matrix: (Units=GPa)
#
#
# Indices 1 2 3 4 5 6 
#
# 1 47.8519 13.6601 2.8367 0.0000 -2.9209 0.0000
# 2 13.6601 39.3376 20.5432 0.0000 -7.3587 0.0000
# 3 2.8367 20.5432 100.2127 0.0000 -0.9375 0.0000
# 4 0.0000 0.0000 0.0000 30.4235 0.0000 -5.2234
# 5 -2.9209 -7.3587 -0.9375 0.0000 35.2007 0.0000
# 6 0.0000 0.0000 0.0000 -5.2234 0.0000 7.4718
#
#
#
# Elastic Compliance Matrix: (Units=1/GPa)
#
#
# Indices 1 2 3 4 5 6 
#
# 1 0.023310 -0.008647 0.001114 0.000000 0.000156 0.000000
# 2 -0.008647 0.032910 -0.006446 0.000000 0.005991 0.000000
# 3 0.001114 -0.006446 0.011260 0.000000 -0.000955 0.000000
# 4 0.000000 0.000000 0.000000 0.037353 0.000000 0.026113
# 5 0.000156 0.005991 -0.000955 0.000000 0.029648 0.000000
# 6 0.000000 0.000000 0.000000 0.026113 0.000000 0.152092
#
#
# Mechanical properties :
#
#
# Convention : Reuss Voigt Hill
#
# Bulk Modulus (GPa) = 25.30182 29.05357 27.17769
# Shear Modulus (GPa) = 15.25769 24.64336 19.95052
#
# Velocity S-wave (km/s) = 2.55374 3.24550 2.92018
# Velocity P-wave (km/s) = 4.41704 5.14420 4.79442
#
# Compressibility (1/GPa) = 0.03952285
#
# Stress axis : x y z
#
# Youngs Moduli (GPa) = 42.90052 30.38546 88.81280
#
# Poissons Ratio (x) = 0.26274 -0.09896
# Poissons Ratio (y) = 0.37096 0.57246
# Poissons Ratio (z) = -0.04780 0.19586
#
# Static dielectric constant tensor:
#      x y z
#    x 1.891260 0.000000 -0.003870 
#    y 0.000000 1.987460 0.000000 
#    z -0.003870 0.000000 1.873070 
# 
# From -- ./inp_files/13405.got.cif
#   From: 2010.05.17/outbox.cif.g08.bks.cpg/sg14_7_cif.got.tgz:13405.got - 2010.06.03 17:49:19.
