data_PCOD9240391
_publ_section_title
;
Structure prediction by ZEFSAII (Michael W. Deem and Ramdas Pophale) SiO2 
 PCOD9240391
Probable space group: P 21/C
;
_chemical_formula_sum "Si O2"
_cell_formula_units_Z 28
_cell_length_a 9.448024
_cell_length_b 11.934809
_cell_length_c 22.296107
_cell_angle_alpha 90.000000
_cell_angle_beta 36.259357
_cell_angle_gamma 90.000000
_cell_volume 1486.952786
_symmetry_space_group_name_H-M "P 21/C"
_symmetry_group_IT_number 14
_symmetry_cell_setting 'monoclinic'
loop_
_space_group_symop_operation_xyz
x,y,z
-x,1/2+y,1/2-z
-x,-y,-z
x,1/2-y,1/2+z
loop_
_atom_site_type_symbol
_atom_site_label
_atom_site_fract_x
_atom_site_fract_y
_atom_site_fract_z
Si Si1 0.355561 0.212283 0.699090
Si Si2 0.220292 0.507136 0.587324
Si Si3 0.440556 0.126413 0.539204
Si Si4 0.983039 0.235042 0.161310
Si Si5 0.874152 0.913656 0.110826
Si Si6 0.152024 0.735255 0.666965
Si Si7 0.191699 0.837671 0.905095
O O1 0.424349 0.140346 0.616739
O O2 0.281965 0.142154 0.783580
O O3 0.579491 0.288142 0.639903
O O4 0.112541 0.277151 0.762142
O O5 0.500000 0.500000 0.500000
O O6 0.107932 0.385155 0.629944
O O7 0.134922 0.601771 0.662573
O O8 0.127547 0.554465 0.555673
O O9 0.188307 0.171227 0.598773
O O10 0.646228 0.208301 0.442580
O O11 0.500000 0.000000 0.500000
O O12 0.802658 0.246287 0.278542
O O13 0.862715 0.228484 0.137698
O O14 0.768447 0.031511 0.125027
O O15 0.954274 0.836934 0.028108
#
# Coordination Sequence:
#
# PCOD9240391 Si02
#       7
#     4   4   4   4   4   4   4
#     4  10  21  41  61  85 120 159 198 240 303 357
#     4  10  18  37  64  87 114 150 209 251 288 348
#     4  11  24  41  60  89 124 157 196 252 299 351
#     4  10  23  38  61  93 119 158 197 249 300 352
#     4   9  21  38  62  88 117 160 193 255 292 348
#     4  10  22  37  62  88 117 159 200 248 302 351
#     4  10  21  41  60  87 124 153 205 240 297 359
#
# _framework density 18.830455000000001
#
# number of rings (size 3 to 8) (size 9 to 14) (size 15 to 20)
#    0.000    2.000    1.429    1.714   10.000    1.143 
#    5.143    0.714    0.000    0.000    0.000    0.000 
#    0.000    0.000    0.000    0.000    0.000    0.000 
#
# Total GULP energy -156131.543165 kJ/mol
# GULP energy per Si atom -5576.126542 kJ/mol
# Density = 1.878760 g / cm^3
# Si number density = 18.830455 Si / 1000 Ang^3
#
#
#
# Elastic Constant Matrix: (Units=GPa)
#
#
# Indices 1 2 3 4 5 6 
#
# 1 82.1963 23.0527 38.2546 0.0000 9.6176 0.0000
# 2 23.0527 50.7393 26.6669 0.0000 3.4606 0.0000
# 3 38.2546 26.6669 113.1126 0.0000 23.3504 0.0000
# 4 0.0000 0.0000 0.0000 19.5830 0.0000 4.7220
# 5 9.6176 3.4606 23.3504 0.0000 38.0024 0.0000
# 6 0.0000 0.0000 0.0000 4.7220 0.0000 28.5478
#
#
#
# Elastic Compliance Matrix: (Units=1/GPa)
#
#
# Indices 1 2 3 4 5 6 
#
# 1 0.015466 -0.004934 -0.003839 0.000000 -0.001106 0.000000
# 2 -0.004934 0.024134 -0.004381 0.000000 0.001743 0.000000
# 3 -0.003839 -0.004381 0.012471 0.000000 -0.006292 0.000000
# 4 0.000000 0.000000 0.000000 0.053186 0.000000 -0.008797
# 5 -0.001106 0.001743 -0.006292 0.000000 0.030301 0.000000
# 6 0.000000 0.000000 0.000000 -0.008797 0.000000 0.036484
#
#
# Mechanical properties :
#
#
# Convention : Reuss Voigt Hill
#
# Bulk Modulus (GPa) = 38.81495 46.88849 42.85172
# Shear Modulus (GPa) = 24.16197 27.76490 25.96344
#
# Velocity S-wave (km/s) = 3.58597 3.84405 3.71725
# Velocity P-wave (km/s) = 6.14843 6.68256 6.42105
#
# Compressibility (1/GPa) = 0.02576327
#
# Stress axis : x y z
#
# Youngs Moduli (GPa) = 64.65880 41.43592 80.18694
#
# Poissons Ratio (x) = 0.20443 0.30785
# Poissons Ratio (y) = 0.31900 0.35129
# Poissons Ratio (z) = 0.24823 0.18153
#
# Static dielectric constant tensor:
#      x y z
#    x 1.666320 0.000000 0.017480 
#    y 0.000000 1.676510 0.000000 
#    z 0.017480 0.000000 1.694510 
# 
# From -- ./inp_files/65548.got.cif
#   From: 2010.05.17/outbox.cif.g08.bks.cpg/sg14_33_cif.got.tgz:65548.got - 2010.06.03 17:49:19.
