data_PCOD9240000
_publ_section_title
;
Structure prediction by ZEFSAII (Michael W. Deem and Ramdas Pophale) SiO2 
 PCOD9240000
Probable space group: P 21/C
;
_chemical_formula_sum "Si O2"
_cell_formula_units_Z 28
_cell_length_a 12.105770
_cell_length_b 10.711973
_cell_length_c 8.600256
_cell_angle_alpha 90.000000
_cell_angle_beta 65.848572
_cell_angle_gamma 90.000000
_cell_volume 1017.631578
_symmetry_space_group_name_H-M "P 21/C"
_symmetry_group_IT_number 14
_symmetry_cell_setting 'monoclinic'
loop_
_space_group_symop_operation_xyz
x,y,z
-x,1/2+y,1/2-z
-x,-y,-z
x,1/2-y,1/2+z
loop_
_atom_site_type_symbol
_atom_site_label
_atom_site_fract_x
_atom_site_fract_y
_atom_site_fract_z
Si Si1 0.354749 0.782719 0.491054
Si Si2 0.755669 0.825805 0.653093
Si Si3 0.913909 0.075574 0.884908
Si Si4 0.581932 0.684467 0.514373
Si Si5 0.177620 0.806287 0.358357
Si Si6 0.337790 0.514634 0.344896
Si Si7 0.175043 0.085047 0.696435
O O1 0.482992 0.778969 0.503412
O O2 0.282707 0.865025 0.407181
O O3 0.255952 0.764612 0.682106
O O4 0.367053 0.652271 0.386833
O O5 0.669564 0.760419 0.575640
O O6 0.659343 0.877728 0.831755
O O7 0.824319 0.720554 0.716230
O O8 0.833578 0.901531 0.484606
O O9 0.897671 0.104918 0.710427
O O10 0.048868 0.021428 0.821603
O O11 0.895317 0.204857 0.995721
O O12 0.796703 0.993990 0.999314
O O13 0.555176 0.570929 0.647859
O O14 0.298551 0.479284 0.191863
#
# Coordination Sequence:
#
# PCOD9240000 Si02
#       7
#     4   4   4   4   4   4   4
#     4  10  18  34  53  73 101 133 160 209 250 286
#     4   9  20  32  52  77  96 128 176 205 236 304
#     4  10  18  34  53  73 101 133 160 209 250 286
#     4  10  18  34  52  72 101 132 164 206 250 287
#     4   8  18  30  48  76  94 118 170 196 236 300
#     4   9  20  32  48  75 102 130 168 197 246 312
#     4  10  18  34  52  72 101 132 164 206 250 287
#
# _framework density 27.514869000000001
#
# number of rings (size 3 to 8) (size 9 to 14) (size 15 to 20)
#    0.000    2.857    0.000    2.571    0.000    0.000 
#    0.000   12.857    0.000    0.000    0.000    0.000 
#    0.000    0.000    0.000    0.000    0.000    0.000 
#
# Total GULP energy -156046.580860 kJ/mol
# GULP energy per Si atom -5573.092174 kJ/mol
# Density = 2.745224 g / cm^3
# Si number density = 27.514869 Si / 1000 Ang^3
#
#
#
# Elastic Constant Matrix: (Units=GPa)
#
#
# Indices 1 2 3 4 5 6 
#
# 1 128.2696 8.7723 34.9862 0.0000 9.5444 0.0000
# 2 8.7723 38.4221 1.8956 0.0000 9.1318 0.0000
# 3 34.9862 1.8956 143.2412 0.0000 39.9219 0.0000
# 4 0.0000 0.0000 0.0000 32.0746 0.0000 8.2450
# 5 9.5444 9.1318 39.9219 0.0000 32.3345 0.0000
# 6 0.0000 0.0000 0.0000 8.2450 0.0000 31.9242
#
#
#
# Elastic Compliance Matrix: (Units=1/GPa)
#
#
# Indices 1 2 3 4 5 6 
#
# 1 0.008496 -0.002043 -0.002302 0.000000 0.000911 0.000000
# 2 -0.002043 0.029139 0.003413 0.000000 -0.011841 0.000000
# 3 -0.002302 0.003413 0.011553 0.000000 -0.014548 0.000000
# 4 0.000000 0.000000 0.000000 0.033394 0.000000 -0.008625
# 5 0.000911 -0.011841 -0.014548 0.000000 0.051964 0.000000
# 6 0.000000 0.000000 0.000000 -0.008625 0.000000 0.033552
#
#
# Mechanical properties :
#
#
# Convention : Reuss Voigt Hill
#
# Bulk Modulus (GPa) = 21.13056 44.58235 32.85646
# Shear Modulus (GPa) = 26.91999 36.88526 31.90263
#
# Velocity S-wave (km/s) = 3.13130 3.66533 3.40879
# Velocity P-wave (km/s) = 4.55738 5.84389 5.24027
#
# Compressibility (1/GPa) = 0.04732481
#
# Stress axis : x y z
#
# Youngs Moduli (GPa) = 117.70428 34.31846 86.55718
#
# Poissons Ratio (x) = 0.07010 0.19926
# Poissons Ratio (y) = 0.24044 -0.29545
# Poissons Ratio (z) = 0.27096 -0.11714
#
# Static dielectric constant tensor:
#      x y z
#    x 2.177210 0.000000 0.017980 
#    y 0.000000 2.417180 0.000000 
#    z 0.017980 0.000000 2.286090 
# 
# From -- ./inp_files/12784.got.cif
#   From: 2010.05.17/outbox.cif.g08.bks.cpg/sg14_7_cif.got.tgz:12784.got - 2010.06.03 17:49:19.
