data_PCOD9240851
_publ_section_title
;
Structure prediction by ZEFSAII (Michael W. Deem and Ramdas Pophale) SiO2 
 PCOD9240851
Probable space group: P 21/C
;
_chemical_formula_sum "Si O2"
_cell_formula_units_Z 24
_cell_length_a 16.006158
_cell_length_b 8.049055
_cell_length_c 19.169644
_cell_angle_alpha 90.000000
_cell_angle_beta 151.197738
_cell_angle_gamma 90.000000
_cell_volume 1189.877532
_symmetry_space_group_name_H-M "P 21/C"
_symmetry_group_IT_number 14
_symmetry_cell_setting 'monoclinic'
loop_
_space_group_symop_operation_xyz
x,y,z
-x,1/2+y,1/2-z
-x,-y,-z
x,1/2-y,1/2+z
loop_
_atom_site_type_symbol
_atom_site_label
_atom_site_fract_x
_atom_site_fract_y
_atom_site_fract_z
Si Si1 0.416807 0.213334 0.099173
Si Si2 0.027902 0.510013 0.602164
Si Si3 0.661976 0.596707 0.086149
Si Si4 0.346547 0.887464 0.123189
Si Si5 0.834846 0.366298 0.094719
Si Si6 0.966725 0.819235 0.643018
O O1 0.557602 0.337070 0.235666
O O2 0.441473 0.026414 0.145662
O O3 0.397999 0.242248 0.002317
O O4 0.233935 0.266169 0.999790
O O5 0.188111 0.398078 0.745933
O O6 0.000000 0.500000 0.500000
O O7 0.849789 0.445401 0.505866
O O8 0.051290 0.701418 0.646133
O O9 0.750446 0.484144 0.091029
O O10 0.500000 0.500000 0.000000
O O11 0.318868 0.720565 0.058979
O O12 0.957230 0.481228 0.135626
O O13 0.944493 0.233533 0.219054
#
# Coordination Sequence:
#
# PCOD9240851 Si02
#       6
#     4   4   4   4   4   4
#     4  10  19  33  54  82 110 145 187 231 276 332
#     4  10  21  36  56  82 115 153 187 228 284 340
#     4  10  20  36  57  82 115 151 186 227 283 342
#     4  11  21  35  58  84 112 145 191 239 282 335
#     4  10  19  35  58  83 108 144 188 237 283 335
#     4   9  18  33  55  81 109 144 188 230 278 334
#
# _framework density 20.170141999999998
#
# number of rings (size 3 to 8) (size 9 to 14) (size 15 to 20)
#    0.000    2.000    0.000    7.000    0.000    1.333 
#    0.000    1.667    0.000   10.000    0.000    0.000 
#    0.000    0.000    0.000    0.000    0.000    0.000 
#
# Total GULP energy -133732.132184 kJ/mol
# GULP energy per Si atom -5572.172174 kJ/mol
# Density = 2.012423 g / cm^3
# Si number density = 20.170142 Si / 1000 Ang^3
#
#
#
# Elastic Constant Matrix: (Units=GPa)
#
#
# Indices 1 2 3 4 5 6 
#
# 1 53.0945 23.8763 22.0400 0.0000 -21.5486 0.0000
# 2 23.8763 73.2289 20.7771 0.0000 -21.1445 0.0000
# 3 22.0400 20.7771 118.0679 0.0000 -23.3106 0.0000
# 4 0.0000 0.0000 0.0000 28.6247 0.0000 1.7398
# 5 -21.5486 -21.1445 -23.3106 0.0000 39.1260 0.0000
# 6 0.0000 0.0000 0.0000 1.7398 0.0000 9.9499
#
#
#
# Elastic Compliance Matrix: (Units=1/GPa)
#
#
# Indices 1 2 3 4 5 6 
#
# 1 0.026145 -0.004920 -0.001923 0.000000 0.010595 0.000000
# 2 -0.004920 0.017276 -0.000922 0.000000 0.006078 0.000000
# 3 -0.001923 -0.000922 0.009841 0.000000 0.004306 0.000000
# 4 0.000000 0.000000 0.000000 0.035310 0.000000 -0.006174
# 5 0.010595 0.006078 0.004306 0.000000 0.037243 0.000000
# 6 0.000000 0.000000 0.000000 -0.006174 0.000000 0.101583
#
#
# Mechanical properties :
#
#
# Convention : Reuss Voigt Hill
#
# Bulk Modulus (GPa) = 26.50198 41.97535 34.23866
# Shear Modulus (GPa) = 19.56902 27.38665 23.47783
#
# Velocity S-wave (km/s) = 3.11818 3.68881 3.41543
# Velocity P-wave (km/s) = 5.11193 6.24491 5.70660
#
# Compressibility (1/GPa) = 0.03773303
#
# Stress axis : x y z
#
# Youngs Moduli (GPa) = 38.24832 57.88256 101.61558
#
# Poissons Ratio (x) = 0.28477 0.19541
# Poissons Ratio (y) = 0.18817 0.09368
# Poissons Ratio (z) = 0.07355 0.05336
#
# Static dielectric constant tensor:
#      x y z
#    x 1.699830 0.000000 -0.010960 
#    y 0.000000 1.858170 0.000000 
#    z -0.010960 0.000000 1.783300 
# 
# From -- ./inp_files/59139.got.cif
#   From: 2010.05.17/outbox.cif.g08.bks.cpg/sg14_30_cif.got.tgz:59139.got - 2010.06.03 17:49:19.
