data_PCOD9240802
_publ_section_title
;
Structure prediction by ZEFSAII (Michael W. Deem and Ramdas Pophale) SiO2 
 PCOD9240802
Probable space group: P 21/C
;
_chemical_formula_sum "Si O2"
_cell_formula_units_Z 32
_cell_length_a 22.867637
_cell_length_b 6.714270
_cell_length_c 25.429605
_cell_angle_alpha 90.000000
_cell_angle_beta 149.395908
_cell_angle_gamma 90.000000
_cell_volume 1987.766036
_symmetry_space_group_name_H-M "P 21/C"
_symmetry_group_IT_number 14
_symmetry_cell_setting 'monoclinic'
loop_
_space_group_symop_operation_xyz
x,y,z
-x,1/2+y,1/2-z
-x,-y,-z
x,1/2-y,1/2+z
loop_
_atom_site_type_symbol
_atom_site_label
_atom_site_fract_x
_atom_site_fract_y
_atom_site_fract_z
Si Si1 0.542505 0.552023 0.449005
Si Si2 0.890958 0.216906 0.367036
Si Si3 0.348347 0.904712 0.661608
Si Si4 0.428268 0.905947 0.312059
Si Si5 0.134122 0.439153 0.052815
Si Si6 0.311902 0.035840 0.834236
Si Si7 0.539136 0.208447 0.845043
Si Si8 0.215536 0.113213 0.200164
O O1 0.522180 0.781645 0.417480
O O2 0.631798 0.524462 0.565112
O O3 0.417386 0.481472 0.374118
O O4 0.574302 0.426960 0.421878
O O5 0.883020 0.454248 0.363885
O O6 0.010226 0.132045 0.437308
O O7 0.881837 0.122649 0.418714
O O8 0.782240 0.131961 0.250967
O O9 0.377319 0.751361 0.731056
O O10 0.363618 0.784263 0.619527
O O11 0.225665 0.000009 0.579822
O O12 0.445075 0.077712 0.740365
O O13 0.480277 0.094965 0.322974
O O14 0.326255 0.985405 0.269441
O O15 0.183371 0.260339 0.127335
O O16 0.249049 0.243990 0.773986
#
# Coordination Sequence:
#
# PCOD9240802 Si02
#       8
#     4   4   4   4   4   4   4   4
#     4  10  21  33  48  75 105 135 170 214 253 306
#     4  10  19  33  50  74 107 138 163 210 258 304
#     4  11  20  32  50  76 103 134 168 210 253 311
#     4  11  18  31  49  74 105 132 164 206 255 305
#     4  10  20  31  49  78 107 130 170 209 253 312
#     4  10  20  33  50  74 104 136 175 208 252 310
#     4  11  20  32  50  74 104 133 169 207 259 305
#     4  11  17  31  51  74 105 140 165 200 257 320
#
# _framework density 16.098474
#
# number of rings (size 3 to 8) (size 9 to 14) (size 15 to 20)
#    0.000    1.500    6.250    1.875    0.000    1.500 
#    0.000    0.000    0.000    0.000    3.250    0.000 
#    0.000    0.000    0.000    0.000    0.000    0.000 
#
# Total GULP energy -178504.867173 kJ/mol
# GULP energy per Si atom -5578.277099 kJ/mol
# Density = 1.606183 g / cm^3
# Si number density = 16.098474 Si / 1000 Ang^3
#
#
#
# Elastic Constant Matrix: (Units=GPa)
#
#
# Indices 1 2 3 4 5 6 
#
# 1 78.1188 20.6151 35.5168 0.0000 3.2910 0.0000
# 2 20.6151 85.1183 20.0745 0.0000 1.7175 0.0000
# 3 35.5168 20.0745 76.2710 0.0000 1.5964 0.0000
# 4 0.0000 0.0000 0.0000 10.4519 0.0000 6.4196
# 5 3.2910 1.7175 1.5964 0.0000 19.5088 0.0000
# 6 0.0000 0.0000 0.0000 6.4196 0.0000 25.9085
#
#
#
# Elastic Compliance Matrix: (Units=1/GPa)
#
#
# Indices 1 2 3 4 5 6 
#
# 1 0.016750 -0.002331 -0.007144 0.000000 -0.002036 0.000000
# 2 -0.002331 0.012864 -0.002289 0.000000 -0.000552 0.000000
# 3 -0.007144 -0.002289 0.017040 0.000000 0.000012 0.000000
# 4 0.000000 0.000000 0.000000 0.112850 0.000000 -0.027962
# 5 -0.002036 -0.000552 0.000012 0.000000 0.051650 0.000000
# 6 0.000000 0.000000 0.000000 -0.027962 0.000000 0.045526
#
#
# Mechanical properties :
#
#
# Convention : Reuss Voigt Hill
#
# Bulk Modulus (GPa) = 43.23995 43.54677 43.39336
# Shear Modulus (GPa) = 17.36624 22.06062 19.71343
#
# Velocity S-wave (km/s) = 3.28800 3.70585 3.50316
# Velocity P-wave (km/s) = 6.42904 6.73944 6.58607
#
# Compressibility (1/GPa) = 0.02312676
#
# Stress axis : x y z
#
# Youngs Moduli (GPa) = 59.70232 77.73750 58.68585
#
# Poissons Ratio (x) = 0.18119 0.41923
# Poissons Ratio (y) = 0.13915 0.13432
# Poissons Ratio (z) = 0.42650 0.17793
#
# Static dielectric constant tensor:
#      x y z
#    x 1.538530 0.000000 0.013120 
#    y 0.000000 1.564130 0.000000 
#    z 0.013120 0.000000 1.538760 
# 
# From -- ./inp_files/78080.got.cif
#   From: 2010.05.17/outbox.cif.g08.bks.cpg/sg14_40_cif.got.tgz:78080.got - 2010.06.03 17:49:19.
