data_PCOD9240521
_publ_section_title
;
Structure prediction by ZEFSAII (Michael W. Deem and Ramdas Pophale) SiO2 
 PCOD9240521
Probable space group: P 21/C
;
_chemical_formula_sum "Si O2"
_cell_formula_units_Z 26
_cell_length_a 10.774184
_cell_length_b 8.836752
_cell_length_c 13.891262
_cell_angle_alpha 90.000000
_cell_angle_beta 56.224521
_cell_angle_gamma 90.000000
_cell_volume 1099.350133
_symmetry_space_group_name_H-M "P 21/C"
_symmetry_group_IT_number 14
_symmetry_cell_setting 'monoclinic'
loop_
_space_group_symop_operation_xyz
x,y,z
-x,1/2+y,1/2-z
-x,-y,-z
x,1/2-y,1/2+z
loop_
_atom_site_type_symbol
_atom_site_label
_atom_site_fract_x
_atom_site_fract_y
_atom_site_fract_z
Si Si1 0.191594 0.720727 0.131607
Si Si2 0.115598 0.609080 0.856055
Si Si3 0.643451 0.247940 0.617226
Si Si4 0.109433 0.242377 0.319251
Si Si5 0.190642 0.380487 0.094513
Si Si6 0.636642 0.947906 0.232093
Si Si7 0.500000 0.500000 0.000000
O O1 0.190128 0.806417 0.232420
O O2 0.139404 0.546282 0.158018
O O3 0.060963 0.795360 0.123266
O O4 0.347166 0.725061 0.003646
O O5 0.210295 0.664673 0.905374
O O6 0.127139 0.429254 0.844312
O O7 0.939830 0.651206 0.926830
O O8 0.500113 0.166625 0.722732
O O9 0.639758 0.418479 0.654259
O O10 0.174903 0.254123 0.182549
O O11 0.208898 0.357532 0.336428
O O12 0.363684 0.406669 0.999055
O O13 0.604784 0.002175 0.355770
#
# Coordination Sequence:
#
# PCOD9240521 Si02
#       7
#     4   4   4   4   4   4   2
#     4  10  21  42  65  93 126 170 212 264 324 382
#     4  10  21  40  63  96 128 164 220 273 309 383
#     4  12  25  42  65  94 131 169 219 270 320 391
#     4   9  20  39  66  94 127 166 212 263 321 389
#     4   9  18  36  66  91 124 171 213 251 321 383
#     4  11  24  43  62  96 128 172 212 268 323 387
#     4  10  18  40  66  84 122 176 206 246 322 378
#
# _framework density 23.650335999999999
#
# number of rings (size 3 to 8) (size 9 to 14) (size 15 to 20)
#    0.000    1.846    1.538    2.769    0.000    4.308 
#    8.308    1.538    0.000    0.000    0.000    0.000 
#    0.000    0.000    0.000    0.000    0.000    0.000 
#
# Total GULP energy -144818.473024 kJ/mol
# GULP energy per Si atom -5569.941270 kJ/mol
# Density = 2.359651 g / cm^3
# Si number density = 23.650336 Si / 1000 Ang^3
#
#
#
# Elastic Constant Matrix: (Units=GPa)
#
#
# Indices 1 2 3 4 5 6 
#
# 1 76.7923 -0.8657 -10.8946 0.0000 -11.4991 0.0000
# 2 -0.8657 43.8336 18.9821 0.0000 14.0533 0.0000
# 3 -10.8946 18.9821 74.6004 0.0000 11.9397 0.0000
# 4 0.0000 0.0000 0.0000 33.5573 0.0000 -1.8285
# 5 -11.4991 14.0533 11.9397 0.0000 40.5454 0.0000
# 6 0.0000 0.0000 0.0000 -1.8285 0.0000 33.5524
#
#
#
# Elastic Compliance Matrix: (Units=1/GPa)
#
#
# Indices 1 2 3 4 5 6 
#
# 1 0.013865 -0.001812 0.001843 0.000000 0.004018 0.000000
# 2 -0.001812 0.028121 -0.006064 0.000000 -0.008475 0.000000
# 3 0.001843 -0.006064 0.015529 0.000000 -0.001948 0.000000
# 4 0.000000 0.000000 0.000000 0.029889 0.000000 0.001629
# 5 0.004018 -0.008475 -0.001948 0.000000 0.029314 0.000000
# 6 0.000000 0.000000 0.000000 0.001629 0.000000 0.029893
#
#
# Mechanical properties :
#
#
# Convention : Reuss Voigt Hill
#
# Bulk Modulus (GPa) = 22.00304 23.29664 22.64984
# Shear Modulus (GPa) = 28.76451 34.06468 31.41459
#
# Velocity S-wave (km/s) = 3.49125 3.79931 3.64853
# Velocity P-wave (km/s) = 5.05722 5.39612 5.22942
#
# Compressibility (1/GPa) = 0.04544827
#
# Stress axis : x y z
#
# Youngs Moduli (GPa) = 72.12518 35.56091 64.39728
#
# Poissons Ratio (x) = 0.06445 -0.11868
# Poissons Ratio (y) = 0.13072 0.39048
# Poissons Ratio (z) = -0.13292 0.21563
#
# Static dielectric constant tensor:
#      x y z
#    x 1.971590 0.000000 -0.004980 
#    y 0.000000 1.849680 0.000000 
#    z -0.004980 0.000000 1.913360 
# 
# From -- ./inp_files/57023.got.cif
#   From: 2010.05.17/outbox.cif.g08.bks.cpg/sg14_29_cif.got.tgz:57023.got - 2010.06.03 17:49:19.
