data_PCOD9240286
_publ_section_title
;
Structure prediction by ZEFSAII (Michael W. Deem and Ramdas Pophale) SiO2 
 PCOD9240286
Probable space group: P 21/C
;
_chemical_formula_sum "Si O2"
_cell_formula_units_Z 32
_cell_length_a 17.644649
_cell_length_b 9.494178
_cell_length_c 18.060110
_cell_angle_alpha 90.000000
_cell_angle_beta 154.349505
_cell_angle_gamma 90.000000
_cell_volume 1309.660340
_symmetry_space_group_name_H-M "P 21/C"
_symmetry_group_IT_number 14
_symmetry_cell_setting 'monoclinic'
loop_
_space_group_symop_operation_xyz
x,y,z
-x,1/2+y,1/2-z
-x,-y,-z
x,1/2-y,1/2+z
loop_
_atom_site_type_symbol
_atom_site_label
_atom_site_fract_x
_atom_site_fract_y
_atom_site_fract_z
Si Si1 0.346696 0.328997 0.350460
Si Si2 0.752099 0.929977 0.819466
Si Si3 0.217835 0.594078 0.150076
Si Si4 0.360599 0.970253 0.521654
Si Si5 0.875112 0.845909 0.080412
Si Si6 0.740361 0.197560 0.701656
Si Si7 0.585726 0.795212 0.935896
Si Si8 0.917280 0.513836 0.111528
O O1 0.228108 0.200056 0.218939
O O2 0.309315 0.452979 0.260674
O O3 0.546055 0.268701 0.525865
O O4 0.330318 0.378955 0.420793
O O5 0.557762 0.920661 0.683483
O O6 0.755425 0.068828 0.772752
O O7 0.874877 0.916074 0.999019
O O8 0.150568 0.680085 0.162125
O O9 0.377430 0.684076 0.254584
O O10 0.077518 0.555602 0.964556
O O11 0.243518 0.872670 0.364651
O O12 0.364903 0.133742 0.501294
O O13 0.278815 0.978726 0.530572
O O14 0.938104 0.682852 0.130410
O O15 0.677875 0.832244 0.940552
O O16 0.965736 0.940186 0.223140
#
# Coordination Sequence:
#
# PCOD9240286 Si02
#       8
#     4   4   4   4   4   4   4   4
#     4  10  18  36  60  95 126 145 187 255 304 353
#     4  11  18  38  65  91 116 153 198 245 301 356
#     4  11  21  38  63  95 124 150 198 251 305 354
#     4  10  19  38  65  92 118 151 202 244 297 360
#     4  11  26  43  59  81 124 167 204 248 294 351
#     4  10  19  34  65  97 119 148 193 251 305 360
#     4  10  19  38  63  92 119 154 195 249 301 354
#     4  11  26  45  57  83 124 166 205 246 293 356
#
# _framework density 24.433814000000002
#
# number of rings (size 3 to 8) (size 9 to 14) (size 15 to 20)
#    0.000    1.500    5.000    3.000    1.750    0.000 
#    6.750    2.500    0.000    0.000    0.000    0.000 
#    0.000    0.000    0.000    0.000    0.000    0.000 
#
# Total GULP energy -178772.395390 kJ/mol
# GULP energy per Si atom -5586.637356 kJ/mol
# Density = 2.437820 g / cm^3
# Si number density = 24.433814 Si / 1000 Ang^3
#
#
#
# Elastic Constant Matrix: (Units=GPa)
#
#
# Indices 1 2 3 4 5 6 
#
# 1 64.7974 20.6268 13.8619 0.0000 -9.4177 0.0000
# 2 20.6268 112.3817 39.3150 0.0000 -19.1500 0.0000
# 3 13.8619 39.3150 119.2210 0.0000 -26.6033 0.0000
# 4 0.0000 0.0000 0.0000 34.1828 0.0000 -9.7674
# 5 -9.4177 -19.1500 -26.6033 0.0000 44.7839 0.0000
# 6 0.0000 0.0000 0.0000 -9.7674 0.0000 28.5850
#
#
#
# Elastic Compliance Matrix: (Units=1/GPa)
#
#
# Indices 1 2 3 4 5 6 
#
# 1 0.016661 -0.002477 -0.000663 0.000000 0.002051 0.000000
# 2 -0.002477 0.010715 -0.002697 0.000000 0.002459 0.000000
# 3 -0.000663 -0.002697 0.010451 0.000000 0.004916 0.000000
# 4 0.000000 0.000000 0.000000 0.032420 0.000000 0.011078
# 5 0.002051 0.002459 0.004916 0.000000 0.026732 0.000000
# 6 0.000000 0.000000 0.000000 0.011078 0.000000 0.038769
#
#
# Mechanical properties :
#
#
# Convention : Reuss Voigt Hill
#
# Bulk Modulus (GPa) = 38.23398 49.33415 43.78407
# Shear Modulus (GPa) = 32.02275 36.35010 34.18643
#
# Velocity S-wave (km/s) = 3.62414 3.86125 3.74457
# Velocity P-wave (km/s) = 5.76146 6.33354 6.05426
#
# Compressibility (1/GPa) = 0.02615474
#
# Stress axis : x y z
#
# Youngs Moduli (GPa) = 60.02051 93.32446 95.68374
#
# Poissons Ratio (x) = 0.23113 0.06342
# Poissons Ratio (y) = 0.14865 0.25804
# Poissons Ratio (z) = 0.03978 0.25168
#
# Static dielectric constant tensor:
#      x y z
#    x 2.005080 0.000000 0.058780 
#    y 0.000000 1.916910 0.000000 
#    z 0.058780 0.000000 1.964370 
# 
# From -- ./inp_files/61150.got.cif
#   From: 2010.05.17/outbox.cif.g08.bks.cpg/sg14_31_cif.got.tgz:61150.got - 2010.06.03 17:49:19.
