data_PCOD9240490
_publ_section_title
;
Structure prediction by ZEFSAII (Michael W. Deem and Ramdas Pophale) SiO2 
 PCOD9240490
Probable space group: P 21/C
;
_chemical_formula_sum "Si O2"
_cell_formula_units_Z 28
_cell_length_a 9.378614
_cell_length_b 15.673891
_cell_length_c 19.688428
_cell_angle_alpha 90.000000
_cell_angle_beta 151.174569
_cell_angle_gamma 90.000000
_cell_volume 1395.410584
_symmetry_space_group_name_H-M "P 21/C"
_symmetry_group_IT_number 14
_symmetry_cell_setting 'monoclinic'
loop_
_space_group_symop_operation_xyz
x,y,z
-x,1/2+y,1/2-z
-x,-y,-z
x,1/2-y,1/2+z
loop_
_atom_site_type_symbol
_atom_site_label
_atom_site_fract_x
_atom_site_fract_y
_atom_site_fract_z
Si Si1 0.724349 0.552580 0.470599
Si Si2 0.174857 0.145925 0.332702
Si Si3 0.729920 0.820304 0.089611
Si Si4 0.129074 0.706456 0.425523
Si Si5 0.733153 0.394880 0.991982
Si Si6 0.855606 0.971607 0.234739
Si Si7 0.741421 0.562551 0.320673
O O1 0.674763 0.636384 0.494347
O O2 0.495929 0.484380 0.406515
O O3 0.647670 0.560507 0.359552
O O4 0.062390 0.520331 0.616160
O O5 0.146083 0.225108 0.371377
O O6 0.504278 0.111160 0.459872
O O7 0.100768 0.196220 0.232182
O O8 0.978736 0.062241 0.260047
O O9 0.913113 0.891602 0.208667
O O10 0.437154 0.808274 0.014181
O O11 0.145992 0.798992 0.466375
O O12 0.990607 0.637095 0.418143
O O13 0.533661 0.425098 0.845340
O O14 0.996713 0.452618 0.130684
#
# Coordination Sequence:
#
# PCOD9240490 Si02
#       7
#     4   4   4   4   4   4   4
#     4  11  23  39  64  86 126 162 203 252 311 369
#     4  10  21  35  61  97 127 147 203 265 311 351
#     4  11  20  37  63  94 117 159 205 251 309 363
#     4  10  18  39  62  89 118 160 205 251 293 373
#     4  10  22  37  64  90 123 160 208 251 303 364
#     4  12  21  38  66  95 122 161 205 259 309 362
#     4  10  23  42  58  90 123 165 208 247 305 370
#
# _framework density 20.065778000000002
#
# number of rings (size 3 to 8) (size 9 to 14) (size 15 to 20)
#    0.000    1.429    4.286    2.571    0.000    0.571 
#    2.571    0.000    3.143    0.000    0.000    0.000 
#    0.000    0.000    0.000    0.000    0.000    0.000 
#
# Total GULP energy -155974.143116 kJ/mol
# GULP energy per Si atom -5570.505111 kJ/mol
# Density = 2.002011 g / cm^3
# Si number density = 20.065778 Si / 1000 Ang^3
#
#
#
# Elastic Constant Matrix: (Units=GPa)
#
#
# Indices 1 2 3 4 5 6 
#
# 1 42.1328 15.7686 -7.2127 0.0000 -6.4410 0.0000
# 2 15.7686 61.8991 0.9877 0.0000 -2.5943 0.0000
# 3 -7.2127 0.9877 49.6004 0.0000 -8.9193 0.0000
# 4 0.0000 0.0000 0.0000 28.8529 0.0000 -1.5966
# 5 -6.4410 -2.5943 -8.9193 0.0000 20.7987 0.0000
# 6 0.0000 0.0000 0.0000 -1.5966 0.0000 12.3388
#
#
#
# Elastic Compliance Matrix: (Units=1/GPa)
#
#
# Indices 1 2 3 4 5 6 
#
# 1 0.029120 -0.007064 0.006326 0.000000 0.010850 0.000000
# 2 -0.007064 0.017954 -0.001490 0.000000 -0.000587 0.000000
# 3 0.006326 -0.001490 0.023220 0.000000 0.011731 0.000000
# 4 0.000000 0.000000 0.000000 0.034909 0.000000 0.004517
# 5 0.010850 -0.000587 0.011731 0.000000 0.056397 0.000000
# 6 0.000000 0.000000 0.000000 0.004517 0.000000 0.081630
#
#
# Mechanical properties :
#
#
# Convention : Reuss Voigt Hill
#
# Bulk Modulus (GPa) = 15.18899 19.19104 17.19001
# Shear Modulus (GPa) = 18.54372 22.00400 20.27386
#
# Velocity S-wave (km/s) = 3.04328 3.31508 3.18208
# Velocity P-wave (km/s) = 4.46483 4.92319 4.69960
#
# Compressibility (1/GPa) = 0.06583715
#
# Stress axis : x y z
#
# Youngs Moduli (GPa) = 34.34061 55.69744 43.06585
#
# Poissons Ratio (x) = 0.39347 -0.27245
# Poissons Ratio (y) = 0.24260 0.06419
# Poissons Ratio (z) = -0.21725 0.08301
#
# Static dielectric constant tensor:
#      x y z
#    x 1.714620 0.000000 -0.010010 
#    y 0.000000 1.790210 0.000000 
#    z -0.010010 0.000000 1.775030 
# 
# From -- ./inp_files/65942.got.cif
#   From: 2010.05.17/outbox.cif.g08.bks.cpg/sg14_33_cif.got.tgz:65942.got - 2010.06.03 17:49:19.
