data_PCOD9240773
_publ_section_title
;
Structure prediction by ZEFSAII (Michael W. Deem and Ramdas Pophale) SiO2 
 PCOD9240773
Probable space group: P 21/C
;
_chemical_formula_sum "Si O2"
_cell_formula_units_Z 28
_cell_length_a 17.802403
_cell_length_b 19.604187
_cell_length_c 11.940409
_cell_angle_alpha 90.000000
_cell_angle_beta 19.059172
_cell_angle_gamma 90.000000
_cell_volume 1360.783359
_symmetry_space_group_name_H-M "P 21/C"
_symmetry_group_IT_number 14
_symmetry_cell_setting 'monoclinic'
loop_
_space_group_symop_operation_xyz
x,y,z
-x,1/2+y,1/2-z
-x,-y,-z
x,1/2-y,1/2+z
loop_
_atom_site_type_symbol
_atom_site_label
_atom_site_fract_x
_atom_site_fract_y
_atom_site_fract_z
Si Si1 0.124741 0.777431 0.829063
Si Si2 0.802566 0.919498 0.679540
Si Si3 0.325517 0.854178 0.345877
Si Si4 0.535977 0.149772 0.188969
Si Si5 0.114796 0.573993 0.937004
Si Si6 0.664728 0.727275 0.848570
Si Si7 0.114483 0.313200 0.126805
O O1 0.195991 0.837786 0.643667
O O2 0.301607 0.715545 0.564934
O O3 0.867090 0.755914 0.153679
O O4 0.101792 0.801965 0.988645
O O5 0.913028 0.863998 0.439285
O O6 0.888835 0.909283 0.684707
O O7 0.876070 0.995309 0.541354
O O8 0.529004 0.909565 0.063556
O O9 0.165078 0.877393 0.470456
O O10 0.467476 0.784638 0.122673
O O11 0.448472 0.159552 0.439735
O O12 0.316709 0.154568 0.416782
O O13 0.684592 0.086281 0.938768
O O14 0.796830 0.740369 0.546390
#
# Coordination Sequence:
#
# PCOD9240773 Si02
#       7
#     4   4   4   4   4   4   4
#     4  10  22  35  58  87 120 152 191 241 297 350
#     4  10  22  38  62  88 111 154 208 240 283 357
#     4  10  20  39  59  84 115 157 189 242 296 343
#     4  10  19  32  56  83 111 152 183 235 296 341
#     4  11  21  37  65  85 116 153 201 247 291 340
#     4   9  19  35  53  84 115 143 195 230 285 359
#     4  10  20  36  56  82 116 150 194 238 286 352
#
# _framework density 20.576384000000001
#
# number of rings (size 3 to 8) (size 9 to 14) (size 15 to 20)
#    0.000    2.000    2.857    2.143    2.000    1.143 
#    0.000    0.714    0.000    1.714    0.000    0.000 
#    0.000    0.000    0.000    0.000    0.000    0.000 
#
# Total GULP energy -156152.604253 kJ/mol
# GULP energy per Si atom -5576.878723 kJ/mol
# Density = 2.052955 g / cm^3
# Si number density = 20.576384 Si / 1000 Ang^3
#
#
#
# Elastic Constant Matrix: (Units=GPa)
#
#
# Indices 1 2 3 4 5 6 
#
# 1 91.5695 30.0672 35.6145 0.0000 10.8606 0.0000
# 2 30.0672 48.2362 25.4519 0.0000 9.3128 0.0000
# 3 35.6145 25.4519 59.8722 0.0000 24.2118 0.0000
# 4 0.0000 0.0000 0.0000 18.9222 0.0000 -4.1742
# 5 10.8606 9.3128 24.2118 0.0000 45.7580 0.0000
# 6 0.0000 0.0000 0.0000 -4.1742 0.0000 26.7358
#
#
#
# Elastic Compliance Matrix: (Units=1/GPa)
#
#
# Indices 1 2 3 4 5 6 
#
# 1 0.015588 -0.006183 -0.007196 0.000000 0.001366 0.000000
# 2 -0.006183 0.029198 -0.008810 0.000000 0.000187 0.000000
# 3 -0.007196 -0.008810 0.029658 0.000000 -0.012192 0.000000
# 4 0.000000 0.000000 0.000000 0.054733 0.000000 0.008545
# 5 0.001366 0.000187 -0.012192 0.000000 0.027943 0.000000
# 6 0.000000 0.000000 0.000000 0.008545 0.000000 0.038737
#
#
# Mechanical properties :
#
#
# Convention : Reuss Voigt Hill
#
# Bulk Modulus (GPa) = 33.26036 42.43834 37.84935
# Shear Modulus (GPa) = 19.97947 25.51950 22.74948
#
# Velocity S-wave (km/s) = 3.11945 3.52551 3.32868
# Velocity P-wave (km/s) = 5.40130 6.10261 5.76264
#
# Compressibility (1/GPa) = 0.03006582
#
# Stress axis : x y z
#
# Youngs Moduli (GPa) = 64.15307 34.24922 33.71726
#
# Poissons Ratio (x) = 0.21176 0.24264
# Poissons Ratio (y) = 0.39665 0.29704
# Poissons Ratio (z) = 0.46167 0.30172
#
# Static dielectric constant tensor:
#      x y z
#    x 1.791310 0.000000 0.006510 
#    y 0.000000 1.729350 0.000000 
#    z 0.006510 0.000000 1.799400 
# 
# From -- ./inp_files/34436.got.cif
#   From: 2010.05.17/outbox.cif.g08.bks.cpg/sg14_18_cif.got.tgz:34436.got - 2010.06.03 17:49:19.
