data_PCOD9240581
_publ_section_title
;
Structure prediction by ZEFSAII (Michael W. Deem and Ramdas Pophale) SiO2 
 PCOD9240581
Probable space group: P 21/C
;
_chemical_formula_sum "Si O2"
_cell_formula_units_Z 28
_cell_length_a 15.720049
_cell_length_b 11.704727
_cell_length_c 10.370028
_cell_angle_alpha 90.000000
_cell_angle_beta 48.997844
_cell_angle_gamma 90.000000
_cell_volume 1439.994288
_symmetry_space_group_name_H-M "P 21/C"
_symmetry_group_IT_number 14
_symmetry_cell_setting 'monoclinic'
loop_
_space_group_symop_operation_xyz
x,y,z
-x,1/2+y,1/2-z
-x,-y,-z
x,1/2-y,1/2+z
loop_
_atom_site_type_symbol
_atom_site_label
_atom_site_fract_x
_atom_site_fract_y
_atom_site_fract_z
Si Si1 0.711206 0.194509 0.752049
Si Si2 0.555462 0.899370 0.365105
Si Si3 0.131794 0.014155 0.348674
Si Si4 0.453810 0.347627 0.545198
Si Si5 0.679480 0.368239 0.002689
Si Si6 0.281154 0.111179 0.427794
Si Si7 0.723448 0.873119 0.991969
O O1 0.714996 0.308311 0.834227
O O2 0.719797 0.201709 0.588507
O O3 0.805707 0.107372 0.705233
O O4 0.587048 0.139019 0.900053
O O5 0.568354 0.788466 0.440495
O O6 0.456751 0.864589 0.363084
O O7 0.500000 0.000000 0.500000
O O8 0.671723 0.921324 0.176136
O O9 0.188876 0.087639 0.407661
O O10 0.165903 0.072209 0.179482
O O11 0.000000 0.000000 0.500000
O O12 0.401979 0.385276 0.733700
O O13 0.374632 0.399236 0.514788
O O14 0.717308 0.499781 0.982715
O O15 0.263032 0.236600 0.503788
#
# Coordination Sequence:
#
# PCOD9240581 Si02
#       7
#     4   4   4   4   4   4   4
#     4  10  21  37  59  89 123 158 193 247 305 362
#     4  10  19  29  52  90 126 152 188 236 297 379
#     4  10  23  41  58  81 114 164 217 250 291 348
#     4   9  18  32  54  86 120 153 188 233 311 372
#     4  10  20  35  57  88 125 150 191 239 309 371
#     4   9  20  36  59  85 115 153 198 250 303 368
#     4  10  19  36  60  83 118 159 195 247 306 362
#
# _framework density 19.444520000000001
#
# number of rings (size 3 to 8) (size 9 to 14) (size 15 to 20)
#    0.000    2.286    1.429    0.857    2.000    4.000 
#    5.143    0.000    0.000    0.857    0.000    0.000 
#    0.000    0.000    0.000    0.000    0.000    0.000 
#
# Total GULP energy -156196.450691 kJ/mol
# GULP energy per Si atom -5578.444668 kJ/mol
# Density = 1.940026 g / cm^3
# Si number density = 19.444520 Si / 1000 Ang^3
#
#
#
# Elastic Constant Matrix: (Units=GPa)
#
#
# Indices 1 2 3 4 5 6 
#
# 1 44.3911 21.5016 31.1910 0.0000 -6.0418 0.0000
# 2 21.5016 85.4419 45.4462 0.0000 13.1208 0.0000
# 3 31.1910 45.4462 106.2723 0.0000 -17.0532 0.0000
# 4 0.0000 0.0000 0.0000 29.8632 0.0000 8.2476
# 5 -6.0418 13.1208 -17.0532 0.0000 32.7249 0.0000
# 6 0.0000 0.0000 0.0000 8.2476 0.0000 23.0563
#
#
#
# Elastic Compliance Matrix: (Units=1/GPa)
#
#
# Indices 1 2 3 4 5 6 
#
# 1 0.029681 -0.005051 -0.005835 0.000000 0.004465 0.000000
# 2 -0.005051 0.020049 -0.009309 0.000000 -0.013822 0.000000
# 3 -0.005835 -0.009309 0.016947 0.000000 0.011486 0.000000
# 4 0.000000 0.000000 0.000000 0.037157 0.000000 -0.013292
# 5 0.004465 -0.013822 0.011486 0.000000 0.042910 0.000000
# 6 0.000000 0.000000 0.000000 -0.013292 0.000000 0.048127
#
#
# Mechanical properties :
#
#
# Convention : Reuss Voigt Hill
#
# Bulk Modulus (GPa) = 38.04326 48.04255 43.04290
# Shear Modulus (GPa) = 20.48987 26.32666 23.40826
#
# Velocity S-wave (km/s) = 3.24969 3.68358 3.47342
# Velocity P-wave (km/s) = 5.80415 6.54621 6.18631
#
# Compressibility (1/GPa) = 0.02628586
#
# Stress axis : x y z
#
# Youngs Moduli (GPa) = 33.69136 49.87716 59.00922
#
# Poissons Ratio (x) = 0.25195 0.34431
# Poissons Ratio (y) = 0.17019 0.54933
# Poissons Ratio (z) = 0.19658 0.46432
#
# Static dielectric constant tensor:
#      x y z
#    x 1.708880 0.000000 0.058340 
#    y 0.000000 1.724170 0.000000 
#    z 0.058340 0.000000 1.703790 
# 
# From -- ./inp_files/33795.got.cif
#   From: 2010.05.17/outbox.cif.g08.bks.cpg/sg14_17_cif.got.tgz:33795.got - 2010.06.03 17:49:19.
