data_PCOD9240408
_publ_section_title
;
Structure prediction by ZEFSAII (Michael W. Deem and Ramdas Pophale) SiO2 
 PCOD9240408
Probable space group: P 21/C
;
_chemical_formula_sum "Si O2"
_cell_formula_units_Z 32
_cell_length_a 20.037978
_cell_length_b 14.098862
_cell_length_c 5.179915
_cell_angle_alpha 90.000000
_cell_angle_beta 65.994173
_cell_angle_gamma 90.000000
_cell_volume 1336.814302
_symmetry_space_group_name_H-M "P 21/C"
_symmetry_group_IT_number 14
_symmetry_cell_setting 'monoclinic'
loop_
_space_group_symop_operation_xyz
x,y,z
-x,1/2+y,1/2-z
-x,-y,-z
x,1/2-y,1/2+z
loop_
_atom_site_type_symbol
_atom_site_label
_atom_site_fract_x
_atom_site_fract_y
_atom_site_fract_z
Si Si1 0.625179 0.184736 0.821432
Si Si2 0.466963 0.133155 0.131862
Si Si3 0.750588 0.440217 0.896210
Si Si4 0.252461 0.364918 0.314154
Si Si5 0.849890 0.312570 0.407249
Si Si6 0.013557 0.315784 0.170498
Si Si7 0.834377 0.595623 0.028661
Si Si8 0.592777 0.843757 0.273980
O O1 0.625727 0.266543 0.601129
O O2 0.694665 0.120865 0.647243
O O3 0.550494 0.124662 0.920526
O O4 0.452464 0.246625 0.196135
O O5 0.445797 0.095481 0.443794
O O6 0.412043 0.104035 0.991590
O O7 0.715545 0.531893 0.816762
O O8 0.788404 0.381878 0.608242
O O9 0.811987 0.489733 0.979591
O O10 0.202033 0.378633 0.642588
O O11 0.326261 0.311642 0.270668
O O12 0.203157 0.340705 0.141403
O O13 0.844413 0.226584 0.625868
O O14 0.931213 0.355394 0.312819
O O15 0.020726 0.260430 0.889485
O O16 0.079701 0.388285 0.096279
#
# Coordination Sequence:
#
# PCOD9240408 Si02
#       8
#     4   4   4   4   4   4   4   4
#     4  12  22  39  64  90 118 156 205 259 303 358
#     4  10  19  36  60  84 112 149 206 248 295 354
#     4  10  26  39  63  90 129 160 204 243 310 363
#     4  10  23  40  56  85 125 160 199 242 303 362
#     4  10  22  40  66  95 121 160 205 252 297 353
#     4  10  21  42  65  91 125 158 204 253 297 350
#     4  10  23  42  58  91 127 162 204 241 305 367
#     4  10  18  38  56  82 116 148 198 250 291 359
#
# _framework density 23.937508000000001
#
# number of rings (size 3 to 8) (size 9 to 14) (size 15 to 20)
#    0.750    1.000    2.500    2.250    3.500    0.500 
#   13.500    1.875    0.000    0.000    0.000    0.000 
#    0.000    0.000    0.000    0.000    0.000    0.000 
#
# Total GULP energy -178875.747854 kJ/mol
# GULP energy per Si atom -5589.867120 kJ/mol
# Density = 2.388302 g / cm^3
# Si number density = 23.937508 Si / 1000 Ang^3
#
#
#
# Elastic Constant Matrix: (Units=GPa)
#
#
# Indices 1 2 3 4 5 6 
#
# 1 57.3062 2.0025 14.0785 0.0000 -0.8313 0.0000
# 2 2.0025 34.2151 -15.0559 0.0000 -6.8366 0.0000
# 3 14.0785 -15.0559 127.4769 0.0000 15.0400 0.0000
# 4 0.0000 0.0000 0.0000 -4.9448 0.0000 7.9872
# 5 -0.8313 -6.8366 15.0400 0.0000 58.2044 0.0000
# 6 0.0000 0.0000 0.0000 7.9872 0.0000 -10.7479
#
#
#
# Elastic Compliance Matrix: (Units=1/GPa)
#
#
# Indices 1 2 3 4 5 6 
#
# 1 0.018093 -0.001947 -0.002302 0.000000 0.000624 0.000000
# 2 -0.001947 0.031476 0.003610 0.000000 0.002737 0.000000
# 3 -0.002302 0.003610 0.008746 0.000000 -0.001869 0.000000
# 4 0.000000 0.000000 0.000000 1.009291 0.000000 0.750046
# 5 0.000624 0.002737 -0.001869 0.000000 0.017994 0.000000
# 6 0.000000 0.000000 0.000000 0.750046 0.000000 0.464349
#
#
# Mechanical properties :
#
#
# Convention : Reuss Voigt Hill
#
# Bulk Modulus (GPa) = 17.53275 24.56092 21.04683
# Shear Modulus (GPa) = 3.18423 23.03388 13.10906
#
# Velocity S-wave (km/s) = 1.15461 3.10538 2.34270
# Velocity P-wave (km/s) = 3.01956 4.81046 4.01611
#
# Compressibility (1/GPa) = 0.05703613
#
# Stress axis : x y z
#
# Youngs Moduli (GPa) = 55.27092 31.77024 114.34352
#
# Poissons Ratio (x) = 0.06186 0.26319
# Poissons Ratio (y) = 0.10761 -0.41275
# Poissons Ratio (z) = 0.12722 -0.11468
#
# Static dielectric constant tensor:
#      x y z
#    x 1.937710 0.000000 0.047720 
#    y 0.000000 1.971410 0.000000 
#    z 0.047720 0.000000 1.914270 
# 
# From -- ./inp_files/4427.got.cif
#   From: 2010.05.17/outbox.cif.g08.bks.cpg/sg14_3_cif.got.tgz:4427.got - 2010.06.03 17:49:19.
