data_PCOD9240511
_publ_section_title
;
Structure prediction by ZEFSAII (Michael W. Deem and Ramdas Pophale) SiO2 
 PCOD9240511
Probable space group: P 21/C
;
_chemical_formula_sum "Si O2"
_cell_formula_units_Z 24
_cell_length_a 7.189917
_cell_length_b 9.604489
_cell_length_c 25.744556
_cell_angle_alpha 90.000000
_cell_angle_beta 147.407602
_cell_angle_gamma 90.000000
_cell_volume 957.629399
_symmetry_space_group_name_H-M "P 21/C"
_symmetry_group_IT_number 14
_symmetry_cell_setting 'monoclinic'
loop_
_space_group_symop_operation_xyz
x,y,z
-x,1/2+y,1/2-z
-x,-y,-z
x,1/2-y,1/2+z
loop_
_atom_site_type_symbol
_atom_site_label
_atom_site_fract_x
_atom_site_fract_y
_atom_site_fract_z
Si Si1 0.418871 0.831739 0.675186
Si Si2 0.162532 0.523021 0.978890
Si Si3 0.356327 0.812909 0.833486
Si Si4 0.826499 0.020749 0.687121
Si Si5 0.945418 0.798983 0.890102
Si Si6 0.100971 0.419668 0.471143
O O1 0.639348 0.916791 0.684256
O O2 0.702828 0.783907 0.783262
O O3 0.182209 0.700570 0.603349
O O4 0.120940 0.942047 0.622047
O O5 0.209218 0.677782 0.967142
O O6 0.547513 0.465254 0.075956
O O7 0.000000 0.500000 0.000000
O O8 0.121986 0.676255 0.780277
O O9 0.680764 0.771088 0.875397
O O10 0.182589 0.942298 0.763836
O O11 0.520331 0.857542 0.927322
O O12 0.082997 0.956842 0.925133
O O13 0.000000 0.500000 0.500000
#
# Coordination Sequence:
#
# PCOD9240511 Si02
#       6
#     4   4   4   4   4   4
#     4  11  21  40  64  87 119 156 200 249 297 343
#     4  10  18  40  63  83 116 165 199 237 290 357
#     4  11  23  40  59  90 121 156 203 241 293 356
#     4  11  23  39  62  86 120 161 199 243 293 357
#     4  11  22  38  65  92 117 153 201 252 294 347
#     4  10  21  37  62  90 116 157 206 240 285 365
#
# _framework density 25.061886999999999
#
# number of rings (size 3 to 8) (size 9 to 14) (size 15 to 20)
#    0.000    1.333    5.000    4.000    7.000    0.000 
#    0.000    3.333    0.000    0.000    0.000    0.000 
#    0.000    0.000    0.000    0.000    0.000    0.000 
#
# Total GULP energy -134052.541213 kJ/mol
# GULP energy per Si atom -5585.522551 kJ/mol
# Density = 2.500484 g / cm^3
# Si number density = 25.061887 Si / 1000 Ang^3
#
#
#
# Elastic Constant Matrix: (Units=GPa)
#
#
# Indices 1 2 3 4 5 6 
#
# 1 42.2284 14.4076 7.0581 0.0000 -10.8430 0.0000
# 2 14.4076 165.3837 28.9966 0.0000 -6.1163 0.0000
# 3 7.0581 28.9966 97.7268 0.0000 -14.9009 0.0000
# 4 0.0000 0.0000 0.0000 62.7215 0.0000 4.6201
# 5 -10.8430 -6.1163 -14.9009 0.0000 22.3839 0.0000
# 6 0.0000 0.0000 0.0000 4.6201 0.0000 16.7302
#
#
#
# Elastic Compliance Matrix: (Units=1/GPa)
#
#
# Indices 1 2 3 4 5 6 
#
# 1 0.027676 -0.002030 0.000627 0.000000 0.013269 0.000000
# 2 -0.002030 0.006533 -0.001858 0.000000 -0.000435 0.000000
# 3 0.000627 -0.001858 0.011917 0.000000 0.007729 0.000000
# 4 0.000000 0.000000 0.000000 0.016275 0.000000 -0.004494
# 5 0.013269 -0.000435 0.007729 0.000000 0.056129 0.000000
# 6 0.000000 0.000000 0.000000 -0.004494 0.000000 0.061013
#
#
# Mechanical properties :
#
#
# Convention : Reuss Voigt Hill
#
# Bulk Modulus (GPa) = 25.25080 45.14038 35.19559
# Shear Modulus (GPa) = 25.09199 37.35890 31.22544
#
# Velocity S-wave (km/s) = 3.16761 3.86510 3.53361
# Velocity P-wave (km/s) = 4.84516 6.16193 5.54279
#
# Compressibility (1/GPa) = 0.03960271
#
# Stress axis : x y z
#
# Youngs Moduli (GPa) = 36.13281 153.06667 83.91252
#
# Poissons Ratio (x) = 0.31075 -0.05259
# Poissons Ratio (y) = 0.07336 0.15593
# Poissons Ratio (z) = -0.02265 0.28443
#
# Static dielectric constant tensor:
#      x y z
#    x 2.086080 0.000000 -0.021410 
#    y 0.000000 2.066300 0.000000 
#    z -0.021410 0.000000 2.016340 
# 
# From -- ./inp_files/57112.got.cif
#   From: 2010.05.17/outbox.cif.g08.bks.cpg/sg14_29_cif.got.tgz:57112.got - 2010.06.03 17:49:19.
