data_PCOD9240319
_publ_section_title
;
Structure prediction by ZEFSAII (Michael W. Deem and Ramdas Pophale) SiO2 
 PCOD9240319
Probable space group: P 21/C
;
_chemical_formula_sum "Si O2"
_cell_formula_units_Z 28
_cell_length_a 29.541707
_cell_length_b 11.951315
_cell_length_c 23.149501
_cell_angle_alpha 90.000000
_cell_angle_beta 9.323979
_cell_angle_gamma 90.000000
_cell_volume 1324.198261
_symmetry_space_group_name_H-M "P 21/C"
_symmetry_group_IT_number 14
_symmetry_cell_setting 'monoclinic'
loop_
_space_group_symop_operation_xyz
x,y,z
-x,1/2+y,1/2-z
-x,-y,-z
x,1/2-y,1/2+z
loop_
_atom_site_type_symbol
_atom_site_label
_atom_site_fract_x
_atom_site_fract_y
_atom_site_fract_z
Si Si1 0.679833 0.235552 0.834123
Si Si2 0.571400 0.737654 0.726607
Si Si3 0.294555 0.616941 0.975597
Si Si4 0.244480 0.075144 0.345165
Si Si5 0.903794 0.533620 0.184239
Si Si6 0.074937 0.445756 0.655467
Si Si7 0.955506 0.413386 0.409489
O O1 0.924474 0.145287 0.514306
O O2 0.772505 0.348929 0.686559
O O3 0.621875 0.233612 0.975358
O O4 0.387853 0.193754 0.174507
O O5 0.389380 0.712913 0.899141
O O6 0.724124 0.623280 0.555936
O O7 0.810388 0.828086 0.410787
O O8 0.579552 0.559883 0.594852
O O9 0.120178 0.520073 0.227744
O O10 0.108127 0.639732 0.153536
O O11 0.132057 0.019915 0.545180
O O12 0.999238 0.062767 0.607918
O O13 0.500000 0.000000 0.000000
O O14 0.000000 0.500000 0.000000
O O15 0.201219 0.530572 0.448436
#
# Coordination Sequence:
#
# PCOD9240319 Si02
#       7
#     4   4   4   4   4   4   4
#     4  11  22  39  65  89 131 171 210 264 318 378
#     4  12  21  44  67  89 136 170 206 275 313 376
#     4  10  22  41  65  91 131 165 212 261 319 380
#     4  10  18  36  64  91 121 166 211 269 314 356
#     4  11  20  37  64  96 125 162 218 275 312 368
#     4  10  22  42  63  93 127 170 209 263 322 374
#     4  10  23  43  61  97 130 165 217 265 312 386
#
# _framework density 21.144869
#
# number of rings (size 3 to 8) (size 9 to 14) (size 15 to 20)
#    0.857    0.571    4.286    3.429    0.000    1.143 
#    7.714    1.429    0.000    0.000    0.000    0.000 
#    0.000    0.000    0.000    0.000    0.000    0.000 
#
# Total GULP energy -156219.052228 kJ/mol
# GULP energy per Si atom -5579.251865 kJ/mol
# Density = 2.109674 g / cm^3
# Si number density = 21.144869 Si / 1000 Ang^3
#
#
#
# Elastic Constant Matrix: (Units=GPa)
#
#
# Indices 1 2 3 4 5 6 
#
# 1 86.7127 -4.1132 4.0633 0.0000 -0.1880 0.0000
# 2 -4.1132 38.6080 14.4004 0.0000 -6.1452 0.0000
# 3 4.0633 14.4004 49.8443 0.0000 9.0937 0.0000
# 4 0.0000 0.0000 0.0000 38.5055 0.0000 1.8832
# 5 -0.1880 -6.1452 9.0937 0.0000 17.9571 0.0000
# 6 0.0000 0.0000 0.0000 1.8832 0.0000 38.4589
#
#
#
# Elastic Compliance Matrix: (Units=1/GPa)
#
#
# Indices 1 2 3 4 5 6 
#
# 1 0.011737 0.002285 -0.001963 0.000000 0.001899 0.000000
# 2 0.002285 0.034086 -0.013405 0.000000 0.018477 0.000000
# 3 -0.001963 -0.013405 0.027474 0.000000 -0.018521 0.000000
# 4 0.000000 0.000000 0.000000 0.026033 0.000000 -0.001275
# 5 0.001899 0.018477 -0.018521 0.000000 0.071411 0.000000
# 6 0.000000 0.000000 0.000000 -0.001275 0.000000 0.026064
#
#
# Mechanical properties :
#
#
# Convention : Reuss Voigt Hill
#
# Bulk Modulus (GPa) = 21.21776 22.65178 21.93477
# Shear Modulus (GPa) = 20.94848 29.70528 25.32688
#
# Velocity S-wave (km/s) = 3.15097 3.75219 3.46465
# Velocity P-wave (km/s) = 4.82643 5.43211 5.13820
#
# Compressibility (1/GPa) = 0.04713033
#
# Stress axis : x y z
#
# Youngs Moduli (GPa) = 85.20171 29.33793 36.39757
#
# Poissons Ratio (x) = -0.06704 0.07146
# Poissons Ratio (y) = -0.19469 0.48790
# Poissons Ratio (z) = 0.16729 0.39327
#
# Static dielectric constant tensor:
#      x y z
#    x 1.765030 0.000000 -0.030160 
#    y 0.000000 1.802390 0.000000 
#    z -0.030160 0.000000 1.786520 
# 
# From -- ./inp_files/75310.got.cif
#   From: 2010.05.17/outbox.cif.g08.bks.cpg/sg14_38_cif.got.tgz:75310.got - 2010.06.03 17:49:19.
