data_PCOD9240847
_publ_section_title
;
Structure prediction by ZEFSAII (Michael W. Deem and Ramdas Pophale) SiO2 
 PCOD9240847
Probable space group: P 21/C
;
_chemical_formula_sum "Si O2"
_cell_formula_units_Z 28
_cell_length_a 22.435095
_cell_length_b 11.571621
_cell_length_c 27.452293
_cell_angle_alpha 90.000000
_cell_angle_beta 168.403220
_cell_angle_gamma 90.000000
_cell_volume 1432.670131
_symmetry_space_group_name_H-M "P 21/C"
_symmetry_group_IT_number 14
_symmetry_cell_setting 'monoclinic'
loop_
_space_group_symop_operation_xyz
x,y,z
-x,1/2+y,1/2-z
-x,-y,-z
x,1/2-y,1/2+z
loop_
_atom_site_type_symbol
_atom_site_label
_atom_site_fract_x
_atom_site_fract_y
_atom_site_fract_z
Si Si1 0.167733 0.331698 0.523633
Si Si2 0.280594 0.012519 0.896991
Si Si3 0.700489 0.418693 0.389680
Si Si4 0.284826 0.252280 0.509874
Si Si5 0.170989 0.622934 0.213118
Si Si6 0.573347 0.491478 0.728338
Si Si7 0.139770 0.714274 0.920413
O O1 0.134796 0.469601 0.499415
O O2 0.137541 0.291484 0.443032
O O3 0.953507 0.252400 0.384160
O O4 0.511296 0.301415 0.810779
O O5 0.989673 0.091441 0.666084
O O6 0.256980 0.916926 0.836605
O O7 0.549401 0.097504 0.096654
O O8 0.362380 0.966007 0.015620
O O9 0.458019 0.365816 0.158979
O O10 0.537938 0.461084 0.308997
O O11 0.890284 0.310403 0.561396
O O12 0.523652 0.353842 0.690065
O O13 0.051829 0.250862 0.279832
O O14 0.901668 0.538099 0.982621
#
# Coordination Sequence:
#
# PCOD9240847 Si02
#       7
#     4   4   4   4   4   4   4
#     4  10  21  33  53  80 107 141 183 220 269 317
#     4  10  23  35  57  81 110 144 181 218 275 323
#     4  10  19  33  54  80 107 140 181 229 266 313
#     4   9  19  32  53  79 109 139 180 225 270 312
#     4  11  20  37  55  80 113 143 178 224 269 326
#     4  10  19  35  55  80 109 142 179 223 272 317
#     4  10  20  35  54  78 108 143 179 228 265 319
#
# _framework density 19.543925999999999
#
# number of rings (size 3 to 8) (size 9 to 14) (size 15 to 20)
#    0.000    2.000    2.857    3.000    2.000    2.286 
#    0.000    0.714    0.000    3.429    0.000    0.000 
#    0.000    0.000    0.000    0.000    0.000    0.000 
#
# Total GULP energy -156325.409506 kJ/mol
# GULP energy per Si atom -5583.050339 kJ/mol
# Density = 1.949944 g / cm^3
# Si number density = 19.543926 Si / 1000 Ang^3
#
#
#
# Elastic Constant Matrix: (Units=GPa)
#
#
# Indices 1 2 3 4 5 6 
#
# 1 53.8932 15.3264 17.9267 0.0000 -22.4400 0.0000
# 2 15.3264 54.2161 5.6946 0.0000 -11.6479 0.0000
# 3 17.9267 5.6946 44.8154 0.0000 -17.3472 0.0000
# 4 0.0000 0.0000 0.0000 27.8680 0.0000 0.8451
# 5 -22.4400 -11.6479 -17.3472 0.0000 27.6086 0.0000
# 6 0.0000 0.0000 0.0000 0.8451 0.0000 15.2653
#
#
#
# Elastic Compliance Matrix: (Units=1/GPa)
#
#
# Indices 1 2 3 4 5 6 
#
# 1 0.029002 -0.003560 -0.003443 0.000000 0.019907 0.000000
# 2 -0.003560 0.020752 0.001395 0.000000 0.006738 0.000000
# 3 -0.003443 0.001395 0.029940 0.000000 0.016602 0.000000
# 4 0.000000 0.000000 0.000000 0.035944 0.000000 -0.001990
# 5 0.019907 0.006738 0.016602 0.000000 0.065676 0.000000
# 6 0.000000 0.000000 0.000000 -0.001990 0.000000 0.065618
#
#
# Mechanical properties :
#
#
# Convention : Reuss Voigt Hill
#
# Bulk Modulus (GPa) = 14.60302 25.64668 20.12485
# Shear Modulus (GPa) = 17.79528 21.74685 19.77106
#
# Velocity S-wave (km/s) = 3.02077 3.33936 3.18405
# Velocity P-wave (km/s) = 4.43338 5.29334 4.88233
#
# Compressibility (1/GPa) = 0.06847899
#
# Stress axis : x y z
#
# Youngs Moduli (GPa) = 34.48055 48.18764 33.39997
#
# Poissons Ratio (x) = 0.17155 0.11500
# Poissons Ratio (y) = 0.12275 -0.04661
# Poissons Ratio (z) = 0.11872 -0.06724
#
# Static dielectric constant tensor:
#      x y z
#    x 1.686780 0.000000 -0.020510 
#    y 0.000000 1.740410 0.000000 
#    z -0.020510 0.000000 1.687120 
# 
# From -- ./inp_files/61324.got.cif
#   From: 2010.05.17/outbox.cif.g08.bks.cpg/sg14_31_cif.got.tgz:61324.got - 2010.06.03 17:49:19.
