data_PCOD9240486
_publ_section_title
;
Structure prediction by ZEFSAII (Michael W. Deem and Ramdas Pophale) SiO2 
 PCOD9240486
Probable space group: P 21/C
;
_chemical_formula_sum "Si O2"
_cell_formula_units_Z 32
_cell_length_a 9.137085
_cell_length_b 9.956224
_cell_length_c 14.832451
_cell_angle_alpha 90.000000
_cell_angle_beta 86.476367
_cell_angle_gamma 90.000000
_cell_volume 1346.770050
_symmetry_space_group_name_H-M "P 21/C"
_symmetry_group_IT_number 14
_symmetry_cell_setting 'monoclinic'
loop_
_space_group_symop_operation_xyz
x,y,z
-x,1/2+y,1/2-z
-x,-y,-z
x,1/2-y,1/2+z
loop_
_atom_site_type_symbol
_atom_site_label
_atom_site_fract_x
_atom_site_fract_y
_atom_site_fract_z
Si Si1 0.462164 0.315485 0.916544
Si Si2 0.244909 0.792604 0.161792
Si Si3 0.169129 0.092025 0.354417
Si Si4 0.006329 0.180783 0.970834
Si Si5 0.114102 0.793470 0.347113
Si Si6 0.294178 0.055803 0.965874
Si Si7 0.311711 0.404500 0.675821
Si Si8 0.569425 0.225206 0.095181
O O1 0.622971 0.307656 0.866099
O O2 0.338456 0.415681 0.884677
O O3 0.383515 0.169209 0.908417
O O4 0.495234 0.318960 0.022589
O O5 0.145566 0.826991 0.078289
O O6 0.133296 0.745494 0.243716
O O7 0.314509 0.934803 0.191303
O O8 0.193316 0.146042 0.251682
O O9 0.086565 0.190065 0.424707
O O10 0.082792 0.952099 0.351669
O O11 0.122649 0.061707 0.945760
O O12 0.980332 0.213743 0.076621
O O13 0.280663 0.783576 0.375922
O O14 0.380606 0.917454 0.951497
O O15 0.288072 0.103888 0.069684
O O16 0.459690 0.318316 0.678885
#
# Coordination Sequence:
#
# PCOD9240486 Si02
#       8
#     4   4   4   4   4   4   4   4
#     4  10  18  39  61  88 120 155 198 257 299 348
#     4  11  21  39  63  90 121 157 203 254 304 352
#     4  10  24  39  61  83 127 170 199 238 295 369
#     4  11  24  42  59  91 127 160 205 245 299 369
#     4  11  24  39  62  86 125 168 203 240 303 364
#     4  10  20  36  68  91 119 155 195 261 316 342
#     4  10  19  37  63  91 120 151 201 255 306 351
#     4  11  19  38  65  96 119 148 204 264 307 347
#
# _framework density 23.760552000000001
#
# number of rings (size 3 to 8) (size 9 to 14) (size 15 to 20)
#    0.000    1.500    3.750    1.875    1.750    2.500 
#    2.250    0.000    0.000    0.000    0.000    0.000 
#    0.000    0.000    0.000    0.000    0.000    0.000 
#
# Total GULP energy -178671.709509 kJ/mol
# GULP energy per Si atom -5583.490922 kJ/mol
# Density = 2.370647 g / cm^3
# Si number density = 23.760552 Si / 1000 Ang^3
#
#
#
# Elastic Constant Matrix: (Units=GPa)
#
#
# Indices 1 2 3 4 5 6 
#
# 1 96.0432 9.7193 18.7255 0.0000 -21.7386 0.0000
# 2 9.7193 37.9682 15.4896 0.0000 -18.4840 0.0000
# 3 18.7255 15.4896 110.8584 0.0000 -27.5819 0.0000
# 4 0.0000 0.0000 0.0000 20.2101 0.0000 -0.0394
# 5 -21.7386 -18.4840 -27.5819 0.0000 47.3965 0.0000
# 6 0.0000 0.0000 0.0000 -0.0394 0.0000 28.8309
#
#
#
# Elastic Compliance Matrix: (Units=1/GPa)
#
#
# Indices 1 2 3 4 5 6 
#
# 1 0.011675 -0.000359 -0.000730 0.000000 0.004790 0.000000
# 2 -0.000359 0.032773 -0.001613 0.000000 0.011678 0.000000
# 3 -0.000730 -0.001613 0.010675 0.000000 0.005248 0.000000
# 4 0.000000 0.000000 0.000000 0.049480 0.000000 0.000068
# 5 0.004790 0.011678 0.005248 0.000000 0.030904 0.000000
# 6 0.000000 0.000000 0.000000 0.000068 0.000000 0.034685
#
#
# Mechanical properties :
#
#
# Convention : Reuss Voigt Hill
#
# Bulk Modulus (GPa) = 20.11334 36.97098 28.54216
# Shear Modulus (GPa) = 26.01877 32.68318 29.35098
#
# Velocity S-wave (km/s) = 3.31273 3.71283 3.51847
# Velocity P-wave (km/s) = 4.80787 5.82870 5.34272
#
# Compressibility (1/GPa) = 0.04971824
#
# Stress axis : x y z
#
# Youngs Moduli (GPa) = 85.65460 30.51312 93.67668
#
# Poissons Ratio (x) = 0.01095 0.06840
# Poissons Ratio (y) = 0.03074 0.15111
# Poissons Ratio (z) = 0.06254 0.04922
#
# Static dielectric constant tensor:
#      x y z
#    x 1.965660 0.000000 0.026020 
#    y 0.000000 1.912800 0.000000 
#    z 0.026020 0.000000 1.946140 
# 
# From -- ./inp_files/40348.got.cif
#   From: 2010.05.17/outbox.cif.g08.bks.cpg/sg14_21_cif.got.tgz:40348.got - 2010.06.03 17:49:19.
