data_PCOD9240502
_publ_section_title
;
Structure prediction by ZEFSAII (Michael W. Deem and Ramdas Pophale) SiO2 
 PCOD9240502
Probable space group: P 21/C
;
_chemical_formula_sum "Si O2"
_cell_formula_units_Z 28
_cell_length_a 18.904277
_cell_length_b 9.201280
_cell_length_c 17.336721
_cell_angle_alpha 90.000000
_cell_angle_beta 158.976397
_cell_angle_gamma 90.000000
_cell_volume 1081.857910
_symmetry_space_group_name_H-M "P 21/C"
_symmetry_group_IT_number 14
_symmetry_cell_setting 'monoclinic'
loop_
_space_group_symop_operation_xyz
x,y,z
-x,1/2+y,1/2-z
-x,-y,-z
x,1/2-y,1/2+z
loop_
_atom_site_type_symbol
_atom_site_label
_atom_site_fract_x
_atom_site_fract_y
_atom_site_fract_z
Si Si1 0.395883 0.640467 0.931131
Si Si2 0.328713 0.040898 0.882117
Si Si3 0.675644 0.041507 0.885456
Si Si4 0.821731 0.760998 0.870996
Si Si5 0.826065 0.275742 0.673605
Si Si6 0.946551 0.140984 0.029407
Si Si7 0.683481 0.753432 0.999018
O O1 0.278144 0.636515 0.892678
O O2 0.235964 0.705229 0.708081
O O3 0.500000 0.500000 0.000000
O O4 0.592235 0.727370 0.152321
O O5 0.157524 0.115032 0.658383
O O6 0.254105 0.909751 0.857304
O O7 0.408306 0.164798 0.020569
O O8 0.500000 0.000000 0.000000
O O9 0.455654 0.113345 0.657012
O O10 0.679874 0.882896 0.930993
O O11 0.779305 0.169458 0.041740
O O12 0.809444 0.036592 0.943912
O O13 0.900175 0.879174 0.887911
O O14 0.947596 0.742604 0.075226
O O15 0.096923 0.213787 0.245107
#
# Coordination Sequence:
#
# PCOD9240502 Si02
#       7
#     4   4   4   4   4   4   4
#     4  11  24  43  68  99 136 178 234 284 344 406
#     4  10  18  39  69  94 127 168 221 286 338 403
#     4  11  25  47  66 104 141 182 233 284 348 420
#     4  10  21  41  66  97 130 173 223 281 347 398
#     4  10  23  39  64 101 130 172 223 282 343 406
#     4  10  23  44  68  97 136 185 224 284 348 416
#     4  10  25  45  70  99 138 187 230 286 352 413
#
# _framework density 25.881401
#
# number of rings (size 3 to 8) (size 9 to 14) (size 15 to 20)
#    0.000    1.714    1.429    2.143    4.000    5.714 
#    5.143    0.000    0.000    0.000    0.000    0.000 
#    0.000    0.000    0.000    0.000    0.000    0.000 
#
# Total GULP energy -156069.081489 kJ/mol
# GULP energy per Si atom -5573.895767 kJ/mol
# Density = 2.582249 g / cm^3
# Si number density = 25.881401 Si / 1000 Ang^3
#
#
#
# Elastic Constant Matrix: (Units=GPa)
#
#
# Indices 1 2 3 4 5 6 
#
# 1 88.4714 0.1028 67.4439 0.0000 10.8723 0.0000
# 2 0.1028 82.2567 63.3208 0.0000 -3.9397 0.0000
# 3 67.4439 63.3208 213.1342 0.0000 -4.2618 0.0000
# 4 0.0000 0.0000 0.0000 43.3020 0.0000 2.8327
# 5 10.8723 -3.9397 -4.2618 0.0000 38.7835 0.0000
# 6 0.0000 0.0000 0.0000 2.8327 0.0000 31.9589
#
#
#
# Elastic Compliance Matrix: (Units=1/GPa)
#
#
# Indices 1 2 3 4 5 6 
#
# 1 0.017388 0.005247 -0.007164 0.000000 -0.005129 0.000000
# 2 0.005247 0.017391 -0.006836 0.000000 -0.000456 0.000000
# 3 -0.007164 -0.006836 0.009036 0.000000 0.002307 0.000000
# 4 0.000000 0.000000 0.000000 0.023228 0.000000 -0.002059
# 5 -0.005129 -0.000456 0.002307 0.000000 0.027429 0.000000
# 6 0.000000 0.000000 0.000000 -0.002059 0.000000 0.031473
#
#
# Mechanical properties :
#
#
# Convention : Reuss Voigt Hill
#
# Bulk Modulus (GPa) = 38.00855 71.73304 54.87079
# Shear Modulus (GPa) = 32.84680 39.67520 36.26100
#
# Velocity S-wave (km/s) = 3.56635 3.91955 3.74711
# Velocity P-wave (km/s) = 5.62814 6.94695 6.32203
#
# Compressibility (1/GPa) = 0.02630987
#
# Stress axis : x y z
#
# Youngs Moduli (GPa) = 57.50942 57.49983 110.66849
#
# Poissons Ratio (x) = -0.30172 0.79282
# Poissons Ratio (y) = -0.30177 0.75658
# Poissons Ratio (z) = 0.41199 0.39309
#
# Static dielectric constant tensor:
#      x y z
#    x 2.028870 0.000000 -0.029590 
#    y 0.000000 2.303810 0.000000 
#    z -0.029590 0.000000 2.018950 
# 
# From -- ./inp_files/61309.got.cif
#   From: 2010.05.17/outbox.cif.g08.bks.cpg/sg14_31_cif.got.tgz:61309.got - 2010.06.03 17:49:19.
