data_PCOD9240294
_publ_section_title
;
Structure prediction by ZEFSAII (Michael W. Deem and Ramdas Pophale) SiO2 
 PCOD9240294
Probable space group: P 21/C
;
_chemical_formula_sum "Si O2"
_cell_formula_units_Z 32
_cell_length_a 14.816992
_cell_length_b 21.224238
_cell_length_c 8.367942
_cell_angle_alpha 90.000000
_cell_angle_beta 144.690688
_cell_angle_gamma 90.000000
_cell_volume 1521.007426
_symmetry_space_group_name_H-M "P 21/C"
_symmetry_group_IT_number 14
_symmetry_cell_setting 'monoclinic'
loop_
_space_group_symop_operation_xyz
x,y,z
-x,1/2+y,1/2-z
-x,-y,-z
x,1/2-y,1/2+z
loop_
_atom_site_type_symbol
_atom_site_label
_atom_site_fract_x
_atom_site_fract_y
_atom_site_fract_z
Si Si1 0.571002 0.341145 0.331158
Si Si2 0.068116 0.869973 0.270751
Si Si3 0.853418 0.070554 0.266762
Si Si4 0.738005 0.021780 0.586225
Si Si5 0.351208 0.713795 0.207736
Si Si6 0.552772 0.888374 0.837007
Si Si7 0.172296 0.056704 0.595663
Si Si8 0.717012 0.600692 0.235177
O O1 0.694227 0.397187 0.484766
O O2 0.611243 0.286254 0.264324
O O3 0.602542 0.311770 0.550994
O O4 0.399106 0.369137 0.062398
O O5 0.096476 0.899491 0.489110
O O6 0.141806 0.920097 0.251886
O O7 0.171817 0.806808 0.416582
O O8 0.884767 0.866083 0.978592
O O9 0.995613 0.080900 0.350617
O O10 0.825297 0.997196 0.262578
O O11 0.568190 0.053355 0.319272
O O12 0.783653 0.977649 0.503230
O O13 0.742047 0.973913 0.739496
O O14 0.454604 0.673582 0.233458
O O15 0.627864 0.889426 0.771931
O O16 0.694737 0.894509 0.166049
#
# Coordination Sequence:
#
# PCOD9240294 Si02
#       8
#     4   4   4   4   4   4   4   4
#     4  11  23  43  65  88 119 159 211 254 311 360
#     4   9  20  41  61  88 125 163 203 250 307 362
#     4   9  19  37  63  88 122 163 202 250 301 374
#     4  10  21  35  58  95 132 162 193 256 306 363
#     4  10  23  45  64  84 118 161 203 257 308 363
#     4  11  21  37  63  89 126 164 206 247 305 357
#     4  10  18  36  61  92 123 163 206 242 307 369
#     4  12  22  38  60  95 125 160 206 253 299 368
#
# _framework density 21.038686999999999
#
# number of rings (size 3 to 8) (size 9 to 14) (size 15 to 20)
#    0.000    1.750    1.250    4.125    0.000    0.000 
#    9.000    1.250    0.000    0.000    0.000    0.000 
#    0.000    0.000    0.000    0.000    0.000    0.000 
#
# Total GULP energy -178907.856539 kJ/mol
# GULP energy per Si atom -5590.870517 kJ/mol
# Density = 2.099080 g / cm^3
# Si number density = 21.038687 Si / 1000 Ang^3
#
#
#
# Elastic Constant Matrix: (Units=GPa)
#
#
# Indices 1 2 3 4 5 6 
#
# 1 79.1680 4.2618 31.7476 0.0000 14.6488 0.0000
# 2 4.2618 42.7811 19.9317 0.0000 9.8188 0.0000
# 3 31.7476 19.9317 126.5686 0.0000 33.8674 0.0000
# 4 0.0000 0.0000 0.0000 8.9320 0.0000 -7.4643
# 5 14.6488 9.8188 33.8674 0.0000 31.6388 0.0000
# 6 0.0000 0.0000 0.0000 -7.4643 0.0000 23.2084
#
#
#
# Elastic Compliance Matrix: (Units=1/GPa)
#
#
# Indices 1 2 3 4 5 6 
#
# 1 0.014403 0.000729 -0.002638 0.000000 -0.004071 0.000000
# 2 0.000729 0.025843 -0.002825 0.000000 -0.005333 0.000000
# 3 -0.002638 -0.002825 0.011836 0.000000 -0.010572 0.000000
# 4 0.000000 0.000000 0.000000 0.153109 0.000000 0.049243
# 5 -0.004071 -0.005333 -0.010572 0.000000 0.046463 0.000000
# 6 0.000000 0.000000 0.000000 0.049243 0.000000 0.058926
#
#
# Mechanical properties :
#
#
# Convention : Reuss Voigt Hill
#
# Bulk Modulus (GPa) = 23.46748 40.04444 31.75596
# Shear Modulus (GPa) = 14.95868 25.59428 20.27648
#
# Velocity S-wave (km/s) = 2.66937 3.49167 3.10783
# Velocity P-wave (km/s) = 4.54745 5.94396 5.29198
#
# Compressibility (1/GPa) = 0.04261216
#
# Stress axis : x y z
#
# Youngs Moduli (GPa) = 69.42812 38.69591 84.48541
#
# Poissons Ratio (x) = -0.02820 0.22290
# Poissons Ratio (y) = -0.05059 0.23870
# Poissons Ratio (z) = 0.18317 0.10933
#
# Static dielectric constant tensor:
#      x y z
#    x 1.785690 0.000000 -0.033500 
#    y 0.000000 1.729640 0.000000 
#    z -0.033500 0.000000 1.765670 
# 
# From -- ./inp_files/10811.got.cif
#   From: 2010.05.17/outbox.cif.g08.bks.cpg/sg14_6_cif.got.tgz:10811.got - 2010.06.03 17:49:19.
