data_PCOD9240287
_publ_section_title
;
Structure prediction by ZEFSAII (Michael W. Deem and Ramdas Pophale) SiO2 
 PCOD9240287
Probable space group: P 21/C
;
_chemical_formula_sum "Si O2"
_cell_formula_units_Z 28
_cell_length_a 11.694326
_cell_length_b 7.446593
_cell_length_c 25.271999
_cell_angle_alpha 90.000000
_cell_angle_beta 143.662283
_cell_angle_gamma 90.000000
_cell_volume 1304.045390
_symmetry_space_group_name_H-M "P 21/C"
_symmetry_group_IT_number 14
_symmetry_cell_setting 'monoclinic'
loop_
_space_group_symop_operation_xyz
x,y,z
-x,1/2+y,1/2-z
-x,-y,-z
x,1/2-y,1/2+z
loop_
_atom_site_type_symbol
_atom_site_label
_atom_site_fract_x
_atom_site_fract_y
_atom_site_fract_z
Si Si1 0.277249 0.539277 0.424974
Si Si2 0.254305 0.781491 0.647380
Si Si3 0.468463 0.475114 0.676014
Si Si4 0.797391 0.419245 0.721627
Si Si5 0.098460 0.575406 0.688605
Si Si6 0.990978 0.202544 0.631740
Si Si7 0.074795 0.204015 0.041429
O O1 0.500000 0.500000 0.500000
O O2 0.186543 0.525729 0.332570
O O3 0.135132 0.411186 0.406248
O O4 0.221950 0.732637 0.429537
O O5 0.377711 0.670364 0.650871
O O6 0.377879 0.937771 0.719766
O O7 0.209956 0.642931 0.678587
O O8 0.048050 0.823649 0.545077
O O9 0.585080 0.459890 0.665315
O O10 0.302780 0.323270 0.618650
O O11 0.834543 0.207758 0.740951
O O12 0.941689 0.520631 0.815833
O O13 0.124714 0.363444 0.706151
O O14 0.021935 0.232541 0.580864
O O15 0.000000 0.000000 0.000000
#
# Coordination Sequence:
#
# PCOD9240287 Si02
#       7
#     4   4   4   4   4   4   4
#     4  10  22  38  63  84 114 154 195 242 303 345
#     4  10  20  36  58  81 121 153 187 246 289 353
#     4  10  20  32  58  87 110 152 198 223 300 353
#     4  11  22  37  63  86 112 155 199 243 278 365
#     4   9  21  39  58  82 120 148 194 236 298 337
#     4  10  21  39  62  83 115 157 195 232 307 338
#     4  10  18  36  61  81 122 158 186 245 293 354
#
# _framework density 21.471646
#
# number of rings (size 3 to 8) (size 9 to 14) (size 15 to 20)
#    0.857    1.143    2.857    1.714    6.000    0.000 
#    0.000    7.143    0.000    0.000    0.000    0.000 
#    0.000    0.000    0.000    0.000    0.000    0.000 
#
# Total GULP energy -155985.608525 kJ/mol
# GULP energy per Si atom -5570.914590 kJ/mol
# Density = 2.142278 g / cm^3
# Si number density = 21.471646 Si / 1000 Ang^3
#
#
#
# Elastic Constant Matrix: (Units=GPa)
#
#
# Indices 1 2 3 4 5 6 
#
# 1 91.5212 -7.6050 14.0067 0.0000 15.1434 0.0000
# 2 -7.6050 41.0546 -0.5436 0.0000 -6.1744 0.0000
# 3 14.0067 -0.5436 54.2497 0.0000 -4.0145 0.0000
# 4 0.0000 0.0000 0.0000 19.3800 0.0000 -3.5051
# 5 15.1434 -6.1744 -4.0145 0.0000 31.6340 0.0000
# 6 0.0000 0.0000 0.0000 -3.5051 0.0000 17.1647
#
#
#
# Elastic Compliance Matrix: (Units=1/GPa)
#
#
# Indices 1 2 3 4 5 6 
#
# 1 0.012643 0.001351 -0.003714 0.000000 -0.006260 0.000000
# 2 0.001351 0.025260 0.000223 0.000000 0.004312 0.000000
# 3 -0.003714 0.000223 0.019714 0.000000 0.004323 0.000000
# 4 0.000000 0.000000 0.000000 0.053578 0.000000 0.010941
# 5 -0.006260 0.004312 0.004323 0.000000 0.035998 0.000000
# 6 0.000000 0.000000 0.000000 0.010941 0.000000 0.060493
#
#
# Mechanical properties :
#
#
# Convention : Reuss Voigt Hill
#
# Bulk Modulus (GPa) = 18.74832 22.06019 20.40426
# Shear Modulus (GPa) = 21.76329 25.70023 23.73176
#
# Velocity S-wave (km/s) = 3.18713 3.46343 3.32815
# Velocity P-wave (km/s) = 4.72169 5.12740 4.92872
#
# Compressibility (1/GPa) = 0.05333811
#
# Stress axis : x y z
#
# Youngs Moduli (GPa) = 79.09594 39.58903 50.72445
#
# Poissons Ratio (x) = -0.05350 0.18839
# Poissons Ratio (y) = -0.10689 -0.01132
# Poissons Ratio (z) = 0.29376 -0.00884
#
# Static dielectric constant tensor:
#      x y z
#    x 1.772760 0.000000 0.018700 
#    y 0.000000 1.836900 0.000000 
#    z 0.018700 0.000000 1.836500 
# 
# From -- ./inp_files/76969.got.cif
#   From: 2010.05.17/outbox.cif.g08.bks.cpg/sg14_39_cif.got.tgz:76969.got - 2010.06.03 17:49:19.
