data_PCOD9240752
_publ_section_title
;
Structure prediction by ZEFSAII (Michael W. Deem and Ramdas Pophale) SiO2 
 PCOD9240752
Probable space group: P 21/C
;
_chemical_formula_sum "Si O2"
_cell_formula_units_Z 20
_cell_length_a 9.983907
_cell_length_b 9.262438
_cell_length_c 9.418696
_cell_angle_alpha 90.000000
_cell_angle_beta 116.716535
_cell_angle_gamma 90.000000
_cell_volume 778.010756
_symmetry_space_group_name_H-M "P 21/C"
_symmetry_group_IT_number 14
_symmetry_cell_setting 'monoclinic'
loop_
_space_group_symop_operation_xyz
x,y,z
-x,1/2+y,1/2-z
-x,-y,-z
x,1/2-y,1/2+z
loop_
_atom_site_type_symbol
_atom_site_label
_atom_site_fract_x
_atom_site_fract_y
_atom_site_fract_z
Si Si1 0.697487 0.817069 0.695815
Si Si2 0.060698 0.081516 0.669468
Si Si3 0.283083 0.884088 0.956924
Si Si4 0.123870 0.591897 0.648313
Si Si5 0.462671 0.174176 0.118058
O O1 0.827088 0.711330 0.814845
O O2 0.657203 0.774034 0.518803
O O3 0.756256 0.976903 0.737695
O O4 0.550563 0.795195 0.722859
O O5 0.951600 0.145652 0.741951
O O6 0.158543 0.965638 0.803672
O O7 0.000000 0.000000 0.500000
O O8 0.396942 0.012105 0.064983
O O9 0.204329 0.819116 0.059865
O O10 0.382515 0.801199 0.888751
O O11 0.000000 0.500000 0.500000
#
# Coordination Sequence:
#
# PCOD9240752 Si02
#       5
#     4   4   4   4   4
#     4  10  19  33  55  78 104 145 181 219 272 320
#     4  10  19  32  54  83 112 136 175 229 270 314
#     4   8  17  34  52  71 100 142 173 209 263 317
#     4   9  18  34  54  76 109 144 177 217 269 327
#     4   9  17  33  54  73  99 134 180 215 257 320
#
# _framework density 25.706586000000001
#
# number of rings (size 3 to 8) (size 9 to 14) (size 15 to 20)
#    0.000    2.800    0.000    2.400    0.000    0.000 
#    0.000   10.000    0.000    9.600    0.000    0.000 
#    0.000    0.000    0.000    0.000    0.000    0.000 
#
# Total GULP energy -111746.263005 kJ/mol
# GULP energy per Si atom -5587.313150 kJ/mol
# Density = 2.564808 g / cm^3
# Si number density = 25.706586 Si / 1000 Ang^3
#
#
#
# Elastic Constant Matrix: (Units=GPa)
#
#
# Indices 1 2 3 4 5 6 
#
# 1 165.4330 14.4854 48.4068 0.0000 -60.6601 0.0000
# 2 14.4854 53.6738 23.0983 0.0000 -4.8291 0.0000
# 3 48.4068 23.0983 110.7069 0.0000 -38.7446 0.0000
# 4 0.0000 0.0000 0.0000 25.8644 0.0000 1.4501
# 5 -60.6601 -4.8291 -38.7446 0.0000 49.4593 0.0000
# 6 0.0000 0.0000 0.0000 1.4501 0.0000 27.4261
#
#
#
# Elastic Compliance Matrix: (Units=1/GPa)
#
#
# Indices 1 2 3 4 5 6 
#
# 1 0.011162 -0.001919 0.000338 0.000000 0.013767 0.000000
# 2 -0.001919 0.020923 -0.005008 0.000000 -0.004234 0.000000
# 3 0.000338 -0.005008 0.013645 0.000000 0.010614 0.000000
# 4 0.000000 0.000000 0.000000 0.038778 0.000000 -0.002050
# 5 0.013767 -0.004234 0.010614 0.000000 0.045005 0.000000
# 6 0.000000 0.000000 0.000000 -0.002050 0.000000 0.036570
#
#
# Mechanical properties :
#
#
# Convention : Reuss Voigt Hill
#
# Bulk Modulus (GPa) = 30.72082 55.75498 43.23790
# Shear Modulus (GPa) = 26.30025 36.80485 31.55255
#
# Velocity S-wave (km/s) = 3.20205 3.78792 3.50724
# Velocity P-wave (km/s) = 5.06432 6.39275 5.76691
#
# Compressibility (1/GPa) = 0.03255121
#
# Stress axis : x y z
#
# Youngs Moduli (GPa) = 89.59022 47.79357 73.28830
#
# Poissons Ratio (x) = 0.09172 -0.02477
# Poissons Ratio (y) = 0.17194 0.36704
# Poissons Ratio (z) = -0.03028 0.23936
#
# Static dielectric constant tensor:
#      x y z
#    x 2.106230 0.000000 -0.008840 
#    y 0.000000 2.038730 0.000000 
#    z -0.008840 0.000000 1.967470 
# 
# From -- ./inp_files/7937.got.cif
#   From: 2010.05.17/outbox.cif.g08.bks.cpg/sg14_4_cif.got.tgz:7937.got - 2010.06.03 17:49:19.
