data_PCOD9240672
_publ_section_title
;
Structure prediction by ZEFSAII (Michael W. Deem and Ramdas Pophale) SiO2 
 PCOD9240672
Probable space group: P 21/C
;
_chemical_formula_sum "Si O2"
_cell_formula_units_Z 28
_cell_length_a 17.300967
_cell_length_b 10.622234
_cell_length_c 13.238285
_cell_angle_alpha 90.000000
_cell_angle_beta 30.318701
_cell_angle_gamma 90.000000
_cell_volume 1228.133012
_symmetry_space_group_name_H-M "P 21/C"
_symmetry_group_IT_number 14
_symmetry_cell_setting 'monoclinic'
loop_
_space_group_symop_operation_xyz
x,y,z
-x,1/2+y,1/2-z
-x,-y,-z
x,1/2-y,1/2+z
loop_
_atom_site_type_symbol
_atom_site_label
_atom_site_fract_x
_atom_site_fract_y
_atom_site_fract_z
Si Si1 0.173533 0.362814 0.800357
Si Si2 0.658351 0.003157 0.191401
Si Si3 0.159905 0.725232 0.533891
Si Si4 0.199950 0.860410 0.293014
Si Si5 0.667451 0.405419 0.917428
Si Si6 0.112700 0.382145 0.290995
Si Si7 0.099371 0.182881 0.032413
O O1 0.245511 0.499344 0.707736
O O2 0.211123 0.249190 0.681008
O O3 0.197823 0.303910 0.884555
O O4 0.986182 0.365533 0.007897
O O5 0.660628 0.043445 0.308401
O O6 0.500007 0.933901 0.350083
O O7 0.705152 0.132681 0.084754
O O8 0.796378 0.906639 0.019098
O O9 0.220459 0.831314 0.389173
O O10 0.035531 0.641494 0.609684
O O11 0.053522 0.778973 0.740119
O O12 0.278485 0.739260 0.152596
O O13 0.782132 0.498786 0.846830
O O14 0.933343 0.615677 0.538179
#
# Coordination Sequence:
#
# PCOD9240672 Si02
#       7
#     4   4   4   4   4   4   4
#     4   8  17  31  47  80 107 134 178 222 268 316
#     4   9  19  32  54  79 106 140 182 226 271 322
#     4  10  19  31  56  78 109 141 183 228 269 318
#     4   9  17  30  53  76 107 142 178 215 280 320
#     4   9  17  33  56  78 105 141 182 224 272 326
#     4   8  18  33  56  79 106 140 183 226 269 322
#     4   9  19  31  52  78 111 136 182 227 269 318
#
# _framework density 22.798832000000001
#
# number of rings (size 3 to 8) (size 9 to 14) (size 15 to 20)
#    0.857    2.286    0.000    0.000    4.000    2.286 
#    0.000    0.714    3.143    0.000    0.000    0.000 
#    0.000    0.000    0.000    0.000    0.000    0.000 
#
# Total GULP energy -155985.217171 kJ/mol
# GULP energy per Si atom -5570.900613 kJ/mol
# Density = 2.274694 g / cm^3
# Si number density = 22.798832 Si / 1000 Ang^3
#
#
#
# Elastic Constant Matrix: (Units=GPa)
#
#
# Indices 1 2 3 4 5 6 
#
# 1 42.0008 22.5670 18.9265 0.0000 4.5528 0.0000
# 2 22.5670 187.9165 51.7354 0.0000 -12.9142 0.0000
# 3 18.9265 51.7354 80.0405 0.0000 -2.0662 0.0000
# 4 0.0000 0.0000 0.0000 29.9440 0.0000 -2.9634
# 5 4.5528 -12.9142 -2.0662 0.0000 15.6757 0.0000
# 6 0.0000 0.0000 0.0000 -2.9634 0.0000 18.8547
#
#
#
# Elastic Compliance Matrix: (Units=1/GPa)
#
#
# Indices 1 2 3 4 5 6 
#
# 1 0.028951 -0.002792 -0.005336 0.000000 -0.011412 0.000000
# 2 -0.002792 0.007124 -0.003785 0.000000 0.006181 0.000000
# 3 -0.005336 -0.003785 0.016216 0.000000 0.000569 0.000000
# 4 0.000000 0.000000 0.000000 0.033923 0.000000 0.005332
# 5 -0.011412 0.006181 0.000569 0.000000 0.072274 0.000000
# 6 0.000000 0.000000 0.000000 0.005332 0.000000 0.053875
#
#
# Mechanical properties :
#
#
# Convention : Reuss Voigt Hill
#
# Bulk Modulus (GPa) = 35.12983 55.15730 45.14357
# Shear Modulus (GPa) = 20.35198 27.34347 23.84772
#
# Velocity S-wave (km/s) = 2.99101 3.46690 3.23771
# Velocity P-wave (km/s) = 5.23166 6.34598 5.81557
#
# Compressibility (1/GPa) = 0.02846583
#
# Stress axis : x y z
#
# Youngs Moduli (GPa) = 34.54162 140.38036 61.66633
#
# Poissons Ratio (x) = 0.39194 0.32903
# Poissons Ratio (y) = 0.09644 0.23338
# Poissons Ratio (z) = 0.18430 0.53129
#
# Static dielectric constant tensor:
#      x y z
#    x 1.927850 0.000000 0.011410 
#    y 0.000000 1.999830 0.000000 
#    z 0.011410 0.000000 1.852910 
# 
# From -- ./inp_files/70409.got.cif
#   From: 2010.05.17/outbox.cif.g08.bks.cpg/sg14_36_cif.got.tgz:70409.got - 2010.06.03 17:49:19.
