data_PCOD9240547
_publ_section_title
;
Structure prediction by ZEFSAII (Michael W. Deem and Ramdas Pophale) SiO2 
 PCOD9240547
Probable space group: P 21/C
;
_chemical_formula_sum "Si O2"
_cell_formula_units_Z 24
_cell_length_a 7.433369
_cell_length_b 23.938694
_cell_length_c 11.729341
_cell_angle_alpha 90.000000
_cell_angle_beta 150.288726
_cell_angle_gamma 90.000000
_cell_volume 1034.467794
_symmetry_space_group_name_H-M "P 21/C"
_symmetry_group_IT_number 14
_symmetry_cell_setting 'monoclinic'
loop_
_space_group_symop_operation_xyz
x,y,z
-x,1/2+y,1/2-z
-x,-y,-z
x,1/2-y,1/2+z
loop_
_atom_site_type_symbol
_atom_site_label
_atom_site_fract_x
_atom_site_fract_y
_atom_site_fract_z
Si Si1 0.617596 0.829875 0.950544
Si Si2 0.658064 0.214525 0.741483
Si Si3 0.622123 0.927745 0.803615
Si Si4 0.727575 0.873450 0.626776
Si Si5 0.453833 0.349435 0.346725
Si Si6 0.501652 0.553988 0.793925
O O1 0.335411 0.779802 0.781250
O O2 0.495741 0.889973 0.839314
O O3 0.760932 0.832699 0.158712
O O4 0.943170 0.811270 0.047012
O O5 0.439212 0.181397 0.523356
O O6 0.490755 0.198053 0.771251
O O7 0.557084 0.893714 0.651667
O O8 0.449980 0.988850 0.702311
O O9 0.062231 0.935851 0.056670
O O10 0.663092 0.923211 0.500690
O O11 0.146497 0.861456 0.882518
O O12 0.346439 0.405790 0.221711
#
# Coordination Sequence:
#
# PCOD9240547 Si02
#       6
#     4   4   4   4   4   4
#     4  12  24  43  65  92 126 174 211 263 325 372
#     4  11  25  43  61  93 129 168 214 265 317 375
#     4  10  20  38  67  98 129 167 213 260 323 376
#     4  10  18  42  64  93 130 168 210 257 319 376
#     4  10  23  42  64  93 131 162 211 265 312 384
#     4   9  19  40  67  96 131 166 208 266 315 382
#
# _framework density 23.200334999999999
#
# number of rings (size 3 to 8) (size 9 to 14) (size 15 to 20)
#    0.000    1.667    5.000    1.500    2.333    2.000 
#    6.000    0.833    0.000    0.000    0.000    0.000 
#    0.000    0.000    0.000    0.000    0.000    0.000 
#
# Total GULP energy -134290.787562 kJ/mol
# GULP energy per Si atom -5595.449482 kJ/mol
# Density = 2.314753 g / cm^3
# Si number density = 23.200335 Si / 1000 Ang^3
#
#
#
# Elastic Constant Matrix: (Units=GPa)
#
#
# Indices 1 2 3 4 5 6 
#
# 1 95.8102 48.3829 17.1080 0.0000 -40.3355 0.0000
# 2 48.3829 98.3806 9.9268 0.0000 -12.3258 0.0000
# 3 17.1080 9.9268 89.7694 0.0000 -14.3313 0.0000
# 4 0.0000 0.0000 0.0000 24.6664 0.0000 2.8749
# 5 -40.3355 -12.3258 -14.3313 0.0000 41.7282 0.0000
# 6 0.0000 0.0000 0.0000 2.8749 0.0000 10.0200
#
#
#
# Elastic Compliance Matrix: (Units=1/GPa)
#
#
# Indices 1 2 3 4 5 6 
#
# 1 0.023381 -0.008982 -0.000294 0.000000 0.019846 0.000000
# 2 -0.008982 0.014049 -0.000598 0.000000 -0.004738 0.000000
# 3 -0.000294 -0.000598 0.011837 0.000000 0.003604 0.000000
# 4 0.000000 0.000000 0.000000 0.041944 0.000000 -0.012034
# 5 0.019846 -0.004738 0.003604 0.000000 0.042987 0.000000
# 6 0.000000 0.000000 0.000000 -0.012034 0.000000 0.103253
#
#
# Mechanical properties :
#
#
# Convention : Reuss Voigt Hill
#
# Bulk Modulus (GPa) = 33.87817 48.31063 41.09440
# Shear Modulus (GPa) = 18.72379 29.18574 23.95476
#
# Velocity S-wave (km/s) = 2.84394 3.55066 3.21677
# Velocity P-wave (km/s) = 5.04164 6.13824 5.61677
#
# Compressibility (1/GPa) = 0.02951753
#
# Stress axis : x y z
#
# Youngs Moduli (GPa) = 42.76963 71.18029 84.47881
#
# Poissons Ratio (x) = 0.63938 0.02486
# Poissons Ratio (y) = 0.38418 0.05053
# Poissons Ratio (z) = 0.01258 0.04258
#
# Static dielectric constant tensor:
#      x y z
#    x 1.931310 0.000000 0.036140 
#    y 0.000000 1.874960 0.000000 
#    z 0.036140 0.000000 1.859470 
# 
# From -- ./inp_files/27052.got.cif
#   From: 2010.05.17/outbox.cif.g08.bks.cpg/sg14_14_cif.got.tgz:27052.got - 2010.06.03 17:49:19.
