data_PCOD9240566
_publ_section_title
;
Structure prediction by ZEFSAII (Michael W. Deem and Ramdas Pophale) SiO2 
 PCOD9240566
Probable space group: P 21/C
;
_chemical_formula_sum "Si O2"
_cell_formula_units_Z 32
_cell_length_a 5.408907
_cell_length_b 11.438095
_cell_length_c 21.800255
_cell_angle_alpha 90.000000
_cell_angle_beta 115.832262
_cell_angle_gamma 90.000000
_cell_volume 1213.955568
_symmetry_space_group_name_H-M "P 21/C"
_symmetry_group_IT_number 14
_symmetry_cell_setting 'monoclinic'
loop_
_space_group_symop_operation_xyz
x,y,z
-x,1/2+y,1/2-z
-x,-y,-z
x,1/2-y,1/2+z
loop_
_atom_site_type_symbol
_atom_site_label
_atom_site_fract_x
_atom_site_fract_y
_atom_site_fract_z
Si Si1 0.730507 0.384458 0.132697
Si Si2 0.852676 0.047518 0.285641
Si Si3 0.898298 0.410167 0.560561
Si Si4 0.931579 0.673710 0.542149
Si Si5 0.323461 0.176183 0.683757
Si Si6 0.451187 0.563267 0.360664
Si Si7 0.468532 0.701312 0.661644
Si Si8 0.302089 0.129346 0.414611
O O1 0.495301 0.312719 0.140295
O O2 0.899139 0.457755 0.203753
O O3 0.996245 0.316320 0.134979
O O4 0.626023 0.490343 0.077325
O O5 0.637637 0.961244 0.293846
O O6 0.729565 0.110900 0.215174
O O7 0.993114 0.120056 0.353766
O O8 0.817835 0.541707 0.528551
O O9 0.224216 0.413929 0.613543
O O10 0.895280 0.323192 0.502276
O O11 0.687364 0.393127 0.592492
O O12 0.147993 0.671254 0.621272
O O13 0.729151 0.782573 0.531475
O O14 0.415059 0.232680 0.758364
O O15 0.404301 0.422047 0.348846
O O16 0.533569 0.803754 0.620716
#
# Coordination Sequence:
#
# PCOD9240566 Si02
#       8
#     4   4   4   4   4   4   4   4
#     4   8  18  29  43  59  86 114 154 183 232 276
#     4   7  19  27  48  59  85 112 158 187 235 270
#     4  10  22  32  45  62  91 128 167 185 212 265
#     4  10  21  29  42  66  94 124 159 196 220 258
#     4   8  17  29  42  60  82 120 150 179 220 285
#     4  10  19  33  47  60  84 129 163 185 219 270
#     4  10  19  26  49  62  95 120 162 187 233 260
#     4   9  19  29  44  68  91 118 152 201 238 262
#
# _framework density 26.360109000000001
#
# number of rings (size 3 to 8) (size 9 to 14) (size 15 to 20)
#    1.500    1.250    1.250    0.000   12.250    1.500 
#    0.000    0.000    0.000    0.000    0.000    0.000 
#    0.000    0.000    0.000   29.250    0.000    6.500 
#
# Total GULP energy -178383.076870 kJ/mol
# GULP energy per Si atom -5574.471152 kJ/mol
# Density = 2.630011 g / cm^3
# Si number density = 26.360109 Si / 1000 Ang^3
#
#
#
# Elastic Constant Matrix: (Units=GPa)
#
#
# Indices 1 2 3 4 5 6 
#
# 1 148.4760 44.2439 19.9416 0.0000 -40.6712 0.0000
# 2 44.2439 83.4704 11.2888 0.0000 -11.3940 0.0000
# 3 19.9416 11.2888 58.5752 0.0000 -12.8286 0.0000
# 4 0.0000 0.0000 0.0000 23.7432 0.0000 -7.8587
# 5 -40.6712 -11.3940 -12.8286 0.0000 26.0334 0.0000
# 6 0.0000 0.0000 0.0000 -7.8587 0.0000 38.2958
#
#
#
# Elastic Compliance Matrix: (Units=1/GPa)
#
#
# Indices 1 2 3 4 5 6 
#
# 1 0.013167 -0.004473 0.000511 0.000000 0.018864 0.000000
# 2 -0.004473 0.014362 -0.001568 0.000000 -0.001475 0.000000
# 3 0.000511 -0.001568 0.019309 0.000000 0.009627 0.000000
# 4 0.000000 0.000000 0.000000 0.045187 0.000000 0.009273
# 5 0.018864 -0.001475 0.009627 0.000000 0.071981 0.000000
# 6 0.000000 0.000000 0.000000 0.009273 0.000000 0.028015
#
#
# Mechanical properties :
#
#
# Convention : Reuss Voigt Hill
#
# Bulk Modulus (GPa) = 27.95116 49.05225 38.50170
# Shear Modulus (GPa) = 23.25513 31.95096 27.60304
#
# Velocity S-wave (km/s) = 2.97342 3.48529 3.23948
# Velocity P-wave (km/s) = 4.73444 5.90299 5.35071
#
# Compressibility (1/GPa) = 0.03577669
#
# Stress axis : x y z
#
# Youngs Moduli (GPa) = 75.94913 69.62796 51.79014
#
# Poissons Ratio (x) = 0.31146 -0.02646
# Poissons Ratio (y) = 0.33974 0.08121
# Poissons Ratio (z) = -0.03881 0.10919
#
# Static dielectric constant tensor:
#      x y z
#    x 2.080400 0.000000 0.038530 
#    y 0.000000 2.178420 0.000000 
#    z 0.038530 0.000000 2.148110 
# 
# From -- ./inp_files/71381.got.cif
#   From: 2010.05.17/outbox.cif.g08.bks.cpg/sg14_36_cif.got.tgz:71381.got - 2010.06.03 17:49:19.
