data_PCOD9240139
_publ_section_title
;
Structure prediction by ZEFSAII (Michael W. Deem and Ramdas Pophale) SiO2 
 PCOD9240139
Probable space group: P 21/C
;
_chemical_formula_sum "Si O2"
_cell_formula_units_Z 32
_cell_length_a 12.013630
_cell_length_b 14.665179
_cell_length_c 17.986044
_cell_angle_alpha 90.000000
_cell_angle_beta 27.741803
_cell_angle_gamma 90.000000
_cell_volume 1475.046370
_symmetry_space_group_name_H-M "P 21/C"
_symmetry_group_IT_number 14
_symmetry_cell_setting 'monoclinic'
loop_
_space_group_symop_operation_xyz
x,y,z
-x,1/2+y,1/2-z
-x,-y,-z
x,1/2-y,1/2+z
loop_
_atom_site_type_symbol
_atom_site_label
_atom_site_fract_x
_atom_site_fract_y
_atom_site_fract_z
Si Si1 0.876740 0.333731 0.894463
Si Si2 0.618985 0.910008 0.895717
Si Si3 0.444419 0.126990 0.757445
Si Si4 0.985297 0.301507 0.454376
Si Si5 0.999814 0.659062 0.920871
Si Si6 0.498418 0.682668 0.189029
Si Si7 0.719306 0.003381 0.694853
Si Si8 0.324984 0.739049 0.131754
O O1 0.737077 0.323012 0.900758
O O2 0.103475 0.397655 0.747989
O O3 0.970476 0.239924 0.879999
O O4 0.681977 0.368883 0.067486
O O5 0.634904 0.920977 0.796539
O O6 0.480011 0.821247 0.005903
O O7 0.500000 0.000000 0.000000
O O8 0.211492 0.136954 0.843293
O O9 0.441814 0.217320 0.811465
O O10 0.501544 0.039872 0.774007
O O11 0.996421 0.213324 0.503524
O O12 0.738392 0.347133 0.627070
O O13 0.219319 0.589772 0.788216
O O14 0.067488 0.727811 0.815264
O O15 0.733102 0.622858 0.066329
O O16 0.447203 0.694513 0.132004
O O17 0.000000 0.000000 0.500000
#
# Coordination Sequence:
#
# PCOD9240139 Si02
#       8
#     4   4   4   4   4   4   4   4
#     4  11  21  35  58  89 122 159 200 256 310 361
#     4  12  23  37  58  91 123 154 207 252 305 366
#     4  10  18  35  56  83 117 154 205 254 291 358
#     4   9  18  34  58  87 116 154 207 252 296 351
#     4  10  18  35  55  82 119 154 195 247 303 357
#     4   9  18  34  58  84 116 153 197 247 302 355
#     4  12  21  37  60  84 117 158 203 248 309 356
#     4  11  21  35  57  90 122 159 200 255 305 369
#
# _framework density 21.694234000000002
#
# number of rings (size 3 to 8) (size 9 to 14) (size 15 to 20)
#    0.000    1.500    6.250    1.500    0.000    4.000 
#    0.000    0.000    0.000    5.250    0.000    0.000 
#    0.000    0.000    0.000    0.000    0.000    0.000 
#
# Total GULP energy -178432.712015 kJ/mol
# GULP energy per Si atom -5576.022250 kJ/mol
# Density = 2.164486 g / cm^3
# Si number density = 21.694234 Si / 1000 Ang^3
#
#
#
# Elastic Constant Matrix: (Units=GPa)
#
#
# Indices 1 2 3 4 5 6 
#
# 1 83.2738 6.0116 21.4267 0.0000 -12.3481 0.0000
# 2 6.0116 26.2459 8.0277 0.0000 -5.9539 0.0000
# 3 21.4267 8.0277 89.5441 0.0000 -17.2055 0.0000
# 4 0.0000 0.0000 0.0000 25.0424 0.0000 -3.2848
# 5 -12.3481 -5.9539 -17.2055 0.0000 45.6568 0.0000
# 6 0.0000 0.0000 0.0000 -3.2848 0.0000 23.8526
#
#
#
# Elastic Compliance Matrix: (Units=1/GPa)
#
#
# Indices 1 2 3 4 5 6 
#
# 1 0.013135 -0.001694 -0.002535 0.000000 0.002376 0.000000
# 2 -0.001694 0.040112 -0.002451 0.000000 0.003849 0.000000
# 3 -0.002535 -0.002451 0.012722 0.000000 0.003789 0.000000
# 4 0.000000 0.000000 0.000000 0.040667 0.000000 0.005600
# 5 0.002376 0.003849 0.003789 0.000000 0.024475 0.000000
# 6 0.000000 0.000000 0.000000 0.005600 0.000000 0.042695
#
#
# Mechanical properties :
#
#
# Convention : Reuss Voigt Hill
#
# Bulk Modulus (GPa) = 19.00799 29.99955 24.50377
# Shear Modulus (GPa) = 24.42560 29.81690 27.12125
#
# Velocity S-wave (km/s) = 3.35909 3.71133 3.53960
# Velocity P-wave (km/s) = 4.88113 5.67659 5.29382
#
# Compressibility (1/GPa) = 0.05260945
#
# Stress axis : x y z
#
# Youngs Moduli (GPa) = 76.12989 24.93013 78.60420
#
# Poissons Ratio (x) = 0.04224 0.19923
# Poissons Ratio (y) = 0.12899 0.19267
# Poissons Ratio (z) = 0.19296 0.06111
#
# Static dielectric constant tensor:
#      x y z
#    x 1.836880 0.000000 0.015240 
#    y 0.000000 1.999180 0.000000 
#    z 0.015240 0.000000 1.814070 
# 
# From -- ./inp_files/57991.got.cif
#   From: 2010.05.17/outbox.cif.g08.bks.cpg/sg14_29_cif.got.tgz:57991.got - 2010.06.03 17:49:19.
