data_PCOD9240780
_publ_section_title
;
Structure prediction by ZEFSAII (Michael W. Deem and Ramdas Pophale) SiO2 
 PCOD9240780
Probable space group: P 21/C
;
_chemical_formula_sum "Si O2"
_cell_formula_units_Z 24
_cell_length_a 18.949968
_cell_length_b 8.094841
_cell_length_c 8.294638
_cell_angle_alpha 90.000000
_cell_angle_beta 47.744007
_cell_angle_gamma 90.000000
_cell_volume 941.743628
_symmetry_space_group_name_H-M "P 21/C"
_symmetry_group_IT_number 14
_symmetry_cell_setting 'monoclinic'
loop_
_space_group_symop_operation_xyz
x,y,z
-x,1/2+y,1/2-z
-x,-y,-z
x,1/2-y,1/2+z
loop_
_atom_site_type_symbol
_atom_site_label
_atom_site_fract_x
_atom_site_fract_y
_atom_site_fract_z
Si Si1 0.114100 0.522479 0.344220
Si Si2 0.879882 0.928299 0.492968
Si Si3 0.499965 0.374445 0.353091
Si Si4 0.306509 0.994087 0.045831
Si Si5 0.625136 0.165232 0.368366
Si Si6 0.919220 0.281366 0.323659
O O1 0.142357 0.701368 0.223858
O O2 0.121836 0.560375 0.520254
O O3 0.000000 0.500000 0.500000
O O4 0.152927 0.402854 0.144966
O O5 0.971242 0.817772 0.390549
O O6 0.790626 0.923440 0.745729
O O7 0.921112 0.115371 0.430003
O O8 0.500000 0.500000 0.500000
O O9 0.395675 0.382680 0.437913
O O10 0.537282 0.210804 0.383613
O O11 0.579472 0.416075 0.096581
O O12 0.326110 0.833058 0.134226
O O13 0.310979 0.937750 0.852900
#
# Coordination Sequence:
#
# PCOD9240780 Si02
#       6
#     4   4   4   4   4   4
#     4   8  17  33  50  72 102 141 180 227 282 322
#     4   9  20  33  56  80 111 147 197 231 281 328
#     4   9  18  35  56  80 111 147 176 226 291 339
#     4  10  19  32  57  82 111 144 196 232 272 352
#     4   9  19  34  55  83 113 147 179 231 294 342
#     4   9  18  35  54  74 109 149 183 235 287 327
#
# _framework density 25.484639999999999
#
# number of rings (size 3 to 8) (size 9 to 14) (size 15 to 20)
#    1.000    2.000    0.000    0.500    2.333    0.667 
#    0.000    3.333    0.000    4.000    0.000    0.000 
#    0.000    0.000    0.000    0.000    0.000    0.000 
#
# Total GULP energy -133637.923771 kJ/mol
# GULP energy per Si atom -5568.246824 kJ/mol
# Density = 2.542664 g / cm^3
# Si number density = 25.484640 Si / 1000 Ang^3
#
#
#
# Elastic Constant Matrix: (Units=GPa)
#
#
# Indices 1 2 3 4 5 6 
#
# 1 87.7405 26.0339 53.0181 0.0000 -15.4293 0.0000
# 2 26.0339 44.7494 23.3124 0.0000 -3.6757 0.0000
# 3 53.0181 23.3124 198.1622 0.0000 8.4134 0.0000
# 4 0.0000 0.0000 0.0000 33.7864 0.0000 5.9933
# 5 -15.4293 -3.6757 8.4134 0.0000 36.4552 0.0000
# 6 0.0000 0.0000 0.0000 5.9933 0.0000 27.4743
#
#
#
# Elastic Compliance Matrix: (Units=1/GPa)
#
#
# Indices 1 2 3 4 5 6 
#
# 1 0.017395 -0.007357 -0.004110 0.000000 0.007569 0.000000
# 2 -0.007357 0.027264 -0.001236 0.000000 -0.000080 0.000000
# 3 -0.004110 -0.001236 0.006433 0.000000 -0.003349 0.000000
# 4 0.000000 0.000000 0.000000 0.030789 0.000000 -0.006716
# 5 0.007569 -0.000080 -0.003349 0.000000 0.031399 0.000000
# 6 0.000000 0.000000 0.000000 -0.006716 0.000000 0.037863
#
#
# Mechanical properties :
#
#
# Convention : Reuss Voigt Hill
#
# Bulk Modulus (GPa) = 38.92993 59.48677 49.20835
# Shear Modulus (GPa) = 27.01094 34.76234 30.88664
#
# Velocity S-wave (km/s) = 3.25913 3.69731 3.48511
# Velocity P-wave (km/s) = 5.42877 6.45133 5.96202
#
# Compressibility (1/GPa) = 0.02568718
#
# Stress axis : x y z
#
# Youngs Moduli (GPa) = 57.48939 36.67845 155.43690
#
# Poissons Ratio (x) = 0.26984 0.63881
# Poissons Ratio (y) = 0.42295 0.19207
# Poissons Ratio (z) = 0.23627 0.04532
#
# Static dielectric constant tensor:
#      x y z
#    x 2.109880 0.000000 0.074660 
#    y 0.000000 2.049350 0.000000 
#    z 0.074660 0.000000 2.124440 
# 
# From -- ./inp_files/18836.got.cif
#   From: 2010.05.17/outbox.cif.g08.bks.cpg/sg14_10_cif.got.tgz:18836.got - 2010.06.03 17:49:19.
