data_PCOD9240795
_publ_section_title
;
Structure prediction by ZEFSAII (Michael W. Deem and Ramdas Pophale) SiO2 
 PCOD9240795
Probable space group: P 21/C
;
_chemical_formula_sum "Si O2"
_cell_formula_units_Z 32
_cell_length_a 21.356377
_cell_length_b 14.222287
_cell_length_c 9.415761
_cell_angle_alpha 90.000000
_cell_angle_beta 152.026851
_cell_angle_gamma 90.000000
_cell_volume 1341.463125
_symmetry_space_group_name_H-M "P 21/C"
_symmetry_group_IT_number 14
_symmetry_cell_setting 'monoclinic'
loop_
_space_group_symop_operation_xyz
x,y,z
-x,1/2+y,1/2-z
-x,-y,-z
x,1/2-y,1/2+z
loop_
_atom_site_type_symbol
_atom_site_label
_atom_site_fract_x
_atom_site_fract_y
_atom_site_fract_z
Si Si1 0.520570 0.684064 0.261376
Si Si2 0.303934 0.275390 0.648932
Si Si3 0.955213 0.855401 0.338666
Si Si4 0.306716 0.831905 0.758284
Si Si5 0.304490 0.928497 0.461460
Si Si6 0.923185 0.196010 0.127122
Si Si7 0.095400 0.528561 0.907986
Si Si8 0.851732 0.599457 0.231249
O O1 0.626292 0.710010 0.594371
O O2 0.592556 0.681855 0.254253
O O3 0.423835 0.775505 0.066694
O O4 0.427812 0.593176 0.104838
O O5 0.203248 0.353804 0.506526
O O6 0.204456 0.203082 0.369747
O O7 0.013561 0.766336 0.363427
O O8 0.985051 0.844112 0.564654
O O9 0.026355 0.946956 0.416904
O O10 0.345921 0.868486 0.682937
O O11 0.186874 0.757530 0.508334
O O12 0.238540 0.919731 0.699650
O O13 0.260584 0.030200 0.428517
O O14 0.167315 0.883744 0.127563
O O15 0.121417 0.431211 0.878777
O O16 0.991417 0.581229 0.591204
#
# Coordination Sequence:
#
# PCOD9240795 Si02
#       8
#     4   4   4   4   4   4   4   4
#     4  11  23  39  62  91 124 172 224 254 297 383
#     4  12  24  40  64  94 129 170 219 265 310 376
#     4  11  21  37  63  96 127 167 211 273 321 380
#     4   9  17  36  59  92 117 157 207 265 302 366
#     4  10  20  38  64  91 127 167 212 267 315 382
#     4  10  19  32  63  93 121 159 214 266 324 369
#     4   9  20  38  65  95 127 156 211 265 335 380
#     4  10  22  40  66  97 131 167 205 270 334 394
#
# _framework density 23.854548999999999
#
# number of rings (size 3 to 8) (size 9 to 14) (size 15 to 20)
#    0.000    1.750    2.500    3.000    3.500    0.500 
#    0.000    0.625    2.750    3.000    0.000    0.000 
#    0.000    0.000    0.000    0.000    0.000    0.000 
#
# Total GULP energy -178907.111436 kJ/mol
# GULP energy per Si atom -5590.847232 kJ/mol
# Density = 2.380026 g / cm^3
# Si number density = 23.854549 Si / 1000 Ang^3
#
#
#
# Elastic Constant Matrix: (Units=GPa)
#
#
# Indices 1 2 3 4 5 6 
#
# 1 108.7857 22.1017 23.7374 0.0000 3.9060 0.0000
# 2 22.1017 62.5927 0.4432 0.0000 0.9886 0.0000
# 3 23.7374 0.4432 70.1980 0.0000 1.4631 0.0000
# 4 0.0000 0.0000 0.0000 23.3302 0.0000 0.8314
# 5 3.9060 0.9886 1.4631 0.0000 41.2404 0.0000
# 6 0.0000 0.0000 0.0000 0.8314 0.0000 32.6058
#
#
#
# Elastic Compliance Matrix: (Units=1/GPa)
#
#
# Indices 1 2 3 4 5 6 
#
# 1 0.010772 -0.003766 -0.003602 0.000000 -0.000802 0.000000
# 2 -0.003766 0.017299 0.001166 0.000000 -0.000099 0.000000
# 3 -0.003602 0.001166 0.015461 0.000000 -0.000235 0.000000
# 4 0.000000 0.000000 0.000000 0.042902 0.000000 -0.001094
# 5 -0.000802 -0.000099 -0.000235 0.000000 0.024335 0.000000
# 6 0.000000 0.000000 0.000000 -0.001094 0.000000 0.030697
#
#
# Mechanical properties :
#
#
# Convention : Reuss Voigt Hill
#
# Bulk Modulus (GPa) = 32.12388 37.12679 34.62533
# Shear Modulus (GPa) = 30.44215 32.45488 31.44852
#
# Velocity S-wave (km/s) = 3.57621 3.69254 3.63484
# Velocity P-wave (km/s) = 5.52704 5.81183 5.67122
#
# Compressibility (1/GPa) = 0.03112949
#
# Stress axis : x y z
#
# Youngs Moduli (GPa) = 92.83131 57.80594 64.67880
#
# Poissons Ratio (x) = 0.21767 0.23298
# Poissons Ratio (y) = 0.34956 -0.07543
# Poissons Ratio (z) = 0.33439 -0.06741
#
# Static dielectric constant tensor:
#      x y z
#    x 1.955190 0.000000 0.004990 
#    y 0.000000 1.937640 0.000000 
#    z 0.004990 0.000000 1.899310 
# 
# From -- ./inp_files/19181.got.cif
#   From: 2010.05.17/outbox.cif.g08.bks.cpg/sg14_10_cif.got.tgz:19181.got - 2010.06.03 17:49:19.
