data_PCOD9240261
_publ_section_title
;
Structure prediction by ZEFSAII (Michael W. Deem and Ramdas Pophale) SiO2 
 PCOD9240261
Probable space group: P 21/C
;
_chemical_formula_sum "Si O2"
_cell_formula_units_Z 20
_cell_length_a 23.991741
_cell_length_b 6.719773
_cell_length_c 13.393480
_cell_angle_alpha 90.000000
_cell_angle_beta 21.736050
_cell_angle_gamma 90.000000
_cell_volume 799.650483
_symmetry_space_group_name_H-M "P 21/C"
_symmetry_group_IT_number 14
_symmetry_cell_setting 'monoclinic'
loop_
_space_group_symop_operation_xyz
x,y,z
-x,1/2+y,1/2-z
-x,-y,-z
x,1/2-y,1/2+z
loop_
_atom_site_type_symbol
_atom_site_label
_atom_site_fract_x
_atom_site_fract_y
_atom_site_fract_z
Si Si1 0.399688 0.234825 0.994962
Si Si2 0.082480 0.925666 0.213555
Si Si3 0.192756 0.582004 0.919506
Si Si4 0.832051 0.741460 0.280940
Si Si5 0.717512 0.379909 0.893680
O O1 0.323022 0.177502 0.015626
O O2 0.345792 0.463739 0.085540
O O3 0.320141 0.086386 0.205000
O O4 0.574923 0.199068 0.691965
O O5 0.967354 0.830677 0.485079
O O6 0.152364 0.124282 0.142900
O O7 0.198428 0.756022 0.990178
O O8 0.972765 0.983492 0.304196
O O9 0.203540 0.702250 0.795966
O O10 0.819345 0.979486 0.294093
#
# Coordination Sequence:
#
# PCOD9240261 Si02
#       5
#     4   4   4   4   4
#     4   9  19  35  58  80 107 148 184 224 265 325
#     4  10  20  35  55  84 111 146 175 232 275 324
#     4  11  20  34  59  81 113 142 186 224 275 325
#     4   8  19  36  54  81 112 141 182 224 279 315
#     4  10  18  36  58  81 104 150 188 218 270 328
#
# _framework density 25.010928
#
# number of rings (size 3 to 8) (size 9 to 14) (size 15 to 20)
#    1.200    1.200    2.000    1.200    0.000    0.800 
#    0.000    6.000    0.000    2.400    0.000    0.000 
#    0.000    0.000    0.000    0.000    0.000    0.000 
#
# Total GULP energy -111709.250891 kJ/mol
# GULP energy per Si atom -5585.462545 kJ/mol
# Density = 2.495400 g / cm^3
# Si number density = 25.010928 Si / 1000 Ang^3
#
#
#
# Elastic Constant Matrix: (Units=GPa)
#
#
# Indices 1 2 3 4 5 6 
#
# 1 42.8432 15.7248 20.1536 0.0000 -4.1077 0.0000
# 2 15.7248 130.4912 37.0054 0.0000 5.0153 0.0000
# 3 20.1536 37.0054 68.6826 0.0000 -8.2300 0.0000
# 4 0.0000 0.0000 0.0000 46.5618 0.0000 10.1536
# 5 -4.1077 5.0153 -8.2300 0.0000 20.1175 0.0000
# 6 0.0000 0.0000 0.0000 10.1536 0.0000 50.8242
#
#
#
# Elastic Compliance Matrix: (Units=1/GPa)
#
#
# Indices 1 2 3 4 5 6 
#
# 1 0.027418 -0.001477 -0.006872 0.000000 0.003155 0.000000
# 2 -0.001477 0.009524 -0.005277 0.000000 -0.004835 0.000000
# 3 -0.006872 -0.005277 0.020409 0.000000 0.008262 0.000000
# 4 0.000000 0.000000 0.000000 0.022455 0.000000 -0.004486
# 5 0.003155 -0.004835 0.008262 0.000000 0.054937 0.000000
# 6 0.000000 0.000000 0.000000 -0.004486 0.000000 0.020572
#
#
# Mechanical properties :
#
#
# Convention : Reuss Voigt Hill
#
# Bulk Modulus (GPa) = 33.22261 43.08720 38.15490
# Shear Modulus (GPa) = 25.96062 34.77626 30.36844
#
# Velocity S-wave (km/s) = 3.22525 3.73291 3.48833
# Velocity P-wave (km/s) = 5.21361 5.98701 5.61364
#
# Compressibility (1/GPa) = 0.03009998
#
# Stress axis : x y z
#
# Youngs Moduli (GPa) = 36.47266 105.00167 48.99704
#
# Poissons Ratio (x) = 0.15504 0.33669
# Poissons Ratio (y) = 0.05385 0.25857
# Poissons Ratio (z) = 0.25062 0.55412
#
# Static dielectric constant tensor:
#      x y z
#    x 2.030180 0.000000 0.033270 
#    y 0.000000 1.988580 0.000000 
#    z 0.033270 0.000000 1.926920 
# 
# From -- ./inp_files/52196.got.cif
#   From: 2010.05.17/outbox.cif.g08.bks.cpg/sg14_27_cif.got.tgz:52196.got - 2010.06.03 17:49:19.
