data_PCOD9240645
_publ_section_title
;
Structure prediction by ZEFSAII (Michael W. Deem and Ramdas Pophale) SiO2 
 PCOD9240645
Probable space group: P 21/C
;
_chemical_formula_sum "Si O2"
_cell_formula_units_Z 32
_cell_length_a 6.562239
_cell_length_b 12.848212
_cell_length_c 23.172581
_cell_angle_alpha 90.000000
_cell_angle_beta 91.232225
_cell_angle_gamma 90.000000
_cell_volume 1953.298888
_symmetry_space_group_name_H-M "P 21/C"
_symmetry_group_IT_number 14
_symmetry_cell_setting 'monoclinic'
loop_
_space_group_symop_operation_xyz
x,y,z
-x,1/2+y,1/2-z
-x,-y,-z
x,1/2-y,1/2+z
loop_
_atom_site_type_symbol
_atom_site_label
_atom_site_fract_x
_atom_site_fract_y
_atom_site_fract_z
Si Si1 0.404963 0.546361 0.362831
Si Si2 0.211849 0.353966 0.223379
Si Si3 0.093034 0.399285 0.431277
Si Si4 0.035697 0.450555 0.774996
Si Si5 0.207299 0.084696 0.057608
Si Si6 0.973903 0.273151 0.326514
Si Si7 0.377583 0.908187 0.235296
Si Si8 0.966217 0.326813 0.660251
O O1 0.245261 0.469553 0.393613
O O2 0.576453 0.577144 0.410034
O O3 0.510704 0.485217 0.310115
O O4 0.274807 0.648730 0.343907
O O5 0.144278 0.327972 0.288050
O O6 0.454253 0.347067 0.226225
O O7 0.147561 0.471957 0.212169
O O8 0.070240 0.278269 0.184384
O O9 0.201198 0.374591 0.492384
O O10 0.016747 0.303995 0.392198
O O11 0.895574 0.470267 0.443682
O O12 0.003670 0.347892 0.812543
O O13 0.238426 0.520963 0.776524
O O14 0.033111 0.412366 0.708353
O O15 0.062661 0.150859 0.098883
O O16 0.766765 0.327012 0.300669
#
# Coordination Sequence:
#
# PCOD9240645 Si02
#       8
#     4   4   4   4   4   4   4   4
#     4  11  17  32  52  76 104 135 171 203 261 320
#     4  10  20  34  49  74 105 134 172 214 257 310
#     4  10  19  32  48  78 107 133 168 216 255 309
#     4  10  20  33  48  74 105 132 171 214 255 308
#     4  10  19  31  51  73 107 138 166 209 262 310
#     4  10  20  33  50  75 105 136 168 213 260 311
#     4  11  18  33  55  74 106 140 168 213 264 314
#     4  10  20  32  50  75 103 134 171 214 255 308
#
# _framework density 16.382541
#
# number of rings (size 3 to 8) (size 9 to 14) (size 15 to 20)
#    0.000    1.750    5.000    1.875    0.000    5.000 
#    0.000    0.000    0.000    0.750    0.000    1.750 
#    0.000    0.000    0.000    0.000    0.000    0.000 
#
# Total GULP energy -178181.256817 kJ/mol
# GULP energy per Si atom -5568.164276 kJ/mol
# Density = 1.634525 g / cm^3
# Si number density = 16.382541 Si / 1000 Ang^3
#
#
#
# Elastic Constant Matrix: (Units=GPa)
#
#
# Indices 1 2 3 4 5 6 
#
# 1 95.7798 33.2936 15.1090 0.0000 17.9731 0.0000
# 2 33.2936 64.3516 36.3411 0.0000 10.2050 0.0000
# 3 15.1090 36.3411 69.4955 0.0000 8.9838 0.0000
# 4 0.0000 0.0000 0.0000 18.1624 0.0000 2.4796
# 5 17.9731 10.2050 8.9838 0.0000 19.7599 0.0000
# 6 0.0000 0.0000 0.0000 2.4796 0.0000 17.3704
#
#
#
# Elastic Compliance Matrix: (Units=1/GPa)
#
#
# Indices 1 2 3 4 5 6 
#
# 1 0.014505 -0.006851 0.001782 0.000000 -0.010465 0.000000
# 2 -0.006851 0.026110 -0.011928 0.000000 -0.001830 0.000000
# 3 0.001782 -0.011928 0.020880 0.000000 -0.004954 0.000000
# 4 0.000000 0.000000 0.000000 0.056153 0.000000 -0.008016
# 5 -0.010465 -0.001830 -0.004954 0.000000 0.063324 0.000000
# 6 0.000000 0.000000 0.000000 -0.008016 0.000000 0.058714
#
#
# Mechanical properties :
#
#
# Convention : Reuss Voigt Hill
#
# Bulk Modulus (GPa) = 36.36219 44.34604 40.35411
# Shear Modulus (GPa) = 17.67749 20.71742 19.19745
#
# Velocity S-wave (km/s) = 3.28844 3.55998 3.42690
# Velocity P-wave (km/s) = 6.05495 6.63520 6.35170
#
# Compressibility (1/GPa) = 0.02750110
#
# Stress axis : x y z
#
# Youngs Moduli (GPa) = 68.94287 38.29909 47.89347
#
# Poissons Ratio (x) = 0.26239 -0.08534
# Poissons Ratio (y) = 0.47233 0.57126
# Poissons Ratio (z) = -0.12285 0.45682
#
# Static dielectric constant tensor:
#      x y z
#    x 1.598330 0.000000 0.010700 
#    y 0.000000 1.591460 0.000000 
#    z 0.010700 0.000000 1.551630 
# 
# From -- ./inp_files/71253.got.cif
#   From: 2010.05.17/outbox.cif.g08.bks.cpg/sg14_36_cif.got.tgz:71253.got - 2010.06.03 17:49:19.
