data_PCOD9240147
_publ_section_title
;
Structure prediction by ZEFSAII (Michael W. Deem and Ramdas Pophale) SiO2 
 PCOD9240147
Probable space group: P 21/C
;
_chemical_formula_sum "Si O2"
_cell_formula_units_Z 24
_cell_length_a 9.321723
_cell_length_b 9.970354
_cell_length_c 18.405500
_cell_angle_alpha 90.000000
_cell_angle_beta 51.356813
_cell_angle_gamma 90.000000
_cell_volume 1336.082351
_symmetry_space_group_name_H-M "P 21/C"
_symmetry_group_IT_number 14
_symmetry_cell_setting 'monoclinic'
loop_
_space_group_symop_operation_xyz
x,y,z
-x,1/2+y,1/2-z
-x,-y,-z
x,1/2-y,1/2+z
loop_
_atom_site_type_symbol
_atom_site_label
_atom_site_fract_x
_atom_site_fract_y
_atom_site_fract_z
Si Si1 0.175376 0.259044 0.432548
Si Si2 0.570985 0.956406 0.715273
Si Si3 0.832113 0.029265 0.157953
Si Si4 0.785285 0.303000 0.080466
Si Si5 0.514604 0.374795 0.593490
Si Si6 0.773168 0.596497 0.436281
O O1 0.341773 0.179257 0.343826
O O2 0.145205 0.401415 0.402028
O O3 0.215551 0.291685 0.504012
O O4 0.987357 0.174673 0.484438
O O5 0.370116 0.984859 0.744279
O O6 0.542600 0.937856 0.810646
O O7 0.706446 0.077239 0.653030
O O8 0.814325 0.167161 0.118119
O O9 0.019067 0.046062 0.143926
O O10 0.629634 0.259789 0.072433
O O11 0.654812 0.476086 0.509248
O O12 0.337387 0.356997 0.599183
#
# Coordination Sequence:
#
# PCOD9240147 Si02
#       6
#     4   4   4   4   4   4
#     4  11  19  37  58  82 111 152 187 226 275 338
#     4  11  22  33  57  87 115 141 186 237 277 325
#     4  10  18  35  57  78 106 149 193 220 264 338
#     4  10  19  36  56  82 111 147 186 226 278 332
#     4  10  20  35  58  82 109 140 190 229 274 323
#     4  10  19  36  58  81 104 148 187 230 266 333
#
# _framework density 17.962965000000001
#
# number of rings (size 3 to 8) (size 9 to 14) (size 15 to 20)
#    0.000    1.667    5.000    3.500    0.000    0.000 
#    0.000    9.167    0.000    0.000    0.000    0.000 
#    0.000    0.000    0.000    0.000    0.000    0.000 
#
# Total GULP energy -133747.646150 kJ/mol
# GULP energy per Si atom -5572.818590 kJ/mol
# Density = 1.792208 g / cm^3
# Si number density = 17.962965 Si / 1000 Ang^3
#
#
#
# Elastic Constant Matrix: (Units=GPa)
#
#
# Indices 1 2 3 4 5 6 
#
# 1 145.1969 19.8430 30.7407 0.0000 -21.5412 0.0000
# 2 19.8430 48.6649 14.6896 0.0000 -6.5889 0.0000
# 3 30.7407 14.6896 54.5961 0.0000 -26.6042 0.0000
# 4 0.0000 0.0000 0.0000 52.6402 0.0000 -14.7511
# 5 -21.5412 -6.5889 -26.6042 0.0000 28.8380 0.0000
# 6 0.0000 0.0000 0.0000 -14.7511 0.0000 15.7030
#
#
#
# Elastic Compliance Matrix: (Units=1/GPa)
#
#
# Indices 1 2 3 4 5 6 
#
# 1 0.008193 -0.002164 -0.002343 0.000000 0.003464 0.000000
# 2 -0.002164 0.022947 -0.005792 0.000000 -0.001718 0.000000
# 3 -0.002343 -0.005792 0.035782 0.000000 0.029937 0.000000
# 4 0.000000 0.000000 0.000000 0.025784 0.000000 0.024221
# 5 0.003464 -0.001718 0.029937 0.000000 0.064490 0.000000
# 6 0.000000 0.000000 0.000000 0.024221 0.000000 0.086435
#
#
# Mechanical properties :
#
#
# Convention : Reuss Voigt Hill
#
# Bulk Modulus (GPa) = 21.58762 42.11161 31.84961
# Shear Modulus (GPa) = 17.87815 31.64854 24.76335
#
# Velocity S-wave (km/s) = 3.15823 4.20203 3.71695
# Velocity P-wave (km/s) = 5.03420 6.85836 6.01582
#
# Compressibility (1/GPa) = 0.04632285
#
# Stress axis : x y z
#
# Youngs Moduli (GPa) = 122.05656 43.57834 27.94717
#
# Poissons Ratio (x) = 0.09433 0.06547
# Poissons Ratio (y) = 0.26419 0.16188
# Poissons Ratio (z) = 0.28594 0.25242
#
# Static dielectric constant tensor:
#      x y z
#    x 1.643500 0.000000 -0.048370 
#    y 0.000000 1.615620 0.000000 
#    z -0.048370 0.000000 1.649160 
# 
# From -- ./inp_files/39377.got.cif
#   From: 2010.05.17/outbox.cif.g08.bks.cpg/sg14_20_cif.got.tgz:39377.got - 2010.06.03 17:49:19.
