data_PCOD9240503
_publ_section_title
;
Structure prediction by ZEFSAII (Michael W. Deem and Ramdas Pophale) SiO2 
 PCOD9240503
Probable space group: P 21/C
;
_chemical_formula_sum "Si O2"
_cell_formula_units_Z 30
_cell_length_a 11.612232
_cell_length_b 7.960934
_cell_length_c 14.004732
_cell_angle_alpha 90.000000
_cell_angle_beta 93.546844
_cell_angle_gamma 90.000000
_cell_volume 1292.176575
_symmetry_space_group_name_H-M "P 21/C"
_symmetry_group_IT_number 14
_symmetry_cell_setting 'monoclinic'
loop_
_space_group_symop_operation_xyz
x,y,z
-x,1/2+y,1/2-z
-x,-y,-z
x,1/2-y,1/2+z
loop_
_atom_site_type_symbol
_atom_site_label
_atom_site_fract_x
_atom_site_fract_y
_atom_site_fract_z
Si Si1 0.915460 0.563227 0.329393
Si Si2 0.186450 0.201594 0.005418
Si Si3 0.488495 0.409509 0.342541
Si Si4 0.744630 0.731223 0.699433
Si Si5 0.000000 0.500000 0.000000
Si Si6 0.121800 0.705270 0.834037
Si Si7 0.547665 0.748745 0.454039
Si Si8 0.636130 0.399940 0.170072
O O1 0.862372 0.549686 0.432451
O O2 0.841130 0.719193 0.280715
O O3 0.896898 0.397272 0.266141
O O4 0.045852 0.627474 0.330142
O O5 0.094567 0.348405 0.011692
O O6 0.314387 0.258898 0.044091
O O7 0.199888 0.163550 0.894687
O O8 0.365242 0.384594 0.283840
O O9 0.511580 0.596115 0.381429
O O10 0.484874 0.302606 0.439805
O O11 0.586669 0.362387 0.272471
O O12 0.689515 0.914354 0.674790
O O13 0.925809 0.413380 0.084825
O O14 0.259174 0.722780 0.852295
O O15 0.468352 0.895169 0.409528
#
# Coordination Sequence:
#
# PCOD9240503 Si02
#       8
#     4   4   4   4   2   4   4   4
#     4  10  20  38  60  85 114 155 202 244 301 350
#     4  10  19  36  64  83 116 159 196 242 297 351
#     4  10  21  37  58  86 125 157 191 244 310 358
#     4  10  21  39  61  84 119 162 198 246 297 363
#     4  10  18  40  60  82 114 156 200 246 288 344
#     4  10  22  38  60  85 116 155 199 253 293 359
#     4  10  22  37  57  91 122 155 196 244 305 363
#     4  11  20  39  59  87 119 155 203 251 290 362
#
# _framework density 23.216640000000002
#
# number of rings (size 3 to 8) (size 9 to 14) (size 15 to 20)
#    0.000    1.867    2.667    3.200    0.000    3.200 
#    2.400    3.333    0.000    0.000    0.000    0.000 
#    0.000    0.000    0.000    0.000    0.000    0.000 
#
# Total GULP energy -167257.987090 kJ/mol
# GULP energy per Si atom -5575.266236 kJ/mol
# Density = 2.316380 g / cm^3
# Si number density = 23.216640 Si / 1000 Ang^3
#
#
#
# Elastic Constant Matrix: (Units=GPa)
#
#
# Indices 1 2 3 4 5 6 
#
# 1 118.1051 29.0385 36.0938 0.0000 -30.5566 0.0000
# 2 29.0385 30.0900 5.0917 0.0000 1.4523 0.0000
# 3 36.0938 5.0917 77.7964 0.0000 -32.0479 0.0000
# 4 0.0000 0.0000 0.0000 8.8339 0.0000 7.8013
# 5 -30.5566 1.4523 -32.0479 0.0000 42.0654 0.0000
# 6 0.0000 0.0000 0.0000 7.8013 0.0000 17.9777
#
#
#
# Elastic Compliance Matrix: (Units=1/GPa)
#
#
# Indices 1 2 3 4 5 6 
#
# 1 0.015403 -0.015027 -0.001953 0.000000 0.010220 0.000000
# 2 -0.015027 0.048767 -0.002055 0.000000 -0.014165 0.000000
# 3 -0.001953 -0.002055 0.019441 0.000000 0.013464 0.000000
# 4 0.000000 0.000000 0.000000 0.183535 0.000000 -0.079644
# 5 0.010220 -0.014165 0.013464 0.000000 0.041943 0.000000
# 6 0.000000 0.000000 0.000000 -0.079644 0.000000 0.090185
#
#
# Mechanical properties :
#
#
# Convention : Reuss Voigt Hill
#
# Bulk Modulus (GPa) = 21.95838 40.71548 31.33693
# Shear Modulus (GPa) = 11.04915 24.15991 17.60453
#
# Velocity S-wave (km/s) = 2.18391 3.22938 2.75666
# Velocity P-wave (km/s) = 3.97968 5.61074 4.86407
#
# Compressibility (1/GPa) = 0.04554069
#
# Stress axis : x y z
#
# Youngs Moduli (GPa) = 64.92415 20.50562 51.43823
#
# Poissons Ratio (x) = 0.30814 0.10044
# Poissons Ratio (y) = 0.97563 0.10571
# Poissons Ratio (z) = 0.12677 0.04214
#
# Static dielectric constant tensor:
#      x y z
#    x 1.890100 0.000000 0.041410 
#    y 0.000000 1.900150 0.000000 
#    z 0.041410 0.000000 1.898800 
# 
# From -- ./inp_files/43448.got.cif
#   From: 2010.05.17/outbox.cif.g08.bks.cpg/sg14_22_cif.got.tgz:43448.got - 2010.06.03 17:49:19.
