data_PCOD9240077
_publ_section_title
;
Structure prediction by ZEFSAII (Michael W. Deem and Ramdas Pophale) SiO2 
 PCOD9240077
Probable space group: P 21/C
;
_chemical_formula_sum "Si O2"
_cell_formula_units_Z 28
_cell_length_a 12.069885
_cell_length_b 8.459096
_cell_length_c 11.460888
_cell_angle_alpha 90.000000
_cell_angle_beta 67.193633
_cell_angle_gamma 90.000000
_cell_volume 1078.677252
_symmetry_space_group_name_H-M "P 21/C"
_symmetry_group_IT_number 14
_symmetry_cell_setting 'monoclinic'
loop_
_space_group_symop_operation_xyz
x,y,z
-x,1/2+y,1/2-z
-x,-y,-z
x,1/2-y,1/2+z
loop_
_atom_site_type_symbol
_atom_site_label
_atom_site_fract_x
_atom_site_fract_y
_atom_site_fract_z
Si Si1 0.127257 0.923942 0.636371
Si Si2 0.141818 0.105497 0.305167
Si Si3 0.280492 0.302013 0.074477
Si Si4 0.127287 0.445868 0.398861
Si Si5 0.430956 0.516337 0.151294
Si Si6 0.620238 0.525019 0.588078
Si Si7 0.289824 0.668287 0.653618
O O1 0.225861 0.040431 0.540318
O O2 0.120992 0.989673 0.770101
O O3 0.178716 0.748040 0.627060
O O4 0.996789 0.943746 0.637274
O O5 0.177330 0.183788 0.163646
O O6 0.143005 0.255911 0.390187
O O7 0.230567 0.955281 0.268012
O O8 0.346889 0.361430 0.164973
O O9 0.370873 0.205893 0.957152
O O10 0.246620 0.509421 0.412662
O O11 0.000000 0.500000 0.500000
O O12 0.472970 0.501422 0.268394
O O13 0.359469 0.681227 0.175292
O O14 0.500000 0.500000 0.000000
O O15 0.620009 0.418865 0.472535
#
# Coordination Sequence:
#
# PCOD9240077 Si02
#       7
#     4   4   4   4   4   4   4
#     4  10  18  36  57  89 133 167 208 262 302 376
#     4  10  18  34  59  88 134 167 209 264 304 376
#     4   9  20  39  61  89 124 165 205 263 313 384
#     4  11  20  34  59  91 129 182 208 246 323 380
#     4  11  24  46  68  90 125 162 213 278 336 382
#     4  11  21  42  65  87 131 165 209 262 327 386
#     4  10  21  39  63  95 127 162 218 272 314 386
#
# _framework density 25.957719000000001
#
# number of rings (size 3 to 8) (size 9 to 14) (size 15 to 20)
#    0.000    1.714    4.286    4.286    0.000    1.143 
#    5.143    4.286    0.000    0.000    0.000    0.000 
#    0.000    0.000    0.000    0.000    0.000    0.000 
#
# Total GULP energy -156431.072220 kJ/mol
# GULP energy per Si atom -5586.824008 kJ/mol
# Density = 2.589864 g / cm^3
# Si number density = 25.957719 Si / 1000 Ang^3
#
#
#
# Elastic Constant Matrix: (Units=GPa)
#
#
# Indices 1 2 3 4 5 6 
#
# 1 55.7777 17.5442 5.1916 0.0000 -13.6341 0.0000
# 2 17.5442 151.2754 66.6898 0.0000 -4.6353 0.0000
# 3 5.1916 66.6898 127.3019 0.0000 -6.5316 0.0000
# 4 0.0000 0.0000 0.0000 51.1223 0.0000 3.3696
# 5 -13.6341 -4.6353 -6.5316 0.0000 28.5737 0.0000
# 6 0.0000 0.0000 0.0000 3.3696 0.0000 27.9422
#
#
#
# Elastic Compliance Matrix: (Units=1/GPa)
#
#
# Indices 1 2 3 4 5 6 
#
# 1 0.021056 -0.002580 0.000999 0.000000 0.009857 0.000000
# 2 -0.002580 0.008916 -0.004608 0.000000 -0.000838 0.000000
# 3 0.000999 -0.004608 0.010336 0.000000 0.002092 0.000000
# 4 0.000000 0.000000 0.000000 0.019718 0.000000 -0.002378
# 5 0.009857 -0.000838 0.002092 0.000000 0.040043 0.000000
# 6 0.000000 0.000000 0.000000 -0.002378 0.000000 0.036075
#
#
# Mechanical properties :
#
#
# Convention : Reuss Voigt Hill
#
# Bulk Modulus (GPa) = 35.80611 57.02293 46.41452
# Shear Modulus (GPa) = 31.67913 37.85627 34.76770
#
# Velocity S-wave (km/s) = 3.49723 3.82302 3.66375
# Velocity P-wave (km/s) = 5.48921 6.44225 5.98473
#
# Compressibility (1/GPa) = 0.02792819
#
# Stress axis : x y z
#
# Youngs Moduli (GPa) = 47.49170 112.16231 96.74775
#
# Poissons Ratio (x) = 0.28941 -0.09663
# Poissons Ratio (y) = 0.12254 0.44586
# Poissons Ratio (z) = -0.04743 0.51689
#
# Static dielectric constant tensor:
#      x y z
#    x 2.125350 0.000000 -0.021220 
#    y 0.000000 2.052600 0.000000 
#    z -0.021220 0.000000 2.115530 
# 
# From -- ./inp_files/31716.got.cif
#   From: 2010.05.17/outbox.cif.g08.bks.cpg/sg14_16_cif.got.tgz:31716.got - 2010.06.03 17:49:19.
