data_PCOD9240016
_publ_section_title
;
Structure prediction by ZEFSAII (Michael W. Deem and Ramdas Pophale) SiO2 
 PCOD9240016
Probable space group: P 21/C
;
_chemical_formula_sum "Si O2"
_cell_formula_units_Z 32
_cell_length_a 23.380891
_cell_length_b 8.212399
_cell_length_c 8.643333
_cell_angle_alpha 90.000000
_cell_angle_beta 79.318782
_cell_angle_gamma 90.000000
_cell_volume 1630.878606
_symmetry_space_group_name_H-M "P 21/C"
_symmetry_group_IT_number 14
_symmetry_cell_setting 'monoclinic'
loop_
_space_group_symop_operation_xyz
x,y,z
-x,1/2+y,1/2-z
-x,-y,-z
x,1/2-y,1/2+z
loop_
_atom_site_type_symbol
_atom_site_label
_atom_site_fract_x
_atom_site_fract_y
_atom_site_fract_z
Si Si1 0.048259 0.925266 0.181097
Si Si2 0.981859 0.738910 0.977206
Si Si3 0.366013 0.390013 0.512598
Si Si4 0.792171 0.840734 0.440461
Si Si5 0.865811 0.904239 0.684082
Si Si6 0.290855 0.171506 0.769528
Si Si7 0.469524 0.133585 0.406897
Si Si8 0.550120 0.419802 0.369787
O O1 0.002708 0.891005 0.341471
O O2 0.034724 0.094583 0.102644
O O3 0.111521 0.943940 0.226135
O O4 0.035021 0.784357 0.064403
O O5 0.925020 0.683421 0.097692
O O6 0.319263 0.319568 0.657538
O O7 0.341069 0.405479 0.351493
O O8 0.417692 0.252493 0.490249
O O9 0.392215 0.560380 0.558219
O O10 0.831086 0.941585 0.542872
O O11 0.831292 0.719880 0.314746
O O12 0.753629 0.736114 0.579272
O O13 0.747071 0.922890 0.341561
O O14 0.523354 0.249357 0.331686
O O15 0.500000 0.000000 0.500000
O O16 0.442408 0.034380 0.280471
O O17 0.500000 0.500000 0.500000
#
# Coordination Sequence:
#
# PCOD9240016 Si02
#       8
#     4   4   4   4   4   4   4   4
#     4  11  22  35  53  80 122 153 187 224 281 353
#     4  11  22  35  54  83 122 154 185 230 285 353
#     4  10  18  34  55  81 118 144 184 236 285 333
#     4   9  19  32  55  83 110 142 191 254 284 318
#     4  11  18  35  54  84 116 144 187 240 283 340
#     4   9  18  33  53  82 110 140 197 251 284 316
#     4  11  22  35  53  84 122 149 185 216 273 348
#     4  10  20  33  52  79 119 154 178 222 269 336
#
# _framework density 19.621326
#
# number of rings (size 3 to 8) (size 9 to 14) (size 15 to 20)
#    0.000    1.750    3.750    1.875    1.750    0.000 
#    0.000    0.000    0.000    0.000    0.000   26.250 
#    0.000    0.000    0.000    0.000    0.000    0.000 
#
# Total GULP energy -178146.799413 kJ/mol
# GULP energy per Si atom -5567.087482 kJ/mol
# Density = 1.957667 g / cm^3
# Si number density = 19.621326 Si / 1000 Ang^3
#
#
#
# Elastic Constant Matrix: (Units=GPa)
#
#
# Indices 1 2 3 4 5 6 
#
# 1 93.3947 14.3546 32.7427 0.0000 37.0986 0.0000
# 2 14.3546 38.1382 5.0715 0.0000 3.8816 0.0000
# 3 32.7427 5.0715 88.4941 0.0000 21.4304 0.0000
# 4 0.0000 0.0000 0.0000 23.8708 0.0000 6.8884
# 5 37.0986 3.8816 21.4304 0.0000 60.1020 0.0000
# 6 0.0000 0.0000 0.0000 6.8884 0.0000 14.3097
#
#
#
# Elastic Compliance Matrix: (Units=1/GPa)
#
#
# Indices 1 2 3 4 5 6 
#
# 1 0.015991 -0.004692 -0.003645 0.000000 -0.008267 0.000000
# 2 -0.004692 0.027889 -0.000139 0.000000 0.001145 0.000000
# 3 -0.003645 -0.000139 0.013254 0.000000 -0.002467 0.000000
# 4 0.000000 0.000000 0.000000 0.048650 0.000000 -0.023419
# 5 -0.008267 0.001145 -0.002467 0.000000 0.022547 0.000000
# 6 0.000000 0.000000 0.000000 -0.023419 0.000000 0.081157
#
#
# Mechanical properties :
#
#
# Convention : Reuss Voigt Hill
#
# Bulk Modulus (GPa) = 24.88858 36.04051 30.46454
# Shear Modulus (GPa) = 20.84767 30.84703 25.84735
#
# Velocity S-wave (km/s) = 3.26314 3.96930 3.63341
# Velocity P-wave (km/s) = 5.18743 6.27813 5.75866
#
# Compressibility (1/GPa) = 0.04017907
#
# Stress axis : x y z
#
# Youngs Moduli (GPa) = 62.53706 35.85704 75.44678
#
# Poissons Ratio (x) = 0.16825 0.27504
# Poissons Ratio (y) = 0.29345 0.01052
# Poissons Ratio (z) = 0.22798 0.00500
#
# Static dielectric constant tensor:
#      x y z
#    x 1.785230 0.000000 0.069890 
#    y 0.000000 1.701140 0.000000 
#    z 0.069890 0.000000 1.739270 
# 
# From -- ./inp_files/19330.got.cif
#   From: 2010.05.17/outbox.cif.g08.bks.cpg/sg14_10_cif.got.tgz:19330.got - 2010.06.03 17:49:19.
