data_PCOD9240301
_publ_section_title
;
Structure prediction by ZEFSAII (Michael W. Deem and Ramdas Pophale) SiO2 
 PCOD9240301
Probable space group: P 21/C
;
_chemical_formula_sum "Si O2"
_cell_formula_units_Z 30
_cell_length_a 10.925343
_cell_length_b 14.646552
_cell_length_c 24.106524
_cell_angle_alpha 90.000000
_cell_angle_beta 22.230239
_cell_angle_gamma 90.000000
_cell_volume 1459.402684
_symmetry_space_group_name_H-M "P 21/C"
_symmetry_group_IT_number 14
_symmetry_cell_setting 'monoclinic'
loop_
_space_group_symop_operation_xyz
x,y,z
-x,1/2+y,1/2-z
-x,-y,-z
x,1/2-y,1/2+z
loop_
_atom_site_type_symbol
_atom_site_label
_atom_site_fract_x
_atom_site_fract_y
_atom_site_fract_z
Si Si1 0.577333 0.684243 0.665311
Si Si2 0.894482 0.174372 0.533273
Si Si3 0.028650 0.567899 0.102199
Si Si4 0.560329 0.708713 0.355954
Si Si5 0.738210 0.090646 0.792514
Si Si6 0.000000 0.000000 0.000000
Si Si7 0.186966 0.537426 0.550078
Si Si8 0.257650 0.103715 0.668271
O O1 0.322496 0.666315 0.821308
O O2 0.392262 0.679192 0.684235
O O3 0.764175 0.778932 0.596332
O O4 0.835793 0.601597 0.557341
O O5 0.928542 0.083854 0.481340
O O6 0.698367 0.244010 0.575838
O O7 0.821651 0.654210 0.210220
O O8 0.827819 0.480473 0.205493
O O9 0.373602 0.569537 0.987761
O O10 0.382319 0.633182 0.467530
O O11 0.720701 0.790978 0.321821
O O12 0.048254 0.099661 0.700849
O O13 0.448598 0.042848 0.948049
O O14 0.959085 0.025467 0.950231
O O15 0.920923 0.545811 0.708989
#
# Coordination Sequence:
#
# PCOD9240301 Si02
#       8
#     4   4   4   4   4   2   4   4
#     4  11  23  38  62  89 130 160 201 266 314 380
#     4  11  20  39  63  91 122 159 210 258 321 377
#     4  10  21  37  64  87 117 158 211 264 303 368
#     4  10  19  35  60  92 113 156 208 256 298 372
#     4  10  24  41  55  90 127 164 202 259 313 374
#     4  10  18  36  62  94 120 150 202 258 314 354
#     4  10  20  36  62  89 119 163 204 253 311 367
#     4  11  20  37  62  87 122 164 214 249 302 371
#
# _framework density 20.556355
#
# number of rings (size 3 to 8) (size 9 to 14) (size 15 to 20)
#    0.000    1.600    2.667    4.000    0.000    0.533 
#    4.800    4.000    0.000    0.000    0.000    0.000 
#    0.000    0.000    0.000    0.000    0.000    0.000 
#
# Total GULP energy -167073.763227 kJ/mol
# GULP energy per Si atom -5569.125441 kJ/mol
# Density = 2.050957 g / cm^3
# Si number density = 20.556355 Si / 1000 Ang^3
#
#
#
# Elastic Constant Matrix: (Units=GPa)
#
#
# Indices 1 2 3 4 5 6 
#
# 1 93.1673 29.9536 10.9781 0.0000 -16.7600 0.0000
# 2 29.9536 29.7950 4.6466 0.0000 -0.2594 0.0000
# 3 10.9781 4.6466 63.8916 0.0000 -2.3407 0.0000
# 4 0.0000 0.0000 0.0000 2.6596 0.0000 -8.1448
# 5 -16.7600 -0.2594 -2.3407 0.0000 20.3767 0.0000
# 6 0.0000 0.0000 0.0000 -8.1448 0.0000 23.5494
#
#
#
# Elastic Compliance Matrix: (Units=1/GPa)
#
#
# Indices 1 2 3 4 5 6 
#
# 1 0.020251 -0.019995 -0.001431 0.000000 0.016238 0.000000
# 2 -0.019995 0.053690 -0.001051 0.000000 -0.015883 0.000000
# 3 -0.001431 -0.001051 0.015997 0.000000 0.000648 0.000000
# 4 0.000000 0.000000 0.000000 -6.354481 0.000000 -2.197754
# 5 0.016238 -0.015883 0.000648 0.000000 0.062304 0.000000
# 6 0.000000 0.000000 0.000000 -2.197754 0.000000 -0.717649
#
#
# Mechanical properties :
#
#
# Convention : Reuss Voigt Hill
#
# Bulk Modulus (GPa) = 22.22926 30.89005 26.55966
# Shear Modulus (GPa) = -0.72887 18.73549 9.00331
#
# Velocity S-wave (km/s) = -0.59610 3.02225 2.09507
# Velocity P-wave (km/s) = 3.21924 5.21903 4.33600
#
# Compressibility (1/GPa) = 0.04498575
#
# Stress axis : x y z
#
# Youngs Moduli (GPa) = 49.37913 18.62556 62.50985
#
# Poissons Ratio (x) = 0.37241 0.08943
# Poissons Ratio (y) = 0.98733 0.06569
# Poissons Ratio (z) = 0.07064 0.01957
#
# Static dielectric constant tensor:
#      x y z
#    x 1.734010 0.000000 -0.002160 
#    y 0.000000 1.729190 0.000000 
#    z -0.002160 0.000000 1.760260 
# 
# From -- ./inp_files/13108.got.cif
#   From: 2010.05.17/outbox.cif.g08.bks.cpg/sg14_7_cif.got.tgz:13108.got - 2010.06.03 17:49:19.
