data_PCOD9240669
_publ_section_title
;
Structure prediction by ZEFSAII (Michael W. Deem and Ramdas Pophale) SiO2 
 PCOD9240669
Probable space group: P 21/C
;
_chemical_formula_sum "Si O2"
_cell_formula_units_Z 32
_cell_length_a 12.611205
_cell_length_b 20.382173
_cell_length_c 7.603735
_cell_angle_alpha 90.000000
_cell_angle_beta 107.545684
_cell_angle_gamma 90.000000
_cell_volume 1863.563562
_symmetry_space_group_name_H-M "P 21/C"
_symmetry_group_IT_number 14
_symmetry_cell_setting 'monoclinic'
loop_
_space_group_symop_operation_xyz
x,y,z
-x,1/2+y,1/2-z
-x,-y,-z
x,1/2-y,1/2+z
loop_
_atom_site_type_symbol
_atom_site_label
_atom_site_fract_x
_atom_site_fract_y
_atom_site_fract_z
Si Si1 0.566459 0.408299 0.494104
Si Si2 0.433541 0.591701 0.927645
Si Si3 0.332213 0.049415 0.965056
Si Si4 0.090389 0.904595 0.545195
Si Si5 0.667787 0.950585 0.632843
Si Si6 0.159997 0.057572 0.579999
Si Si7 0.777308 0.173502 0.680081
Si Si8 0.222692 0.673503 0.402773
O O1 0.552723 0.410377 0.276361
O O2 0.624952 0.477244 0.574293
O O3 0.443563 0.406719 0.511367
O O4 0.652724 0.351246 0.581640
O O5 0.375049 0.522756 0.949341
O O6 0.347276 0.648754 0.928916
O O7 0.556437 0.593282 0.067804
O O8 0.235767 0.071773 0.787530
O O9 0.294175 0.044092 0.147088
O O10 0.139637 0.868232 0.399003
O O11 0.139637 0.868231 0.740633
O O12 0.956997 0.905345 0.478498
O O13 0.131081 0.979951 0.565542
O O14 0.764233 0.928227 0.551762
O O15 0.789452 0.250000 0.644725
O O16 0.793495 0.161537 0.896748
#
# Coordination Sequence:
#
# PCOD9240669 Si02
#       8
#     4   4   4   4   4   4   4   4
#     4   9  18  31  52  85 118 141 177 227 282 341
#     4   9  18  31  52  85 118 141 177 227 282 341
#     4  10  19  31  54  83 115 149 180 225 280 344
#     4  11  24  38  57  82 116 155 190 240 287 336
#     4  10  19  31  54  83 115 149 180 225 280 344
#     4  11  22  38  55  82 122 150 191 235 286 350
#     4  11  22  37  59  87 112 146 192 241 287 339
#     4  11  22  37  59  87 112 146 192 241 287 339
#
# _framework density 17.171403000000002
#
# number of rings (size 3 to 8) (size 9 to 14) (size 15 to 20)
#    0.000    1.750    5.000    0.000    3.500    1.000 
#    0.000    2.500    0.000    1.500    0.000    0.000 
#    0.000    0.000    0.000    0.000    0.000    0.000 
#
# Total GULP energy -178585.452318 kJ/mol
# GULP energy per Si atom -5580.795385 kJ/mol
# Density = 1.713232 g / cm^3
# Si number density = 17.171403 Si / 1000 Ang^3
#
#
#
# Elastic Constant Matrix: (Units=GPa)
#
#
# Indices 1 2 3 4 5 6 
#
# 1 130.1322 34.0399 68.6396 0.0000 7.7593 0.0000
# 2 34.0399 62.1751 26.3435 0.0000 5.1123 0.0000
# 3 68.6396 26.3435 109.5677 0.0000 5.9008 0.0000
# 4 0.0000 0.0000 0.0000 12.0031 0.0000 4.2847
# 5 7.7593 5.1123 5.9008 0.0000 26.1401 0.0000
# 6 0.0000 0.0000 0.0000 4.2847 0.0000 18.4539
#
#
#
# Elastic Compliance Matrix: (Units=1/GPa)
#
#
# Indices 1 2 3 4 5 6 
#
# 1 0.012301 -0.003771 -0.006724 0.000000 -0.001396 0.000000
# 2 -0.003771 0.019235 -0.002146 0.000000 -0.002158 0.000000
# 3 -0.006724 -0.002146 0.013894 0.000000 -0.000721 0.000000
# 4 0.000000 0.000000 0.000000 0.090841 0.000000 -0.021092
# 5 -0.001396 -0.002158 -0.000721 0.000000 0.039254 0.000000
# 6 0.000000 0.000000 0.000000 -0.021092 0.000000 0.059086
#
#
# Mechanical properties :
#
#
# Convention : Reuss Voigt Hill
#
# Bulk Modulus (GPa) = 49.63413 62.21345 55.92379
# Shear Modulus (GPa) = 18.75404 22.84289 20.79847
#
# Velocity S-wave (km/s) = 3.30838 3.65127 3.48404
# Velocity P-wave (km/s) = 6.60013 7.35426 6.98738
#
# Compressibility (1/GPa) = 0.02014743
#
# Stress axis : x y z
#
# Youngs Moduli (GPa) = 81.29553 51.98906 71.97335
#
# Poissons Ratio (x) = 0.19603 0.48396
# Poissons Ratio (y) = 0.30654 0.15447
# Poissons Ratio (z) = 0.54664 0.11158
#
# Static dielectric constant tensor:
#      x y z
#    x 1.580240 0.000000 -0.016560 
#    y 0.000000 1.567780 0.000000 
#    z -0.016560 0.000000 1.605170 
# 
# From -- ./inp_files/13901.got.cif
#   From: 2010.05.17/outbox.cif.g08.bks.cpg/sg14_7_cif.got.tgz:13901.got - 2010.06.03 17:49:19.
