data_PCOD9240571
_publ_section_title
;
Structure prediction by ZEFSAII (Michael W. Deem and Ramdas Pophale) SiO2 
 PCOD9240571
Probable space group: P 21/C
;
_chemical_formula_sum "Si O2"
_cell_formula_units_Z 32
_cell_length_a 16.134220
_cell_length_b 19.428457
_cell_length_c 5.408776
_cell_angle_alpha 90.000000
_cell_angle_beta 79.558808
_cell_angle_gamma 90.000000
_cell_volume 1667.376910
_symmetry_space_group_name_H-M "P 21/C"
_symmetry_group_IT_number 14
_symmetry_cell_setting 'monoclinic'
loop_
_space_group_symop_operation_xyz
x,y,z
-x,1/2+y,1/2-z
-x,-y,-z
x,1/2-y,1/2+z
loop_
_atom_site_type_symbol
_atom_site_label
_atom_site_fract_x
_atom_site_fract_y
_atom_site_fract_z
Si Si1 0.117282 0.931891 0.912977
Si Si2 0.698361 0.712386 0.116390
Si Si3 0.386093 0.496598 0.813173
Si Si4 0.163337 0.392422 0.879661
Si Si5 0.565105 0.574344 0.716097
Si Si6 0.794108 0.446236 0.134770
Si Si7 0.074972 0.096452 0.928086
Si Si8 0.514867 0.732961 0.729640
O O1 0.162207 0.914115 0.630408
O O2 0.099177 0.014720 0.916107
O O3 0.174774 0.916459 0.120810
O O4 0.025350 0.898738 0.991766
O O5 0.723748 0.761098 0.332115
O O6 0.746007 0.642260 0.141464
O O7 0.596703 0.716228 0.179418
O O8 0.472560 0.540081 0.774875
O O9 0.390889 0.452775 0.557138
O O10 0.305951 0.546636 0.844064
O O11 0.386480 0.451048 0.063932
O O12 0.175064 0.474285 0.874344
O O13 0.120320 0.372578 0.644427
O O14 0.108108 0.374558 0.150326
O O15 0.551125 0.655959 0.714552
O O16 0.466877 0.748749 0.504382
#
# Coordination Sequence:
#
# PCOD9240571 Si02
#       8
#     4   4   4   4   4   4   4   4
#     4   9  17  30  44  70  94 126 159 198 244 292
#     4  10  21  31  43  66  96 130 166 211 243 283
#     4  10  21  34  52  75 101 144 171 225 254 322
#     4  10  19  29  44  68  92 133 167 200 244 300
#     4  10  21  36  52  71 105 139 185 205 269 320
#     4  10  19  28  48  71  97 126 169 212 247 300
#     4   9  17  30  46  62  97 129 158 197 238 292
#     4  10  21  34  51  73  96 139 170 222 251 302
#
# _framework density 19.19182
#
# number of rings (size 3 to 8) (size 9 to 14) (size 15 to 20)
#    0.000    2.250    0.000    3.000    7.000    3.000 
#    0.000    0.000    0.000    0.000    0.000    0.000 
#    0.000   20.000    0.000    0.000    0.000    0.000 
#
# Total GULP energy -178511.311467 kJ/mol
# GULP energy per Si atom -5578.478483 kJ/mol
# Density = 1.914814 g / cm^3
# Si number density = 19.191820 Si / 1000 Ang^3
#
#
#
# Elastic Constant Matrix: (Units=GPa)
#
#
# Indices 1 2 3 4 5 6 
#
# 1 63.2999 -3.1133 24.4441 0.0000 4.8503 0.0000
# 2 -3.1133 19.1070 19.7202 0.0000 3.7891 0.0000
# 3 24.4441 19.7202 113.4197 0.0000 22.0266 0.0000
# 4 0.0000 0.0000 0.0000 17.4204 0.0000 4.4777
# 5 4.8503 3.7891 22.0266 0.0000 25.0408 0.0000
# 6 0.0000 0.0000 0.0000 4.4777 0.0000 4.9341
#
#
#
# Elastic Compliance Matrix: (Units=1/GPa)
#
#
# Indices 1 2 3 4 5 6 
#
# 1 0.018324 0.008606 -0.005431 0.000000 -0.000074 0.000000
# 2 0.008606 0.067824 -0.013665 0.000000 0.000090 0.000000
# 3 -0.005431 -0.013665 0.014180 0.000000 -0.009353 0.000000
# 4 0.000000 0.000000 0.000000 0.074867 0.000000 -0.067942
# 5 -0.000074 0.000090 -0.009353 0.000000 0.048163 0.000000
# 6 0.000000 0.000000 0.000000 -0.067942 0.000000 0.264329
#
#
# Mechanical properties :
#
#
# Convention : Reuss Voigt Hill
#
# Bulk Modulus (GPa) = 12.60274 30.88097 21.74185
# Shear Modulus (GPa) = 9.34375 19.79745 14.57060
#
# Velocity S-wave (km/s) = 2.20889 3.21527 2.75836
# Velocity P-wave (km/s) = 3.61753 5.46896 4.63660
#
# Compressibility (1/GPa) = 0.07934782
#
# Stress axis : x y z
#
# Youngs Moduli (GPa) = 54.57322 14.74396 70.52389
#
# Poissons Ratio (x) = -0.12688 0.38302
# Poissons Ratio (y) = -0.46964 0.96369
# Poissons Ratio (z) = 0.29639 0.20147
#
# Static dielectric constant tensor:
#      x y z
#    x 1.663080 0.000000 0.019340 
#    y 0.000000 1.663120 0.000000 
#    z 0.019340 0.000000 1.729960 
# 
# From -- ./inp_files/3860.got.cif
#   From: 2010.05.17/outbox.cif.g08.bks.cpg/sg14_2_cif.got.tgz:3860.got - 2010.06.03 17:49:19.
