data_PCOD9240311
_publ_section_title
;
Structure prediction by ZEFSAII (Michael W. Deem and Ramdas Pophale) SiO2 
 PCOD9240311
Probable space group: P 21/C
;
_chemical_formula_sum "Si O2"
_cell_formula_units_Z 24
_cell_length_a 9.381869
_cell_length_b 11.470195
_cell_length_c 8.659510
_cell_angle_alpha 90.000000
_cell_angle_beta 91.092426
_cell_angle_gamma 90.000000
_cell_volume 931.696663
_symmetry_space_group_name_H-M "P 21/C"
_symmetry_group_IT_number 14
_symmetry_cell_setting 'monoclinic'
loop_
_space_group_symop_operation_xyz
x,y,z
-x,1/2+y,1/2-z
-x,-y,-z
x,1/2-y,1/2+z
loop_
_atom_site_type_symbol
_atom_site_label
_atom_site_fract_x
_atom_site_fract_y
_atom_site_fract_z
Si Si1 0.551442 0.176546 0.567096
Si Si2 0.211655 0.969152 0.610126
Si Si3 0.237833 0.637949 0.407170
Si Si4 0.525952 0.109311 0.887194
Si Si5 0.936451 0.626109 0.453852
Si Si6 0.102181 0.346957 0.880572
O O1 0.660666 0.100433 0.469850
O O2 0.650774 0.270795 0.658694
O O3 0.466404 0.268511 0.458073
O O4 0.488470 0.103014 0.706730
O O5 0.238056 0.972217 0.794476
O O6 0.059746 0.898577 0.603107
O O7 0.189531 0.086087 0.514113
O O8 0.301565 0.617534 0.577894
O O9 0.082739 0.691487 0.406571
O O10 0.500000 0.000000 0.000000
O O11 0.000000 0.500000 0.500000
O O12 0.884137 0.709442 0.587520
O O13 0.849442 0.622180 0.293050
#
# Coordination Sequence:
#
# PCOD9240311 Si02
#       6
#     4   4   4   4   4   4
#     4  10  18  36  64  85 114 148 198 249 313 362
#     4  10  19  36  59  90 115 161 197 253 286 368
#     4   9  19  36  61  84 117 155 207 239 306 365
#     4  10  21  37  65  90 110 148 207 256 313 376
#     4  11  24  36  57  88 130 171 202 248 295 353
#     4  10  23  33  57  88 128 158 214 238 290 352
#
# _framework density 25.759459
#
# number of rings (size 3 to 8) (size 9 to 14) (size 15 to 20)
#    1.000    1.000    3.333    0.000   11.667    0.000 
#    0.000    3.333    7.333    0.000    0.000    0.000 
#    0.000    0.000    0.000    0.000    0.000    0.000 
#
# Total GULP energy -133725.293252 kJ/mol
# GULP energy per Si atom -5571.887219 kJ/mol
# Density = 2.570083 g / cm^3
# Si number density = 25.759459 Si / 1000 Ang^3
#
#
#
# Elastic Constant Matrix: (Units=GPa)
#
#
# Indices 1 2 3 4 5 6 
#
# 1 35.2801 -4.9721 -1.1259 0.0000 1.5023 0.0000
# 2 -4.9721 143.0066 46.1264 0.0000 2.7619 0.0000
# 3 -1.1259 46.1264 133.2006 0.0000 13.6515 0.0000
# 4 0.0000 0.0000 0.0000 45.6311 0.0000 -9.3449
# 5 1.5023 2.7619 13.6515 0.0000 31.3263 0.0000
# 6 0.0000 0.0000 0.0000 -9.3449 0.0000 24.1278
#
#
#
# Elastic Compliance Matrix: (Units=1/GPa)
#
#
# Indices 1 2 3 4 5 6 
#
# 1 0.028551 0.001007 0.000044 0.000000 -0.001477 0.000000
# 2 0.001007 0.007915 -0.002780 0.000000 0.000465 0.000000
# 3 0.000044 -0.002780 0.008841 0.000000 -0.003610 0.000000
# 4 0.000000 0.000000 0.000000 0.023803 0.000000 0.009219
# 5 -0.001477 0.000465 -0.003610 0.000000 0.033525 0.000000
# 6 0.000000 0.000000 0.000000 0.009219 0.000000 0.045017
#
#
# Mechanical properties :
#
#
# Convention : Reuss Voigt Hill
#
# Bulk Modulus (GPa) = 23.89583 43.50490 33.70037
# Shear Modulus (GPa) = 30.29220 38.31431 34.30326
#
# Velocity S-wave (km/s) = 3.43295 3.86085 3.65317
# Velocity P-wave (km/s) = 5.00102 6.06634 5.55926
#
# Compressibility (1/GPa) = 0.04184830
#
# Stress axis : x y z
#
# Youngs Moduli (GPa) = 35.02530 126.33490 113.11494
#
# Poissons Ratio (x) = -0.12722 -0.00498
# Poissons Ratio (y) = -0.03527 0.31449
# Poissons Ratio (z) = -0.00154 0.35124
#
# Static dielectric constant tensor:
#      x y z
#    x 2.164390 0.000000 -0.033750 
#    y 0.000000 2.092730 0.000000 
#    z -0.033750 0.000000 2.016630 
# 
# From -- ./inp_files/15219.got.cif
#   From: 2010.05.17/outbox.cif.g08.bks.cpg/sg14_8_cif.got.tgz:15219.got - 2010.06.03 17:49:19.
