data_PCOD9240643
_publ_section_title
;
Structure prediction by ZEFSAII (Michael W. Deem and Ramdas Pophale) SiO2 
 PCOD9240643
Probable space group: P 21/C
;
_chemical_formula_sum "Si O2"
_cell_formula_units_Z 32
_cell_length_a 15.660025
_cell_length_b 11.424485
_cell_length_c 13.601143
_cell_angle_alpha 90.000000
_cell_angle_beta 150.550044
_cell_angle_gamma 90.000000
_cell_volume 1196.388339
_symmetry_space_group_name_H-M "P 21/C"
_symmetry_group_IT_number 14
_symmetry_cell_setting 'monoclinic'
loop_
_space_group_symop_operation_xyz
x,y,z
-x,1/2+y,1/2-z
-x,-y,-z
x,1/2-y,1/2+z
loop_
_atom_site_type_symbol
_atom_site_label
_atom_site_fract_x
_atom_site_fract_y
_atom_site_fract_z
Si Si1 0.043222 0.250001 0.402452
Si Si2 0.387087 0.498394 0.485326
Si Si3 0.629975 0.250000 0.525453
Si Si4 0.985632 0.998738 0.615948
Si Si5 0.014368 0.498740 0.384050
Si Si6 0.387087 0.498393 0.985326
Si Si7 0.481083 0.750000 0.353029
Si Si8 0.105665 0.750001 0.454261
O O1 0.839765 0.250001 0.228854
O O2 0.112975 0.376382 0.505687
O O3 0.032247 0.250001 0.272767
O O4 0.112975 0.123620 0.505687
O O5 0.500000 0.500000 0.500000
O O6 0.434211 0.624594 0.579403
O O7 0.179411 0.504339 0.268084
O O8 0.422631 0.372109 0.568301
O O9 0.565789 0.124593 0.420597
O O10 0.575190 0.250000 0.586900
O O11 0.910974 0.124474 0.511225
O O12 0.999998 0.999999 0.749998
O O13 0.089026 0.624476 0.488774
O O14 0.820589 0.495663 0.231916
O O15 0.422632 0.372109 0.068302
O O16 0.500000 0.500000 0.000000
O O17 0.301876 0.749999 0.113922
#
# Coordination Sequence:
#
# PCOD9240643 Si02
#       8
#     4   4   4   4   4   4   4   4
#     4   8  16  33  51  67  95 136 166 190 240 309
#     4   9  17  32  53  73  97 134 169 198 244 307
#     4   8  16  33  51  67  95 136 166 190 240 309
#     4   9  17  32  53  73  97 134 169 198 244 307
#     4   9  17  32  53  73  97 134 169 198 244 307
#     4   9  17  32  53  73  97 134 169 198 244 307
#     4  10  19  31  50  79 103 124 165 218 248 277
#     4  10  19  31  50  79 103 124 165 218 248 277
#
# _framework density 26.747169
#
# number of rings (size 3 to 8) (size 9 to 14) (size 15 to 20)
#    0.000    3.000    0.000    0.750    0.000    0.000 
#    0.000   23.750    0.000    0.000    0.000    0.000 
#    0.000    0.000    0.000    0.000    0.000    0.000 
#
# Total GULP energy -178642.332687 kJ/mol
# GULP energy per Si atom -5582.572896 kJ/mol
# Density = 2.668629 g / cm^3
# Si number density = 26.747169 Si / 1000 Ang^3
#
#
#
# Elastic Constant Matrix: (Units=GPa)
#
#
# Indices 1 2 3 4 5 6 
#
# 1 108.0449 30.3448 9.8342 0.0000 -2.0080 0.0000
# 2 30.3448 391.2942 61.5686 0.0000 3.1386 0.0000
# 3 9.8342 61.5686 46.3899 0.0000 17.6471 0.0000
# 4 0.0000 0.0000 0.0000 20.5445 0.0000 26.6260
# 5 -2.0080 3.1386 17.6471 0.0000 39.1247 0.0000
# 6 0.0000 0.0000 0.0000 26.6260 0.0000 17.8070
#
#
#
# Elastic Compliance Matrix: (Units=1/GPa)
#
#
# Indices 1 2 3 4 5 6 
#
# 1 0.009587 -0.000442 -0.001987 0.000000 0.001424 0.000000
# 2 -0.000442 0.003389 -0.005181 0.000000 0.002042 0.000000
# 3 -0.001987 -0.005181 0.034685 0.000000 -0.015331 0.000000
# 4 0.000000 0.000000 0.000000 -0.051899 0.000000 0.077602
# 5 0.001424 0.002042 -0.015331 0.000000 0.032384 0.000000
# 6 0.000000 0.000000 0.000000 0.077602 0.000000 -0.059878
#
#
# Mechanical properties :
#
#
# Convention : Reuss Voigt Hill
#
# Bulk Modulus (GPa) = 30.82479 83.24714 57.03596
# Shear Modulus (GPa) = -877.41995 45.09399 -416.16298
#
# Velocity S-wave (km/s) = -18.13158 4.11047 -12.48716
# Velocity P-wave (km/s) = 20.65889 7.32934 13.65779
#
# Compressibility (1/GPa) = 0.03244142
#
# Stress axis : x y z
#
# Youngs Moduli (GPa) = 104.30864 295.10063 28.83056
#
# Poissons Ratio (x) = 0.13050 0.05729
# Poissons Ratio (y) = 0.04613 0.14936
# Poissons Ratio (z) = 0.20726 1.52878
#
# Static dielectric constant tensor:
#      x y z
#    x 2.122300 0.000000 -0.037290 
#    y 0.000000 2.135560 0.000000 
#    z -0.037290 0.000000 1.994710 
# 
# From -- ./inp_files/44388.got.cif
#   From: 2010.05.17/outbox.cif.g08.bks.cpg/sg14_23_cif.got.tgz:44388.got - 2010.06.03 17:49:19.
