data_PCOD9240079
_publ_section_title
;
Structure prediction by ZEFSAII (Michael W. Deem and Ramdas Pophale) SiO2 
 PCOD9240079
Probable space group: P 21/C
;
_chemical_formula_sum "Si O2"
_cell_formula_units_Z 24
_cell_length_a 18.008506
_cell_length_b 14.681883
_cell_length_c 9.386012
_cell_angle_alpha 90.000000
_cell_angle_beta 24.233317
_cell_angle_gamma 90.000000
_cell_volume 1018.601610
_symmetry_space_group_name_H-M "P 21/C"
_symmetry_group_IT_number 14
_symmetry_cell_setting 'monoclinic'
loop_
_space_group_symop_operation_xyz
x,y,z
-x,1/2+y,1/2-z
-x,-y,-z
x,1/2-y,1/2+z
loop_
_atom_site_type_symbol
_atom_site_label
_atom_site_fract_x
_atom_site_fract_y
_atom_site_fract_z
Si Si1 0.291616 0.402236 0.264891
Si Si2 0.789910 0.030407 0.851016
Si Si3 0.129038 0.591427 0.095415
Si Si4 0.649074 0.963494 0.630454
Si Si5 0.913807 0.209170 0.754083
Si Si6 0.824385 0.715347 0.951277
O O1 0.310807 0.454501 0.379989
O O2 0.307700 0.294356 0.259844
O O3 0.084225 0.411336 0.567862
O O4 0.402959 0.448008 0.942852
O O5 0.775249 0.047366 0.709046
O O6 0.780339 0.128588 0.945085
O O7 0.000000 0.000000 0.500000
O O8 0.176028 0.697474 0.034782
O O9 0.190488 0.536883 0.126963
O O10 0.719753 0.866056 0.560797
O O11 0.500000 0.000000 0.000000
O O12 0.052263 0.178741 0.635563
O O13 0.038669 0.236802 0.400460
#
# Coordination Sequence:
#
# PCOD9240079 Si02
#       6
#     4   4   4   4   4   4
#     4  10  21  38  66  95 114 157 211 260 314 361
#     4  10  18  34  59  98 124 144 197 266 317 353
#     4  10  21  36  61  93 120 159 203 258 307 363
#     4  12  26  42  59  89 131 173 209 250 311 375
#     4  11  19  34  64 100 123 155 203 265 317 360
#     4  11  20  37  63  91 124 159 209 252 313 374
#
# _framework density 23.561713000000001
#
# number of rings (size 3 to 8) (size 9 to 14) (size 15 to 20)
#    0.000    1.333    8.333    2.500    2.333    0.000 
#    0.000    4.167    0.000    0.000    0.000    0.000 
#    0.000    0.000    0.000    0.000    0.000    0.000 
#
# Total GULP energy -134215.478076 kJ/mol
# GULP energy per Si atom -5592.311587 kJ/mol
# Density = 2.350809 g / cm^3
# Si number density = 23.561713 Si / 1000 Ang^3
#
#
#
# Elastic Constant Matrix: (Units=GPa)
#
#
# Indices 1 2 3 4 5 6 
#
# 1 84.2675 20.2431 -11.8993 0.0000 26.6142 0.0000
# 2 20.2431 113.5187 -11.1585 0.0000 2.5263 0.0000
# 3 -11.8993 -11.1585 39.0470 0.0000 5.5768 0.0000
# 4 0.0000 0.0000 0.0000 22.9584 0.0000 13.8842
# 5 26.6142 2.5263 5.5768 0.0000 32.0796 0.0000
# 6 0.0000 0.0000 0.0000 13.8842 0.0000 42.3003
#
#
#
# Elastic Compliance Matrix: (Units=1/GPa)
#
#
# Indices 1 2 3 4 5 6 
#
# 1 0.018710 -0.002235 0.007439 0.000000 -0.016639 0.000000
# 2 -0.002235 0.009375 0.001886 0.000000 0.000788 0.000000
# 3 0.007439 0.001886 0.030065 0.000000 -0.011547 0.000000
# 4 0.000000 0.000000 0.000000 0.054344 0.000000 -0.017837
# 5 -0.016639 0.000788 -0.011547 0.000000 0.046922 0.000000
# 6 0.000000 0.000000 0.000000 -0.017837 0.000000 0.029495
#
#
# Mechanical properties :
#
#
# Convention : Reuss Voigt Hill
#
# Bulk Modulus (GPa) = 13.82537 25.68933 19.75735
# Shear Modulus (GPa) = 25.14565 35.44419 30.29492
#
# Velocity S-wave (km/s) = 3.27038 3.88276 3.58965
# Velocity P-wave (km/s) = 4.48787 5.57025 5.05810
#
# Compressibility (1/GPa) = 0.07233079
#
# Stress axis : x y z
#
# Youngs Moduli (GPa) = 53.44878 106.66152 33.26093
#
# Poissons Ratio (x) = 0.23837 -0.24744
# Poissons Ratio (y) = 0.11945 -0.06272
# Poissons Ratio (z) = -0.39763 -0.20113
#
# Static dielectric constant tensor:
#      x y z
#    x 1.936030 0.000000 -0.045010 
#    y 0.000000 1.865760 0.000000 
#    z -0.045010 0.000000 2.027740 
# 
# From -- ./inp_files/17953.got.cif
#   From: 2010.05.17/outbox.cif.g08.bks.cpg/sg14_9_cif.got.tgz:17953.got - 2010.06.03 17:49:19.
