data_PCOD9240483
_publ_section_title
;
Structure prediction by ZEFSAII (Michael W. Deem and Ramdas Pophale) SiO2 
 PCOD9240483
Probable space group: P 21/C
;
_chemical_formula_sum "Si O2"
_cell_formula_units_Z 24
_cell_length_a 21.648666
_cell_length_b 8.419801
_cell_length_c 17.664732
_cell_angle_alpha 90.000000
_cell_angle_beta 162.643451
_cell_angle_gamma 90.000000
_cell_volume 960.545827
_symmetry_space_group_name_H-M "P 21/C"
_symmetry_group_IT_number 14
_symmetry_cell_setting 'monoclinic'
loop_
_space_group_symop_operation_xyz
x,y,z
-x,1/2+y,1/2-z
-x,-y,-z
x,1/2-y,1/2+z
loop_
_atom_site_type_symbol
_atom_site_label
_atom_site_fract_x
_atom_site_fract_y
_atom_site_fract_z
Si Si1 0.951282 0.929349 0.611856
Si Si2 0.341809 0.102653 0.509472
Si Si3 0.221323 0.329557 0.502605
Si Si4 0.386560 0.599387 0.933477
Si Si5 0.446313 0.910448 0.773417
Si Si6 0.712046 0.051627 0.204225
O O1 0.757280 0.026038 0.422734
O O2 0.900385 0.959566 0.464486
O O3 0.144190 0.007073 0.878308
O O4 0.935378 0.748668 0.619838
O O5 0.222146 0.213972 0.429774
O O6 0.511746 0.224135 0.674559
O O7 0.252792 0.015369 0.331610
O O8 0.423630 0.967067 0.661290
O O9 0.429059 0.336967 0.795584
O O10 0.500000 0.500000 0.000000
O O11 0.271138 0.758081 0.770979
O O12 0.647602 0.994258 0.045588
O O13 0.500000 0.000000 0.000000
#
# Coordination Sequence:
#
# PCOD9240483 Si02
#       6
#     4   4   4   4   4   4
#     4  10  23  38  62  90 131 162 210 269 328 385
#     4  11  21  39  64  94 126 167 222 267 313 389
#     4  11  24  42  62  99 128 172 214 267 333 380
#     4  12  23  38  69  95 125 174 229 265 315 393
#     4  10  19  37  64  87 125 168 217 262 316 387
#     4  10  18  39  59  92 122 165 217 264 307 386
#
# _framework density 24.985793999999999
#
# number of rings (size 3 to 8) (size 9 to 14) (size 15 to 20)
#    0.000    1.333    6.667    2.000    4.667    0.000 
#    0.000    1.667    3.667    0.000    0.000    0.000 
#    0.000    0.000    0.000    0.000    0.000    0.000 
#
# Total GULP energy -134012.774613 kJ/mol
# GULP energy per Si atom -5583.865609 kJ/mol
# Density = 2.492892 g / cm^3
# Si number density = 24.985794 Si / 1000 Ang^3
#
#
#
# Elastic Constant Matrix: (Units=GPa)
#
#
# Indices 1 2 3 4 5 6 
#
# 1 85.2605 6.4100 1.9108 0.0000 -29.1379 0.0000
# 2 6.4100 79.8115 -2.7401 0.0000 -14.8824 0.0000
# 3 1.9108 -2.7401 62.1684 0.0000 -4.7214 0.0000
# 4 0.0000 0.0000 0.0000 30.9063 0.0000 -3.2063
# 5 -29.1379 -14.8824 -4.7214 0.0000 32.5819 0.0000
# 6 0.0000 0.0000 0.0000 -3.2063 0.0000 45.4965
#
#
#
# Elastic Compliance Matrix: (Units=1/GPa)
#
#
# Indices 1 2 3 4 5 6 
#
# 1 0.017116 0.001669 0.000776 0.000000 0.016182 0.000000
# 2 0.001669 0.013932 0.001172 0.000000 0.008027 0.000000
# 3 0.000776 0.001172 0.016387 0.000000 0.003604 0.000000
# 4 0.000000 0.000000 0.000000 0.032594 0.000000 0.002297
# 5 0.016182 0.008027 0.003604 0.000000 0.049352 0.000000
# 6 0.000000 0.000000 0.000000 0.002297 0.000000 0.022142
#
#
# Mechanical properties :
#
#
# Convention : Reuss Voigt Hill
#
# Bulk Modulus (GPa) = 18.29098 26.48909 22.39004
# Shear Modulus (GPa) = 30.76725 36.57425 33.67075
#
# Velocity S-wave (km/s) = 3.51292 3.83012 3.67494
# Velocity P-wave (km/s) = 4.87756 5.49403 5.19495
#
# Compressibility (1/GPa) = 0.05467175
#
# Stress axis : x y z
#
# Youngs Moduli (GPa) = 58.42486 71.77492 61.02434
#
# Poissons Ratio (x) = -0.11982 -0.04738
# Poissons Ratio (y) = -0.09753 -0.07154
# Poissons Ratio (z) = -0.04536 -0.08415
#
# Static dielectric constant tensor:
#      x y z
#    x 2.146870 0.000000 0.011980 
#    y 0.000000 1.977660 0.000000 
#    z 0.011980 0.000000 1.982860 
# 
# From -- ./inp_files/61762.got.cif
#   From: 2010.05.17/outbox.cif.g08.bks.cpg/sg14_31_cif.got.tgz:61762.got - 2010.06.03 17:49:19.
