data_PCOD9240296
_publ_section_title
;
Structure prediction by ZEFSAII (Michael W. Deem and Ramdas Pophale) SiO2 
 PCOD9240296
Probable space group: P 21/C
;
_chemical_formula_sum "Si O2"
_cell_formula_units_Z 32
_cell_length_a 24.991475
_cell_length_b 11.490641
_cell_length_c 17.205861
_cell_angle_alpha 90.000000
_cell_angle_beta 16.555218
_cell_angle_gamma 90.000000
_cell_volume 1407.877441
_symmetry_space_group_name_H-M "P 21/C"
_symmetry_group_IT_number 14
_symmetry_cell_setting 'monoclinic'
loop_
_space_group_symop_operation_xyz
x,y,z
-x,1/2+y,1/2-z
-x,-y,-z
x,1/2-y,1/2+z
loop_
_atom_site_type_symbol
_atom_site_label
_atom_site_fract_x
_atom_site_fract_y
_atom_site_fract_z
Si Si1 0.826707 0.966180 0.099714
Si Si2 0.121064 0.220772 0.544576
Si Si3 0.270769 0.695705 0.836900
Si Si4 0.116077 0.560649 0.733946
Si Si5 0.194543 0.388896 0.207344
Si Si6 0.519197 0.395826 0.868263
Si Si7 0.223596 0.467590 0.999660
Si Si8 0.915439 0.175215 0.561730
O O1 0.893947 0.955336 0.094840
O O2 0.610494 0.998451 0.413850
O O3 0.805897 0.836677 0.096084
O O4 0.992486 0.024317 0.821040
O O5 0.263951 0.153100 0.400761
O O6 0.049691 0.130375 0.578944
O O7 0.937367 0.263902 0.846290
O O8 0.410423 0.792916 0.674323
O O9 0.245167 0.687552 0.779996
O O10 0.301462 0.575060 0.841539
O O11 0.294372 0.553182 0.429931
O O12 0.161491 0.636834 0.747141
O O13 0.043833 0.433595 0.856662
O O14 0.264265 0.459597 0.034443
O O15 0.049278 0.288367 0.383450
O O16 0.384773 0.345158 0.986528
#
# Coordination Sequence:
#
# PCOD9240296 Si02
#       8
#     4   4   4   4   4   4   4   4
#     4   9  21  40  59  88 123 158 200 260 303 362
#     4  10  18  36  62  85 118 157 203 250 293 370
#     4  10  21  37  60  90 121 157 203 258 300 364
#     4  10  20  37  59  85 120 163 207 253 306 364
#     4  10  21  39  61  87 118 164 205 257 305 372
#     4   9  22  42  57  85 132 154 192 268 317 339
#     4  11  20  36  67  89 114 165 216 235 307 382
#     4  11  20  36  64  86 115 165 218 244 300 379
#
# _framework density 22.729251000000001
#
# number of rings (size 3 to 8) (size 9 to 14) (size 15 to 20)
#    0.750    1.250    3.750    0.375    0.000    1.000 
#    2.250    3.125    0.000    0.000    0.000    0.000 
#    0.000    0.000    0.000    0.000    0.000    0.000 
#
# Total GULP energy -178449.569598 kJ/mol
# GULP energy per Si atom -5576.549050 kJ/mol
# Density = 2.267752 g / cm^3
# Si number density = 22.729251 Si / 1000 Ang^3
#
#
#
# Elastic Constant Matrix: (Units=GPa)
#
#
# Indices 1 2 3 4 5 6 
#
# 1 144.7149 17.4038 2.2824 0.0000 -1.5794 0.0000
# 2 17.4038 52.7138 -13.4613 0.0000 1.2559 0.0000
# 3 2.2824 -13.4613 51.3874 0.0000 -10.2546 0.0000
# 4 0.0000 0.0000 0.0000 5.5224 0.0000 1.9994
# 5 -1.5794 1.2559 -10.2546 0.0000 18.2534 0.0000
# 6 0.0000 0.0000 0.0000 1.9994 0.0000 40.1163
#
#
#
# Elastic Compliance Matrix: (Units=1/GPa)
#
#
# Indices 1 2 3 4 5 6 
#
# 1 0.007246 -0.002644 -0.000961 0.000000 0.000269 0.000000
# 2 -0.002644 0.021348 0.006049 0.000000 0.001701 0.000000
# 3 -0.000961 0.006049 0.023638 0.000000 0.012780 0.000000
# 4 0.000000 0.000000 0.000000 0.184410 0.000000 -0.009191
# 5 0.000269 0.001701 0.012780 0.000000 0.061870 0.000000
# 6 0.000000 0.000000 0.000000 -0.009191 0.000000 0.025386
#
#
# Mechanical properties :
#
#
# Convention : Reuss Voigt Hill
#
# Bulk Modulus (GPa) = 17.50719 29.02955 23.26837
# Shear Modulus (GPa) = 14.79076 28.95116 21.87096
#
# Velocity S-wave (km/s) = 2.55372 3.57282 3.10536
# Velocity P-wave (km/s) = 4.05149 5.46074 4.80803
#
# Compressibility (1/GPa) = 0.05711940
#
# Stress axis : x y z
#
# Youngs Moduli (GPa) = 138.00293 46.84384 42.30549
#
# Poissons Ratio (x) = 0.12386 0.04065
# Poissons Ratio (y) = 0.36490 -0.25591
# Poissons Ratio (z) = 0.13259 -0.28336
#
# Static dielectric constant tensor:
#      x y z
#    x 1.914020 0.000000 0.007860 
#    y 0.000000 1.837550 0.000000 
#    z 0.007860 0.000000 1.913990 
# 
# From -- ./inp_files/62356.got.cif
#   From: 2010.05.17/outbox.cif.g08.bks.cpg/sg14_32_cif.got.tgz:62356.got - 2010.06.03 17:49:19.
