data_PCOD9240741
_publ_section_title
;
Structure prediction by ZEFSAII (Michael W. Deem and Ramdas Pophale) SiO2 
 PCOD9240741
Probable space group: P 21/C
;
_chemical_formula_sum "Si O2"
_cell_formula_units_Z 28
_cell_length_a 9.265152
_cell_length_b 8.878301
_cell_length_c 18.567569
_cell_angle_alpha 90.000000
_cell_angle_beta 128.070220
_cell_angle_gamma 90.000000
_cell_volume 1202.411808
_symmetry_space_group_name_H-M "P 21/C"
_symmetry_group_IT_number 14
_symmetry_cell_setting 'monoclinic'
loop_
_space_group_symop_operation_xyz
x,y,z
-x,1/2+y,1/2-z
-x,-y,-z
x,1/2-y,1/2+z
loop_
_atom_site_type_symbol
_atom_site_label
_atom_site_fract_x
_atom_site_fract_y
_atom_site_fract_z
Si Si1 0.113416 0.648870 0.316131
Si Si2 0.835718 0.694106 0.448662
Si Si3 0.185020 0.501004 0.690046
Si Si4 0.554073 0.883630 0.618374
Si Si5 0.858043 0.129559 0.540051
Si Si6 0.421783 0.782651 0.339206
Si Si7 0.848126 0.796882 0.602982
O O1 0.120870 0.770679 0.381745
O O2 0.993803 0.515880 0.313990
O O3 0.994590 0.699559 0.211495
O O4 0.319451 0.646082 0.348045
O O5 0.848169 0.548982 0.401313
O O6 0.866402 0.680369 0.543364
O O7 0.978673 0.814613 0.460660
O O8 0.625940 0.748894 0.379059
O O9 0.326283 0.378123 0.771257
O O10 0.295678 0.655610 0.734946
O O11 0.341358 0.844832 0.556881
O O12 0.571987 0.065130 0.609387
O O13 0.655887 0.793416 0.586738
O O14 0.865548 0.957596 0.567813
#
# Coordination Sequence:
#
# PCOD9240741 Si02
#       7
#     4   4   4   4   4   4   4
#     4  10  19  32  54  75 103 144 181 214 268 311
#     4  11  22  31  54  84 111 139 177 220 281 319
#     4   8  20  37  50  79 113 137 177 227 268 323
#     4   9  18  35  56  71 110 136 178 226 265 303
#     4  11  19  34  53  80 108 141 175 228 272 313
#     4  10  19  36  55  77 110 141 176 227 266 311
#     4  11  19  32  53  82 102 138 186 224 259 326
#
# _framework density 23.286532999999999
#
# number of rings (size 3 to 8) (size 9 to 14) (size 15 to 20)
#    0.857    1.143    2.857    1.714    0.000    2.286 
#    0.000    0.714    0.000    1.714    0.000   26.000 
#    0.000    0.000    0.000    0.000    0.000    0.000 
#
# Total GULP energy -156241.344655 kJ/mol
# GULP energy per Si atom -5580.048023 kJ/mol
# Density = 2.323353 g / cm^3
# Si number density = 23.286533 Si / 1000 Ang^3
#
#
#
# Elastic Constant Matrix: (Units=GPa)
#
#
# Indices 1 2 3 4 5 6 
#
# 1 162.4248 29.2901 52.1202 0.0000 28.8677 0.0000
# 2 29.2901 39.2739 24.7101 0.0000 3.5452 0.0000
# 3 52.1202 24.7101 119.1995 0.0000 -8.8738 0.0000
# 4 0.0000 0.0000 0.0000 23.4760 0.0000 -1.6322
# 5 28.8677 3.5452 -8.8738 0.0000 44.4789 0.0000
# 6 0.0000 0.0000 0.0000 -1.6322 0.0000 19.5887
#
#
#
# Elastic Compliance Matrix: (Units=1/GPa)
#
#
# Indices 1 2 3 4 5 6 
#
# 1 0.009181 -0.003965 -0.003667 0.000000 -0.006375 0.000000
# 2 -0.003965 0.031572 -0.004880 0.000000 -0.000917 0.000000
# 3 -0.003667 -0.004880 0.011379 0.000000 0.005039 0.000000
# 4 0.000000 0.000000 0.000000 0.042845 0.000000 0.003570
# 5 -0.006375 -0.000917 0.005039 0.000000 0.027698 0.000000
# 6 0.000000 0.000000 0.000000 0.003570 0.000000 0.051347
#
#
# Mechanical properties :
#
#
# Convention : Reuss Voigt Hill
#
# Bulk Modulus (GPa) = 36.88702 59.23767 48.06235
# Shear Modulus (GPa) = 24.02896 31.82726 27.92811
#
# Velocity S-wave (km/s) = 3.21578 3.70099 3.46688
# Velocity P-wave (km/s) = 5.44639 6.61490 6.05888
#
# Compressibility (1/GPa) = 0.02710980
#
# Stress axis : x y z
#
# Youngs Moduli (GPa) = 108.91642 31.67384 87.87741
#
# Poissons Ratio (x) = 0.12557 0.32227
# Poissons Ratio (y) = 0.43181 0.42880
# Poissons Ratio (z) = 0.39942 0.15455
#
# Static dielectric constant tensor:
#      x y z
#    x 1.900190 0.000000 0.060480 
#    y 0.000000 1.909530 0.000000 
#    z 0.060480 0.000000 1.968900 
# 
# From -- ./inp_files/55797.got.cif
#   From: 2010.05.17/outbox.cif.g08.bks.cpg/sg14_28_cif.got.tgz:55797.got - 2010.06.03 17:49:19.
