data_PCOD9240844
_publ_section_title
;
Structure prediction by ZEFSAII (Michael W. Deem and Ramdas Pophale) SiO2 
 PCOD9240844
Probable space group: P 21/C
;
_chemical_formula_sum "Si O2"
_cell_formula_units_Z 24
_cell_length_a 20.748727
_cell_length_b 4.942390
_cell_length_c 21.052407
_cell_angle_alpha 90.000000
_cell_angle_beta 145.732857
_cell_angle_gamma 90.000000
_cell_volume 1215.566999
_symmetry_space_group_name_H-M "P 21/C"
_symmetry_group_IT_number 14
_symmetry_cell_setting 'monoclinic'
loop_
_space_group_symop_operation_xyz
x,y,z
-x,1/2+y,1/2-z
-x,-y,-z
x,1/2-y,1/2+z
loop_
_atom_site_type_symbol
_atom_site_label
_atom_site_fract_x
_atom_site_fract_y
_atom_site_fract_z
Si Si1 0.054219 0.933778 0.264337
Si Si2 0.653266 0.066656 0.327026
Si Si3 0.431371 0.696633 0.618403
Si Si4 0.007016 0.699120 0.088002
Si Si5 0.869592 0.199721 0.936670
Si Si6 0.707885 0.817758 0.500845
O O1 0.040075 0.804347 0.183767
O O2 0.174671 0.080920 0.374037
O O3 0.036409 0.675650 0.296331
O O4 0.582891 0.268362 0.316466
O O5 0.558508 0.905093 0.210479
O O6 0.746081 0.220540 0.361532
O O7 0.713923 0.875033 0.429516
O O8 0.394299 0.982955 0.560552
O O9 0.333860 0.482341 0.520275
O O10 0.108008 0.736504 0.119000
O O11 0.960673 0.394309 0.047278
O O12 0.905058 0.892774 0.979366
#
# Coordination Sequence:
#
# PCOD9240844 Si02
#       6
#     4   4   4   4   4   4
#     4  12  23  35  57  79 112 148 183 223 276 334
#     4  10  19  33  54  80 104 144 174 230 276 310
#     4  10  20  31  51  80 109 131 185 224 271 319
#     4  10  22  40  50  88 105 148 186 221 273 333
#     4  10  22  35  62  73 117 141 184 231 268 331
#     4  10  20  32  48  78 110 137 167 236 264 315
#
# _framework density 19.743874000000002
#
# number of rings (size 3 to 8) (size 9 to 14) (size 15 to 20)
#    1.000    0.667    1.667    4.000    4.667    0.000 
#    0.000    0.000    0.000    2.000    0.000    0.000 
#    0.000    0.000    0.000    0.000    0.000    0.000 
#
# Total GULP energy -133935.953711 kJ/mol
# GULP energy per Si atom -5580.664738 kJ/mol
# Density = 1.969894 g / cm^3
# Si number density = 19.743874 Si / 1000 Ang^3
#
#
#
# Elastic Constant Matrix: (Units=GPa)
#
#
# Indices 1 2 3 4 5 6 
#
# 1 63.6083 -9.1884 5.9260 0.0000 2.7132 0.0000
# 2 -9.1884 63.4384 -13.5206 0.0000 -8.3863 0.0000
# 3 5.9260 -13.5206 50.2992 0.0000 -3.1051 0.0000
# 4 0.0000 0.0000 0.0000 24.3135 0.0000 4.3289
# 5 2.7132 -8.3863 -3.1051 0.0000 27.2027 0.0000
# 6 0.0000 0.0000 0.0000 4.3289 0.0000 -4.4764
#
#
#
# Elastic Compliance Matrix: (Units=1/GPa)
#
#
# Indices 1 2 3 4 5 6 
#
# 1 0.016180 0.001869 -0.001478 0.000000 -0.001206 0.000000
# 2 0.001869 0.017866 0.004946 0.000000 0.005886 0.000000
# 3 -0.001478 0.004946 0.021640 0.000000 0.004142 0.000000
# 4 0.000000 0.000000 0.000000 0.035088 0.000000 0.033932
# 5 -0.001206 0.005886 0.004142 0.000000 0.039169 0.000000
# 6 0.000000 0.000000 0.000000 0.033932 0.000000 -0.190581
#
#
# Mechanical properties :
#
#
# Convention : Reuss Voigt Hill
#
# Bulk Modulus (GPa) = 15.06947 15.97558 15.52252
# Shear Modulus (GPa) = -101.64650 22.34990 -39.64830
#
# Velocity S-wave (km/s) = -7.18292 3.36816 -4.48608
# Velocity P-wave (km/s) = 7.81942 4.82027 4.35364
#
# Compressibility (1/GPa) = 0.06635935
#
# Stress axis : x y z
#
# Youngs Moduli (GPa) = 61.80319 55.97166 46.21005
#
# Poissons Ratio (x) = -0.10461 0.06832
# Poissons Ratio (y) = -0.11551 -0.22854
# Poissons Ratio (z) = 0.09137 -0.27682
#
# Static dielectric constant tensor:
#      x y z
#    x 1.697000 0.000000 0.010530 
#    y 0.000000 1.726370 0.000000 
#    z 0.010530 0.000000 1.703960 
# 
# From -- ./inp_files/69608.got.cif
#   From: 2010.05.17/outbox.cif.g08.bks.cpg/sg14_35_cif.got.tgz:69608.got - 2010.06.03 17:49:19.
