data_PCOD9240821
_publ_section_title
;
Structure prediction by ZEFSAII (Michael W. Deem and Ramdas Pophale) SiO2 
 PCOD9240821
Probable space group: P 21/C
;
_chemical_formula_sum "Si O2"
_cell_formula_units_Z 32
_cell_length_a 8.440719
_cell_length_b 29.226545
_cell_length_c 14.646275
_cell_angle_alpha 90.000000
_cell_angle_beta 29.819460
_cell_angle_gamma 90.000000
_cell_volume 1796.698458
_symmetry_space_group_name_H-M "P 21/C"
_symmetry_group_IT_number 14
_symmetry_cell_setting 'monoclinic'
loop_
_space_group_symop_operation_xyz
x,y,z
-x,1/2+y,1/2-z
-x,-y,-z
x,1/2-y,1/2+z
loop_
_atom_site_type_symbol
_atom_site_label
_atom_site_fract_x
_atom_site_fract_y
_atom_site_fract_z
Si Si1 0.388026 0.874655 0.454006
Si Si2 0.381587 0.801667 0.308675
Si Si3 0.385401 0.947689 0.306811
Si Si4 0.381587 0.301667 0.809738
Si Si5 0.388026 0.374655 0.657969
Si Si6 0.382114 0.625365 0.165454
Si Si7 0.617886 0.625365 0.547568
Si Si8 0.385401 0.052311 0.307788
O O1 0.487558 0.830479 0.345075
O O2 0.486445 0.918975 0.345861
O O3 0.498879 0.874606 0.502669
O O4 1.000000 0.874622 0.649825
O O5 0.499999 0.750000 0.250139
O O6 0.501831 0.830431 0.161667
O O7 1.000000 0.802061 0.497998
O O8 0.500325 0.918745 0.162483
O O9 1.000000 0.947726 0.498137
O O10 0.496437 1.000000 0.251781
O O11 0.487558 0.330479 0.667368
O O12 0.501831 0.330431 0.836502
O O13 0.498880 0.374606 0.498451
O O14 0.486446 0.418975 0.667693
O O15 0.499674 0.581255 0.162809
O O16 1.000000 0.625329 0.356069
#
# Coordination Sequence:
#
# PCOD9240821 Si02
#       8
#     4   4   4   4   4   4   4   4
#     4   8  17  33  51  72 101 133 164 202 246 295
#     4  10  20  36  54  74 101 132 166 203 248 298
#     4   9  18  34  53  73 101 136 169 203 248 298
#     4  10  20  36  54  74 101 132 166 203 248 298
#     4   8  17  33  51  72 101 133 164 202 246 295
#     4  10  19  33  52  75 102 131 166 207 248 290
#     4  10  19  33  52  75 102 131 166 207 248 290
#     4   9  18  34  53  73 101 136 169 203 248 298
#
# _framework density 17.810447
#
# number of rings (size 3 to 8) (size 9 to 14) (size 15 to 20)
#    0.000    2.750    0.000    3.000    0.000    2.500 
#    0.000   15.000    0.000    0.000    0.000    0.000 
#    0.000    0.000    0.000    0.000    0.000    0.000 
#
# Total GULP energy -178447.097183 kJ/mol
# GULP energy per Si atom -5576.471787 kJ/mol
# Density = 1.776991 g / cm^3
# Si number density = 17.810447 Si / 1000 Ang^3
#
#
#
# Elastic Constant Matrix: (Units=GPa)
#
#
# Indices 1 2 3 4 5 6 
#
# 1 136.9590 88.4460 40.4987 0.0000 49.6650 0.0000
# 2 88.4460 204.5673 50.3627 0.0000 38.7498 0.0000
# 3 40.4987 50.3627 56.4958 0.0000 32.2067 0.0000
# 4 0.0000 0.0000 0.0000 16.9448 0.0000 -7.5841
# 5 49.6650 38.7498 32.2067 0.0000 41.5887 0.0000
# 6 0.0000 0.0000 0.0000 -7.5841 0.0000 9.4911
#
#
#
# Elastic Compliance Matrix: (Units=1/GPa)
#
#
# Indices 1 2 3 4 5 6 
#
# 1 0.014977 -0.003939 0.001574 0.000000 -0.015433 0.000000
# 2 -0.003939 0.007474 -0.004567 0.000000 0.001277 0.000000
# 3 0.001574 -0.004567 0.034535 0.000000 -0.024369 0.000000
# 4 0.000000 0.000000 0.000000 0.091875 0.000000 0.073415
# 5 -0.015433 0.001277 -0.024369 0.000000 0.060157 0.000000
# 6 0.000000 0.000000 0.000000 0.073415 0.000000 0.164027
#
#
# Mechanical properties :
#
#
# Convention : Reuss Voigt Hill
#
# Bulk Modulus (GPa) = 23.19029 84.07077 53.63053
# Shear Modulus (GPa) = 12.46005 28.18589 20.32297
#
# Velocity S-wave (km/s) = 2.64785 3.98244 3.38164
# Velocity P-wave (km/s) = 4.73255 8.27357 6.73977
#
# Compressibility (1/GPa) = 0.04312149
#
# Stress axis : x y z
#
# Youngs Moduli (GPa) = 66.77122 133.79872 28.95603
#
# Poissons Ratio (x) = 0.52706 -0.04557
# Poissons Ratio (y) = 0.26303 0.13223
# Poissons Ratio (z) = -0.10509 0.61102
#
# Static dielectric constant tensor:
#      x y z
#    x 1.604120 0.000000 -0.005490 
#    y 0.000000 1.591150 0.000000 
#    z -0.005490 0.000000 1.609510 
# 
# From -- ./inp_files/42281.got.cif
#   From: 2010.05.17/outbox.cif.g08.bks.cpg/sg14_22_cif.got.tgz:42281.got - 2010.06.03 17:49:19.
