data_PCOD9240260
_publ_section_title
;
Structure prediction by ZEFSAII (Michael W. Deem and Ramdas Pophale) SiO2 
 PCOD9240260
Probable space group: P 21/C
;
_chemical_formula_sum "Si O2"
_cell_formula_units_Z 32
_cell_length_a 7.912009
_cell_length_b 17.265410
_cell_length_c 18.958994
_cell_angle_alpha 90.000000
_cell_angle_beta 150.602679
_cell_angle_gamma 90.000000
_cell_volume 1271.274309
_symmetry_space_group_name_H-M "P 21/C"
_symmetry_group_IT_number 14
_symmetry_cell_setting 'monoclinic'
loop_
_space_group_symop_operation_xyz
x,y,z
-x,1/2+y,1/2-z
-x,-y,-z
x,1/2-y,1/2+z
loop_
_atom_site_type_symbol
_atom_site_label
_atom_site_fract_x
_atom_site_fract_y
_atom_site_fract_z
Si Si1 0.380596 0.901136 0.094171
Si Si2 0.085445 0.698300 0.212508
Si Si3 0.234273 0.255680 0.761859
Si Si4 0.535172 0.919775 0.316417
Si Si5 0.185706 0.263119 0.081410
Si Si6 0.753594 0.448005 0.678349
Si Si7 0.889007 0.666630 0.569010
Si Si8 0.732416 0.577918 0.261741
O O1 0.547658 0.818468 0.134757
O O2 0.455203 0.918021 0.203520
O O3 0.612815 0.968127 0.142893
O O4 0.984903 0.913685 0.922451
O O5 0.433184 0.727910 0.299998
O O6 0.044142 0.605885 0.190983
O O7 0.042775 0.722233 0.279186
O O8 0.799248 0.752857 0.073907
O O9 0.111559 0.238339 0.637464
O O10 0.417824 0.338797 0.814880
O O11 0.808188 0.853974 0.435755
O O12 0.180336 0.881080 0.215564
O O13 0.546809 0.009806 0.337985
O O14 0.975316 0.203033 0.956567
O O15 0.421857 0.392155 0.550545
O O16 0.992141 0.446666 0.697272
#
# Coordination Sequence:
#
# PCOD9240260 Si02
#       8
#     4   4   4   4   4   4   4   4
#     4  11  21  34  56  82 108 141 182 228 276 325
#     4   9  20  35  54  81 109 146 178 223 279 326
#     4  10  22  36  54  80 116 144 180 230 272 328
#     4  10  21  32  55  83 105 142 179 227 278 316
#     4   9  20  35  54  81 109 146 178 223 279 326
#     4  10  21  32  55  83 105 142 179 227 278 316
#     4  10  18  36  58  80 112 142 184 226 280 330
#     4  11  21  34  56  82 108 141 182 228 276 325
#
# _framework density 25.171593999999999
#
# number of rings (size 3 to 8) (size 9 to 14) (size 15 to 20)
#    0.000    2.000    1.250    2.250    7.000    0.000 
#    0.000    0.000    2.750    3.000    0.000    0.000 
#    0.000    0.000    0.000    0.000    0.000    0.000 
#
# Total GULP energy -178426.455566 kJ/mol
# GULP energy per Si atom -5575.826736 kJ/mol
# Density = 2.511430 g / cm^3
# Si number density = 25.171594 Si / 1000 Ang^3
#
#
#
# Elastic Constant Matrix: (Units=GPa)
#
#
# Indices 1 2 3 4 5 6 
#
# 1 73.7938 18.7987 23.5237 0.0000 -9.0551 0.0000
# 2 18.7987 222.6079 26.6080 0.0000 9.0164 0.0000
# 3 23.5237 26.6080 29.6495 0.0000 4.4100 0.0000
# 4 0.0000 0.0000 0.0000 35.0577 0.0000 -3.1264
# 5 -9.0551 9.0164 4.4100 0.0000 27.2980 0.0000
# 6 0.0000 0.0000 0.0000 -3.1264 0.0000 33.6853
#
#
#
# Elastic Compliance Matrix: (Units=1/GPa)
#
#
# Indices 1 2 3 4 5 6 
#
# 1 0.020319 -0.000007 -0.017539 0.000000 0.009576 0.000000
# 2 -0.000007 0.005056 -0.004389 0.000000 -0.000964 0.000000
# 3 -0.017539 -0.004389 0.053516 0.000000 -0.013014 0.000000
# 4 0.000000 0.000000 0.000000 0.028762 0.000000 0.002670
# 5 0.009576 -0.000964 -0.013014 0.000000 0.042230 0.000000
# 6 0.000000 0.000000 0.000000 0.002670 0.000000 0.029934
#
#
# Mechanical properties :
#
#
# Convention : Reuss Voigt Hill
#
# Bulk Modulus (GPa) = 28.55291 51.54576 40.04934
# Shear Modulus (GPa) = 21.24391 36.34960 28.79675
#
# Velocity S-wave (km/s) = 2.90826 3.80422 3.38600
# Velocity P-wave (km/s) = 4.75870 6.31017 5.58854
#
# Compressibility (1/GPa) = 0.03502270
#
# Stress axis : x y z
#
# Youngs Moduli (GPa) = 49.21481 197.76877 18.68591
#
# Poissons Ratio (x) = 0.00146 0.32773
# Poissons Ratio (y) = 0.00036 0.08200
# Poissons Ratio (z) = 0.86316 0.86791
#
# Static dielectric constant tensor:
#      x y z
#    x 2.069040 0.000000 -0.050960 
#    y 0.000000 2.048640 0.000000 
#    z -0.050960 0.000000 2.175280 
# 
# From -- ./inp_files/65773.got.cif
#   From: 2010.05.17/outbox.cif.g08.bks.cpg/sg14_33_cif.got.tgz:65773.got - 2010.06.03 17:49:19.
