data_PCOD9240616
_publ_section_title
;
Structure prediction by ZEFSAII (Michael W. Deem and Ramdas Pophale) SiO2 
 PCOD9240616
Probable space group: P 21/C
;
_chemical_formula_sum "Si O2"
_cell_formula_units_Z 24
_cell_length_a 36.776825
_cell_length_b 5.138245
_cell_length_c 5.026111
_cell_angle_alpha 90.000000
_cell_angle_beta 113.784416
_cell_angle_gamma 90.000000
_cell_volume 869.110802
_symmetry_space_group_name_H-M "P 21/C"
_symmetry_group_IT_number 14
_symmetry_cell_setting 'monoclinic'
loop_
_space_group_symop_operation_xyz
x,y,z
-x,1/2+y,1/2-z
-x,-y,-z
x,1/2-y,1/2+z
loop_
_atom_site_type_symbol
_atom_site_label
_atom_site_fract_x
_atom_site_fract_y
_atom_site_fract_z
Si Si1 0.373628 0.587076 0.194817
Si Si2 0.955969 0.409519 0.939780
Si Si3 0.874382 0.435070 0.546514
Si Si4 0.292487 0.935798 0.304175
Si Si5 0.207308 0.936425 0.056182
Si Si6 0.459046 0.378064 0.276599
O O1 0.371125 0.839540 0.994833
O O2 0.334392 0.427845 0.990267
O O3 0.417015 0.484670 0.252993
O O4 0.953162 0.345302 0.241342
O O5 0.000000 0.500000 0.000000
O O6 0.916801 0.565903 0.732322
O O7 0.873714 0.307405 0.254771
O O8 0.833607 0.582808 0.496367
O O9 0.292609 0.698656 0.517827
O O10 0.249990 0.073799 0.216680
O O11 0.206639 0.801984 0.766698
O O12 0.500000 0.500000 0.500000
O O13 0.459157 0.116127 0.458389
#
# Coordination Sequence:
#
# PCOD9240616 Si02
#       6
#     4   4   4   4   4   4
#     4  10  19  34  53  76 103 130 159 196 237 282
#     4  10  19  31  46  66  90 120 154 194 238 283
#     4   8  14  23  37  57  84 112 144 185 229 269
#     4   8  14  23  40  64  91 118 147 184 228 269
#     4   8  12  20  34  57  85 112 141 181 226 266
#     4  12  24  39  57  78 102 132 166 202 241 283
#
# _framework density 27.614433999999999
#
# number of rings (size 3 to 8) (size 9 to 14) (size 15 to 20)
#    0.000    2.667    0.000    3.000    0.000    0.000 
#    0.000    0.000    0.000    0.000    0.000    2.333 
#    0.000    0.000    0.000    0.000    0.000    0.000 
#
# Total GULP energy -134058.193215 kJ/mol
# GULP energy per Si atom -5585.758051 kJ/mol
# Density = 2.755158 g / cm^3
# Si number density = 27.614434 Si / 1000 Ang^3
#
#
#
# Elastic Constant Matrix: (Units=GPa)
#
#
# Indices 1 2 3 4 5 6 
#
# 1 247.6151 24.7003 60.6393 0.0000 67.1806 0.0000
# 2 24.7003 42.9944 27.3345 0.0000 -2.2140 0.0000
# 3 60.6393 27.3345 113.5248 0.0000 -1.1772 0.0000
# 4 0.0000 0.0000 0.0000 32.0911 0.0000 -27.2377
# 5 67.1806 -2.2140 -1.1772 0.0000 84.4428 0.0000
# 6 0.0000 0.0000 0.0000 -27.2377 0.0000 4.2996
#
#
#
# Elastic Compliance Matrix: (Units=1/GPa)
#
#
# Indices 1 2 3 4 5 6 
#
# 1 0.006368 -0.002040 -0.002964 0.000000 -0.005161 0.000000
# 2 -0.002040 0.028150 -0.005665 0.000000 0.002282 0.000000
# 3 -0.002964 -0.005665 0.011780 0.000000 0.002374 0.000000
# 4 0.000000 0.000000 0.000000 -0.007120 0.000000 -0.045102
# 5 -0.005161 0.002282 0.002374 0.000000 0.016041 0.000000
# 6 0.000000 0.000000 0.000000 -0.045102 0.000000 -0.053139
#
#
# Mechanical properties :
#
#
# Convention : Reuss Voigt Hill
#
# Bulk Modulus (GPa) = 40.06197 69.94249 55.00223
# Shear Modulus (GPa) = 157.53799 43.59738 100.56768
#
# Velocity S-wave (km/s) = 7.56128 3.97771 6.04132
# Velocity P-wave (km/s) = 9.52732 6.81758 8.28400
#
# Compressibility (1/GPa) = 0.02496133
#
# Stress axis : x y z
#
# Youngs Moduli (GPa) = 157.03237 35.52447 84.88718
#
# Poissons Ratio (x) = 0.07247 0.25160
# Poissons Ratio (y) = 0.32033 0.48085
# Poissons Ratio (z) = 0.46543 0.20123
#
# Static dielectric constant tensor:
#      x y z
#    x 2.232690 0.000000 0.088010 
#    y 0.000000 2.398640 0.000000 
#    z 0.088010 0.000000 2.142820 
# 
# From -- ./inp_files/4546.got.cif
#   From: 2010.05.17/outbox.cif.g08.bks.cpg/sg14_3_cif.got.tgz:4546.got - 2010.06.03 17:49:19.
