data_PCOD9240177
_publ_section_title
;
Structure prediction by ZEFSAII (Michael W. Deem and Ramdas Pophale) SiO2 
 PCOD9240177
Probable space group: P 21/C
;
_chemical_formula_sum "Si O2"
_cell_formula_units_Z 26
_cell_length_a 4.822198
_cell_length_b 14.205620
_cell_length_c 14.535230
_cell_angle_alpha 90.000000
_cell_angle_beta 75.944895
_cell_angle_gamma 90.000000
_cell_volume 965.888296
_symmetry_space_group_name_H-M "P 21/C"
_symmetry_group_IT_number 14
_symmetry_cell_setting 'monoclinic'
loop_
_space_group_symop_operation_xyz
x,y,z
-x,1/2+y,1/2-z
-x,-y,-z
x,1/2-y,1/2+z
loop_
_atom_site_type_symbol
_atom_site_label
_atom_site_fract_x
_atom_site_fract_y
_atom_site_fract_z
Si Si1 0.006036 0.088863 0.695052
Si Si2 0.507533 0.281521 0.176907
Si Si3 0.000000 0.500000 0.000000
Si Si4 0.803373 0.804695 0.640711
Si Si5 0.415115 0.844282 0.526525
Si Si6 0.742128 0.998684 0.882961
Si Si7 0.810902 0.891367 0.045154
O O1 0.807246 0.180431 0.691687
O O2 0.868540 0.012768 0.773259
O O3 0.289032 0.133095 0.715035
O O4 0.076597 0.035008 0.598244
O O5 0.369768 0.198317 0.250250
O O6 0.517005 0.273248 0.064840
O O7 0.273459 0.573468 0.980466
O O8 0.677916 0.876363 0.572814
O O9 0.724534 0.709195 0.590895
O O10 0.146015 0.811108 0.612263
O O11 0.413293 0.028029 0.906770
O O12 0.892416 0.081508 0.931401
O O13 0.818080 0.906005 0.934737
#
# Coordination Sequence:
#
# PCOD9240177 Si02
#       7
#     4   4   2   4   4   4   4
#     4  11  20  40  68  91 126 178 218 279 318 398
#     4  11  23  42  67  93 127 174 224 262 345 408
#     4  10  26  46  66  94 130 174 248 270 332 394
#     4  12  22  43  68  95 133 176 218 275 353 406
#     4  11  26  43  68  95 132 179 222 290 328 401
#     4  10  18  35  59  93 127 170 208 267 324 386
#     4  10  20  34  61  94 128 160 217 263 328 412
#
# _framework density 26.918229
#
# number of rings (size 3 to 8) (size 9 to 14) (size 15 to 20)
#    0.000    1.231    3.077    3.692    0.000    5.538 
#    5.538    0.000    0.000    0.000    0.000    0.000 
#    0.000    0.000    0.000    0.000    0.000    0.000 
#
# Total GULP energy -145139.211702 kJ/mol
# GULP energy per Si atom -5582.277373 kJ/mol
# Density = 2.685696 g / cm^3
# Si number density = 26.918229 Si / 1000 Ang^3
#
#
#
# Elastic Constant Matrix: (Units=GPa)
#
#
# Indices 1 2 3 4 5 6 
#
# 1 98.7333 -15.1229 14.5352 0.0000 -8.8997 0.0000
# 2 -15.1229 55.0537 3.4187 0.0000 2.2365 0.0000
# 3 14.5352 3.4187 151.6056 0.0000 -14.6920 0.0000
# 4 0.0000 0.0000 0.0000 44.0734 0.0000 4.8027
# 5 -8.8997 2.2365 -14.6920 0.0000 39.5524 0.0000
# 6 0.0000 0.0000 0.0000 4.8027 0.0000 33.5396
#
#
#
# Elastic Compliance Matrix: (Units=1/GPa)
#
#
# Indices 1 2 3 4 5 6 
#
# 1 0.010894 0.002971 -0.000923 0.000000 0.001940 0.000000
# 2 0.002971 0.019057 -0.000782 0.000000 -0.000700 0.000000
# 3 -0.000923 -0.000782 0.006936 0.000000 0.002413 0.000000
# 4 0.000000 0.000000 0.000000 0.023049 0.000000 -0.003300
# 5 0.001940 -0.000700 0.002413 0.000000 0.026655 0.000000
# 6 0.000000 0.000000 0.000000 -0.003300 0.000000 0.030288
#
#
# Mechanical properties :
#
#
# Convention : Reuss Voigt Hill
#
# Bulk Modulus (GPa) = 25.36909 34.56160 29.96535
# Shear Modulus (GPa) = 39.21908 43.60385 41.41147
#
# Velocity S-wave (km/s) = 3.82117 4.02912 3.92652
# Velocity P-wave (km/s) = 5.37712 5.87473 5.63142
#
# Compressibility (1/GPa) = 0.03941805
#
# Stress axis : x y z
#
# Youngs Moduli (GPa) = 91.79181 52.47346 144.17372
#
# Poissons Ratio (x) = -0.15590 0.13314
# Poissons Ratio (y) = -0.27272 0.11280
# Poissons Ratio (z) = 0.08477 0.04106
#
# Static dielectric constant tensor:
#      x y z
#    x 2.014750 0.000000 -0.044950 
#    y 0.000000 2.564470 0.000000 
#    z -0.044950 0.000000 2.076850 
# 
# From -- ./inp_files/37320.got.cif
#   From: 2010.05.17/outbox.cif.g08.bks.cpg/sg14_19_cif.got.tgz:37320.got - 2010.06.03 17:49:19.
