data_PCOD9240101
_publ_section_title
;
Structure prediction by ZEFSAII (Michael W. Deem and Ramdas Pophale) SiO2 
 PCOD9240101
Probable space group: P 21/C
;
_chemical_formula_sum "Si O2"
_cell_formula_units_Z 28
_cell_length_a 21.745588
_cell_length_b 17.043167
_cell_length_c 9.912034
_cell_angle_alpha 90.000000
_cell_angle_beta 156.125544
_cell_angle_gamma 90.000000
_cell_volume 1486.804514
_symmetry_space_group_name_H-M "P 21/C"
_symmetry_group_IT_number 14
_symmetry_cell_setting 'monoclinic'
loop_
_space_group_symop_operation_xyz
x,y,z
-x,1/2+y,1/2-z
-x,-y,-z
x,1/2-y,1/2+z
loop_
_atom_site_type_symbol
_atom_site_label
_atom_site_fract_x
_atom_site_fract_y
_atom_site_fract_z
Si Si1 0.026257 0.178169 0.923473
Si Si2 0.153771 0.634612 0.191222
Si Si3 0.713427 0.521463 0.648513
Si Si4 0.214505 0.814081 0.327915
Si Si5 0.021807 0.144107 0.382955
Si Si6 0.165316 0.035201 0.311238
Si Si7 0.424736 0.545971 0.220169
O O1 0.979771 0.138416 0.689416
O O2 0.872287 0.179316 0.703649
O O3 0.079980 0.266570 0.012907
O O4 0.146602 0.126696 0.245894
O O5 0.260278 0.561007 0.372361
O O6 0.231395 0.720856 0.336299
O O7 0.077638 0.625803 0.184437
O O8 0.536483 0.543638 0.316030
O O9 0.762565 0.513649 0.902392
O O10 0.835896 0.585323 0.842070
O O11 0.367588 0.865433 0.634820
O O12 0.094667 0.849177 0.977520
O O13 0.264263 0.999507 0.389047
O O14 0.000000 0.000000 0.000000
O O15 0.500000 0.500000 0.500000
#
# Coordination Sequence:
#
# PCOD9240101 Si02
#       7
#     4   4   4   4   4   4   4
#     4  10  18  34  61  87 103 144 208 242 277 328
#     4  10  21  34  60  86 115 151 195 234 290 351
#     4  11  20  36  54  86 118 151 189 235 295 345
#     4  10  19  38  60  84 112 151 197 242 282 338
#     4  10  21  35  59  82 116 153 190 242 289 339
#     4  11  17  33  63  85 108 144 201 248 265 331
#     4  10  21  34  59  87 114 149 190 240 288 331
#
# _framework density 18.832333999999999
#
# number of rings (size 3 to 8) (size 9 to 14) (size 15 to 20)
#    0.000    1.714    4.286    1.286    0.000    0.000 
#    2.571    0.714    0.000    0.000    0.000    0.000 
#    0.000    0.000    0.000    0.000    0.000    0.000 
#
# Total GULP energy -155872.220852 kJ/mol
# GULP energy per Si atom -5566.865030 kJ/mol
# Density = 1.878947 g / cm^3
# Si number density = 18.832334 Si / 1000 Ang^3
#
#
#
# Elastic Constant Matrix: (Units=GPa)
#
#
# Indices 1 2 3 4 5 6 
#
# 1 92.9517 39.1484 31.6915 0.0000 18.2297 0.0000
# 2 39.1484 137.9172 46.9611 0.0000 35.2455 0.0000
# 3 31.6915 46.9611 55.6714 0.0000 29.2816 0.0000
# 4 0.0000 0.0000 0.0000 21.0404 0.0000 -0.3052
# 5 18.2297 35.2455 29.2816 0.0000 30.0223 0.0000
# 6 0.0000 0.0000 0.0000 -0.3052 0.0000 25.9230
#
#
#
# Elastic Compliance Matrix: (Units=1/GPa)
#
#
# Indices 1 2 3 4 5 6 
#
# 1 0.013635 -0.001697 -0.006209 0.000000 -0.000232 0.000000
# 2 -0.001697 0.011237 -0.004345 0.000000 -0.007923 0.000000
# 3 -0.006209 -0.004345 0.042086 0.000000 -0.032177 0.000000
# 4 0.000000 0.000000 0.000000 0.047536 0.000000 0.000560
# 5 -0.000232 -0.007923 -0.032177 0.000000 0.074134 0.000000
# 6 0.000000 0.000000 0.000000 0.000560 0.000000 0.038582
#
#
# Mechanical properties :
#
#
# Convention : Reuss Voigt Hill
#
# Bulk Modulus (GPa) = 23.55346 58.01582 40.78464
# Shear Modulus (GPa) = 18.80655 26.64644 22.72649
#
# Velocity S-wave (km/s) = 3.16354 3.76564 3.47764
# Velocity P-wave (km/s) = 5.08705 7.05550 6.15053
#
# Compressibility (1/GPa) = 0.04245661
#
# Stress axis : x y z
#
# Youngs Moduli (GPa) = 73.33909 88.99281 23.76067
#
# Poissons Ratio (x) = 0.15104 0.14752
# Poissons Ratio (y) = 0.12447 0.10324
# Poissons Ratio (z) = 0.45533 0.38669
#
# Static dielectric constant tensor:
#      x y z
#    x 1.672410 0.000000 0.000020 
#    y 0.000000 1.709000 0.000000 
#    z 0.000020 0.000000 1.703010 
# 
# From -- ./inp_files/35974.got.cif
#   From: 2010.05.17/outbox.cif.g08.bks.cpg/sg14_18_cif.got.tgz:35974.got - 2010.06.03 17:49:19.
