data_PCOD9240061
_publ_section_title
;
Structure prediction by ZEFSAII (Michael W. Deem and Ramdas Pophale) SiO2 
 PCOD9240061
Probable space group: P 21/C
;
_chemical_formula_sum "Si O2"
_cell_formula_units_Z 32
_cell_length_a 9.232766
_cell_length_b 14.563594
_cell_length_c 26.433049
_cell_angle_alpha 90.000000
_cell_angle_beta 29.838360
_cell_angle_gamma 90.000000
_cell_volume 1768.432940
_symmetry_space_group_name_H-M "P 21/C"
_symmetry_group_IT_number 14
_symmetry_cell_setting 'monoclinic'
loop_
_space_group_symop_operation_xyz
x,y,z
-x,1/2+y,1/2-z
-x,-y,-z
x,1/2-y,1/2+z
loop_
_atom_site_type_symbol
_atom_site_label
_atom_site_fract_x
_atom_site_fract_y
_atom_site_fract_z
Si Si1 0.691629 0.918640 0.326471
Si Si2 0.800028 0.359324 0.192581
Si Si3 0.338157 0.227293 0.577083
Si Si4 0.097958 0.503001 0.028717
Si Si5 0.771154 0.506579 0.289583
Si Si6 0.390848 0.571763 0.490360
Si Si7 0.054901 0.851016 0.628260
Si Si8 0.231280 0.155625 0.803754
O O1 0.689392 0.826596 0.361246
O O2 0.446766 0.987138 0.421653
O O3 0.634502 0.892195 0.286370
O O4 0.001594 0.966249 0.238769
O O5 0.735496 0.427729 0.258666
O O6 0.489847 0.329883 0.265014
O O7 0.030659 0.284099 0.142112
O O8 0.971068 0.417589 0.097993
O O9 0.442252 0.331349 0.551491
O O10 0.601373 0.171214 0.470219
O O11 0.008988 0.591681 0.089881
O O12 0.000000 0.500000 0.000000
O O13 0.488066 0.535333 0.406045
O O14 0.922653 0.589937 0.213740
O O15 0.500000 0.500000 0.500000
O O16 0.047151 0.594487 0.595756
O O17 0.897120 0.754026 0.672180
#
# Coordination Sequence:
#
# PCOD9240061 Si02
#       8
#     4   4   4   4   4   4   4   4
#     4  10  18  34  63  84 111 153 188 240 285 339
#     4  10  21  38  59  89 116 144 191 250 290 340
#     4   9  20  38  60  84 113 147 196 233 286 348
#     4  10  18  34  58  87 113 139 186 243 296 332
#     4  10  20  38  60  82 112 154 196 232 284 343
#     4  11  22  39  59  83 117 162 199 228 278 355
#     4   9  20  36  59  82 113 153 186 232 295 350
#     4  11  21  37  57  84 123 151 193 237 290 339
#
# _framework density 18.095117999999999
#
# number of rings (size 3 to 8) (size 9 to 14) (size 15 to 20)
#    0.000    2.000    2.500    1.500    0.000    3.500 
#    6.750    1.250    0.000    0.000    0.000    0.000 
#    0.000    0.000    0.000    0.000    0.000    0.000 
#
# Total GULP energy -178406.456141 kJ/mol
# GULP energy per Si atom -5575.201754 kJ/mol
# Density = 1.805393 g / cm^3
# Si number density = 18.095118 Si / 1000 Ang^3
#
#
#
# Elastic Constant Matrix: (Units=GPa)
#
#
# Indices 1 2 3 4 5 6 
#
# 1 86.2880 8.7513 28.2515 0.0000 -14.2049 0.0000
# 2 8.7513 48.0916 22.3412 0.0000 -8.2093 0.0000
# 3 28.2515 22.3412 90.7742 0.0000 -3.0997 0.0000
# 4 0.0000 0.0000 0.0000 19.8773 0.0000 -4.5268
# 5 -14.2049 -8.2093 -3.0997 0.0000 35.9048 0.0000
# 6 0.0000 0.0000 0.0000 -4.5268 0.0000 12.7812
#
#
#
# Elastic Compliance Matrix: (Units=1/GPa)
#
#
# Indices 1 2 3 4 5 6 
#
# 1 0.013779 0.000321 -0.004191 0.000000 0.005163 0.000000
# 2 0.000321 0.024371 -0.005921 0.000000 0.005188 0.000000
# 3 -0.004191 -0.005921 0.013716 0.000000 -0.001828 0.000000
# 4 0.000000 0.000000 0.000000 0.054722 0.000000 0.019381
# 5 0.005163 0.005188 -0.001828 0.000000 0.030922 0.000000
# 6 0.000000 0.000000 0.000000 0.019381 0.000000 0.085104
#
#
# Mechanical properties :
#
#
# Convention : Reuss Voigt Hill
#
# Bulk Modulus (GPa) = 30.97556 38.20465 34.59010
# Shear Modulus (GPa) = 19.76615 24.76666 22.26641
#
# Velocity S-wave (km/s) = 3.30865 3.70360 3.51168
# Velocity P-wave (km/s) = 5.63486 6.28076 5.96655
#
# Compressibility (1/GPa) = 0.03228352
#
# Stress axis : x y z
#
# Youngs Moduli (GPa) = 72.57625 41.03159 72.90998
#
# Poissons Ratio (x) = -0.01317 0.30556
# Poissons Ratio (y) = -0.02329 0.43170
# Poissons Ratio (z) = 0.30417 0.24295
#
# Static dielectric constant tensor:
#      x y z
#    x 1.607360 0.000000 0.000880 
#    y 0.000000 1.598410 0.000000 
#    z 0.000880 0.000000 1.628140 
# 
# From -- ./inp_files/72468.got.cif
#   From: 2010.05.17/outbox.cif.g08.bks.cpg/sg14_37_cif.got.tgz:72468.got - 2010.06.03 17:49:19.
