data_PCOD9240430
_publ_section_title
;
Structure prediction by ZEFSAII (Michael W. Deem and Ramdas Pophale) SiO2 
 PCOD9240430
Probable space group: P 21/C
;
_chemical_formula_sum "Si O2"
_cell_formula_units_Z 28
_cell_length_a 7.979518
_cell_length_b 5.948240
_cell_length_c 26.960363
_cell_angle_alpha 90.000000
_cell_angle_beta 98.645128
_cell_angle_gamma 90.000000
_cell_volume 1265.110052
_symmetry_space_group_name_H-M "P 21/C"
_symmetry_group_IT_number 14
_symmetry_cell_setting 'monoclinic'
loop_
_space_group_symop_operation_xyz
x,y,z
-x,1/2+y,1/2-z
-x,-y,-z
x,1/2-y,1/2+z
loop_
_atom_site_type_symbol
_atom_site_label
_atom_site_fract_x
_atom_site_fract_y
_atom_site_fract_z
Si Si1 0.512468 0.834760 0.875870
Si Si2 0.946671 0.253435 0.519989
Si Si3 0.315334 0.057503 0.394159
Si Si4 0.287937 0.039369 0.694214
Si Si5 0.343303 0.788879 0.055918
Si Si6 0.051885 0.967109 0.604841
Si Si7 0.597701 0.725401 0.701761
O O1 0.619370 0.963040 0.922414
O O2 0.442418 0.004951 0.831807
O O3 0.358293 0.705021 0.894406
O O4 0.629773 0.669263 0.849110
O O5 0.744698 0.262903 0.501061
O O6 0.023689 0.211083 0.577738
O O7 0.000000 0.500000 0.500000
O O8 0.000000 0.000000 0.500000
O O9 0.137175 0.132479 0.408273
O O10 0.477400 0.167127 0.428321
O O11 0.317789 0.119822 0.335991
O O12 0.295324 0.181938 0.744454
O O13 0.105702 0.978208 0.664601
O O14 0.416543 0.832636 0.708811
O O15 0.199414 0.678093 0.085222
#
# Coordination Sequence:
#
# PCOD9240430 Si02
#       7
#     4   4   4   4   4   4   4
#     4  10  18  38  62  85 123 164 210 264 323 383
#     4  10  23  42  70 103 131 174 230 273 333 410
#     4  10  23  41  59  97 129 165 220 270 331 396
#     4  11  19  36  63  85 116 170 210 262 322 388
#     4  10  21  42  68  88 131 170 211 270 323 397
#     4  11  22  43  64  94 132 169 216 271 338 392
#     4  10  20  36  59  88 119 165 217 262 321 391
#
# _framework density 22.132463999999999
#
# number of rings (size 3 to 8) (size 9 to 14) (size 15 to 20)
#    0.000    1.714    5.714    0.857    2.000    0.571 
#   18.000    0.714    0.000    0.000    0.000    0.000 
#    0.000    0.000    0.000    0.000    0.000    0.000 
#
# Total GULP energy -155963.962093 kJ/mol
# GULP energy per Si atom -5570.141503 kJ/mol
# Density = 2.208209 g / cm^3
# Si number density = 22.132464 Si / 1000 Ang^3
#
#
#
# Elastic Constant Matrix: (Units=GPa)
#
#
# Indices 1 2 3 4 5 6 
#
# 1 130.2263 23.7641 30.0300 0.0000 19.0439 0.0000
# 2 23.7641 70.4189 10.9152 0.0000 2.4842 0.0000
# 3 30.0300 10.9152 96.1257 0.0000 22.9214 0.0000
# 4 0.0000 0.0000 0.0000 26.5583 0.0000 10.2815
# 5 19.0439 2.4842 22.9214 0.0000 35.0300 0.0000
# 6 0.0000 0.0000 0.0000 10.2815 0.0000 9.2303
#
#
#
# Elastic Compliance Matrix: (Units=1/GPa)
#
#
# Indices 1 2 3 4 5 6 
#
# 1 0.009087 -0.002680 -0.001661 0.000000 -0.003663 0.000000
# 2 -0.002680 0.015246 -0.001165 0.000000 0.001138 0.000000
# 3 -0.001661 -0.001165 0.012819 0.000000 -0.007403 0.000000
# 4 0.000000 0.000000 0.000000 0.066200 0.000000 -0.073740
# 5 -0.003663 0.001138 -0.007403 0.000000 0.035301 0.000000
# 6 0.000000 0.000000 0.000000 -0.073740 0.000000 0.190478
#
#
# Mechanical properties :
#
#
# Convention : Reuss Voigt Hill
#
# Bulk Modulus (GPa) = 38.25639 47.35437 42.80538
# Shear Modulus (GPa) = 14.33251 29.63449 21.98350
#
# Velocity S-wave (km/s) = 2.54752 3.66315 3.15504
# Velocity P-wave (km/s) = 5.09665 6.27167 5.71444
#
# Compressibility (1/GPa) = 0.02613942
#
# Stress axis : x y z
#
# Youngs Moduli (GPa) = 110.05178 65.59291 78.00651
#
# Poissons Ratio (x) = 0.17577 0.12956
# Poissons Ratio (y) = 0.29491 0.09091
# Poissons Ratio (z) = 0.18279 0.07644
#
# Static dielectric constant tensor:
#      x y z
#    x 1.858710 0.000000 -0.007540 
#    y 0.000000 1.902760 0.000000 
#    z -0.007540 0.000000 1.885610 
# 
# From -- ./inp_files/79043.got.cif
#   From: 2010.05.17/outbox.cif.g08.bks.cpg/sg14_40_cif.got.tgz:79043.got - 2010.06.03 17:49:19.
