data_PCOD9240591
_publ_section_title
;
Structure prediction by ZEFSAII (Michael W. Deem and Ramdas Pophale) SiO2 
 PCOD9240591
Probable space group: P 21/C
;
_chemical_formula_sum "Si O2"
_cell_formula_units_Z 28
_cell_length_a 7.144102
_cell_length_b 13.152260
_cell_length_c 14.771645
_cell_angle_alpha 90.000000
_cell_angle_beta 112.829933
_cell_angle_gamma 90.000000
_cell_volume 1279.227848
_symmetry_space_group_name_H-M "P 21/C"
_symmetry_group_IT_number 14
_symmetry_cell_setting 'monoclinic'
loop_
_space_group_symop_operation_xyz
x,y,z
-x,1/2+y,1/2-z
-x,-y,-z
x,1/2-y,1/2+z
loop_
_atom_site_type_symbol
_atom_site_label
_atom_site_fract_x
_atom_site_fract_y
_atom_site_fract_z
Si Si1 0.748913 0.693024 0.191964
Si Si2 0.906343 0.331972 0.889129
Si Si3 0.439352 0.972308 0.709144
Si Si4 0.784301 0.064114 0.008660
Si Si5 0.100702 0.285403 0.587975
Si Si6 0.588610 0.166205 0.809878
Si Si7 0.532866 0.880587 0.920763
O O1 0.618055 0.593035 0.194952
O O2 0.882528 0.731133 0.302503
O O3 0.579705 0.781606 0.156865
O O4 0.893253 0.670595 0.134915
O O5 0.779262 0.436635 0.869578
O O6 0.740431 0.256249 0.810946
O O7 0.966702 0.286143 0.998539
O O8 0.447931 0.939167 0.816629
O O9 0.485634 0.092140 0.717940
O O10 0.729347 0.094575 0.897038
O O11 0.688207 0.953843 0.006442
O O12 0.657788 0.138072 0.051772
O O13 0.013218 0.098413 0.065658
O O14 0.327769 0.290715 0.590027
#
# Coordination Sequence:
#
# PCOD9240591 Si02
#       7
#     4   4   4   4   4   4   4
#     4  10  20  34  53  75 100 132 166 203 248 293
#     4  10  20  34  53  75 100 132 166 203 248 293
#     4   9  19  34  50  72 102 132 165 204 245 294
#     4   9  16  27  46  71  97 124 154 196 251 301
#     4  10  19  30  47  72  98 124 162 204 240 288
#     4   9  19  34  50  72 102 132 165 204 245 294
#     4   9  16  27  46  71  97 124 154 196 251 301
#
# _framework density 21.888204000000002
#
# number of rings (size 3 to 8) (size 9 to 14) (size 15 to 20)
#    0.000    2.571    0.000    2.143    0.000    2.286 
#    0.000    0.714    0.000    1.714    0.000    0.000 
#    0.000    0.000    0.000    0.000    0.000    0.000 
#
# Total GULP energy -155985.501429 kJ/mol
# GULP energy per Si atom -5570.910765 kJ/mol
# Density = 2.183839 g / cm^3
# Si number density = 21.888204 Si / 1000 Ang^3
#
#
#
# Elastic Constant Matrix: (Units=GPa)
#
#
# Indices 1 2 3 4 5 6 
#
# 1 114.0919 4.2146 -2.0616 0.0000 3.2457 0.0000
# 2 4.2146 44.4299 -10.8134 0.0000 6.5281 0.0000
# 3 -2.0616 -10.8134 45.2719 0.0000 3.1261 0.0000
# 4 0.0000 0.0000 0.0000 30.4670 0.0000 7.1079
# 5 3.2457 6.5281 3.1261 0.0000 24.4603 0.0000
# 6 0.0000 0.0000 0.0000 7.1079 0.0000 16.2174
#
#
#
# Elastic Compliance Matrix: (Units=1/GPa)
#
#
# Indices 1 2 3 4 5 6 
#
# 1 0.008823 -0.000602 0.000331 0.000000 -0.001052 0.000000
# 2 -0.000602 0.025253 0.006522 0.000000 -0.007493 0.000000
# 3 0.000331 0.006522 0.023997 0.000000 -0.004851 0.000000
# 4 0.000000 0.000000 0.000000 0.036561 0.000000 -0.016024
# 5 -0.001052 -0.007493 -0.004851 0.000000 0.043642 0.000000
# 6 0.000000 0.000000 0.000000 -0.016024 0.000000 0.068685
#
#
# Mechanical properties :
#
#
# Convention : Reuss Voigt Hill
#
# Bulk Modulus (GPa) = 14.16962 20.71919 17.44440
# Shear Modulus (GPa) = 22.93750 28.39255 25.66502
#
# Velocity S-wave (km/s) = 3.24070 3.60552 3.42797
# Velocity P-wave (km/s) = 4.52665 5.17876 4.86364
#
# Compressibility (1/GPa) = 0.07057353
#
# Stress axis : x y z
#
# Youngs Moduli (GPa) = 113.33996 39.59974 41.67264
#
# Poissons Ratio (x) = 0.02383 -0.01378
# Poissons Ratio (y) = 0.06821 -0.27178
# Poissons Ratio (z) = -0.03748 -0.25826
#
# Static dielectric constant tensor:
#      x y z
#    x 1.793700 0.000000 0.019400 
#    y 0.000000 1.923930 0.000000 
#    z 0.019400 0.000000 1.834260 
# 
# From -- ./inp_files/53523.got.cif
#   From: 2010.05.17/outbox.cif.g08.bks.cpg/sg14_27_cif.got.tgz:53523.got - 2010.06.03 17:49:19.
