data_PCOD9240860
_publ_section_title
;
Structure prediction by ZEFSAII (Michael W. Deem and Ramdas Pophale) SiO2 
 PCOD9240860
Probable space group: P 21/C
;
_chemical_formula_sum "Si O2"
_cell_formula_units_Z 28
_cell_length_a 16.055601
_cell_length_b 11.059405
_cell_length_c 9.026665
_cell_angle_alpha 90.000000
_cell_angle_beta 71.336789
_cell_angle_gamma 90.000000
_cell_volume 1518.540376
_symmetry_space_group_name_H-M "P 21/C"
_symmetry_group_IT_number 14
_symmetry_cell_setting 'monoclinic'
loop_
_space_group_symop_operation_xyz
x,y,z
-x,1/2+y,1/2-z
-x,-y,-z
x,1/2-y,1/2+z
loop_
_atom_site_type_symbol
_atom_site_label
_atom_site_fract_x
_atom_site_fract_y
_atom_site_fract_z
Si Si1 0.241387 0.354926 0.992334
Si Si2 0.913939 0.415142 0.550607
Si Si3 0.553586 0.635772 0.132649
Si Si4 0.983514 0.261921 0.764699
Si Si5 0.447820 0.104558 0.720437
Si Si6 0.928267 0.602372 0.036516
Si Si7 0.241630 0.400024 0.342163
O O1 0.170306 0.435140 0.945347
O O2 0.231236 0.370228 0.173612
O O3 0.342447 0.379909 0.895009
O O4 0.221326 0.219135 0.948884
O O5 0.920232 0.348186 0.705432
O O6 0.928718 0.319899 0.410039
O O7 0.826501 0.493844 0.583254
O O8 0.000000 0.500000 0.500000
O O9 0.529182 0.769555 0.208335
O O10 0.502648 0.517587 0.222675
O O11 0.542128 0.632630 0.960914
O O12 0.037564 0.185338 0.615963
O O13 0.057226 0.330122 0.818105
O O14 0.344960 0.074777 0.807786
O O15 0.000000 0.500000 0.000000
#
# Coordination Sequence:
#
# PCOD9240860 Si02
#       7
#     4   4   4   4   4   4   4
#     4  10  19  33  55  80 102 135 180 220 260 315
#     4  11  21  36  53  73 107 143 175 220 266 314
#     4   9  19  36  58  81 111 140 177 226 276 328
#     4  10  22  34  49  74 103 137 177 213 259 312
#     4   9  19  37  58  83 109 141 179 225 276 329
#     4  11  20  33  51  73 102 135 172 214 256 302
#     4  10  20  35  56  78 105 137 175 219 266 316
#
# _framework density 18.438759999999998
#
# number of rings (size 3 to 8) (size 9 to 14) (size 15 to 20)
#    0.000    2.000    0.000    5.143    0.000    1.714 
#    0.000    7.143    0.000    0.000    0.000    0.000 
#    0.000    0.000    0.000    0.000    0.000    0.000 
#
# Total GULP energy -156225.743520 kJ/mol
# GULP energy per Si atom -5579.490840 kJ/mol
# Density = 1.839679 g / cm^3
# Si number density = 18.438760 Si / 1000 Ang^3
#
#
#
# Elastic Constant Matrix: (Units=GPa)
#
#
# Indices 1 2 3 4 5 6 
#
# 1 104.7906 72.7050 28.6729 0.0000 -4.3107 0.0000
# 2 72.7050 110.5159 39.2660 0.0000 -6.1777 0.0000
# 3 28.6729 39.2660 46.6648 0.0000 -1.3794 0.0000
# 4 0.0000 0.0000 0.0000 11.3400 0.0000 -2.1588
# 5 -4.3107 -6.1777 -1.3794 0.0000 22.3474 0.0000
# 6 0.0000 0.0000 0.0000 -2.1588 0.0000 40.4702
#
#
#
# Elastic Compliance Matrix: (Units=1/GPa)
#
#
# Indices 1 2 3 4 5 6 
#
# 1 0.017634 -0.011040 -0.001538 0.000000 0.000255 0.000000
# 2 -0.011040 0.020010 -0.009971 0.000000 0.002787 0.000000
# 3 -0.001538 -0.009971 0.030731 0.000000 -0.001156 0.000000
# 4 0.000000 0.000000 0.000000 0.089088 0.000000 0.004752
# 5 0.000255 0.002787 -0.001156 0.000000 0.045496 0.000000
# 6 0.000000 0.000000 0.000000 0.004752 0.000000 0.024963
#
#
# Mechanical properties :
#
#
# Convention : Reuss Voigt Hill
#
# Bulk Modulus (GPa) = 42.96328 60.36211 51.66270
# Shear Modulus (GPa) = 17.80757 22.92000 20.36379
#
# Velocity S-wave (km/s) = 3.11105 3.52949 3.32686
# Velocity P-wave (km/s) = 6.02129 7.02975 6.54497
#
# Compressibility (1/GPa) = 0.02327569
#
# Stress axis : x y z
#
# Youngs Moduli (GPa) = 56.70881 49.97473 32.54088
#
# Poissons Ratio (x) = 0.55173 0.05004
# Poissons Ratio (y) = 0.62608 0.32448
# Poissons Ratio (z) = 0.08720 0.49832
#
# Static dielectric constant tensor:
#      x y z
#    x 1.664280 0.000000 -0.002250 
#    y 0.000000 1.646590 0.000000 
#    z -0.002250 0.000000 1.639460 
# 
# From -- ./inp_files/15522.got.cif
#   From: 2010.05.17/outbox.cif.g08.bks.cpg/sg14_8_cif.got.tgz:15522.got - 2010.06.03 17:49:19.
