data_PCOD9240507
_publ_section_title
;
Structure prediction by ZEFSAII (Michael W. Deem and Ramdas Pophale) SiO2 
 PCOD9240507
Probable space group: P 21/C
;
_chemical_formula_sum "Si O2"
_cell_formula_units_Z 24
_cell_length_a 13.597613
_cell_length_b 12.013938
_cell_length_c 7.174591
_cell_angle_alpha 90.000000
_cell_angle_beta 47.680525
_cell_angle_gamma 90.000000
_cell_volume 866.614607
_symmetry_space_group_name_H-M "P 21/C"
_symmetry_group_IT_number 14
_symmetry_cell_setting 'monoclinic'
loop_
_space_group_symop_operation_xyz
x,y,z
-x,1/2+y,1/2-z
-x,-y,-z
x,1/2-y,1/2+z
loop_
_atom_site_type_symbol
_atom_site_label
_atom_site_fract_x
_atom_site_fract_y
_atom_site_fract_z
Si Si1 0.286273 0.157216 0.866791
Si Si2 0.442083 0.655154 0.203910
Si Si3 0.880184 0.670298 0.751988
Si Si4 0.698168 0.486000 0.335228
Si Si5 0.291871 0.637589 0.030163
Si Si6 0.071293 0.670687 0.814122
O O1 0.421176 0.146229 0.578564
O O2 0.170765 0.115890 0.872328
O O3 0.244235 0.282937 0.972143
O O4 0.301021 0.095547 0.043330
O O5 0.422943 0.583430 0.414759
O O6 0.407141 0.780472 0.305834
O O7 0.328175 0.618491 0.199015
O O8 0.991327 0.618257 0.742428
O O9 0.956839 0.784062 0.594332
O O10 0.704391 0.469999 0.105513
O O11 0.829441 0.417256 0.227568
O O12 0.161832 0.716636 0.169000
#
# Coordination Sequence:
#
# PCOD9240507 Si02
#       6
#     4   4   4   4   4   4
#     4  11  25  42  58  94 128 165 206 252 326 369
#     4  11  21  40  63  95 126 164 205 255 316 376
#     4  10  22  40  62  81 130 170 193 256 315 380
#     4  11  23  40  67  96 120 160 217 272 288 366
#     4  11  20  38  71  91 119 168 206 261 310 361
#     4  10  18  40  62  91 115 161 217 244 313 365
#
# _framework density 27.693968999999999
#
# number of rings (size 3 to 8) (size 9 to 14) (size 15 to 20)
#    0.000    1.333    5.000    2.500    0.000    2.000 
#    6.000    0.000    0.000    0.000    0.000    0.000 
#    0.000    0.000    0.000    0.000    0.000    0.000 
#
# Total GULP energy -134453.708461 kJ/mol
# GULP energy per Si atom -5602.237853 kJ/mol
# Density = 2.763094 g / cm^3
# Si number density = 27.693969 Si / 1000 Ang^3
#
#
#
# Elastic Constant Matrix: (Units=GPa)
#
#
# Indices 1 2 3 4 5 6 
#
# 1 114.8849 4.4315 9.8887 0.0000 12.9876 0.0000
# 2 4.4315 59.2639 26.4142 0.0000 -5.8655 0.0000
# 3 9.8887 26.4142 113.4591 0.0000 8.1692 0.0000
# 4 0.0000 0.0000 0.0000 27.8186 0.0000 8.4411
# 5 12.9876 -5.8655 8.1692 0.0000 53.7091 0.0000
# 6 0.0000 0.0000 0.0000 8.4411 0.0000 27.6628
#
#
#
# Elastic Compliance Matrix: (Units=1/GPa)
#
#
# Indices 1 2 3 4 5 6 
#
# 1 0.009018 -0.000681 -0.000470 0.000000 -0.002183 0.000000
# 2 -0.000681 0.019290 -0.004646 0.000000 0.002978 0.000000
# 3 -0.000470 -0.004646 0.010075 0.000000 -0.001926 0.000000
# 4 0.000000 0.000000 0.000000 0.039615 0.000000 -0.012088
# 5 -0.002183 0.002978 -0.001926 0.000000 0.019765 0.000000
# 6 0.000000 0.000000 0.000000 -0.012088 0.000000 0.039838
#
#
# Mechanical properties :
#
#
# Convention : Reuss Voigt Hill
#
# Bulk Modulus (GPa) = 37.32886 41.00854 39.16870
# Shear Modulus (GPa) = 31.62051 38.29634 34.95842
#
# Velocity S-wave (km/s) = 3.38269 3.72269 3.55676
# Velocity P-wave (km/s) = 5.36331 5.77216 5.57149
#
# Compressibility (1/GPa) = 0.02678892
#
# Stress axis : x y z
#
# Youngs Moduli (GPa) = 110.88996 51.84023 99.25527
#
# Poissons Ratio (x) = 0.03529 0.04668
# Poissons Ratio (y) = 0.07550 0.46114
# Poissons Ratio (z) = 0.05215 0.24085
#
# Static dielectric constant tensor:
#      x y z
#    x 2.173530 0.000000 -0.016070 
#    y 0.000000 2.154900 0.000000 
#    z -0.016070 0.000000 2.153830 
# 
# From -- ./inp_files/12929.got.cif
#   From: 2010.05.17/outbox.cif.g08.bks.cpg/sg14_7_cif.got.tgz:12929.got - 2010.06.03 17:49:19.
