data_PCOD9240709
_publ_section_title
;
Structure prediction by ZEFSAII (Michael W. Deem and Ramdas Pophale) SiO2 
 PCOD9240709
Probable space group: P 21/C
;
_chemical_formula_sum "Si O2"
_cell_formula_units_Z 24
_cell_length_a 12.879808
_cell_length_b 5.028488
_cell_length_c 20.897040
_cell_angle_alpha 90.000000
_cell_angle_beta 118.843737
_cell_angle_gamma 90.000000
_cell_volume 1185.510169
_symmetry_space_group_name_H-M "P 21/C"
_symmetry_group_IT_number 14
_symmetry_cell_setting 'monoclinic'
loop_
_space_group_symop_operation_xyz
x,y,z
-x,1/2+y,1/2-z
-x,-y,-z
x,1/2-y,1/2+z
loop_
_atom_site_type_symbol
_atom_site_label
_atom_site_fract_x
_atom_site_fract_y
_atom_site_fract_z
Si Si1 0.075724 0.168333 0.787912
Si Si2 0.482680 0.616118 0.788765
Si Si3 0.275637 0.257406 0.598469
Si Si4 0.999282 0.620647 0.604750
Si Si5 0.873804 0.225599 0.480993
Si Si6 0.766760 0.886014 0.770852
O O1 0.187764 0.217520 0.775771
O O2 0.973537 0.370200 0.733054
O O3 0.088213 0.229222 0.867091
O O4 0.472109 0.845510 0.731908
O O5 0.583932 0.719394 0.866724
O O6 0.353964 0.544862 0.777624
O O7 0.202144 0.038870 0.538453
O O8 0.221269 0.541312 0.564420
O O9 0.254215 0.225162 0.669008
O O10 0.035806 0.782684 0.552563
O O11 0.123560 0.574753 0.677767
O O12 0.946910 0.343691 0.562119
#
# Coordination Sequence:
#
# PCOD9240709 Si02
#       6
#     4   4   4   4   4   4
#     4  10  20  33  50  73 104 134 164 204 251 303
#     4  10  19  32  52  75 101 129 165 212 253 293
#     4  10  19  33  50  74  99 129 166 202 252 292
#     4   9  19  33  50  75 101 131 166 200 253 297
#     4  10  20  32  51  72 102 133 163 205 241 302
#     4   9  19  33  53  77 103 129 166 213 254 296
#
# _framework density 20.244447999999998
#
# number of rings (size 3 to 8) (size 9 to 14) (size 15 to 20)
#    0.000    2.333    0.000    4.000    0.000   12.667 
#    0.000    0.000    0.000    2.000    0.000    0.000 
#    0.000    0.000    0.000    0.000    0.000    0.000 
#
# Total GULP energy -133932.545400 kJ/mol
# GULP energy per Si atom -5580.522725 kJ/mol
# Density = 2.019837 g / cm^3
# Si number density = 20.244448 Si / 1000 Ang^3
#
#
#
# Elastic Constant Matrix: (Units=GPa)
#
#
# Indices 1 2 3 4 5 6 
#
# 1 96.9430 5.4622 44.7684 0.0000 12.5140 0.0000
# 2 5.4622 44.3098 10.2602 0.0000 4.8613 0.0000
# 3 44.7684 10.2602 66.4172 0.0000 11.8358 0.0000
# 4 0.0000 0.0000 0.0000 25.8683 0.0000 4.6304
# 5 12.5140 4.8613 11.8358 0.0000 45.2913 0.0000
# 6 0.0000 0.0000 0.0000 4.6304 0.0000 29.9354
#
#
#
# Elastic Compliance Matrix: (Units=1/GPa)
#
#
# Indices 1 2 3 4 5 6 
#
# 1 0.015102 0.000630 -0.009986 0.000000 -0.001631 0.000000
# 2 0.000630 0.023549 -0.003756 0.000000 -0.001720 0.000000
# 3 -0.009986 -0.003756 0.022869 0.000000 -0.002814 0.000000
# 4 0.000000 0.000000 0.000000 0.039758 0.000000 -0.006150
# 5 -0.001631 -0.001720 -0.002814 0.000000 0.023450 0.000000
# 6 0.000000 0.000000 0.000000 -0.006150 0.000000 0.034357
#
#
# Mechanical properties :
#
#
# Convention : Reuss Voigt Hill
#
# Bulk Modulus (GPa) = 28.33207 36.51684 32.42446
# Shear Modulus (GPa) = 25.37110 30.03094 27.70102
#
# Velocity S-wave (km/s) = 3.54395 3.85569 3.70310
# Velocity P-wave (km/s) = 5.54720 6.15621 5.85962
#
# Compressibility (1/GPa) = 0.03529569
#
# Stress axis : x y z
#
# Youngs Moduli (GPa) = 66.21647 42.46439 43.72702
#
# Poissons Ratio (x) = -0.02674 0.43666
# Poissons Ratio (y) = -0.04169 0.16423
# Poissons Ratio (z) = 0.66125 0.15949
#
# Static dielectric constant tensor:
#      x y z
#    x 1.751280 0.000000 0.002540 
#    y 0.000000 1.782650 0.000000 
#    z 0.002540 0.000000 1.759750 
# 
# From -- ./inp_files/66347.got.cif
#   From: 2010.05.17/outbox.cif.g08.bks.cpg/sg14_34_cif.got.tgz:66347.got - 2010.06.03 17:49:19.
