data_PCOD9240473
_publ_section_title
;
Structure prediction by ZEFSAII (Michael W. Deem and Ramdas Pophale) SiO2 
 PCOD9240473
Probable space group: P 21/C
;
_chemical_formula_sum "Si O2"
_cell_formula_units_Z 28
_cell_length_a 13.038830
_cell_length_b 10.990420
_cell_length_c 8.943392
_cell_angle_alpha 90.000000
_cell_angle_beta 74.829664
_cell_angle_gamma 90.000000
_cell_volume 1236.946578
_symmetry_space_group_name_H-M "P 21/C"
_symmetry_group_IT_number 14
_symmetry_cell_setting 'monoclinic'
loop_
_space_group_symop_operation_xyz
x,y,z
-x,1/2+y,1/2-z
-x,-y,-z
x,1/2-y,1/2+z
loop_
_atom_site_type_symbol
_atom_site_label
_atom_site_fract_x
_atom_site_fract_y
_atom_site_fract_z
Si Si1 0.646976 0.174718 0.700484
Si Si2 0.553436 0.605587 0.881853
Si Si3 0.115410 0.473950 0.393449
Si Si4 0.778142 0.718483 0.160199
Si Si5 0.769419 0.504933 0.934135
Si Si6 0.689069 0.092903 0.010631
Si Si7 0.632583 0.835130 0.987726
O O1 0.528737 0.119749 0.724630
O O2 0.692347 0.156257 0.848222
O O3 0.648542 0.314835 0.651737
O O4 0.719719 0.102318 0.552093
O O5 0.676524 0.563631 0.862720
O O6 0.547959 0.740372 0.957577
O O7 0.500000 0.500000 0.000000
O O8 0.138268 0.328351 0.370716
O O9 0.139016 0.526506 0.218486
O O10 0.200617 0.536804 0.471598
O O11 0.000000 0.500000 0.500000
O O12 0.735249 0.671989 0.335440
O O13 0.805380 0.607703 0.039450
O O14 0.672447 0.776993 0.126389
O O15 0.614503 0.976351 0.015170
#
# Coordination Sequence:
#
# PCOD9240473 Si02
#       7
#     4   4   4   4   4   4   4
#     4  11  23  43  64  98 145 187 224 291 351 412
#     4   9  20  38  67 101 139 186 233 277 350 413
#     4  11  24  46  71 100 131 178 235 295 363 423
#     4  10  18  38  69  95 127 172 225 288 340 403
#     4  10  20  43  68  95 141 178 228 297 333 417
#     4  11  25  44  65  98 142 186 237 287 359 413
#     4  10  20  38  67  95 137 184 231 276 340 424
#
# _framework density 22.636386000000002
#
# number of rings (size 3 to 8) (size 9 to 14) (size 15 to 20)
#    0.000    1.714    4.286    0.857    0.000    2.857 
#   10.286    0.714    0.000    0.000    0.000    0.000 
#    0.000    0.000    0.000    0.000    0.000    0.000 
#
# Total GULP energy -156408.338872 kJ/mol
# GULP energy per Si atom -5586.012103 kJ/mol
# Density = 2.258486 g / cm^3
# Si number density = 22.636386 Si / 1000 Ang^3
#
#
#
# Elastic Constant Matrix: (Units=GPa)
#
#
# Indices 1 2 3 4 5 6 
#
# 1 61.8474 30.2684 31.7207 0.0000 -18.3838 0.0000
# 2 30.2684 141.4006 57.3553 0.0000 -6.1247 0.0000
# 3 31.7207 57.3553 131.5685 0.0000 -0.8321 0.0000
# 4 0.0000 0.0000 0.0000 48.0313 0.0000 6.3506
# 5 -18.3838 -6.1247 -0.8321 0.0000 40.5989 0.0000
# 6 0.0000 0.0000 0.0000 6.3506 0.0000 21.4720
#
#
#
# Elastic Compliance Matrix: (Units=1/GPa)
#
#
# Indices 1 2 3 4 5 6 
#
# 1 0.022526 -0.002701 -0.004192 0.000000 0.009707 0.000000
# 2 -0.002701 0.008976 -0.003261 0.000000 0.000064 0.000000
# 3 -0.004192 -0.003261 0.010019 0.000000 -0.002185 0.000000
# 4 0.000000 0.000000 0.000000 0.021667 0.000000 -0.006408
# 5 0.009707 0.000064 -0.002185 0.000000 0.028991 0.000000
# 6 0.000000 0.000000 0.000000 -0.006408 0.000000 0.048468
#
#
# Mechanical properties :
#
#
# Convention : Reuss Voigt Hill
#
# Bulk Modulus (GPa) = 47.14250 63.72282 55.43266
# Shear Modulus (GPa) = 29.75711 36.38525 33.07118
#
# Velocity S-wave (km/s) = 3.62963 4.01356 3.82642
# Velocity P-wave (km/s) = 6.19975 7.04911 6.63803
#
# Compressibility (1/GPa) = 0.02121228
#
# Stress axis : x y z
#
# Youngs Moduli (GPa) = 44.39297 111.40887 99.80854
#
# Poissons Ratio (x) = 0.30093 0.41840
# Poissons Ratio (y) = 0.11991 0.32550
# Poissons Ratio (z) = 0.18610 0.36334
#
# Static dielectric constant tensor:
#      x y z
#    x 1.822840 0.000000 -0.006020 
#    y 0.000000 1.895250 0.000000 
#    z -0.006020 0.000000 1.971070 
# 
# From -- ./inp_files/15518.got.cif
#   From: 2010.05.17/outbox.cif.g08.bks.cpg/sg14_8_cif.got.tgz:15518.got - 2010.06.03 17:49:19.
