data_PCOD9240644
_publ_section_title
;
Structure prediction by ZEFSAII (Michael W. Deem and Ramdas Pophale) SiO2 
 PCOD9240644
Probable space group: P 21/C
;
_chemical_formula_sum "Si O2"
_cell_formula_units_Z 16
_cell_length_a 7.754786
_cell_length_b 6.860466
_cell_length_c 10.849848
_cell_angle_alpha 90.000000
_cell_angle_beta 77.143951
_cell_angle_gamma 90.000000
_cell_volume 562.757750
_symmetry_space_group_name_H-M "P 21/C"
_symmetry_group_IT_number 14
_symmetry_cell_setting 'monoclinic'
loop_
_space_group_symop_operation_xyz
x,y,z
-x,1/2+y,1/2-z
-x,-y,-z
x,1/2-y,1/2+z
loop_
_atom_site_type_symbol
_atom_site_label
_atom_site_fract_x
_atom_site_fract_y
_atom_site_fract_z
Si Si1 0.211979 0.513571 0.937422
Si Si2 0.744433 0.990102 0.311513
Si Si3 0.147962 0.559465 0.688609
Si Si4 0.662462 0.458929 0.564136
O O1 0.228925 0.446362 0.793202
O O2 0.306226 0.421467 0.042706
O O3 0.284553 0.734295 0.921057
O O4 0.000000 0.500000 0.000000
O O5 0.769250 0.224170 0.324782
O O6 0.635412 0.955548 0.204629
O O7 0.941749 0.920030 0.248096
O O8 0.176686 0.469628 0.549413
O O9 0.500000 0.500000 0.500000
#
# Coordination Sequence:
#
# PCOD9240644 Si02
#       4
#     4   4   4   4
#     4   8  16  33  57  77 100 143 195 233 265 323
#     4   9  17  32  54  77 102 139 188 231 267 322
#     4   9  17  32  54  77 102 139 188 231 267 322
#     4  10  19  31  50  81 116 143 173 225 289 337
#
# _framework density 28.431417
#
# number of rings (size 3 to 8) (size 9 to 14) (size 15 to 20)
#    0.000    3.000    0.000    0.750    0.000    0.000 
#    0.000    8.750    0.000    0.000    0.000    0.000 
#    0.000    0.000    0.000    0.000    0.000    0.000 
#
# Total GULP energy -89388.540492 kJ/mol
# GULP energy per Si atom -5586.783781 kJ/mol
# Density = 2.836671 g / cm^3
# Si number density = 28.431417 Si / 1000 Ang^3
#
#
#
# Elastic Constant Matrix: (Units=GPa)
#
#
# Indices 1 2 3 4 5 6 
#
# 1 123.8522 13.3555 36.2173 0.0000 23.4083 0.0000
# 2 13.3555 151.8275 -8.6912 0.0000 10.6214 0.0000
# 3 36.2173 -8.6912 242.4189 0.0000 65.7335 0.0000
# 4 0.0000 0.0000 0.0000 0.5923 0.0000 4.3580
# 5 23.4083 10.6214 65.7335 0.0000 50.9083 0.0000
# 6 0.0000 0.0000 0.0000 4.3580 0.0000 24.1896
#
#
#
# Elastic Compliance Matrix: (Units=1/GPa)
#
#
# Indices 1 2 3 4 5 6 
#
# 1 0.008907 -0.000567 -0.000419 0.000000 -0.003436 0.000000
# 2 -0.000567 0.006866 0.000998 0.000000 -0.002460 0.000000
# 3 -0.000419 0.000998 0.006505 0.000000 -0.008415 0.000000
# 4 0.000000 0.000000 0.000000 -5.186995 0.000000 0.934483
# 5 -0.003436 -0.002460 -0.008415 0.000000 0.032602 0.000000
# 6 0.000000 0.000000 0.000000 0.934483 0.000000 -0.127015
#
#
# Mechanical properties :
#
#
# Convention : Reuss Voigt Hill
#
# Bulk Modulus (GPa) = 44.84117 66.65130 55.74624
# Shear Modulus (GPa) = -0.95207 46.95252 23.00023
#
# Velocity S-wave (km/s) = -0.57930 4.06819 2.84733
# Velocity P-wave (km/s) = 3.91899 6.74986 5.51902
#
# Compressibility (1/GPa) = 0.02230093
#
# Stress axis : x y z
#
# Youngs Moduli (GPa) = 112.26710 145.65462 153.71938
#
# Poissons Ratio (x) = 0.08261 0.06448
# Poissons Ratio (y) = 0.06368 -0.15341
# Poissons Ratio (z) = 0.04709 -0.14536
#
# Static dielectric constant tensor:
#      x y z
#    x 2.287290 0.000000 0.040760 
#    y 0.000000 2.306010 0.000000 
#    z 0.040760 0.000000 2.393000 
# 
# From -- ./inp_files/22590.got.cif
#   From: 2010.05.17/outbox.cif.g08.bks.cpg/sg14_12_cif.got.tgz:22590.got - 2010.06.03 17:49:19.
