data_PCOD9240269
_publ_section_title
;
Structure prediction by ZEFSAII (Michael W. Deem and Ramdas Pophale) SiO2 
 PCOD9240269
Probable space group: P 21/C
;
_chemical_formula_sum "Si O2"
_cell_formula_units_Z 24
_cell_length_a 21.777300
_cell_length_b 9.474891
_cell_length_c 29.832909
_cell_angle_alpha 90.000000
_cell_angle_beta 12.364095
_cell_angle_gamma 90.000000
_cell_volume 1318.067563
_symmetry_space_group_name_H-M "P 21/C"
_symmetry_group_IT_number 14
_symmetry_cell_setting 'monoclinic'
loop_
_space_group_symop_operation_xyz
x,y,z
-x,1/2+y,1/2-z
-x,-y,-z
x,1/2-y,1/2+z
loop_
_atom_site_type_symbol
_atom_site_label
_atom_site_fract_x
_atom_site_fract_y
_atom_site_fract_z
Si Si1 0.035778 0.362581 0.324935
Si Si2 0.419242 0.852519 0.625287
Si Si3 0.535144 0.326288 0.146684
Si Si4 0.522628 0.848144 0.647959
Si Si5 0.852179 0.827715 0.987640
Si Si6 0.137196 0.154568 0.849856
O O1 0.122802 0.286417 0.309689
O O2 0.806696 0.271612 0.461276
O O3 0.895489 0.512202 0.439013
O O4 0.318865 0.386579 0.093922
O O5 0.532393 0.786190 0.590734
O O6 0.262038 0.996576 0.753674
O O7 0.167034 0.774231 0.778301
O O8 0.622768 0.489113 0.076528
O O9 0.344603 0.324150 0.327761
O O10 0.340818 0.280581 0.242734
O O11 0.704121 0.762074 0.554470
O O12 0.187538 0.849582 0.901007
#
# Coordination Sequence:
#
# PCOD9240269 Si02
#       6
#     4   4   4   4   4   4
#     4  11  23  35  58  86 112 142 188 233 272 323
#     4  10  21  37  56  84 113 147 186 223 275 335
#     4  11  19  36  59  84 108 146 192 224 269 331
#     4  11  20  35  62  81 109 148 188 223 273 330
#     4  11  19  37  59  83 109 147 187 229 269 327
#     4  10  18  36  59  80 105 153 184 218 266 340
#
# _framework density 18.208473999999999
#
# number of rings (size 3 to 8) (size 9 to 14) (size 15 to 20)
#    0.000    1.333    6.667    3.000    0.000    4.000 
#    0.000    3.333    0.000    0.000    0.000    0.000 
#    0.000    0.000    0.000    0.000    0.000    0.000 
#
# Total GULP energy -133831.580182 kJ/mol
# GULP energy per Si atom -5576.315841 kJ/mol
# Density = 1.816703 g / cm^3
# Si number density = 18.208474 Si / 1000 Ang^3
#
#
#
# Elastic Constant Matrix: (Units=GPa)
#
#
# Indices 1 2 3 4 5 6 
#
# 1 152.9022 37.9054 72.1618 0.0000 -40.1228 0.0000
# 2 37.9054 38.5809 32.9255 0.0000 -23.1229 0.0000
# 3 72.1618 32.9255 105.9943 0.0000 -16.9449 0.0000
# 4 0.0000 0.0000 0.0000 15.7540 0.0000 -16.2580
# 5 -40.1228 -23.1229 -16.9449 0.0000 50.6122 0.0000
# 6 0.0000 0.0000 0.0000 -16.2580 0.0000 3.3830
#
#
#
# Elastic Compliance Matrix: (Units=1/GPa)
#
#
# Indices 1 2 3 4 5 6 
#
# 1 0.011677 -0.002601 -0.006183 0.000000 0.005999 0.000000
# 2 -0.002601 0.046673 -0.010194 0.000000 0.015849 0.000000
# 3 -0.006183 -0.010194 0.016147 0.000000 -0.004153 0.000000
# 4 0.000000 0.000000 0.000000 -0.016031 0.000000 -0.077042
# 5 0.005999 0.015849 -0.004153 0.000000 0.030364 0.000000
# 6 0.000000 0.000000 0.000000 -0.077042 0.000000 -0.074653
#
#
# Mechanical properties :
#
#
# Convention : Reuss Voigt Hill
#
# Bulk Modulus (GPa) = 27.36627 64.82918 46.09773
# Shear Modulus (GPa) = 77.74627 24.24881 50.99754
#
# Velocity S-wave (km/s) = 6.54145 3.65325 5.29796
# Velocity P-wave (km/s) = 8.49212 7.31274 7.92440
#
# Compressibility (1/GPa) = 0.03654133
#
# Stress axis : x y z
#
# Youngs Moduli (GPa) = 85.63848 21.42560 61.93259
#
# Poissons Ratio (x) = 0.05572 0.38293
# Poissons Ratio (y) = 0.22272 0.63135
# Poissons Ratio (z) = 0.52950 0.21841
#
# Static dielectric constant tensor:
#      x y z
#    x 1.693050 0.000000 -0.024590 
#    y 0.000000 1.618910 0.000000 
#    z -0.024590 0.000000 1.618800 
# 
# From -- ./inp_files/33865.got.cif
#   From: 2010.05.17/outbox.cif.g08.bks.cpg/sg14_17_cif.got.tgz:33865.got - 2010.06.03 17:49:19.
