data_PCOD9240734
_publ_section_title
;
Structure prediction by ZEFSAII (Michael W. Deem and Ramdas Pophale) SiO2 
 PCOD9240734
Probable space group: P 21/C
;
_chemical_formula_sum "Si O2"
_cell_formula_units_Z 28
_cell_length_a 12.437048
_cell_length_b 8.749266
_cell_length_c 17.976805
_cell_angle_alpha 90.000000
_cell_angle_beta 147.087777
_cell_angle_gamma 90.000000
_cell_volume 1062.879305
_symmetry_space_group_name_H-M "P 21/C"
_symmetry_group_IT_number 14
_symmetry_cell_setting 'monoclinic'
loop_
_space_group_symop_operation_xyz
x,y,z
-x,1/2+y,1/2-z
-x,-y,-z
x,1/2-y,1/2+z
loop_
_atom_site_type_symbol
_atom_site_label
_atom_site_fract_x
_atom_site_fract_y
_atom_site_fract_z
Si Si1 0.244867 0.678799 0.647113
Si Si2 0.623052 0.665634 0.296677
Si Si3 0.516845 0.367079 0.411769
Si Si4 0.941126 0.169024 0.103221
Si Si5 0.022215 0.535232 0.775494
Si Si6 0.199055 0.262795 0.949208
Si Si7 0.604550 0.287821 0.626677
O O1 0.339039 0.510277 0.698550
O O2 0.404032 0.801812 0.705959
O O3 0.051996 0.679441 0.481771
O O4 0.222662 0.723590 0.720575
O O5 0.621359 0.763798 0.219975
O O6 0.768612 0.720786 0.446840
O O7 0.716893 0.393898 0.482188
O O8 0.590507 0.282862 0.529707
O O9 0.418310 0.530217 0.371028
O O10 0.920281 0.331402 0.132791
O O11 0.085101 0.057250 0.234525
O O12 0.035443 0.389372 0.836257
O O13 0.844187 0.626573 0.634062
O O14 0.416875 0.310259 0.047308
#
# Coordination Sequence:
#
# PCOD9240734 Si02
#       7
#     4   4   4   4   4   4   4
#     4  10  19  32  53  80 106 133 177 224 261 307
#     4  10  19  32  53  80 106 133 177 224 261 307
#     4  10  21  36  55  79 109 138 172 222 271 316
#     4  10  19  35  54  83 100 139 177 218 258 311
#     4  10  20  32  56  76 108 138 178 216 250 308
#     4  10  19  35  54  83 100 139 177 218 258 311
#     4  10  21  36  55  79 109 138 172 222 271 316
#
# _framework density 26.343537000000001
#
# number of rings (size 3 to 8) (size 9 to 14) (size 15 to 20)
#    0.000    2.000    2.857    2.571   10.000    0.571 
#    0.000    0.000    0.000   10.286    0.000    0.000 
#    0.000    0.000    0.000    0.000    0.000    0.000 
#
# Total GULP energy -156048.691301 kJ/mol
# GULP energy per Si atom -5573.167546 kJ/mol
# Density = 2.628358 g / cm^3
# Si number density = 26.343537 Si / 1000 Ang^3
#
#
#
# Elastic Constant Matrix: (Units=GPa)
#
#
# Indices 1 2 3 4 5 6 
#
# 1 69.2349 27.8048 36.9551 0.0000 -27.3552 0.0000
# 2 27.8048 104.2845 67.9093 0.0000 -17.7491 0.0000
# 3 36.9551 67.9093 221.3657 0.0000 -55.3842 0.0000
# 4 0.0000 0.0000 0.0000 59.7573 0.0000 -15.0058
# 5 -27.3552 -17.7491 -55.3842 0.0000 43.8312 0.0000
# 6 0.0000 0.0000 0.0000 -15.0058 0.0000 24.3769
#
#
#
# Elastic Compliance Matrix: (Units=1/GPa)
#
#
# Indices 1 2 3 4 5 6 
#
# 1 0.020386 -0.003912 0.000853 0.000000 0.012217 0.000000
# 2 -0.003912 0.012736 -0.003765 0.000000 -0.002041 0.000000
# 3 0.000853 -0.003765 0.007723 0.000000 0.008767 0.000000
# 4 0.000000 0.000000 0.000000 0.019794 0.000000 0.012185
# 5 0.012217 -0.002041 0.008767 0.000000 0.040691 0.000000
# 6 0.000000 0.000000 0.000000 0.012185 0.000000 0.048523
#
#
# Mechanical properties :
#
#
# Convention : Reuss Voigt Hill
#
# Bulk Modulus (GPa) = 36.76519 73.35817 55.06168
# Shear Modulus (GPa) = 28.97421 43.07415 36.02418
#
# Velocity S-wave (km/s) = 3.32001 4.04802 3.70195
# Velocity P-wave (km/s) = 5.35565 7.05378 6.26254
#
# Compressibility (1/GPa) = 0.02719964
#
# Stress axis : x y z
#
# Youngs Moduli (GPa) = 49.05277 78.51534 129.47723
#
# Poissons Ratio (x) = 0.30714 -0.11050
# Poissons Ratio (y) = 0.19189 0.48745
# Poissons Ratio (z) = -0.04186 0.29559
#
# Static dielectric constant tensor:
#      x y z
#    x 2.174150 0.000000 -0.004650 
#    y 0.000000 2.065190 0.000000 
#    z -0.004650 0.000000 2.113380 
# 
# From -- ./inp_files/69058.got.cif
#   From: 2010.05.17/outbox.cif.g08.bks.cpg/sg14_35_cif.got.tgz:69058.got - 2010.06.03 17:49:19.
