data_PCOD9240018
_publ_section_title
;
Structure prediction by ZEFSAII (Michael W. Deem and Ramdas Pophale) SiO2 
 PCOD9240018
Probable space group: P 21/C
;
_chemical_formula_sum "Si O2"
_cell_formula_units_Z 20
_cell_length_a 14.648433
_cell_length_b 5.155796
_cell_length_c 18.804897
_cell_angle_alpha 90.000000
_cell_angle_beta 44.464337
_cell_angle_gamma 90.000000
_cell_volume 994.819757
_symmetry_space_group_name_H-M "P 21/C"
_symmetry_group_IT_number 14
_symmetry_cell_setting 'monoclinic'
loop_
_space_group_symop_operation_xyz
x,y,z
-x,1/2+y,1/2-z
-x,-y,-z
x,1/2-y,1/2+z
loop_
_atom_site_type_symbol
_atom_site_label
_atom_site_fract_x
_atom_site_fract_y
_atom_site_fract_z
Si Si1 0.516635 0.097250 0.790728
Si Si2 0.952713 0.834689 0.442076
Si Si3 0.744738 0.451895 0.506017
Si Si4 0.950131 0.177151 0.316891
Si Si5 0.799919 0.178626 0.626440
O O1 0.478341 0.355152 0.767418
O O2 0.662238 0.131340 0.739884
O O3 0.404140 0.040644 0.910591
O O4 0.848920 0.682757 0.452246
O O5 0.084945 0.693081 0.392023
O O6 0.995054 0.077627 0.369672
O O7 0.871223 0.921638 0.556565
O O8 0.800076 0.263245 0.414549
O O9 0.763362 0.323503 0.573740
O O10 0.025062 0.431895 0.247718
#
# Coordination Sequence:
#
# PCOD9240018 Si02
#       5
#     4   4   4   4   4
#     4  10  19  33  51  80 116 146 170 207 272 337
#     4  10  18  34  55  84 110 142 178 224 274 316
#     4  10  19  33  58  80 113 142 185 215 273 323
#     4  11  22  37  56  79 102 143 192 236 260 307
#     4   9  19  31  53  87 116 139 169 221 276 335
#
# _framework density 20.104144000000002
#
# number of rings (size 3 to 8) (size 9 to 14) (size 15 to 20)
#    0.000    2.000    4.000    0.600    0.000    0.000 
#    0.000    0.000    0.000    2.400    0.000    0.000 
#    0.000    0.000    0.000    0.000    0.000    0.000 
#
# Total GULP energy -111339.906291 kJ/mol
# GULP energy per Si atom -5566.995315 kJ/mol
# Density = 2.005839 g / cm^3
# Si number density = 20.104144 Si / 1000 Ang^3
#
#
#
# Elastic Constant Matrix: (Units=GPa)
#
#
# Indices 1 2 3 4 5 6 
#
# 1 33.7895 10.4663 47.5653 0.0000 -20.5813 0.0000
# 2 10.4663 89.6380 37.3398 0.0000 -5.1093 0.0000
# 3 47.5653 37.3398 154.3468 0.0000 -30.6738 0.0000
# 4 0.0000 0.0000 0.0000 31.0365 0.0000 1.3239
# 5 -20.5813 -5.1093 -30.6738 0.0000 35.3839 0.0000
# 6 0.0000 0.0000 0.0000 1.3239 0.0000 14.3309
#
#
#
# Elastic Compliance Matrix: (Units=1/GPa)
#
#
# Indices 1 2 3 4 5 6 
#
# 1 0.067103 0.000136 -0.015647 0.000000 0.025486 0.000000
# 2 0.000136 0.012435 -0.003235 0.000000 -0.000930 0.000000
# 3 -0.015647 -0.003235 0.012301 0.000000 0.001095 0.000000
# 4 0.000000 0.000000 0.000000 0.032348 0.000000 -0.002988
# 5 0.025486 -0.000930 0.001095 0.000000 0.043901 0.000000
# 6 0.000000 0.000000 0.000000 -0.002988 0.000000 0.070056
#
#
# Mechanical properties :
#
#
# Convention : Reuss Voigt Hill
#
# Bulk Modulus (GPa) = 18.40054 52.05744 35.22899
# Shear Modulus (GPa) = 17.02124 28.31047 22.66586
#
# Velocity S-wave (km/s) = 2.91289 3.75666 3.36135
# Velocity P-wave (km/s) = 4.52611 6.69079 5.71194
#
# Compressibility (1/GPa) = 0.05434624
#
# Stress axis : x y z
#
# Youngs Moduli (GPa) = 14.90248 80.42058 81.29329
#
# Poissons Ratio (x) = -0.01091 1.27200
# Poissons Ratio (y) = -0.00202 0.26297
# Poissons Ratio (z) = 0.23318 0.26014
#
# Static dielectric constant tensor:
#      x y z
#    x 1.754870 0.000000 -0.004740 
#    y 0.000000 1.834480 0.000000 
#    z -0.004740 0.000000 1.776480 
# 
# From -- ./inp_files/54023.got.cif
#   From: 2010.05.17/outbox.cif.g08.bks.cpg/sg14_28_cif.got.tgz:54023.got - 2010.06.03 17:49:19.
