data_PCOD9240911
_publ_section_title
;
Structure prediction by ZEFSAII (Michael W. Deem and Ramdas Pophale) SiO2 
 PCOD9240911
Probable space group: P 21/C
;
_chemical_formula_sum "Si O2"
_cell_formula_units_Z 28
_cell_length_a 9.041528
_cell_length_b 13.622886
_cell_length_c 20.333214
_cell_angle_alpha 90.000000
_cell_angle_beta 27.963559
_cell_angle_gamma 90.000000
_cell_volume 1174.373890
_symmetry_space_group_name_H-M "P 21/C"
_symmetry_group_IT_number 14
_symmetry_cell_setting 'monoclinic'
loop_
_space_group_symop_operation_xyz
x,y,z
-x,1/2+y,1/2-z
-x,-y,-z
x,1/2-y,1/2+z
loop_
_atom_site_type_symbol
_atom_site_label
_atom_site_fract_x
_atom_site_fract_y
_atom_site_fract_z
Si Si1 0.135918 0.210566 0.532409
Si Si2 0.543979 0.358049 0.749542
Si Si3 0.716634 0.778267 0.777957
Si Si4 0.823863 0.500449 0.920079
Si Si5 0.833783 0.478117 0.337444
Si Si6 0.406346 0.447703 0.198379
Si Si7 0.364305 0.771528 0.054984
O O1 0.289604 0.187021 0.401039
O O2 0.061976 0.105319 0.594140
O O3 0.403462 0.245056 0.478248
O O4 0.861871 0.292503 0.636072
O O5 0.445170 0.342543 0.713682
O O6 0.551093 0.475735 0.759498
O O7 0.682768 0.666573 0.760046
O O8 0.086240 0.800227 0.642814
O O9 0.554017 0.787748 0.913051
O O10 0.100791 0.481152 0.759465
O O11 0.500000 0.500000 0.000000
O O12 0.706204 0.447290 0.032159
O O13 0.500000 0.500000 0.500000
O O14 0.835900 0.360790 0.336254
O O15 0.122270 0.503884 0.271397
#
# Coordination Sequence:
#
# PCOD9240911 Si02
#       7
#     4   4   4   4   4   4   4
#     4  11  21  38  64  91 121 164 214 261 310 375
#     4  11  23  42  64  92 127 168 214 265 319 380
#     4  11  24  43  62  93 130 168 212 262 325 383
#     4   9  18  35  57  88 125 159 201 256 310 374
#     4  10  19  33  57  95 125 153 201 260 316 367
#     4   9  21  40  62  84 124 171 210 254 316 387
#     4  11  22  39  63  91 126 165 207 260 314 376
#
# _framework density 23.842490000000002
#
# number of rings (size 3 to 8) (size 9 to 14) (size 15 to 20)
#    0.000    1.714    0.000    6.000    0.000    3.429 
#    0.000   17.143    0.000    0.000    0.000    0.000 
#    0.000    0.000    0.000    0.000    0.000    0.000 
#
# Total GULP energy -156305.547198 kJ/mol
# GULP energy per Si atom -5582.340971 kJ/mol
# Density = 2.378822 g / cm^3
# Si number density = 23.842490 Si / 1000 Ang^3
#
#
#
# Elastic Constant Matrix: (Units=GPa)
#
#
# Indices 1 2 3 4 5 6 
#
# 1 108.8950 21.2944 19.9512 0.0000 -3.6863 0.0000
# 2 21.2944 66.1297 1.7442 0.0000 -5.4135 0.0000
# 3 19.9512 1.7442 115.8688 0.0000 -1.8898 0.0000
# 4 0.0000 0.0000 0.0000 29.6054 0.0000 2.1499
# 5 -3.6863 -5.4135 -1.8898 0.0000 18.7351 0.0000
# 6 0.0000 0.0000 0.0000 2.1499 0.0000 40.4621
#
#
#
# Elastic Compliance Matrix: (Units=1/GPa)
#
#
# Indices 1 2 3 4 5 6 
#
# 1 0.010138 -0.003145 -0.001683 0.000000 0.000916 0.000000
# 2 -0.003145 0.016467 0.000362 0.000000 0.004176 0.000000
# 3 -0.001683 0.000362 0.008926 0.000000 0.000674 0.000000
# 4 0.000000 0.000000 0.000000 0.033908 0.000000 -0.001802
# 5 0.000916 0.004176 0.000674 0.000000 0.054830 0.000000
# 6 0.000000 0.000000 0.000000 -0.001802 0.000000 0.024810
#
#
# Mechanical properties :
#
#
# Convention : Reuss Voigt Hill
#
# Bulk Modulus (GPa) = 37.59800 41.87479 39.73640
# Shear Modulus (GPa) = 29.96200 34.28746 32.12473
#
# Velocity S-wave (km/s) = 3.54879 3.79632 3.67464
# Velocity P-wave (km/s) = 5.70924 6.06772 5.89121
#
# Compressibility (1/GPa) = 0.02659716
#
# Stress axis : x y z
#
# Youngs Moduli (GPa) = 98.64295 60.72828 112.03438
#
# Poissons Ratio (x) = 0.19099 0.18859
# Poissons Ratio (y) = 0.31023 -0.04053
# Poissons Ratio (z) = 0.16604 -0.02197
#
# Static dielectric constant tensor:
#      x y z
#    x 1.949890 0.000000 -0.083810 
#    y 0.000000 -0.277360 0.000000 
#    z -0.083810 0.000000 1.930860 
# 
# From -- ./inp_files/65896.got.cif
#   From: 2010.05.17/outbox.cif.g08.bks.cpg/sg14_33_cif.got.tgz:65896.got - 2010.06.03 17:49:19.
