data_PCOD9240339
_publ_section_title
;
Structure prediction by ZEFSAII (Michael W. Deem and Ramdas Pophale) SiO2 
 PCOD9240339
Probable space group: P 21/C
;
_chemical_formula_sum "Si O2"
_cell_formula_units_Z 32
_cell_length_a 10.316364
_cell_length_b 13.404258
_cell_length_c 14.791012
_cell_angle_alpha 90.000000
_cell_angle_beta 139.423766
_cell_angle_gamma 90.000000
_cell_volume 1330.415815
_symmetry_space_group_name_H-M "P 21/C"
_symmetry_group_IT_number 14
_symmetry_cell_setting 'monoclinic'
loop_
_space_group_symop_operation_xyz
x,y,z
-x,1/2+y,1/2-z
-x,-y,-z
x,1/2-y,1/2+z
loop_
_atom_site_type_symbol
_atom_site_label
_atom_site_fract_x
_atom_site_fract_y
_atom_site_fract_z
Si Si1 0.195370 0.276990 0.327274
Si Si2 0.759710 0.198672 0.129529
Si Si3 0.081454 0.075142 0.969235
Si Si4 0.107344 0.225929 0.588161
Si Si5 0.830785 0.534321 0.981911
Si Si6 0.463967 0.181389 0.127756
Si Si7 0.915300 0.995251 0.209453
Si Si8 0.337623 0.670444 0.085088
O O1 0.214904 0.234777 0.236479
O O2 0.340733 0.255434 0.487623
O O3 0.201324 0.398028 0.315462
O O4 0.978131 0.245865 0.247051
O O5 0.667126 0.173409 0.178130
O O6 0.786496 0.087444 0.104340
O O7 0.639862 0.271988 0.998234
O O8 0.052777 0.184530 0.993367
O O9 0.317676 0.085820 0.067263
O O10 0.972465 0.047877 0.818454
O O11 0.000000 0.000000 0.000000
O O12 0.218118 0.140251 0.589614
O O13 0.895001 0.189213 0.514035
O O14 0.941700 0.536833 0.137247
O O15 0.659243 0.450814 0.905803
O O16 0.000000 0.500000 0.000000
O O17 0.529751 0.211727 0.262735
#
# Coordination Sequence:
#
# PCOD9240339 Si02
#       8
#     4   4   4   4   4   4   4   4
#     4  10  23  44  69 103 142 188 243 310 375 437
#     4  11  23  46  71  99 150 189 253 313 357 458
#     4  11  26  47  67 103 144 186 244 299 373 448
#     4  10  21  42  74  98 144 197 236 310 376 439
#     4  10  18  36  68 103 140 186 247 290 357 436
#     4  11  27  41  76 107 138 199 253 296 382 438
#     4  11  22  40  72 105 134 199 246 293 380 429
#     4  10  22  42  65 108 145 189 242 314 361 425
#
# _framework density 24.052631000000002
#
# number of rings (size 3 to 8) (size 9 to 14) (size 15 to 20)
#    0.000    1.500    3.750    3.000    8.750    2.000 
#    0.000    1.250    0.000    2.250    0.000    0.000 
#    0.000    0.000    0.000    0.000    0.000    0.000 
#
# Total GULP energy -178304.848765 kJ/mol
# GULP energy per Si atom -5572.026524 kJ/mol
# Density = 2.399789 g / cm^3
# Si number density = 24.052631 Si / 1000 Ang^3
#
#
#
# Elastic Constant Matrix: (Units=GPa)
#
#
# Indices 1 2 3 4 5 6 
#
# 1 111.7248 44.1509 35.4102 0.0000 -35.6753 0.0000
# 2 44.1509 85.1090 -11.3448 0.0000 -12.5262 0.0000
# 3 35.4102 -11.3448 114.5878 0.0000 -27.1721 0.0000
# 4 0.0000 0.0000 0.0000 25.6195 0.0000 -13.5273
# 5 -35.6753 -12.5262 -27.1721 0.0000 49.9459 0.0000
# 6 0.0000 0.0000 0.0000 -13.5273 0.0000 34.7955
#
#
#
# Elastic Compliance Matrix: (Units=1/GPa)
#
#
# Indices 1 2 3 4 5 6 
#
# 1 0.015335 -0.007430 -0.003811 0.000000 0.007017 0.000000
# 2 -0.007430 0.016313 0.004159 0.000000 0.001047 0.000000
# 3 -0.003811 0.004159 0.011387 0.000000 0.004516 0.000000
# 4 0.000000 0.000000 0.000000 0.049115 0.000000 0.019094
# 5 0.007017 0.001047 0.004516 0.000000 0.027753 0.000000
# 6 0.000000 0.000000 0.000000 0.019094 0.000000 0.036162
#
#
# Mechanical properties :
#
#
# Convention : Reuss Voigt Hill
#
# Bulk Modulus (GPa) = 34.63592 49.76157 42.19874
# Shear Modulus (GPa) = 27.80048 38.28586 33.04317
#
# Velocity S-wave (km/s) = 3.40342 3.99401 3.71048
# Velocity P-wave (km/s) = 5.46587 6.48097 5.99494
#
# Compressibility (1/GPa) = 0.02887176
#
# Stress axis : x y z
#
# Youngs Moduli (GPa) = 65.20899 61.30182 87.81747
#
# Poissons Ratio (x) = 0.45550 0.33464
# Poissons Ratio (y) = 0.48454 -0.36527
# Poissons Ratio (z) = 0.24849 -0.25498
#
# Static dielectric constant tensor:
#      x y z
#    x 1.996170 0.000000 0.038420 
#    y 0.000000 2.003810 0.000000 
#    z 0.038420 0.000000 1.995210 
# 
# From -- ./inp_files/45105.got.cif
#   From: 2010.05.17/outbox.cif.g08.bks.cpg/sg14_23_cif.got.tgz:45105.got - 2010.06.03 17:49:19.
