data_PCOD9240331
_publ_section_title
;
Structure prediction by ZEFSAII (Michael W. Deem and Ramdas Pophale) SiO2 
 PCOD9240331
Probable space group: P 21/C
;
_chemical_formula_sum "Si O2"
_cell_formula_units_Z 28
_cell_length_a 9.665071
_cell_length_b 16.460122
_cell_length_c 9.072378
_cell_angle_alpha 90.000000
_cell_angle_beta 93.142232
_cell_angle_gamma 90.000000
_cell_volume 1441.138760
_symmetry_space_group_name_H-M "P 21/C"
_symmetry_group_IT_number 14
_symmetry_cell_setting 'monoclinic'
loop_
_space_group_symop_operation_xyz
x,y,z
-x,1/2+y,1/2-z
-x,-y,-z
x,1/2-y,1/2+z
loop_
_atom_site_type_symbol
_atom_site_label
_atom_site_fract_x
_atom_site_fract_y
_atom_site_fract_z
Si Si1 0.630463 0.411627 0.799634
Si Si2 0.989487 0.157365 0.661487
Si Si3 0.884501 0.298281 0.845465
Si Si4 0.291305 0.408938 0.224986
Si Si5 0.272261 0.850773 0.190804
Si Si6 0.492783 0.806741 0.444253
Si Si7 0.510370 0.618033 0.508837
O O1 0.772300 0.361406 0.775900
O O2 0.675757 0.502764 0.839148
O O3 0.526100 0.411889 0.655396
O O4 0.553675 0.365744 0.927384
O O5 0.131772 0.115310 0.711987
O O6 0.975088 0.248620 0.731138
O O7 0.967852 0.163142 0.485140
O O8 0.857761 0.112218 0.729675
O O9 0.793325 0.223117 0.906469
O O10 0.376397 0.342994 0.135019
O O11 0.355568 0.409826 0.393650
O O12 0.367974 0.808723 0.319613
O O13 0.375319 0.903409 0.100337
O O14 0.517882 0.716013 0.500939
#
# Coordination Sequence:
#
# PCOD9240331 Si02
#       7
#     4   4   4   4   4   4   4
#     4  12  20  40  63  90 116 157 202 243 290 348
#     4  10  21  39  56  89 115 153 198 238 291 352
#     4  10  18  36  66  79 112 157 205 235 273 363
#     4  11  27  35  56  94 132 144 183 262 310 326
#     4   9  17  36  63  85 103 150 214 235 263 354
#     4  11  19  39  63  88 112 161 204 235 281 364
#     4  11  20  39  64  85 112 161 202 236 284 359
#
# _framework density 19.429079000000002
#
# number of rings (size 3 to 8) (size 9 to 14) (size 15 to 20)
#    0.857    0.571    4.286    2.571    2.000    0.571 
#    0.000    0.714    0.000    0.000    0.000    0.000 
#    0.000    0.000    0.000    0.000    0.000    0.000 
#
# Total GULP energy -156094.753229 kJ/mol
# GULP energy per Si atom -5574.812615 kJ/mol
# Density = 1.938486 g / cm^3
# Si number density = 19.429079 Si / 1000 Ang^3
#
#
#
# Elastic Constant Matrix: (Units=GPa)
#
#
# Indices 1 2 3 4 5 6 
#
# 1 61.1860 4.6497 1.2689 0.0000 16.3199 0.0000
# 2 4.6497 46.2872 -0.6875 0.0000 -0.1277 0.0000
# 3 1.2689 -0.6875 68.1091 0.0000 14.8453 0.0000
# 4 0.0000 0.0000 0.0000 7.6017 0.0000 1.9659
# 5 16.3199 -0.1277 14.8453 0.0000 26.5082 0.0000
# 6 0.0000 0.0000 0.0000 1.9659 0.0000 14.7850
#
#
#
# Elastic Compliance Matrix: (Units=1/GPa)
#
#
# Indices 1 2 3 4 5 6 
#
# 1 0.020147 -0.002023 0.002631 0.000000 -0.013887 0.000000
# 2 -0.002023 0.021811 -0.000042 0.000000 0.001374 0.000000
# 3 0.002631 -0.000042 0.017070 0.000000 -0.011180 0.000000
# 4 0.000000 0.000000 0.000000 0.136234 0.000000 -0.018115
# 5 -0.013887 0.001374 -0.011180 0.000000 0.052541 0.000000
# 6 0.000000 0.000000 0.000000 -0.018115 0.000000 0.070045
#
#
# Mechanical properties :
#
#
# Convention : Reuss Voigt Hill
#
# Bulk Modulus (GPa) = 16.62239 20.67159 18.64699
# Shear Modulus (GPa) = 14.84705 21.13573 17.99139
#
# Velocity S-wave (km/s) = 2.76735 3.30182 3.04633
# Velocity P-wave (km/s) = 4.33417 5.01982 4.68954
#
# Compressibility (1/GPa) = 0.06015982
#
# Stress axis : x y z
#
# Youngs Moduli (GPa) = 49.63590 45.84923 58.58359
#
# Poissons Ratio (x) = 0.09275 -0.15414
# Poissons Ratio (y) = 0.10041 0.00244
# Poissons Ratio (z) = -0.13059 0.00191
#
# Static dielectric constant tensor:
#      x y z
#    x 1.678670 0.000000 -0.010830 
#    y 0.000000 1.693080 0.000000 
#    z -0.010830 0.000000 1.691650 
# 
# From -- ./inp_files/13564.got.cif
#   From: 2010.05.17/outbox.cif.g08.bks.cpg/sg14_7_cif.got.tgz:13564.got - 2010.06.03 17:49:19.
