data_PCOD9240471
_publ_section_title
;
Structure prediction by ZEFSAII (Michael W. Deem and Ramdas Pophale) SiO2 
 PCOD9240471
Probable space group: P 21/C
;
_chemical_formula_sum "Si O2"
_cell_formula_units_Z 30
_cell_length_a 7.150482
_cell_length_b 7.303233
_cell_length_c 28.786705
_cell_angle_alpha 90.000000
_cell_angle_beta 47.625581
_cell_angle_gamma 90.000000
_cell_volume 1110.564133
_symmetry_space_group_name_H-M "P 21/C"
_symmetry_group_IT_number 14
_symmetry_cell_setting 'monoclinic'
loop_
_space_group_symop_operation_xyz
x,y,z
-x,1/2+y,1/2-z
-x,-y,-z
x,1/2-y,1/2+z
loop_
_atom_site_type_symbol
_atom_site_label
_atom_site_fract_x
_atom_site_fract_y
_atom_site_fract_z
Si Si1 0.529200 0.175190 0.671939
Si Si2 0.484532 0.722396 0.145112
Si Si3 0.345619 0.235539 0.112051
Si Si4 0.500000 0.000000 0.500000
Si Si5 0.705712 0.775404 0.012350
Si Si6 0.072752 0.253320 0.808777
Si Si7 0.213217 0.833599 0.281284
Si Si8 0.800784 0.086744 0.930712
O O1 0.516204 0.299218 0.628513
O O2 0.260367 0.145795 0.743628
O O3 0.706258 0.248043 0.682730
O O4 0.581180 0.978145 0.641992
O O5 0.670353 0.786431 0.072779
O O6 0.409431 0.808809 0.207041
O O7 0.206091 0.727831 0.166752
O O8 0.326849 0.056975 0.083546
O O9 0.067491 0.261739 0.180753
O O10 0.419263 0.405830 0.067277
O O11 0.780545 0.915686 0.476919
O O12 0.414871 0.751166 0.034136
O O13 0.825460 0.959097 0.971233
O O14 0.189587 0.451793 0.793261
O O15 0.038556 0.166044 0.865126
#
# Coordination Sequence:
#
# PCOD9240471 Si02
#       8
#     4   4   4   2   4   4   4   4
#     4  12  24  39  63  97 128 172 213 270 327 385
#     4  11  20  40  62  93 131 165 215 267 327 383
#     4  11  21  40  67  94 127 169 213 268 320 386
#     4  10  18  38  68  96 122 168 216 262 326 382
#     4   9  18  34  62  98 120 164 216 266 316 389
#     4  11  21  38  63  91 128 173 212 268 324 390
#     4  12  25  40  64  95 132 170 217 266 327 388
#     4   9  20  35  64  94 125 165 218 256 323 385
#
# _framework density 27.013297999999999
#
# number of rings (size 3 to 8) (size 9 to 14) (size 15 to 20)
#    0.000    1.333    4.000    2.400    3.733    0.000 
#    0.000    0.667    0.000    3.200    0.000    0.000 
#    0.000    0.000    0.000    0.000    0.000    0.000 
#
# Total GULP energy -167453.919400 kJ/mol
# GULP energy per Si atom -5581.797313 kJ/mol
# Density = 2.695181 g / cm^3
# Si number density = 27.013298 Si / 1000 Ang^3
#
#
#
# Elastic Constant Matrix: (Units=GPa)
#
#
# Indices 1 2 3 4 5 6 
#
# 1 63.0889 11.8244 40.3083 0.0000 19.8728 0.0000
# 2 11.8244 86.1437 38.6342 0.0000 8.2169 0.0000
# 3 40.3083 38.6342 163.6856 0.0000 48.4116 0.0000
# 4 0.0000 0.0000 0.0000 55.6938 0.0000 7.9881
# 5 19.8728 8.2169 48.4116 0.0000 45.2450 0.0000
# 6 0.0000 0.0000 0.0000 7.9881 0.0000 14.8280
#
#
#
# Elastic Compliance Matrix: (Units=1/GPa)
#
#
# Indices 1 2 3 4 5 6 
#
# 1 0.019612 -0.000802 -0.003124 0.000000 -0.005125 0.000000
# 2 -0.000802 0.013072 -0.003350 0.000000 0.001563 0.000000
# 3 -0.003124 -0.003350 0.010363 0.000000 -0.009108 0.000000
# 4 0.000000 0.000000 0.000000 0.019459 0.000000 -0.010483
# 5 -0.005125 0.001563 -0.009108 0.000000 0.033814 0.000000
# 6 0.000000 0.000000 0.000000 -0.010483 0.000000 0.073087
#
#
# Mechanical properties :
#
#
# Convention : Reuss Voigt Hill
#
# Bulk Modulus (GPa) = 35.09504 54.93910 45.01707
# Shear Modulus (GPa) = 25.84547 37.96344 31.90445
#
# Velocity S-wave (km/s) = 3.09652 3.75288 3.44039
# Velocity P-wave (km/s) = 5.07982 6.25786 5.69936
#
# Compressibility (1/GPa) = 0.02849406
#
# Stress axis : x y z
#
# Youngs Moduli (GPa) = 50.99033 76.49959 96.49687
#
# Poissons Ratio (x) = 0.06134 0.30149
# Poissons Ratio (y) = 0.04089 0.32327
# Poissons Ratio (z) = 0.15931 0.25628
#
# Static dielectric constant tensor:
#      x y z
#    x 2.240960 0.000000 -0.018010 
#    y 0.000000 2.532150 0.000000 
#    z -0.018010 0.000000 2.146100 
# 
# From -- ./inp_files/79403.got.cif
#   From: 2010.05.17/outbox.cif.g08.bks.cpg/sg14_40_cif.got.tgz:79403.got - 2010.06.03 17:49:19.
