data_PCOD9240013
_publ_section_title
;
Structure prediction by ZEFSAII (Michael W. Deem and Ramdas Pophale) SiO2 
 PCOD9240013
Probable space group: P 21/C
;
_chemical_formula_sum "Si O2"
_cell_formula_units_Z 32
_cell_length_a 14.235653
_cell_length_b 20.356017
_cell_length_c 13.808464
_cell_angle_alpha 90.000000
_cell_angle_beta 159.490377
_cell_angle_gamma 90.000000
_cell_volume 1401.960913
_symmetry_space_group_name_H-M "P 21/C"
_symmetry_group_IT_number 14
_symmetry_cell_setting 'monoclinic'
loop_
_space_group_symop_operation_xyz
x,y,z
-x,1/2+y,1/2-z
-x,-y,-z
x,1/2-y,1/2+z
loop_
_atom_site_type_symbol
_atom_site_label
_atom_site_fract_x
_atom_site_fract_y
_atom_site_fract_z
Si Si1 0.470198 0.481347 0.358668
Si Si2 0.887616 0.186912 0.930428
Si Si3 0.982471 0.675327 0.918458
Si Si4 0.423464 0.939264 0.563373
Si Si5 0.782503 0.045688 0.843205
Si Si6 0.420486 0.197266 0.325733
Si Si7 0.553067 0.164865 0.978254
Si Si8 0.007792 0.049057 0.699618
O O1 0.500000 0.500000 0.500000
O O2 0.530368 0.404648 0.403232
O O3 0.172525 0.498567 0.036769
O O4 0.685802 0.527846 0.514025
O O5 0.953078 0.251247 0.056041
O O6 0.895982 0.115501 0.988173
O O7 0.608333 0.196515 0.603847
O O8 0.116402 0.189313 0.068004
O O9 0.170823 0.666087 0.195040
O O10 0.031989 0.619629 0.888047
O O11 0.681588 0.667693 0.667194
O O12 0.401480 0.934524 0.425850
O O13 0.522951 0.866219 0.686088
O O14 0.138414 0.950541 0.338120
O O15 0.610513 0.003207 0.751355
O O16 0.000000 0.000000 0.000000
O O17 0.493864 0.269819 0.357572
#
# Coordination Sequence:
#
# PCOD9240013 Si02
#       8
#     4   4   4   4   4   4   4   4
#     4  12  22  38  59  88 118 160 196 239 293 357
#     4   9  18  31  57  84 106 140 195 230 288 340
#     4  10  18  34  54  85 111 149 189 242 279 352
#     4  10  23  37  58  88 118 154 201 243 302 343
#     4  10  19  38  63  83 113 158 197 245 289 360
#     4   9  18  34  55  82 108 144 188 242 277 349
#     4  10  19  34  59  81 113 148 201 226 285 348
#     4  12  24  36  59  87 123 153 196 251 294 345
#
# _framework density 22.825174000000001
#
# number of rings (size 3 to 8) (size 9 to 14) (size 15 to 20)
#    0.000    1.750    3.750    1.125    1.750    0.000 
#    0.000    1.250    0.000    0.000    0.000    0.000 
#    0.000    0.000    0.000    0.000    0.000    0.000 
#
# Total GULP energy -178634.213483 kJ/mol
# GULP energy per Si atom -5582.319171 kJ/mol
# Density = 2.277322 g / cm^3
# Si number density = 22.825174 Si / 1000 Ang^3
#
#
#
# Elastic Constant Matrix: (Units=GPa)
#
#
# Indices 1 2 3 4 5 6 
#
# 1 58.9678 15.1553 -6.3721 0.0000 8.1998 0.0000
# 2 15.1553 209.5025 -11.1099 0.0000 10.4388 0.0000
# 3 -6.3721 -11.1099 46.0036 0.0000 13.0345 0.0000
# 4 0.0000 0.0000 0.0000 28.5689 0.0000 9.4364
# 5 8.1998 10.4388 13.0345 0.0000 28.2099 0.0000
# 6 0.0000 0.0000 0.0000 9.4364 0.0000 12.9413
#
#
#
# Elastic Compliance Matrix: (Units=1/GPa)
#
#
# Indices 1 2 3 4 5 6 
#
# 1 0.018631 -0.000755 0.004434 0.000000 -0.007185 0.000000
# 2 -0.000755 0.005048 0.001820 0.000000 -0.002490 0.000000
# 3 0.004434 0.001820 0.026864 0.000000 -0.014375 0.000000
# 4 0.000000 0.000000 0.000000 0.046108 0.000000 -0.033620
# 5 -0.007185 -0.002490 -0.014375 0.000000 0.045100 0.000000
# 6 0.000000 0.000000 0.000000 -0.033620 0.000000 0.101786
#
#
# Mechanical properties :
#
#
# Convention : Reuss Voigt Hill
#
# Bulk Modulus (GPa) = 16.24893 34.42448 25.33670
# Shear Modulus (GPa) = 19.75873 35.06407 27.41140
#
# Velocity S-wave (km/s) = 2.94539 3.92369 3.46920
# Velocity P-wave (km/s) = 4.32452 5.97007 5.21264
#
# Compressibility (1/GPa) = 0.06154252
#
# Stress axis : x y z
#
# Youngs Moduli (GPa) = 53.67508 198.08348 37.22427
#
# Poissons Ratio (x) = 0.14947 -0.16506
# Poissons Ratio (y) = 0.04050 -0.06775
# Poissons Ratio (z) = -0.23800 -0.36053
#
# Static dielectric constant tensor:
#      x y z
#    x 1.831370 0.000000 -0.042510 
#    y 0.000000 1.968650 0.000000 
#    z -0.042510 0.000000 1.874670 
# 
# From -- ./inp_files/47636.got.cif
#   From: 2010.05.17/outbox.cif.g08.bks.cpg/sg14_24_cif.got.tgz:47636.got - 2010.06.03 17:49:19.
