data_PCOD9240972
_publ_section_title
;
Structure prediction by ZEFSAII (Michael W. Deem and Ramdas Pophale) SiO2 
 PCOD9240972
Probable space group: P 21/C
;
_chemical_formula_sum "Si O2"
_cell_formula_units_Z 24
_cell_length_a 7.590912
_cell_length_b 9.650217
_cell_length_c 12.479560
_cell_angle_alpha 90.000000
_cell_angle_beta 68.877044
_cell_angle_gamma 90.000000
_cell_volume 852.752775
_symmetry_space_group_name_H-M "P 21/C"
_symmetry_group_IT_number 14
_symmetry_cell_setting 'monoclinic'
loop_
_space_group_symop_operation_xyz
x,y,z
-x,1/2+y,1/2-z
-x,-y,-z
x,1/2-y,1/2+z
loop_
_atom_site_type_symbol
_atom_site_label
_atom_site_fract_x
_atom_site_fract_y
_atom_site_fract_z
Si Si1 0.748334 0.023509 0.189967
Si Si2 0.469553 0.265127 0.271033
Si Si3 0.889179 0.882651 0.374496
Si Si4 0.751334 0.425128 0.058514
Si Si5 0.273894 0.849145 0.021429
Si Si6 0.287390 0.110454 0.140724
O O1 0.628336 0.153150 0.267447
O O2 0.851850 0.951948 0.267017
O O3 0.825072 0.094555 0.065105
O O4 0.640190 0.893007 0.153098
O O5 0.571811 0.362229 0.158074
O O6 0.316117 0.159113 0.256130
O O7 0.731982 0.936289 0.494513
O O8 0.863190 0.718883 0.369797
O O9 0.080677 0.924399 0.392059
O O10 0.794697 0.307412 0.958813
O O11 0.501384 0.858390 0.952030
O O12 0.241183 0.952848 0.125664
#
# Coordination Sequence:
#
# PCOD9240972 Si02
#       6
#     4   4   4   4   4   4
#     4   9  19  33  52  74  99 125 164 207 246 285
#     4   9  19  34  51  75  98 128 164 206 246 289
#     4  10  19  34  51  73 100 134 166 198 239 295
#     4   9  20  34  49  71 103 131 165 197 241 299
#     4   9  18  35  52  75 100 127 163 207 247 289
#     4   8  17  32  53  73  96 126 164 200 245 292
#
# _framework density 28.14415
#
# number of rings (size 3 to 8) (size 9 to 14) (size 15 to 20)
#    0.000    3.333    0.000    0.000    0.000   13.333 
#    0.000   16.667    0.000    0.000    0.000    0.000 
#    0.000    0.000    0.000    0.000    0.000    0.000 
#
# Total GULP energy -134006.714595 kJ/mol
# GULP energy per Si atom -5583.613108 kJ/mol
# Density = 2.808009 g / cm^3
# Si number density = 28.144150 Si / 1000 Ang^3
#
#
#
# Elastic Constant Matrix: (Units=GPa)
#
#
# Indices 1 2 3 4 5 6 
#
# 1 86.6171 -3.9609 27.2957 0.0000 16.6714 0.0000
# 2 -3.9609 80.0714 -6.7275 0.0000 7.7738 0.0000
# 3 27.2957 -6.7275 74.6534 0.0000 33.2543 0.0000
# 4 0.0000 0.0000 0.0000 45.4041 0.0000 14.6888
# 5 16.6714 7.7738 33.2543 0.0000 44.0265 0.0000
# 6 0.0000 0.0000 0.0000 14.6888 0.0000 40.3069
#
#
#
# Elastic Compliance Matrix: (Units=1/GPa)
#
#
# Indices 1 2 3 4 5 6 
#
# 1 0.013191 0.000553 -0.003775 0.000000 -0.002242 0.000000
# 2 0.000553 0.013269 0.003211 0.000000 -0.004978 0.000000
# 3 -0.003775 0.003211 0.022125 0.000000 -0.015849 0.000000
# 4 0.000000 0.000000 0.000000 0.024968 0.000000 -0.009099
# 5 -0.002242 -0.004978 -0.015849 0.000000 0.036412 0.000000
# 6 0.000000 0.000000 0.000000 -0.009099 0.000000 0.028125
#
#
# Mechanical properties :
#
#
# Convention : Reuss Voigt Hill
#
# Bulk Modulus (GPa) = 20.59173 30.50629 25.54901
# Shear Modulus (GPa) = 32.40423 40.92981 36.66702
#
# Velocity S-wave (km/s) = 3.39686 3.81766 3.61339
# Velocity P-wave (km/s) = 4.76627 5.50413 5.14844
#
# Compressibility (1/GPa) = 0.04856318
#
# Stress axis : x y z
#
# Youngs Moduli (GPa) = 75.80719 75.36229 45.19847
#
# Poissons Ratio (x) = -0.04168 0.17062
# Poissons Ratio (y) = -0.04192 -0.14513
# Poissons Ratio (z) = 0.28616 -0.24198
#
# Static dielectric constant tensor:
#      x y z
#    x 2.304390 0.000000 -0.056750 
#    y 0.000000 2.202230 0.000000 
#    z -0.056750 0.000000 2.332510 
# 
# From -- ./inp_files/54556.got.cif
#   From: 2010.05.17/outbox.cif.g08.bks.cpg/sg14_28_cif.got.tgz:54556.got - 2010.06.03 17:49:19.
