data_PCOD9240574
_publ_section_title
;
Structure prediction by ZEFSAII (Michael W. Deem and Ramdas Pophale) SiO2 
 PCOD9240574
Probable space group: P 21/C
;
_chemical_formula_sum "Si O2"
_cell_formula_units_Z 28
_cell_length_a 19.097445
_cell_length_b 4.934277
_cell_length_c 21.595956
_cell_angle_alpha 90.000000
_cell_angle_beta 30.450914
_cell_angle_gamma 90.000000
_cell_volume 1031.354200
_symmetry_space_group_name_H-M "P 21/C"
_symmetry_group_IT_number 14
_symmetry_cell_setting 'monoclinic'
loop_
_space_group_symop_operation_xyz
x,y,z
-x,1/2+y,1/2-z
-x,-y,-z
x,1/2-y,1/2+z
loop_
_atom_site_type_symbol
_atom_site_label
_atom_site_fract_x
_atom_site_fract_y
_atom_site_fract_z
Si Si1 0.223609 0.351042 0.474936
Si Si2 0.414629 0.375068 0.228807
Si Si3 0.466748 0.359738 0.425882
Si Si4 0.816727 0.579614 0.689448
Si Si5 0.696594 0.094212 0.846201
Si Si6 0.080645 0.256477 0.204425
Si Si7 0.046478 0.853298 0.574010
O O1 0.375125 0.361010 0.330734
O O2 0.204452 0.279178 0.561684
O O3 0.157650 0.643615 0.515436
O O4 0.127765 0.133795 0.510980
O O5 0.528236 0.581559 0.116434
O O6 0.268257 0.472007 0.308504
O O7 0.454949 0.077811 0.175915
O O8 0.342578 0.525256 0.553665
O O9 0.560895 0.288026 0.414652
O O10 0.811643 0.313030 0.736802
O O11 0.967521 0.723322 0.575435
O O12 0.723330 0.810185 0.792332
O O13 0.070298 0.150029 0.282382
O O14 0.039136 0.571041 0.235718
#
# Coordination Sequence:
#
# PCOD9240574 Si02
#       7
#     4   4   4   4   4   4   4
#     4  10  19  31  46  65  92 121 150 185 222 266
#     4  10  19  29  44  68  93 119 151 182 224 276
#     4   9  17  30  46  64  89 119 151 188 223 259
#     4  10  19  29  44  68  93 119 151 182 224 276
#     4   9  17  30  46  64  89 119 151 188 223 259
#     4   8  16  30  46  62  82 114 154 188 214 248
#     4  10  19  31  46  65  92 121 150 185 222 266
#
# _framework density 27.148771
#
# number of rings (size 3 to 8) (size 9 to 14) (size 15 to 20)
#    0.000    2.571    0.000    2.571    0.000    4.571 
#    0.000    0.000    0.000    0.000    0.000    4.000 
#    0.000    0.000    0.000    0.000    0.000    0.000 
#
# Total GULP energy -156475.983625 kJ/mol
# GULP energy per Si atom -5588.427987 kJ/mol
# Density = 2.708698 g / cm^3
# Si number density = 27.148771 Si / 1000 Ang^3
#
#
#
# Elastic Constant Matrix: (Units=GPa)
#
#
# Indices 1 2 3 4 5 6 
#
# 1 78.4908 12.7111 7.7492 0.0000 10.2058 0.0000
# 2 12.7111 139.7296 31.8477 0.0000 7.0834 0.0000
# 3 7.7492 31.8477 120.3982 0.0000 15.2718 0.0000
# 4 0.0000 0.0000 0.0000 42.1930 0.0000 0.1406
# 5 10.2058 7.0834 15.2718 0.0000 28.1261 0.0000
# 6 0.0000 0.0000 0.0000 0.1406 0.0000 19.1048
#
#
#
# Elastic Compliance Matrix: (Units=1/GPa)
#
#
# Indices 1 2 3 4 5 6 
#
# 1 0.013506 -0.000989 -0.000019 0.000000 -0.004641 0.000000
# 2 -0.000989 0.007709 -0.001906 0.000000 -0.000548 0.000000
# 3 -0.000019 -0.001906 0.009397 0.000000 -0.004615 0.000000
# 4 0.000000 0.000000 0.000000 0.023701 0.000000 -0.000174
# 5 -0.004641 -0.000548 -0.004615 0.000000 0.039882 0.000000
# 6 0.000000 0.000000 0.000000 -0.000174 0.000000 0.052344
#
#
# Mechanical properties :
#
#
# Convention : Reuss Voigt Hill
#
# Bulk Modulus (GPa) = 40.34964 49.24828 44.79896
# Shear Modulus (GPa) = 31.12785 36.97216 34.05000
#
# Velocity S-wave (km/s) = 3.38977 3.69431 3.54531
# Velocity P-wave (km/s) = 5.49685 6.03131 5.77028
#
# Compressibility (1/GPa) = 0.02478337
#
# Stress axis : x y z
#
# Youngs Moduli (GPa) = 74.04180 129.72128 106.42164
#
# Poissons Ratio (x) = 0.12830 0.00202
# Poissons Ratio (y) = 0.07323 0.20284
# Poissons Ratio (z) = 0.00140 0.24725
#
# Static dielectric constant tensor:
#      x y z
#    x 2.251040 0.000000 -0.040640 
#    y 0.000000 2.000950 0.000000 
#    z -0.040640 0.000000 2.133290 
# 
# From -- ./inp_files/70060.got.cif
#   From: 2010.05.17/outbox.cif.g08.bks.cpg/sg14_36_cif.got.tgz:70060.got - 2010.06.03 17:49:19.
