data_PCOD9240565
_publ_section_title
;
Structure prediction by ZEFSAII (Michael W. Deem and Ramdas Pophale) SiO2 
 PCOD9240565
Probable space group: P 21/C
;
_chemical_formula_sum "Si O2"
_cell_formula_units_Z 28
_cell_length_a 7.003503
_cell_length_b 6.179500
_cell_length_c 25.120183
_cell_angle_alpha 90.000000
_cell_angle_beta 70.922204
_cell_angle_gamma 90.000000
_cell_volume 1027.443686
_symmetry_space_group_name_H-M "P 21/C"
_symmetry_group_IT_number 14
_symmetry_cell_setting 'monoclinic'
loop_
_space_group_symop_operation_xyz
x,y,z
-x,1/2+y,1/2-z
-x,-y,-z
x,1/2-y,1/2+z
loop_
_atom_site_type_symbol
_atom_site_label
_atom_site_fract_x
_atom_site_fract_y
_atom_site_fract_z
Si Si1 0.000000 0.500000 0.000000
Si Si2 0.277646 0.231686 0.229250
Si Si3 0.577924 0.887350 0.172230
Si Si4 0.348303 0.467950 0.922645
Si Si5 0.500000 0.500000 0.000000
Si Si6 0.064655 0.781202 0.886264
Si Si7 0.103215 0.931742 0.677304
Si Si8 0.813742 0.330377 0.435994
O O1 0.031228 0.716121 0.036420
O O2 0.749931 0.574753 0.009215
O O3 0.398253 0.274263 0.272808
O O4 0.276960 0.450404 0.195094
O O5 0.375803 0.029018 0.190368
O O6 0.051069 0.177859 0.267533
O O7 0.611569 0.710443 0.123574
O O8 0.755917 0.061892 0.147946
O O9 0.536407 0.583604 0.930874
O O10 0.155011 0.624117 0.925000
O O11 0.596468 0.251675 0.972929
O O12 0.885890 0.925093 0.924514
O O13 0.010799 0.625741 0.843066
O O14 0.148937 0.763920 0.626719
#
# Coordination Sequence:
#
# PCOD9240565 Si02
#       8
#     2   4   4   4   2   4   4   4
#     4  10  18  46  66  94 138 184 246 288 376 450
#     4  12  27  46  78 104 156 200 253 308 398 442
#     4  12  26  48  69 112 144 197 251 317 367 484
#     4  11  24  47  70 106 146 189 251 317 375 464
#     4  10  28  42  74 106 148 188 246 340 378 462
#     4  12  22  47  75 100 146 203 242 313 392 436
#     4  12  26  48  69 112 144 197 251 317 367 484
#     4  11  24  47  70 106 146 189 251 317 375 464
#
# _framework density 27.252099000000001
#
# number of rings (size 3 to 8) (size 9 to 14) (size 15 to 20)
#    0.000    0.571    5.714    1.714    4.000    2.286 
#    0.000    1.429    0.000    0.000    0.000    0.000 
#    0.000    0.000    0.000    0.000    0.000    0.000 
#
# Total GULP energy -156298.058064 kJ/mol
# GULP energy per Si atom -5582.073502 kJ/mol
# Density = 2.719007 g / cm^3
# Si number density = 27.252099 Si / 1000 Ang^3
#
#
#
# Elastic Constant Matrix: (Units=GPa)
#
#
# Indices 1 2 3 4 5 6 
#
# 1 104.9326 43.1431 35.7540 0.0000 4.6329 0.0000
# 2 43.1431 130.2094 66.3956 0.0000 -1.7553 0.0000
# 3 35.7540 66.3956 146.0064 0.0000 12.3038 0.0000
# 4 0.0000 0.0000 0.0000 55.5494 0.0000 -8.0708
# 5 4.6329 -1.7553 12.3038 0.0000 57.6875 0.0000
# 6 0.0000 0.0000 0.0000 -8.0708 0.0000 64.7176
#
#
#
# Elastic Compliance Matrix: (Units=1/GPa)
#
#
# Indices 1 2 3 4 5 6 
#
# 1 0.011271 -0.003083 -0.001297 0.000000 -0.000722 0.000000
# 2 -0.003083 0.010938 -0.004346 0.000000 0.001507 0.000000
# 3 -0.001297 -0.004346 0.009313 0.000000 -0.002014 0.000000
# 4 0.000000 0.000000 0.000000 0.018334 0.000000 0.002286
# 5 -0.000722 0.001507 -0.002014 0.000000 0.017868 0.000000
# 6 0.000000 0.000000 0.000000 0.002286 0.000000 0.015737
#
#
# Mechanical properties :
#
#
# Convention : Reuss Voigt Hill
#
# Bulk Modulus (GPa) = 71.07533 74.63710 72.85621
# Shear Modulus (GPa) = 47.34691 51.31462 49.33076
#
# Velocity S-wave (km/s) = 4.17270 4.34402 4.25922
# Velocity P-wave (km/s) = 7.02513 7.25312 7.14004
#
# Compressibility (1/GPa) = 0.01406958
#
# Stress axis : x y z
#
# Youngs Moduli (GPa) = 88.72029 91.42612 107.37925
#
# Poissons Ratio (x) = 0.28185 0.13931
# Poissons Ratio (y) = 0.27351 0.46667
# Poissons Ratio (z) = 0.11510 0.39734
#
# Static dielectric constant tensor:
#      x y z
#    x 2.535190 0.000000 -0.124080 
#    y 0.000000 2.171330 0.000000 
#    z -0.124080 0.000000 2.808460 
# 
# From -- ./inp_files/76059.got.cif
#   From: 2010.05.17/outbox.cif.g08.bks.cpg/sg14_39_cif.got.tgz:76059.got - 2010.06.03 17:49:19.
