data_PCOD9240622
_publ_section_title
;
Structure prediction by ZEFSAII (Michael W. Deem and Ramdas Pophale) SiO2 
 PCOD9240622
Probable space group: P 21/C
;
_chemical_formula_sum "Si O2"
_cell_formula_units_Z 20
_cell_length_a 28.273225
_cell_length_b 5.284770
_cell_length_c 4.989386
_cell_angle_alpha 90.000000
_cell_angle_beta 81.493821
_cell_angle_gamma 90.000000
_cell_volume 737.300961
_symmetry_space_group_name_H-M "P 21/C"
_symmetry_group_IT_number 14
_symmetry_cell_setting 'monoclinic'
loop_
_space_group_symop_operation_xyz
x,y,z
-x,1/2+y,1/2-z
-x,-y,-z
x,1/2-y,1/2+z
loop_
_atom_site_type_symbol
_atom_site_label
_atom_site_fract_x
_atom_site_fract_y
_atom_site_fract_z
Si Si1 0.651090 0.591159 0.800783
Si Si2 0.152525 0.064959 0.851487
Si Si3 0.749731 0.567951 0.867855
Si Si4 0.549131 0.379239 0.061083
Si Si5 0.052478 0.407054 0.529424
O O1 0.653956 0.659893 0.487802
O O2 0.698710 0.440722 0.849419
O O3 0.599347 0.487798 0.918444
O O4 0.154013 0.287622 0.629487
O O5 0.201606 0.919589 0.746094
O O6 0.099901 0.941547 0.895069
O O7 0.750479 0.807293 0.659311
O O8 0.549045 0.123058 0.881724
O O9 0.500000 0.500000 0.000000
O O10 0.055430 0.345356 0.840952
O O11 0.000000 0.500000 0.500000
#
# Coordination Sequence:
#
# PCOD9240622 Si02
#       5
#     4   4   4   4   4
#     4  10  19  34  55  79 103 129 163 204 247 292
#     4   8  14  25  42  66  91 120 158 199 236 280
#     4   8  14  25  45  70  94 120 157 199 236 280
#     4  12  24  39  57  78 105 136 169 205 244 290
#     4  10  19  31  48  69  96 127 164 205 247 292
#
# _framework density 27.125969000000001
#
# number of rings (size 3 to 8) (size 9 to 14) (size 15 to 20)
#    0.000    2.400    0.000    3.600    0.000    0.000 
#    0.000    0.000    0.000    2.400    0.000    0.000 
#    0.000    0.000    0.000    0.000    0.000    0.000 
#
# Total GULP energy -111664.559594 kJ/mol
# GULP energy per Si atom -5583.227980 kJ/mol
# Density = 2.706423 g / cm^3
# Si number density = 27.125969 Si / 1000 Ang^3
#
#
#
# Elastic Constant Matrix: (Units=GPa)
#
#
# Indices 1 2 3 4 5 6 
#
# 1 261.5713 18.6748 38.3733 0.0000 -59.0788 0.0000
# 2 18.6748 31.7504 22.3450 0.0000 -4.5950 0.0000
# 3 38.3733 22.3450 111.3971 0.0000 5.8099 0.0000
# 4 0.0000 0.0000 0.0000 44.7402 0.0000 3.1370
# 5 -59.0788 -4.5950 5.8099 0.0000 59.8081 0.0000
# 6 0.0000 0.0000 0.0000 3.1370 0.0000 -0.2141
#
#
#
# Elastic Compliance Matrix: (Units=1/GPa)
#
#
# Indices 1 2 3 4 5 6 
#
# 1 0.005414 -0.001027 -0.001944 0.000000 0.005458 0.000000
# 2 -0.001027 0.037633 -0.007330 0.000000 0.002589 0.000000
# 3 -0.001944 -0.007330 0.011304 0.000000 -0.003581 0.000000
# 4 0.000000 0.000000 0.000000 0.011024 0.000000 0.161556
# 5 0.005458 0.002589 -0.003581 0.000000 0.022659 0.000000
# 6 0.000000 0.000000 0.000000 0.161556 0.000000 -2.304127
#
#
# Mechanical properties :
#
#
# Convention : Reuss Voigt Hill
#
# Bulk Modulus (GPa) = 29.62988 62.61168 46.12078
# Shear Modulus (GPa) = -2.28912 42.55522 20.13305
#
# Velocity S-wave (km/s) = -0.91963 3.96511 2.72730
# Velocity P-wave (km/s) = 3.13355 6.64038 5.19200
#
# Compressibility (1/GPa) = 0.03374971
#
# Stress axis : x y z
#
# Youngs Moduli (GPa) = 184.69546 26.57243 88.46729
#
# Poissons Ratio (x) = 0.02728 0.17197
# Poissons Ratio (y) = 0.18961 0.64848
# Poissons Ratio (z) = 0.35902 0.19478
#
# Static dielectric constant tensor:
#      x y z
#    x 2.265980 0.000000 -0.011940 
#    y 0.000000 2.276070 0.000000 
#    z -0.011940 0.000000 2.048040 
# 
# From -- ./inp_files/4444.got.cif
#   From: 2010.05.17/outbox.cif.g08.bks.cpg/sg14_3_cif.got.tgz:4444.got - 2010.06.03 17:49:19.
