data_PCOD9240487
_publ_section_title
;
Structure prediction by ZEFSAII (Michael W. Deem and Ramdas Pophale) SiO2 
 PCOD9240487
Probable space group: P 21/C
;
_chemical_formula_sum "Si O2"
_cell_formula_units_Z 32
_cell_length_a 5.182278
_cell_length_b 18.252139
_cell_length_c 21.696915
_cell_angle_alpha 90.000000
_cell_angle_beta 55.170657
_cell_angle_gamma 90.000000
_cell_volume 1684.611934
_symmetry_space_group_name_H-M "P 21/C"
_symmetry_group_IT_number 14
_symmetry_cell_setting 'monoclinic'
loop_
_space_group_symop_operation_xyz
x,y,z
-x,1/2+y,1/2-z
-x,-y,-z
x,1/2-y,1/2+z
loop_
_atom_site_type_symbol
_atom_site_label
_atom_site_fract_x
_atom_site_fract_y
_atom_site_fract_z
Si Si1 0.321967 0.958105 0.186347
Si Si2 0.448612 0.025051 0.389768
Si Si3 0.895643 0.894125 0.337407
Si Si4 0.046115 0.324722 0.608280
Si Si5 0.031640 0.390396 0.032505
Si Si6 0.567529 0.274620 0.100261
Si Si7 0.714458 0.550072 0.515374
Si Si8 0.273137 0.949265 0.776626
O O1 0.518093 0.927277 0.102587
O O2 0.208725 0.902073 0.254827
O O3 0.527793 0.019711 0.193167
O O4 0.004900 0.993561 0.201665
O O5 0.754831 0.976356 0.363097
O O6 0.179793 0.963066 0.430043
O O7 0.505730 0.054937 0.313575
O O8 0.339568 0.086400 0.452881
O O9 0.656185 0.836982 0.338483
O O10 0.911823 0.866814 0.405064
O O11 0.769830 0.274685 0.618634
O O12 0.896020 0.374124 0.682655
O O13 0.342870 0.278479 0.592019
O O14 0.160767 0.381348 0.540300
O O15 0.823304 0.326319 0.030288
O O16 0.500000 0.500000 0.500000
O O17 0.000000 0.500000 0.500000
#
# Coordination Sequence:
#
# PCOD9240487 Si02
#       8
#     4   4   4   4   4   4   4   4
#     4  11  21  38  63  94 117 149 196 264 305 343
#     4   9  20  33  64  98 113 155 197 272 295 342
#     4  10  20  38  65  87 128 154 209 244 307 362
#     4  12  23  40  62  84 125 163 205 244 303 374
#     4  10  18  39  61  89 123 157 205 244 304 362
#     4  11  24  40  60  84 123 178 197 231 305 382
#     4  12  22  40  64  94 120 151 207 265 309 340
#     4  11  21  38  60  92 122 145 200 252 312 348
#
# _framework density 18.995474000000002
#
# number of rings (size 3 to 8) (size 9 to 14) (size 15 to 20)
#    0.000    1.250    5.000    1.875    0.000    0.000 
#    0.000    2.500    0.000    0.000    0.000    0.000 
#    0.000    0.000    0.000    0.000    0.000    0.000 
#
# Total GULP energy -178433.577338 kJ/mol
# GULP energy per Si atom -5576.049292 kJ/mol
# Density = 1.895224 g / cm^3
# Si number density = 18.995474 Si / 1000 Ang^3
#
#
#
# Elastic Constant Matrix: (Units=GPa)
#
#
# Indices 1 2 3 4 5 6 
#
# 1 74.6473 15.6581 5.5249 0.0000 1.6453 0.0000
# 2 15.6581 81.1059 31.8509 0.0000 -1.4457 0.0000
# 3 5.5249 31.8509 114.7865 0.0000 -2.9911 0.0000
# 4 0.0000 0.0000 0.0000 2.5876 0.0000 0.7182
# 5 1.6453 -1.4457 -2.9911 0.0000 20.4393 0.0000
# 6 0.0000 0.0000 0.0000 0.7182 0.0000 37.0578
#
#
#
# Elastic Compliance Matrix: (Units=1/GPa)
#
#
# Indices 1 2 3 4 5 6 
#
# 1 0.013997 -0.002747 0.000054 0.000000 -0.001313 0.000000
# 2 -0.002747 0.014380 -0.003840 0.000000 0.000676 0.000000
# 3 0.000054 -0.003840 0.009805 0.000000 0.001159 0.000000
# 4 0.000000 0.000000 0.000000 0.388552 0.000000 -0.007531
# 5 -0.001313 0.000676 0.001159 0.000000 0.049249 0.000000
# 6 0.000000 0.000000 0.000000 -0.007531 0.000000 0.027131
#
#
# Mechanical properties :
#
#
# Convention : Reuss Voigt Hill
#
# Bulk Modulus (GPa) = 39.81457 41.84526 40.82992
# Shear Modulus (GPa) = 9.53193 26.51732 18.02463
#
# Velocity S-wave (km/s) = 2.24252 3.74034 3.08375
# Velocity P-wave (km/s) = 5.26410 6.38204 5.84983
#
# Compressibility (1/GPa) = 0.02511643
#
# Stress axis : x y z
#
# Youngs Moduli (GPa) = 71.44149 69.54061 101.98845
#
# Poissons Ratio (x) = 0.19103 -0.00554
# Poissons Ratio (y) = 0.19625 0.39167
# Poissons Ratio (z) = -0.00388 0.26706
#
# Static dielectric constant tensor:
#      x y z
#    x 1.719880 0.000000 0.007540 
#    y 0.000000 1.667510 0.000000 
#    z 0.007540 0.000000 1.676710 
# 
# From -- ./inp_files/63874.got.cif
#   From: 2010.05.17/outbox.cif.g08.bks.cpg/sg14_32_cif.got.tgz:63874.got - 2010.06.03 17:49:19.
