data_PCOD9240300
_publ_section_title
;
Structure prediction by ZEFSAII (Michael W. Deem and Ramdas Pophale) SiO2 
 PCOD9240300
Probable space group: P 21/C
;
_chemical_formula_sum "Si O2"
_cell_formula_units_Z 30
_cell_length_a 11.331614
_cell_length_b 18.490862
_cell_length_c 6.875878
_cell_angle_alpha 90.000000
_cell_angle_beta 131.786191
_cell_angle_gamma 90.000000
_cell_volume 1074.247425
_symmetry_space_group_name_H-M "P 21/C"
_symmetry_group_IT_number 14
_symmetry_cell_setting 'monoclinic'
loop_
_space_group_symop_operation_xyz
x,y,z
-x,1/2+y,1/2-z
-x,-y,-z
x,1/2-y,1/2+z
loop_
_atom_site_type_symbol
_atom_site_label
_atom_site_fract_x
_atom_site_fract_y
_atom_site_fract_z
Si Si1 0.631669 0.239880 0.063520
Si Si2 0.267089 0.560115 0.780677
Si Si3 0.500000 0.500000 0.500000
Si Si4 0.056021 0.674161 0.499347
Si Si5 0.084652 0.172968 0.761108
Si Si6 0.389071 0.415063 0.998850
Si Si7 0.612093 0.752625 0.455829
Si Si8 0.206432 0.911191 0.674001
O O1 0.785591 0.290194 0.236088
O O2 0.590299 0.250680 0.269801
O O3 0.687669 0.157041 0.141336
O O4 0.430476 0.250271 0.841335
O O5 0.134800 0.600316 0.504784
O O6 0.445336 0.589871 0.939334
O O7 0.280324 0.474106 0.773802
O O8 0.227974 0.576936 0.963171
O O9 0.434005 0.452593 0.250002
O O10 0.690451 0.479107 0.639281
O O11 0.941108 0.651713 0.545849
O O12 0.980144 0.742956 0.309660
O O13 0.974311 0.119760 0.513265
O O14 0.266117 0.185058 0.906970
O O15 0.329219 0.335632 0.978099
#
# Coordination Sequence:
#
# PCOD9240300 Si02
#       8
#     4   4   2   4   4   4   4   4
#     4  11  21  34  60  87 117 152 219 254 310 367
#     4   9  18  34  57  85 117 152 209 255 302 359
#     4  10  18  36  62  92 118 158 216 260 296 364
#     4  10  19  38  57  84 111 166 202 259 297 387
#     4  10  22  34  54  83 126 155 197 246 338 361
#     4  10  20  33  57  91 119 154 201 263 310 361
#     4  12  22  36  54  91 122 160 190 268 314 384
#     4   9  19  36  58  89 115 160 202 260 300 377
#
# _framework density 27.926528000000001
#
# number of rings (size 3 to 8) (size 9 to 14) (size 15 to 20)
#    0.000    1.867    2.667    3.200    0.000    0.000 
#    0.000    0.667    0.000    0.800   10.400    0.000 
#    0.000    0.000    0.000    0.000    0.000    0.000 
#
# Total GULP energy -167059.727068 kJ/mol
# GULP energy per Si atom -5568.657569 kJ/mol
# Density = 2.786297 g / cm^3
# Si number density = 27.926528 Si / 1000 Ang^3
#
#
#
# Elastic Constant Matrix: (Units=GPa)
#
#
# Indices 1 2 3 4 5 6 
#
# 1 107.0236 21.2552 52.4698 0.0000 -14.9731 0.0000
# 2 21.2552 44.4379 26.5234 0.0000 -5.8474 0.0000
# 3 52.4698 26.5234 155.3691 0.0000 -1.0342 0.0000
# 4 0.0000 0.0000 0.0000 24.5709 0.0000 10.5251
# 5 -14.9731 -5.8474 -1.0342 0.0000 36.2824 0.0000
# 6 0.0000 0.0000 0.0000 10.5251 0.0000 48.5780
#
#
#
# Elastic Compliance Matrix: (Units=1/GPa)
#
#
# Indices 1 2 3 4 5 6 
#
# 1 0.012370 -0.003174 -0.003606 0.000000 0.004491 0.000000
# 2 -0.003174 0.026440 -0.003423 0.000000 0.002854 0.000000
# 3 -0.003606 -0.003423 0.008226 0.000000 -0.001805 0.000000
# 4 0.000000 0.000000 0.000000 0.044862 0.000000 -0.009720
# 5 0.004491 0.002854 -0.001805 0.000000 0.029823 0.000000
# 6 0.000000 0.000000 0.000000 -0.009720 0.000000 0.022691
#
#
# Mechanical properties :
#
#
# Convention : Reuss Voigt Hill
#
# Bulk Modulus (GPa) = 37.54939 56.36970 46.95954
# Shear Modulus (GPa) = 28.78609 35.65842 32.22226
#
# Velocity S-wave (km/s) = 3.21406 3.57720 3.40048
# Velocity P-wave (km/s) = 5.22001 6.10661 5.68063
#
# Compressibility (1/GPa) = 0.02663159
#
# Stress axis : x y z
#
# Youngs Moduli (GPa) = 80.84003 37.82173 121.56105
#
# Poissons Ratio (x) = 0.12003 0.43833
# Poissons Ratio (y) = 0.25656 0.41608
# Poissons Ratio (z) = 0.29150 0.12946
#
# Static dielectric constant tensor:
#      x y z
#    x 2.307630 0.000000 -0.089030 
#    y 0.000000 2.213300 0.000000 
#    z -0.089030 0.000000 2.255570 
# 
# From -- ./inp_files/14213.got.cif
#   From: 2010.05.17/outbox.cif.g08.bks.cpg/sg14_8_cif.got.tgz:14213.got - 2010.06.03 17:49:19.
