data_PCOD9240192
_publ_section_title
;
Structure prediction by ZEFSAII (Michael W. Deem and Ramdas Pophale) SiO2 
 PCOD9240192
Probable space group: P 21/C
;
_chemical_formula_sum "Si O2"
_cell_formula_units_Z 28
_cell_length_a 12.465061
_cell_length_b 18.721426
_cell_length_c 7.909020
_cell_angle_alpha 90.000000
_cell_angle_beta 139.571396
_cell_angle_gamma 90.000000
_cell_volume 1196.922393
_symmetry_space_group_name_H-M "P 21/C"
_symmetry_group_IT_number 14
_symmetry_cell_setting 'monoclinic'
loop_
_space_group_symop_operation_xyz
x,y,z
-x,1/2+y,1/2-z
-x,-y,-z
x,1/2-y,1/2+z
loop_
_atom_site_type_symbol
_atom_site_label
_atom_site_fract_x
_atom_site_fract_y
_atom_site_fract_z
Si Si1 0.281782 0.644632 0.817229
Si Si2 0.102831 0.471216 0.363003
Si Si3 0.165601 0.589201 0.179555
Si Si4 0.554770 0.044991 0.256107
Si Si5 0.910466 0.909793 0.816097
Si Si6 0.377968 0.387023 0.263543
Si Si7 0.346301 0.788612 0.039599
O O1 0.350182 0.680929 0.731685
O O2 0.086917 0.627710 0.564807
O O3 0.386531 0.575668 0.995858
O O4 0.316312 0.704984 0.998991
O O5 0.190896 0.535595 0.368948
O O6 0.175775 0.426028 0.605995
O O7 0.956452 0.515095 0.282834
O O8 0.013348 0.424061 0.114328
O O9 0.299215 0.568374 0.198763
O O10 0.194035 0.669631 0.269983
O O11 0.554513 0.959453 0.248717
O O12 0.397321 0.085933 0.982051
O O13 0.795802 0.873145 0.537547
O O14 0.494141 0.319546 0.366232
#
# Coordination Sequence:
#
# PCOD9240192 Si02
#       7
#     4   4   4   4   4   4   4
#     4  12  24  45  68  88 125 180 222 259 320 401
#     4  10  19  33  63  98 135 156 209 262 324 365
#     4  10  18  35  60  98 128 170 202 258 313 390
#     4  10  20  40  65  93 138 172 204 265 328 387
#     4  11  20  39  65  98 126 163 212 280 303 381
#     4  10  22  40  63 100 132 161 210 273 327 373
#     4  11  25  41  65  89 128 178 216 255 326 402
#
# _framework density 23.393329999999999
#
# number of rings (size 3 to 8) (size 9 to 14) (size 15 to 20)
#    0.000    1.429    4.286    2.571    0.000    0.571 
#    5.143    2.857    0.000    0.000    0.000    0.000 
#    0.000    0.000    0.000    0.000    0.000    0.000 
#
# Total GULP energy -156340.840378 kJ/mol
# GULP energy per Si atom -5583.601442 kJ/mol
# Density = 2.334009 g / cm^3
# Si number density = 23.393330 Si / 1000 Ang^3
#
#
#
# Elastic Constant Matrix: (Units=GPa)
#
#
# Indices 1 2 3 4 5 6 
#
# 1 36.7458 -8.7781 5.5386 0.0000 -8.8905 0.0000
# 2 -8.7781 70.5377 23.7716 0.0000 9.3241 0.0000
# 3 5.5386 23.7716 129.1650 0.0000 7.9858 0.0000
# 4 0.0000 0.0000 0.0000 45.6144 0.0000 -5.8540
# 5 -8.8905 9.3241 7.9858 0.0000 31.8854 0.0000
# 6 0.0000 0.0000 0.0000 -5.8540 0.0000 23.7164
#
#
#
# Elastic Compliance Matrix: (Units=1/GPa)
#
#
# Indices 1 2 3 4 5 6 
#
# 1 0.030377 0.003543 -0.002452 0.000000 0.008048 0.000000
# 2 0.003543 0.015990 -0.002912 0.000000 -0.002959 0.000000
# 3 -0.002452 -0.002912 0.008504 0.000000 -0.001962 0.000000
# 4 0.000000 0.000000 0.000000 0.022640 0.000000 0.005588
# 5 0.008048 -0.002959 -0.001962 0.000000 0.034963 0.000000
# 6 0.000000 0.000000 0.000000 0.005588 0.000000 0.043544
#
#
# Mechanical properties :
#
#
# Convention : Reuss Voigt Hill
#
# Bulk Modulus (GPa) = 19.52006 30.83474 25.17740
# Shear Modulus (GPa) = 28.29049 34.63766 31.46408
#
# Velocity S-wave (km/s) = 3.48133 3.85211 3.67141
# Velocity P-wave (km/s) = 4.95196 5.74410 5.36268
#
# Compressibility (1/GPa) = 0.05122935
#
# Stress axis : x y z
#
# Youngs Moduli (GPa) = 32.91950 62.53862 117.58624
#
# Poissons Ratio (x) = -0.22157 0.28834
# Poissons Ratio (y) = -0.11663 0.34239
# Poissons Ratio (z) = 0.08072 0.18210
#
# Static dielectric constant tensor:
#      x y z
#    x 1.952430 0.000000 -0.014320 
#    y 0.000000 1.839560 0.000000 
#    z -0.014320 0.000000 2.020880 
# 
# From -- ./inp_files/16686.got.cif
#   From: 2010.05.17/outbox.cif.g08.bks.cpg/sg14_9_cif.got.tgz:16686.got - 2010.06.03 17:49:19.
