data_PCOD9240686
_publ_section_title
;
Structure prediction by ZEFSAII (Michael W. Deem and Ramdas Pophale) SiO2 
 PCOD9240686
Probable space group: P 21/C
;
_chemical_formula_sum "Si O2"
_cell_formula_units_Z 24
_cell_length_a 6.929974
_cell_length_b 26.926164
_cell_length_c 5.691678
_cell_angle_alpha 90.000000
_cell_angle_beta 70.684893
_cell_angle_gamma 90.000000
_cell_volume 1002.274561
_symmetry_space_group_name_H-M "P 21/C"
_symmetry_group_IT_number 14
_symmetry_cell_setting 'monoclinic'
loop_
_space_group_symop_operation_xyz
x,y,z
-x,1/2+y,1/2-z
-x,-y,-z
x,1/2-y,1/2+z
loop_
_atom_site_type_symbol
_atom_site_label
_atom_site_fract_x
_atom_site_fract_y
_atom_site_fract_z
Si Si1 0.675488 0.982545 0.670367
Si Si2 0.503337 0.764216 0.473328
Si Si3 0.918709 0.047152 0.247235
Si Si4 0.169666 0.679338 0.608974
Si Si5 0.650956 0.074139 0.984195
Si Si6 0.840757 0.158435 0.395411
O O1 0.505221 0.940359 0.744386
O O2 0.851611 0.961935 0.769085
O O3 0.787103 0.000486 0.391509
O O4 0.592662 0.034889 0.808417
O O5 0.607433 0.749693 0.681022
O O6 0.304140 0.728317 0.550392
O O7 0.390429 0.818106 0.518574
O O8 0.871965 0.057461 0.995123
O O9 0.851126 0.098900 0.396641
O O10 0.325394 0.632028 0.566174
O O11 0.065469 0.673335 0.396655
O O12 0.055507 0.677234 0.904885
#
# Coordination Sequence:
#
# PCOD9240686 Si02
#       6
#     4   4   4   4   4   4
#     4  10  20  32  48  72 100 134 172 206 256 298
#     4   8  14  24  42  70  92 120 164 206 244 298
#     4  10  19  32  49  70 101 133 170 210 252 304
#     4   9  16  28  47  70  97 127 166 208 249 300
#     4  10  19  32  49  70 101 133 170 210 252 304
#     4   9  16  28  47  70  97 127 166 208 249 300
#
# _framework density 23.945533000000001
#
# number of rings (size 3 to 8) (size 9 to 14) (size 15 to 20)
#    0.000    2.667    1.667    1.000    0.000    0.000 
#    0.000    0.000    0.000    0.000    0.000   37.333 
#    0.000    0.000    0.000    0.000    0.000    0.000 
#
# Total GULP energy -133622.771226 kJ/mol
# GULP energy per Si atom -5567.615468 kJ/mol
# Density = 2.389103 g / cm^3
# Si number density = 23.945533 Si / 1000 Ang^3
#
#
#
# Elastic Constant Matrix: (Units=GPa)
#
#
# Indices 1 2 3 4 5 6 
#
# 1 31.3886 20.4165 20.7757 0.0000 0.5309 0.0000
# 2 20.4165 118.0273 9.3375 0.0000 -13.9500 0.0000
# 3 20.7757 9.3375 138.1494 0.0000 33.8599 0.0000
# 4 0.0000 0.0000 0.0000 39.6700 0.0000 8.2964
# 5 0.5309 -13.9500 33.8599 0.0000 27.6884 0.0000
# 6 0.0000 0.0000 0.0000 8.2964 0.0000 10.3886
#
#
#
# Elastic Compliance Matrix: (Units=1/GPa)
#
#
# Indices 1 2 3 4 5 6 
#
# 1 0.040052 -0.005862 -0.006733 0.000000 0.004512 0.000000
# 2 -0.005862 0.010492 -0.001643 0.000000 0.007408 0.000000
# 3 -0.006733 -0.001643 0.012186 0.000000 -0.015601 0.000000
# 4 0.000000 0.000000 0.000000 0.030262 0.000000 -0.024168
# 5 0.004512 0.007408 -0.015601 0.000000 0.058840 0.000000
# 6 0.000000 0.000000 0.000000 -0.024168 0.000000 0.115560
#
#
# Mechanical properties :
#
#
# Convention : Reuss Voigt Hill
#
# Bulk Modulus (GPa) = 29.19448 43.18052 36.18750
# Shear Modulus (GPa) = 16.27142 31.35176 23.81159
#
# Velocity S-wave (km/s) = 2.60958 3.62234 3.15684
# Velocity P-wave (km/s) = 4.61502 5.96382 5.33224
#
# Compressibility (1/GPa) = 0.03425305
#
# Stress axis : x y z
#
# Youngs Moduli (GPa) = 24.96762 95.30812 82.06230
#
# Poissons Ratio (x) = 0.55872 0.55252
# Poissons Ratio (y) = 0.14637 0.13485
# Poissons Ratio (z) = 0.16811 0.15662
#
# Static dielectric constant tensor:
#      x y z
#    x 1.887430 0.000000 0.067720 
#    y 0.000000 1.905600 0.000000 
#    z 0.067720 0.000000 2.135670 
# 
# From -- ./inp_files/1592.got.cif
#   From: 2010.05.17/outbox.cif.g08.bks.cpg/sg14_1_cif.got.tgz:1592.got - 2010.06.03 17:49:19.
