data_PCOD9240054
_publ_section_title
;
Structure prediction by ZEFSAII (Michael W. Deem and Ramdas Pophale) SiO2 
 PCOD9240054
Probable space group: P 21/C
;
_chemical_formula_sum "Si O2"
_cell_formula_units_Z 32
_cell_length_a 11.372617
_cell_length_b 13.821155
_cell_length_c 8.351389
_cell_angle_alpha 90.000000
_cell_angle_beta 81.770502
_cell_angle_gamma 90.000000
_cell_volume 1299.176648
_symmetry_space_group_name_H-M "P 21/C"
_symmetry_group_IT_number 14
_symmetry_cell_setting 'monoclinic'
loop_
_space_group_symop_operation_xyz
x,y,z
-x,1/2+y,1/2-z
-x,-y,-z
x,1/2-y,1/2+z
loop_
_atom_site_type_symbol
_atom_site_label
_atom_site_fract_x
_atom_site_fract_y
_atom_site_fract_z
Si Si1 0.257351 0.061030 0.673004
Si Si2 0.594222 0.852374 0.817038
Si Si3 0.753637 0.131415 0.473968
Si Si4 0.508769 0.835667 0.496991
Si Si5 0.734106 0.014143 0.963820
Si Si6 0.187098 0.683578 0.392494
Si Si7 0.166662 0.257879 0.334347
Si Si8 0.932549 0.876564 0.860577
O O1 0.384848 0.100867 0.595681
O O2 0.170055 0.150979 0.712894
O O3 0.214037 0.980433 0.556892
O O4 0.271023 0.018861 0.849174
O O5 0.505740 0.860667 0.685676
O O6 0.635363 0.953508 0.886433
O O7 0.710044 0.800088 0.713152
O O8 0.543342 0.775953 0.955065
O O9 0.617052 0.138972 0.555793
O O10 0.758615 0.173123 0.293036
O O11 0.828691 0.204196 0.565750
O O12 0.859434 0.975190 0.867662
O O13 0.736098 0.129408 0.984910
O O14 0.062732 0.625627 0.407056
O O15 0.147727 0.308861 0.507132
O O16 0.067062 0.181071 0.305768
#
# Coordination Sequence:
#
# PCOD9240054 Si02
#       8
#     4   4   4   4   4   4   4   4
#     4   9  19  37  57  79 109 141 179 228 276 319
#     4  10  19  34  59  86 109 135 179 231 273 321
#     4  11  24  39  53  76 112 150 185 223 268 322
#     4  11  20  36  58  82 108 144 180 222 275 324
#     4   9  20  37  58  83 109 139 182 228 272 322
#     4  11  23  39  54  78 113 149 184 222 267 323
#     4   9  17  32  56  83 105 132 177 226 271 322
#     4  10  18  34  58  81 108 144 177 218 273 323
#
# _framework density 24.630987000000001
#
# number of rings (size 3 to 8) (size 9 to 14) (size 15 to 20)
#    0.000    2.000    0.000    6.000    0.000    1.000 
#    0.000    8.750    0.000    0.000    0.000    0.000 
#    0.000    0.000    0.000    0.000    0.000    0.000 
#
# Total GULP energy -178878.721105 kJ/mol
# GULP energy per Si atom -5589.960035 kJ/mol
# Density = 2.457493 g / cm^3
# Si number density = 24.630987 Si / 1000 Ang^3
#
#
#
# Elastic Constant Matrix: (Units=GPa)
#
#
# Indices 1 2 3 4 5 6 
#
# 1 41.6989 4.8707 4.1358 0.0000 -2.3188 0.0000
# 2 4.8707 58.9328 4.6587 0.0000 -9.3986 0.0000
# 3 4.1358 4.6587 32.4791 0.0000 -7.0231 0.0000
# 4 0.0000 0.0000 0.0000 26.3768 0.0000 -1.2695
# 5 -2.3188 -9.3986 -7.0231 0.0000 19.9126 0.0000
# 6 0.0000 0.0000 0.0000 -1.2695 0.0000 13.7572
#
#
#
# Elastic Compliance Matrix: (Units=1/GPa)
#
#
# Indices 1 2 3 4 5 6 
#
# 1 0.024498 -0.001633 -0.002636 0.000000 0.001152 0.000000
# 2 -0.001633 0.018479 -0.000647 0.000000 0.008303 0.000000
# 3 -0.002636 -0.000647 0.033652 0.000000 0.011256 0.000000
# 4 0.000000 0.000000 0.000000 0.038081 0.000000 0.003514
# 5 0.001152 0.008303 0.011256 0.000000 0.058243 0.000000
# 6 0.000000 0.000000 0.000000 0.003514 0.000000 0.073013
#
#
# Mechanical properties :
#
#
# Convention : Reuss Voigt Hill
#
# Bulk Modulus (GPa) = 14.97084 17.82678 16.39881
# Shear Modulus (GPa) = 17.98157 19.97237 18.97697
#
# Velocity S-wave (km/s) = 2.70485 2.85066 2.77871
# Velocity P-wave (km/s) = 3.98073 4.25303 4.11913
#
# Compressibility (1/GPa) = 0.06679652
#
# Stress axis : x y z
#
# Youngs Moduli (GPa) = 40.82020 54.11604 29.71633
#
# Poissons Ratio (x) = 0.08835 0.07833
# Poissons Ratio (y) = 0.06664 0.01923
# Poissons Ratio (z) = 0.10761 0.03502
#
# Static dielectric constant tensor:
#      x y z
#    x 2.005950 0.000000 0.018610 
#    y 0.000000 1.976100 0.000000 
#    z 0.018610 0.000000 1.963120 
# 
# From -- ./inp_files/13324.got.cif
#   From: 2010.05.17/outbox.cif.g08.bks.cpg/sg14_7_cif.got.tgz:13324.got - 2010.06.03 17:49:19.
