data_PCOD9240652
_publ_section_title
;
Structure prediction by ZEFSAII (Michael W. Deem and Ramdas Pophale) SiO2 
 PCOD9240652
Probable space group: P 21/C
;
_chemical_formula_sum "Si O2"
_cell_formula_units_Z 24
_cell_length_a 6.927191
_cell_length_b 25.970282
_cell_length_c 5.413343
_cell_angle_alpha 90.000000
_cell_angle_beta 77.039994
_cell_angle_gamma 90.000000
_cell_volume 949.058936
_symmetry_space_group_name_H-M "P 21/C"
_symmetry_group_IT_number 14
_symmetry_cell_setting 'monoclinic'
loop_
_space_group_symop_operation_xyz
x,y,z
-x,1/2+y,1/2-z
-x,-y,-z
x,1/2-y,1/2+z
loop_
_atom_site_type_symbol
_atom_site_label
_atom_site_fract_x
_atom_site_fract_y
_atom_site_fract_z
Si Si1 0.720345 0.617709 0.410304
Si Si2 0.104119 0.777081 0.256049
Si Si3 0.671889 0.763253 0.885830
Si Si4 0.265073 0.438475 0.094675
Si Si5 0.251813 0.556339 0.052585
Si Si6 0.757506 0.389332 0.443747
O O1 0.749153 0.678579 0.372990
O O2 0.792969 0.594533 0.648758
O O3 0.481848 0.611755 0.484110
O O4 0.791868 0.587432 0.148254
O O5 0.161113 0.761776 0.517826
O O6 0.172742 0.832855 0.151841
O O7 0.863580 0.773663 0.329158
O O8 0.559117 0.750708 0.667490
O O9 0.199026 0.497569 0.127972
O O10 0.506994 0.440350 0.023121
O O11 0.185734 0.592735 0.297425
O O12 0.185859 0.572811 0.797573
#
# Coordination Sequence:
#
# PCOD9240652 Si02
#       6
#     4   4   4   4   4   4
#     4  10  19  31  51  79 107 135 171 212 250 298
#     4  10  21  36  52  73  99 138 179 213 257 303
#     4  10  21  36  52  73  99 138 179 213 257 303
#     4   9  17  30  49  77 111 139 164 202 255 310
#     4   9  17  30  49  77 111 139 164 202 255 310
#     4  10  19  31  51  79 107 135 171 212 250 298
#
# _framework density 25.288208999999998
#
# number of rings (size 3 to 8) (size 9 to 14) (size 15 to 20)
#    0.000    2.333    0.000    3.000    0.000    5.333 
#    0.000    0.000    0.000    0.000    0.000   93.333 
#    0.000    0.000    0.000    0.000    0.000    2.000 
#
# Total GULP energy -134507.932021 kJ/mol
# GULP energy per Si atom -5604.497168 kJ/mol
# Density = 2.523065 g / cm^3
# Si number density = 25.288209 Si / 1000 Ang^3
#
#
#
# Elastic Constant Matrix: (Units=GPa)
#
#
# Indices 1 2 3 4 5 6 
#
# 1 81.3382 -16.5690 29.3653 0.0000 6.5819 0.0000
# 2 -16.5690 120.1936 54.9527 0.0000 20.1435 0.0000
# 3 29.3653 54.9527 188.8166 0.0000 29.1811 0.0000
# 4 0.0000 0.0000 0.0000 57.2754 0.0000 2.0312
# 5 6.5819 20.1435 29.1811 0.0000 57.9041 0.0000
# 6 0.0000 0.0000 0.0000 2.0312 0.0000 25.1631
#
#
#
# Elastic Compliance Matrix: (Units=1/GPa)
#
#
# Indices 1 2 3 4 5 6 
#
# 1 0.014232 0.003578 -0.003050 0.000000 -0.001326 0.000000
# 2 0.003578 0.010737 -0.003298 0.000000 -0.002480 0.000000
# 3 -0.003050 -0.003298 0.007048 0.000000 -0.002058 0.000000
# 4 0.000000 0.000000 0.000000 0.017510 0.000000 -0.001413
# 5 -0.001326 -0.002480 -0.002058 0.000000 0.019320 0.000000
# 6 0.000000 0.000000 0.000000 -0.001413 0.000000 0.039855
#
#
# Mechanical properties :
#
#
# Convention : Reuss Voigt Hill
#
# Bulk Modulus (GPa) = 37.76774 58.42738 48.09756
# Shear Modulus (GPa) = 40.62840 49.57514 45.10177
#
# Velocity S-wave (km/s) = 4.01261 4.43245 4.22774
# Velocity P-wave (km/s) = 6.03617 7.02497 6.54926
#
# Compressibility (1/GPa) = 0.02647762
#
# Stress axis : x y z
#
# Youngs Moduli (GPa) = 70.26579 93.13874 141.87581
#
# Poissons Ratio (x) = -0.33329 0.43272
# Poissons Ratio (y) = -0.25144 0.46792
# Poissons Ratio (z) = 0.21431 0.30718
#
# Static dielectric constant tensor:
#      x y z
#    x 2.069640 0.000000 0.000400 
#    y 0.000000 1.914110 0.000000 
#    z 0.000400 0.000000 1.981440 
# 
# From -- ./inp_files/1607.got.cif
#   From: 2010.05.17/outbox.cif.g08.bks.cpg/sg14_1_cif.got.tgz:1607.got - 2010.06.03 17:49:19.
