data_PCOD9240314
_publ_section_title
;
Structure prediction by ZEFSAII (Michael W. Deem and Ramdas Pophale) SiO2 
 PCOD9240314
Probable space group: P 21/C
;
_chemical_formula_sum "Si O2"
_cell_formula_units_Z 24
_cell_length_a 7.366466
_cell_length_b 11.544311
_cell_length_c 14.001096
_cell_angle_alpha 90.000000
_cell_angle_beta 77.722897
_cell_angle_gamma 90.000000
_cell_volume 1163.434310
_symmetry_space_group_name_H-M "P 21/C"
_symmetry_group_IT_number 14
_symmetry_cell_setting 'monoclinic'
loop_
_space_group_symop_operation_xyz
x,y,z
-x,1/2+y,1/2-z
-x,-y,-z
x,1/2-y,1/2+z
loop_
_atom_site_type_symbol
_atom_site_label
_atom_site_fract_x
_atom_site_fract_y
_atom_site_fract_z
Si Si1 0.314427 0.492267 0.250452
Si Si2 0.130940 0.823189 0.464494
Si Si3 0.245379 0.450643 0.046874
Si Si4 0.381850 0.145077 0.334655
Si Si5 0.254873 0.750536 0.252252
Si Si6 0.054668 0.307683 0.355351
O O1 0.313465 0.432492 0.146360
O O2 0.524812 0.541827 0.238287
O O3 0.203492 0.613833 0.254745
O O4 0.200807 0.412165 0.334578
O O5 0.255751 0.788444 0.361705
O O6 0.956867 0.893155 0.440167
O O7 0.049232 0.716374 0.533517
O O8 0.227011 0.912975 0.525833
O O9 0.360342 0.397405 0.946014
O O10 0.536158 0.246596 0.311627
O O11 0.184171 0.193690 0.324669
O O12 0.103389 0.817560 0.207241
#
# Coordination Sequence:
#
# PCOD9240314 Si02
#       6
#     4   4   4   4   4   4
#     4  10  21  37  60  89 115 158 198 240 296 352
#     4  10  20  35  63  88 118 158 197 243 299 342
#     4  10  18  36  64  88 112 156 207 248 281 347
#     4   9  23  35  55  90 116 149 200 238 297 338
#     4  10  22  38  56  90 117 156 193 242 302 343
#     4  11  21  40  58  86 125 150 196 252 287 353
#
# _framework density 20.628582000000002
#
# number of rings (size 3 to 8) (size 9 to 14) (size 15 to 20)
#    1.000    1.000    3.333    0.500    2.333    0.667 
#    0.000    0.000    0.000    1.000    0.000    0.000 
#    0.000    0.000    0.000    0.000    0.000    0.000 
#
# Total GULP energy -133717.636085 kJ/mol
# GULP energy per Si atom -5571.568170 kJ/mol
# Density = 2.058163 g / cm^3
# Si number density = 20.628582 Si / 1000 Ang^3
#
#
#
# Elastic Constant Matrix: (Units=GPa)
#
#
# Indices 1 2 3 4 5 6 
#
# 1 65.4000 -5.8812 3.6300 0.0000 -9.1997 0.0000
# 2 -5.8812 17.2390 5.0915 0.0000 -8.0570 0.0000
# 3 3.6300 5.0915 40.1058 0.0000 -8.5156 0.0000
# 4 0.0000 0.0000 0.0000 32.0674 0.0000 -20.5923
# 5 -9.1997 -8.0570 -8.5156 0.0000 26.2609 0.0000
# 6 0.0000 0.0000 0.0000 -20.5923 0.0000 24.4130
#
#
#
# Elastic Compliance Matrix: (Units=1/GPa)
#
#
# Indices 1 2 3 4 5 6 
#
# 1 0.017566 0.010522 -0.001003 0.000000 0.009057 0.000000
# 2 0.010522 0.074784 -0.005146 0.000000 0.024962 0.000000
# 3 -0.001003 -0.005146 0.027137 0.000000 0.006869 0.000000
# 4 0.000000 0.000000 0.000000 0.068037 0.000000 0.057389
# 5 0.009057 0.024962 0.006869 0.000000 0.051138 0.000000
# 6 0.000000 0.000000 0.000000 0.057389 0.000000 0.089369
#
#
# Mechanical properties :
#
#
# Convention : Reuss Voigt Hill
#
# Bulk Modulus (GPa) = 7.79831 14.26950 11.03391
# Shear Modulus (GPa) = 13.81102 24.54189 19.17646
#
# Velocity S-wave (km/s) = 2.59029 3.45295 3.05225
# Velocity P-wave (km/s) = 3.56857 4.77802 4.21688
#
# Compressibility (1/GPa) = 0.12823288
#
# Stress axis : x y z
#
# Youngs Moduli (GPa) = 56.92692 13.37190 36.85045
#
# Poissons Ratio (x) = -0.14070 0.03695
# Poissons Ratio (y) = -0.59898 0.18964
# Poissons Ratio (z) = 0.05708 0.06881
#
# Static dielectric constant tensor:
#      x y z
#    x 1.757220 0.000000 -0.022470 
#    y 0.000000 1.783550 0.000000 
#    z -0.022470 0.000000 1.719360 
# 
# From -- ./inp_files/39386.got.cif
#   From: 2010.05.17/outbox.cif.g08.bks.cpg/sg14_20_cif.got.tgz:39386.got - 2010.06.03 17:49:19.
