data_PCOD9240515
_publ_section_title
;
Structure prediction by ZEFSAII (Michael W. Deem and Ramdas Pophale) SiO2 
 PCOD9240515
Probable space group: P 21/C
;
_chemical_formula_sum "Si O2"
_cell_formula_units_Z 22
_cell_length_a 6.351425
_cell_length_b 13.987331
_cell_length_c 9.421425
_cell_angle_alpha 90.000000
_cell_angle_beta 104.008984
_cell_angle_gamma 90.000000
_cell_volume 812.100459
_symmetry_space_group_name_H-M "P 21/C"
_symmetry_group_IT_number 14
_symmetry_cell_setting 'monoclinic'
loop_
_space_group_symop_operation_xyz
x,y,z
-x,1/2+y,1/2-z
-x,-y,-z
x,1/2-y,1/2+z
loop_
_atom_site_type_symbol
_atom_site_label
_atom_site_fract_x
_atom_site_fract_y
_atom_site_fract_z
Si Si1 0.415183 0.054434 0.185595
Si Si2 0.719563 0.397661 0.147116
Si Si3 0.000000 0.500000 0.000000
Si Si4 0.817132 0.678757 0.128883
Si Si5 0.931247 0.877666 0.079325
Si Si6 0.240924 0.816478 0.895169
O O1 0.613090 0.095340 0.129422
O O2 0.359444 0.130800 0.299112
O O3 0.431831 0.953509 0.267324
O O4 0.205256 0.054186 0.045858
O O5 0.768050 0.448747 0.007518
O O6 0.964200 0.415865 0.258089
O O7 0.659926 0.288417 0.112744
O O8 0.890456 0.606132 0.019633
O O9 0.773652 0.787263 0.078571
O O10 0.029326 0.685016 0.262354
O O11 0.140223 0.832643 0.033505
#
# Coordination Sequence:
#
# PCOD9240515 Si02
#       6
#     4   4   2   4   4   4
#     4  10  22  39  61  96 121 164 219 250 320 380
#     4  10  21  39  66  91 129 167 207 267 311 371
#     4  10  18  40  64  88 118 164 210 246 312 376
#     4   9  20  38  61  87 122 164 204 259 310 371
#     4  10  20  39  64  89 123 168 206 259 316 369
#     4  10  21  40  60  91 130 161 204 265 315 366
#
# _framework density 27.090247000000002
#
# number of rings (size 3 to 8) (size 9 to 14) (size 15 to 20)
#    0.000    2.182    1.818    0.545    0.000    3.636 
#    3.273    5.455    0.000    0.000    0.000    0.000 
#    0.000    0.000    0.000    0.000    0.000    0.000 
#
# Total GULP energy -122771.409857 kJ/mol
# GULP energy per Si atom -5580.518630 kJ/mol
# Density = 2.702859 g / cm^3
# Si number density = 27.090247 Si / 1000 Ang^3
#
#
#
# Elastic Constant Matrix: (Units=GPa)
#
#
# Indices 1 2 3 4 5 6 
#
# 1 57.1294 15.2218 28.0752 0.0000 7.9023 0.0000
# 2 15.2218 113.4455 -4.2587 0.0000 3.4073 0.0000
# 3 28.0752 -4.2587 47.0663 0.0000 5.3157 0.0000
# 4 0.0000 0.0000 0.0000 31.6406 0.0000 -5.7689
# 5 7.9023 3.4073 5.3157 0.0000 38.0720 0.0000
# 6 0.0000 0.0000 0.0000 -5.7689 0.0000 39.8406
#
#
#
# Elastic Compliance Matrix: (Units=1/GPa)
#
#
# Indices 1 2 3 4 5 6 
#
# 1 0.026927 -0.004128 -0.016100 0.000000 -0.002972 0.000000
# 2 -0.004128 0.009509 0.003375 0.000000 -0.000465 0.000000
# 3 -0.016100 0.003375 0.031306 0.000000 -0.001331 0.000000
# 4 0.000000 0.000000 0.000000 0.032462 0.000000 0.004701
# 5 -0.002972 -0.000465 -0.001331 0.000000 0.027110 0.000000
# 6 0.000000 0.000000 0.000000 0.004701 0.000000 0.025781
#
#
# Mechanical properties :
#
#
# Convention : Reuss Voigt Hill
#
# Bulk Modulus (GPa) = 29.37957 32.85755 31.11856
# Shear Modulus (GPa) = 25.23376 33.81749 29.52562
#
# Velocity S-wave (km/s) = 3.05531 3.53700 3.30494
# Velocity P-wave (km/s) = 4.82858 5.36989 5.10641
#
# Compressibility (1/GPa) = 0.03403725
#
# Stress axis : x y z
#
# Youngs Moduli (GPa) = 37.13712 105.15901 31.94254
#
# Poissons Ratio (x) = 0.43411 0.51428
# Poissons Ratio (y) = 0.15331 -0.10782
# Poissons Ratio (z) = 0.59791 -0.35496
#
# Static dielectric constant tensor:
#      x y z
#    x 2.095220 0.000000 0.022280 
#    y 0.000000 2.301410 0.000000 
#    z 0.022280 0.000000 2.261240 
# 
# From -- ./inp_files/20645.got.cif
#   From: 2010.05.17/outbox.cif.g08.bks.cpg/sg14_11_cif.got.tgz:20645.got - 2010.06.03 17:49:19.
