data_PCOD9240010
_publ_section_title
;
Structure prediction by ZEFSAII (Michael W. Deem and Ramdas Pophale) SiO2 
 PCOD9240010
Probable space group: P 21/C
;
_chemical_formula_sum "Si O2"
_cell_formula_units_Z 32
_cell_length_a 9.533494
_cell_length_b 19.540056
_cell_length_c 14.559318
_cell_angle_alpha 90.000000
_cell_angle_beta 26.132859
_cell_angle_gamma 90.000000
_cell_volume 1194.592007
_symmetry_space_group_name_H-M "P 21/C"
_symmetry_group_IT_number 14
_symmetry_cell_setting 'monoclinic'
loop_
_space_group_symop_operation_xyz
x,y,z
-x,1/2+y,1/2-z
-x,-y,-z
x,1/2-y,1/2+z
loop_
_atom_site_type_symbol
_atom_site_label
_atom_site_fract_x
_atom_site_fract_y
_atom_site_fract_z
Si Si1 0.497724 0.616291 0.292164
Si Si2 0.208533 0.809880 0.807462
Si Si3 0.178120 0.250617 0.809137
Si Si4 0.417466 0.526384 0.688588
Si Si5 0.961490 0.491988 0.785644
Si Si6 0.949282 0.155318 0.306776
Si Si7 0.352990 0.664594 0.669600
Si Si8 0.886358 0.865339 0.281983
O O1 0.415263 0.633169 0.236181
O O2 0.680802 0.681713 0.225589
O O3 0.644528 0.540547 0.214284
O O4 0.177328 0.617609 0.541811
O O5 0.386324 0.737573 0.695932
O O6 0.926328 0.705149 0.543802
O O7 0.110900 0.828764 0.763608
O O8 0.894142 0.284817 0.913250
O O9 0.306580 0.194271 0.658579
O O10 0.204715 0.515246 0.722636
O O11 0.794237 0.525291 0.441596
O O12 0.336500 0.605196 0.755954
O O13 0.818461 0.420244 0.903815
O O14 0.756148 0.558678 0.881244
O O15 0.340655 0.150470 0.075036
O O16 0.051974 0.663843 0.777269
#
# Coordination Sequence:
#
# PCOD9240010 Si02
#       8
#     4   4   4   4   4   4   4   4
#     4  10  18  35  51  77 107 136 174 218 257 309
#     4  11  24  33  49  85 111 134 175 216 260 318
#     4  11  20  34  54  78 107 138 172 210 268 313
#     4   8  14  28  54  75  96 135 178 212 258 299
#     4   8  14  28  53  80  96 127 182 218 249 305
#     4  11  19  35  57  76 103 142 174 214 265 305
#     4  10  18  34  54  79 104 135 180 218 252 309
#     4   9  17  31  56  81 100 134 177 219 259 300
#
# _framework density 26.787388
#
# number of rings (size 3 to 8) (size 9 to 14) (size 15 to 20)
#    0.000    2.250    3.750    2.250    0.000    0.000 
#    0.000   11.875    0.000    0.000    0.000    3.500 
#    0.000    0.000    0.000    0.000    0.000    0.000 
#
# Total GULP energy -178812.413392 kJ/mol
# GULP energy per Si atom -5587.887919 kJ/mol
# Density = 2.672642 g / cm^3
# Si number density = 26.787388 Si / 1000 Ang^3
#
#
#
# Elastic Constant Matrix: (Units=GPa)
#
#
# Indices 1 2 3 4 5 6 
#
# 1 109.2643 23.6404 8.5963 0.0000 9.1845 0.0000
# 2 23.6404 159.1511 4.1658 0.0000 11.1011 0.0000
# 3 8.5963 4.1658 57.3657 0.0000 14.2184 0.0000
# 4 0.0000 0.0000 0.0000 30.2688 0.0000 2.1504
# 5 9.1845 11.1011 14.2184 0.0000 15.9219 0.0000
# 6 0.0000 0.0000 0.0000 2.1504 0.0000 37.9278
#
#
#
# Elastic Compliance Matrix: (Units=1/GPa)
#
#
# Indices 1 2 3 4 5 6 
#
# 1 0.009806 -0.001125 -0.000231 0.000000 -0.004665 0.000000
# 2 -0.001125 0.006766 0.000881 0.000000 -0.004855 0.000000
# 3 -0.000231 0.000881 0.022502 0.000000 -0.020575 0.000000
# 4 0.000000 0.000000 0.000000 0.033171 0.000000 -0.001881
# 5 -0.004665 -0.004855 -0.020575 0.000000 0.087257 0.000000
# 6 0.000000 0.000000 0.000000 -0.001881 0.000000 0.026473
#
#
# Mechanical properties :
#
#
# Convention : Reuss Voigt Hill
#
# Bulk Modulus (GPa) = 26.23113 44.28733 35.25923
# Shear Modulus (GPa) = 25.04582 36.11560 30.58071
#
# Velocity S-wave (km/s) = 3.06107 3.67581 3.38244
# Velocity P-wave (km/s) = 4.72304 5.88084 5.33345
#
# Compressibility (1/GPa) = 0.03812264
#
# Stress axis : x y z
#
# Youngs Moduli (GPa) = 101.97924 147.79701 44.43953
#
# Poissons Ratio (x) = 0.16629 0.01028
# Poissons Ratio (y) = 0.11474 -0.03913
# Poissons Ratio (z) = 0.02359 -0.13014
#
# Static dielectric constant tensor:
#      x y z
#    x 2.072690 0.000000 -0.064060 
#    y 0.000000 2.160780 0.000000 
#    z -0.064060 0.000000 2.223420 
# 
# From -- ./inp_files/41588.got.cif
#   From: 2010.05.17/outbox.cif.g08.bks.cpg/sg14_21_cif.got.tgz:41588.got - 2010.06.03 17:49:19.
