data_PCOD9240119
_publ_section_title
;
Structure prediction by ZEFSAII (Michael W. Deem and Ramdas Pophale) SiO2 
 PCOD9240119
Probable space group: P 21/C
;
_chemical_formula_sum "Si O2"
_cell_formula_units_Z 32
_cell_length_a 14.080373
_cell_length_b 5.690884
_cell_length_c 17.360385
_cell_angle_alpha 90.000000
_cell_angle_beta 105.411500
_cell_angle_gamma 90.000000
_cell_volume 1341.063179
_symmetry_space_group_name_H-M "P 21/C"
_symmetry_group_IT_number 14
_symmetry_cell_setting 'monoclinic'
loop_
_space_group_symop_operation_xyz
x,y,z
-x,1/2+y,1/2-z
-x,-y,-z
x,1/2-y,1/2+z
loop_
_atom_site_type_symbol
_atom_site_label
_atom_site_fract_x
_atom_site_fract_y
_atom_site_fract_z
Si Si1 0.653518 0.618472 0.397683
Si Si2 0.768998 0.934017 0.178889
Si Si3 0.409147 0.738217 0.507867
Si Si4 0.298962 0.809384 0.227645
Si Si5 0.232330 0.107730 0.470810
Si Si6 0.915937 0.301372 0.135903
Si Si7 0.097900 0.063005 0.212610
Si Si8 0.472890 0.575818 0.865567
O O1 0.616437 0.519198 0.471044
O O2 0.668588 0.384411 0.350717
O O3 0.753306 0.746980 0.446707
O O4 0.568995 0.796385 0.349121
O O5 0.697319 0.061818 0.225808
O O6 0.824426 0.142099 0.144690
O O7 0.747046 0.749619 0.104965
O O8 0.843637 0.794857 0.249815
O O9 0.437395 0.753311 0.425763
O O10 0.316399 0.911285 0.495412
O O11 0.491839 0.846062 0.581522
O O12 0.378892 0.963554 0.292217
O O13 0.185216 0.890402 0.205115
O O14 0.127857 0.979306 0.436125
O O15 0.945095 0.451290 0.217999
O O16 0.008004 0.133465 0.138310
#
# Coordination Sequence:
#
# PCOD9240119 Si02
#       8
#     4   4   4   4   4   4   4   4
#     4  11  24  40  60  86 132 173 209 261 313 383
#     4  10  20  37  64  91 128 158 206 268 312 369
#     4  10  21  41  65  91 122 163 222 260 313 372
#     4  11  25  38  59  96 131 169 210 253 331 376
#     4  10  21  37  64  92 125 166 214 261 313 375
#     4  10  18  34  63  96 125 158 208 264 325 365
#     4  10  20  36  61  96 130 156 207 268 319 377
#     4  10  22  39  62  90 120 165 218 270 306 374
#
# _framework density 23.861664999999999
#
# number of rings (size 3 to 8) (size 9 to 14) (size 15 to 20)
#    0.000    1.750    1.250    4.125    1.750    5.000 
#    0.000    0.625    0.000    3.750    0.000    0.000 
#    0.000    0.000    0.000    0.000    0.000    0.000 
#
# Total GULP energy -178467.867506 kJ/mol
# GULP energy per Si atom -5577.120860 kJ/mol
# Density = 2.380735 g / cm^3
# Si number density = 23.861665 Si / 1000 Ang^3
#
#
#
# Elastic Constant Matrix: (Units=GPa)
#
#
# Indices 1 2 3 4 5 6 
#
# 1 52.6631 0.9278 29.2112 0.0000 11.6771 0.0000
# 2 0.9278 53.9500 11.9891 0.0000 5.9490 0.0000
# 3 29.2112 11.9891 57.6858 0.0000 14.3195 0.0000
# 4 0.0000 0.0000 0.0000 16.1272 0.0000 8.0966
# 5 11.6771 5.9490 14.3195 0.0000 23.7941 0.0000
# 6 0.0000 0.0000 0.0000 8.0966 0.0000 25.0833
#
#
#
# Elastic Compliance Matrix: (Units=1/GPa)
#
#
# Indices 1 2 3 4 5 6 
#
# 1 0.027590 0.003133 -0.013010 0.000000 -0.006493 0.000000
# 2 0.003133 0.019955 -0.004836 0.000000 -0.003616 0.000000
# 3 -0.013010 -0.004836 0.027091 0.000000 -0.008709 0.000000
# 4 0.000000 0.000000 0.000000 0.073999 0.000000 -0.023886
# 5 -0.006493 -0.003616 -0.008709 0.000000 0.051359 0.000000
# 6 0.000000 0.000000 0.000000 -0.023886 0.000000 0.047577
#
#
# Mechanical properties :
#
#
# Convention : Reuss Voigt Hill
#
# Bulk Modulus (GPa) = 22.11979 27.61724 24.86852
# Shear Modulus (GPa) = 17.11932 21.14565 19.13248
#
# Velocity S-wave (km/s) = 2.68141 2.98010 2.83469
# Velocity P-wave (km/s) = 4.34474 4.84152 4.59984
#
# Compressibility (1/GPa) = 0.04520838
#
# Stress axis : x y z
#
# Youngs Moduli (GPa) = 36.24534 50.11209 36.91328
#
# Poissons Ratio (x) = -0.15699 0.48025
# Poissons Ratio (y) = -0.11355 0.17852
# Poissons Ratio (z) = 0.47156 0.24235
#
# Static dielectric constant tensor:
#      x y z
#    x 1.976870 0.000000 0.004450 
#    y 0.000000 1.963990 0.000000 
#    z 0.004450 0.000000 1.900120 
# 
# From -- ./inp_files/58639.got.cif
#   From: 2010.05.17/outbox.cif.g08.bks.cpg/sg14_30_cif.got.tgz:58639.got - 2010.06.03 17:49:19.
