data_PCOD9240661
_publ_section_title
;
Structure prediction by ZEFSAII (Michael W. Deem and Ramdas Pophale) SiO2 
 PCOD9240661
Probable space group: P 21/C
;
_chemical_formula_sum "Si O2"
_cell_formula_units_Z 28
_cell_length_a 5.789223
_cell_length_b 13.535766
_cell_length_c 15.811112
_cell_angle_alpha 90.000000
_cell_angle_beta 56.720456
_cell_angle_gamma 90.000000
_cell_volume 1035.794344
_symmetry_space_group_name_H-M "P 21/C"
_symmetry_group_IT_number 14
_symmetry_cell_setting 'monoclinic'
loop_
_space_group_symop_operation_xyz
x,y,z
-x,1/2+y,1/2-z
-x,-y,-z
x,1/2-y,1/2+z
loop_
_atom_site_type_symbol
_atom_site_label
_atom_site_fract_x
_atom_site_fract_y
_atom_site_fract_z
Si Si1 0.434939 0.787629 0.790093
Si Si2 0.170960 0.997028 0.655895
Si Si3 0.037304 0.755182 0.027156
Si Si4 0.135184 0.915370 0.128565
Si Si5 0.041849 0.295137 0.724216
Si Si6 0.745540 0.591090 0.486861
Si Si7 0.274599 0.053037 0.377028
O O1 0.726349 0.746645 0.763120
O O2 0.524415 0.896074 0.735424
O O3 0.228266 0.743480 0.761423
O O4 0.256135 0.775601 0.909932
O O5 0.507281 0.996154 0.599998
O O6 0.084314 0.885735 0.697570
O O7 0.967674 0.014522 0.615741
O O8 0.048715 0.064582 0.754072
O O9 0.163926 0.805627 0.085176
O O10 0.899463 0.648387 0.056335
O O11 0.800285 0.830629 0.049057
O O12 0.056183 0.998104 0.073966
O O13 0.450475 0.949613 0.077073
O O14 0.205763 0.343581 0.610057
#
# Coordination Sequence:
#
# PCOD9240661 Si02
#       7
#     4   4   4   4   4   4   4
#     4   9  17  31  46  70 101 136 169 209 256 303
#     4   9  20  34  48  70 108 145 172 212 262 319
#     4  11  21  31  55  78 111 143 185 217 269 326
#     4  10  19  31  53  79 110 142 173 221 278 329
#     4   8  14  28  44  66  99 132 161 198 246 311
#     4   9  18  28  47  79 108 135 172 209 271 335
#     4  10  22  35  50  74 111 145 178 216 262 326
#
# _framework density 27.032395999999999
#
# number of rings (size 3 to 8) (size 9 to 14) (size 15 to 20)
#    0.000    2.571    1.429    1.286    6.000    0.000 
#    0.000    0.000    0.000    0.000    0.000    2.000 
#    0.000    0.000    0.000    0.000    0.000    0.000 
#
# Total GULP energy -155992.226720 kJ/mol
# GULP energy per Si atom -5571.150954 kJ/mol
# Density = 2.697087 g / cm^3
# Si number density = 27.032396 Si / 1000 Ang^3
#
#
#
# Elastic Constant Matrix: (Units=GPa)
#
#
# Indices 1 2 3 4 5 6 
#
# 1 235.5431 34.3060 46.9769 0.0000 2.9068 0.0000
# 2 34.3060 70.2485 30.0083 0.0000 10.2443 0.0000
# 3 46.9769 30.0083 81.9977 0.0000 -23.5652 0.0000
# 4 0.0000 0.0000 0.0000 33.0317 0.0000 -4.1869
# 5 2.9068 10.2443 -23.5652 0.0000 42.9393 0.0000
# 6 0.0000 0.0000 0.0000 -4.1869 0.0000 29.4465
#
#
#
# Elastic Compliance Matrix: (Units=1/GPa)
#
#
# Indices 1 2 3 4 5 6 
#
# 1 0.005007 -0.000867 -0.003074 0.000000 -0.001819 0.000000
# 2 -0.000867 0.020384 -0.009906 0.000000 -0.010241 0.000000
# 3 -0.003074 -0.009906 0.021752 0.000000 0.014509 0.000000
# 4 0.000000 0.000000 0.000000 0.030830 0.000000 0.004384
# 5 -0.001819 -0.010241 0.014509 0.000000 0.033818 0.000000
# 6 0.000000 0.000000 0.000000 0.004384 0.000000 0.034583
#
#
# Mechanical properties :
#
#
# Convention : Reuss Voigt Hill
#
# Bulk Modulus (GPa) = 51.41918 67.81909 59.61913
# Shear Modulus (GPa) = 27.69300 39.51670 33.60485
#
# Velocity S-wave (km/s) = 3.20416 3.82753 3.52963
# Velocity P-wave (km/s) = 5.72289 6.68400 6.22203
#
# Compressibility (1/GPa) = 0.01944800
#
# Stress axis : x y z
#
# Youngs Moduli (GPa) = 199.70574 49.05907 45.97282
#
# Poissons Ratio (x) = 0.04252 0.14134
# Poissons Ratio (y) = 0.17308 0.45542
# Poissons Ratio (z) = 0.61399 0.48599
#
# Static dielectric constant tensor:
#      x y z
#    x 2.403550 0.000000 -0.009950 
#    y 0.000000 2.146830 0.000000 
#    z -0.009950 0.000000 2.221240 
# 
# From -- ./inp_files/37552.got.cif
#   From: 2010.05.17/outbox.cif.g08.bks.cpg/sg14_19_cif.got.tgz:37552.got - 2010.06.03 17:49:19.
