data_PCOD9240633
_publ_section_title
;
Structure prediction by ZEFSAII (Michael W. Deem and Ramdas Pophale) SiO2 
 PCOD9240633
Probable space group: P 21/C
;
_chemical_formula_sum "Si O2"
_cell_formula_units_Z 24
_cell_length_a 11.247540
_cell_length_b 7.634663
_cell_length_c 13.194499
_cell_angle_alpha 90.000000
_cell_angle_beta 103.213866
_cell_angle_gamma 90.000000
_cell_volume 1103.028698
_symmetry_space_group_name_H-M "P 21/C"
_symmetry_group_IT_number 14
_symmetry_cell_setting 'monoclinic'
loop_
_space_group_symop_operation_xyz
x,y,z
-x,1/2+y,1/2-z
-x,-y,-z
x,1/2-y,1/2+z
loop_
_atom_site_type_symbol
_atom_site_label
_atom_site_fract_x
_atom_site_fract_y
_atom_site_fract_z
Si Si1 0.313383 0.855613 0.485773
Si Si2 0.863127 0.552645 0.890319
Si Si3 0.804737 0.493226 0.523522
Si Si4 0.533572 0.963372 0.643806
Si Si5 0.647824 0.723201 0.349987
Si Si6 0.016034 0.723734 0.577037
O O1 0.258918 0.672442 0.436788
O O2 0.355333 0.988211 0.407509
O O3 0.214467 0.951826 0.537027
O O4 0.436990 0.826933 0.576226
O O5 0.759532 0.670114 0.818450
O O6 0.932075 0.390113 0.851162
O O7 0.956476 0.682862 0.965293
O O8 0.705614 0.622679 0.456244
O O9 0.906985 0.607105 0.601030
O O10 0.878536 0.405485 0.442480
O O11 0.452820 0.137641 0.636793
O O12 0.584844 0.905957 0.760173
#
# Coordination Sequence:
#
# PCOD9240633 Si02
#       6
#     4   4   4   4   4   4
#     4   9  18  32  50  73 101 130 166 209 255 301
#     4   8  15  29  51  76  98 127 163 203 247 296
#     4   9  16  28  50  76  98 127 168 206 246 300
#     4  10  20  33  48  70 102 135 169 211 253 301
#     4  10  19  31  49  72  99 133 171 207 252 302
#     4   8  14  27  50  76  98 122 163 201 239 299
#
# _framework density 21.758272999999999
#
# number of rings (size 3 to 8) (size 9 to 14) (size 15 to 20)
#    0.000    3.000    0.000    1.000    0.000    0.667 
#    0.000    3.333    0.000   12.000    0.000    0.000 
#    0.000    0.000    0.000    0.000    0.000    1.167 
#
# Total GULP energy -133779.084822 kJ/mol
# GULP energy per Si atom -5574.128534 kJ/mol
# Density = 2.170875 g / cm^3
# Si number density = 21.758273 Si / 1000 Ang^3
#
#
#
# Elastic Constant Matrix: (Units=GPa)
#
#
# Indices 1 2 3 4 5 6 
#
# 1 71.4447 35.4927 9.6920 0.0000 11.9580 0.0000
# 2 35.4927 104.4237 0.0458 0.0000 9.3558 0.0000
# 3 9.6920 0.0458 5.5597 0.0000 -1.1691 0.0000
# 4 0.0000 0.0000 0.0000 21.2973 0.0000 24.2824
# 5 11.9580 9.3558 -1.1691 0.0000 6.6918 0.0000
# 6 0.0000 0.0000 0.0000 24.2824 0.0000 45.6712
#
#
#
# Elastic Compliance Matrix: (Units=1/GPa)
#
#
# Indices 1 2 3 4 5 6 
#
# 1 0.046177 -0.007667 -0.099178 0.000000 -0.089126 0.000000
# 2 -0.007667 0.012284 0.013011 0.000000 -0.001201 0.000000
# 3 -0.099178 0.013011 0.400820 0.000000 0.229064 0.000000
# 4 0.000000 0.000000 0.000000 0.119234 0.000000 -0.063394
# 5 -0.089126 -0.001201 0.229064 0.000000 0.350402 0.000000
# 6 0.000000 0.000000 0.000000 -0.063394 0.000000 0.055601
#
#
# Mechanical properties :
#
#
# Convention : Reuss Voigt Hill
#
# Bulk Modulus (GPa) = 3.68168 30.20990 16.94579
# Shear Modulus (GPa) = 3.95970 23.81189 13.88580
#
# Velocity S-wave (km/s) = 1.35048 3.31174 2.52897
# Velocity P-wave (km/s) = 2.03163 5.34209 4.04138
#
# Compressibility (1/GPa) = 0.27161514
#
# Stress axis : x y z
#
# Youngs Moduli (GPa) = 21.65571 81.40615 2.49488
#
# Poissons Ratio (x) = 0.62410 0.24744
# Poissons Ratio (y) = 0.16602 -0.03246
# Poissons Ratio (z) = 2.14776 -1.05918
#
# Static dielectric constant tensor:
#      x y z
#    x 1.842230 0.000000 0.010550 
#    y 0.000000 1.853710 0.000000 
#    z 0.010550 0.000000 1.757300 
# 
# From -- ./inp_files/43203.got.cif
#   From: 2010.05.17/outbox.cif.g08.bks.cpg/sg14_22_cif.got.tgz:43203.got - 2010.06.03 17:49:19.
