data_PCOD9240556
_publ_section_title
;
Structure prediction by ZEFSAII (Michael W. Deem and Ramdas Pophale) SiO2 
 PCOD9240556
Probable space group: P 21/C
;
_chemical_formula_sum "Si O2"
_cell_formula_units_Z 26
_cell_length_a 8.675462
_cell_length_b 13.393136
_cell_length_c 14.749719
_cell_angle_alpha 90.000000
_cell_angle_beta 146.577600
_cell_angle_gamma 90.000000
_cell_volume 943.969919
_symmetry_space_group_name_H-M "P 21/C"
_symmetry_group_IT_number 14
_symmetry_cell_setting 'monoclinic'
loop_
_space_group_symop_operation_xyz
x,y,z
-x,1/2+y,1/2-z
-x,-y,-z
x,1/2-y,1/2+z
loop_
_atom_site_type_symbol
_atom_site_label
_atom_site_fract_x
_atom_site_fract_y
_atom_site_fract_z
Si Si1 0.961382 0.387603 0.741579
Si Si2 0.500000 0.500000 0.500000
Si Si3 0.784605 0.125414 0.841361
Si Si4 0.939330 0.254970 0.079694
Si Si5 0.256268 0.915368 0.374063
Si Si6 0.418456 0.444386 0.661547
Si Si7 0.001974 0.612743 0.036248
O O1 0.627535 0.382484 0.569910
O O2 0.083032 0.318783 0.723231
O O3 0.079376 0.371956 0.899607
O O4 0.982603 0.509359 0.734430
O O5 0.500949 0.503133 0.611775
O O6 0.721332 0.150690 0.705839
O O7 0.614940 0.023027 0.773409
O O8 0.766596 0.185976 0.925590
O O9 0.115659 0.102071 0.001133
O O10 0.788178 0.341613 0.064080
O O11 0.131437 0.314977 0.102222
O O12 0.500000 0.000000 0.500000
O O13 0.663976 0.367198 0.800081
O O14 0.000000 0.500000 0.000000
#
# Coordination Sequence:
#
# PCOD9240556 Si02
#       7
#     4   2   4   4   4   4   4
#     4  11  23  47  72 108 147 200 254 308 377 461
#     4  10  18  42  74 100 144 192 242 304 372 444
#     4  11  22  45  71 108 143 194 255 303 378 460
#     4  12  25  47  71 110 148 201 257 306 380 465
#     4  12  26  49  74 111 158 198 254 329 385 445
#     4  10  21  42  74 101 147 193 242 314 375 442
#     4  11  24  46  68 103 152 192 243 314 382 439
#
# _framework density 27.54325
#
# number of rings (size 3 to 8) (size 9 to 14) (size 15 to 20)
#    0.000    0.923    4.615    2.769    0.000    0.000 
#   11.077    3.077    0.000    0.000    0.000    0.000 
#    0.000    0.000    0.000    0.000    0.000    0.000 
#
# Total GULP energy -144904.133239 kJ/mol
# GULP energy per Si atom -5573.235894 kJ/mol
# Density = 2.748056 g / cm^3
# Si number density = 27.543250 Si / 1000 Ang^3
#
#
#
# Elastic Constant Matrix: (Units=GPa)
#
#
# Indices 1 2 3 4 5 6 
#
# 1 127.6054 55.3916 85.1222 0.0000 -60.3590 0.0000
# 2 55.3916 114.6742 41.6185 0.0000 -36.5315 0.0000
# 3 85.1222 41.6185 86.2580 0.0000 -44.7362 0.0000
# 4 0.0000 0.0000 0.0000 40.1833 0.0000 -27.2467
# 5 -60.3590 -36.5315 -44.7362 0.0000 72.6418 0.0000
# 6 0.0000 0.0000 0.0000 -27.2467 0.0000 58.8933
#
#
#
# Elastic Compliance Matrix: (Units=1/GPa)
#
#
# Indices 1 2 3 4 5 6 
#
# 1 0.026808 -0.002804 -0.020982 0.000000 0.007943 0.000000
# 2 -0.002804 0.011395 -0.001422 0.000000 0.002526 0.000000
# 3 -0.020982 -0.001422 0.034634 0.000000 0.003180 0.000000
# 4 0.000000 0.000000 0.000000 0.036261 0.000000 0.016776
# 5 0.007943 0.002526 0.003180 0.000000 0.023595 0.000000
# 6 0.000000 0.000000 0.000000 0.016776 0.000000 0.024741
#
#
# Mechanical properties :
#
#
# Convention : Reuss Voigt Hill
#
# Bulk Modulus (GPa) = 44.59898 76.97805 60.78851
# Shear Modulus (GPa) = 23.22097 44.10404 33.66250
#
# Velocity S-wave (km/s) = 2.90672 4.00592 3.49975
# Velocity P-wave (km/s) = 5.24336 7.02889 6.20073
#
# Compressibility (1/GPa) = 0.02242204
#
# Stress axis : x y z
#
# Youngs Moduli (GPa) = 37.30297 87.75741 28.87305
#
# Poissons Ratio (x) = 0.24603 0.60583
# Poissons Ratio (y) = 0.10458 0.04104
# Poissons Ratio (z) = 0.78271 0.12475
#
# Static dielectric constant tensor:
#      x y z
#    x 2.024820 0.000000 -0.194440 
#    y 0.000000 2.327020 0.000000 
#    z -0.194440 0.000000 1.870450 
# 
# From -- ./inp_files/41454.got.cif
#   From: 2010.05.17/outbox.cif.g08.bks.cpg/sg14_21_cif.got.tgz:41454.got - 2010.06.03 17:49:19.
