data_PCOD9240912
_publ_section_title
;
Structure prediction by ZEFSAII (Michael W. Deem and Ramdas Pophale) SiO2 
 PCOD9240912
Probable space group: P 21/C
;
_chemical_formula_sum "Si O2"
_cell_formula_units_Z 28
_cell_length_a 9.560356
_cell_length_b 23.274745
_cell_length_c 10.343165
_cell_angle_alpha 90.000000
_cell_angle_beta 40.814667
_cell_angle_gamma 90.000000
_cell_volume 1504.298549
_symmetry_space_group_name_H-M "P 21/C"
_symmetry_group_IT_number 14
_symmetry_cell_setting 'monoclinic'
loop_
_space_group_symop_operation_xyz
x,y,z
-x,1/2+y,1/2-z
-x,-y,-z
x,1/2-y,1/2+z
loop_
_atom_site_type_symbol
_atom_site_label
_atom_site_fract_x
_atom_site_fract_y
_atom_site_fract_z
Si Si1 0.565665 0.276581 0.849635
Si Si2 0.255165 0.319518 0.655119
Si Si3 0.619385 0.877017 0.671834
Si Si4 0.375350 0.515013 0.452785
Si Si5 0.953386 0.449091 0.135351
Si Si6 0.540806 0.400302 0.280546
Si Si7 0.246333 0.800901 0.510258
O O1 0.490320 0.339781 0.862047
O O2 0.706138 0.277542 0.880678
O O3 0.688768 0.245026 0.645940
O O4 0.357595 0.238821 0.029983
O O5 0.327521 0.332475 0.750271
O O6 0.364351 0.369428 0.493336
O O7 0.001024 0.317879 0.826768
O O8 0.461755 0.925928 0.835692
O O9 0.839745 0.910160 0.487336
O O10 0.500000 0.500000 0.500000
O O11 0.134743 0.522837 0.670977
O O12 0.440472 0.462000 0.316438
O O13 0.759323 0.411567 0.209690
O O14 0.000000 0.500000 0.000000
O O15 0.608391 0.356933 0.120943
#
# Coordination Sequence:
#
# PCOD9240912 Si02
#       7
#     4   4   4   4   4   4   4
#     4  11  27  43  60  94 126 164 214 261 314 377
#     4  11  22  39  64  89 122 166 209 262 309 369
#     4  12  21  38  65  93 126 164 209 263 308 367
#     4  10  19  33  57  96 128 149 211 260 294 367
#     4  11  18  32  63  99 118 162 207 256 304 366
#     4  10  20  35  60  94 124 155 210 257 304 362
#     4  11  25  41  65  87 127 168 208 258 322 372
#
# _framework density 18.613325
#
# number of rings (size 3 to 8) (size 9 to 14) (size 15 to 20)
#    0.000    1.143    8.571    0.000    2.000    1.143 
#    0.000    0.714    0.000    1.714    0.000    0.000 
#    0.000    0.000    0.000    0.000    0.000    0.000 
#
# Total GULP energy -156238.747793 kJ/mol
# GULP energy per Si atom -5579.955278 kJ/mol
# Density = 1.857096 g / cm^3
# Si number density = 18.613325 Si / 1000 Ang^3
#
#
#
# Elastic Constant Matrix: (Units=GPa)
#
#
# Indices 1 2 3 4 5 6 
#
# 1 54.9605 22.0091 43.6840 0.0000 11.2079 0.0000
# 2 22.0091 87.1247 35.6418 0.0000 2.7882 0.0000
# 3 43.6840 35.6418 106.7081 0.0000 -17.9377 0.0000
# 4 0.0000 0.0000 0.0000 28.4521 0.0000 -0.8230
# 5 11.2079 2.7882 -17.9377 0.0000 24.7023 0.0000
# 6 0.0000 0.0000 0.0000 -0.8230 0.0000 26.9500
#
#
#
# Elastic Compliance Matrix: (Units=1/GPa)
#
#
# Indices 1 2 3 4 5 6 
#
# 1 0.047152 0.000061 -0.026107 0.000000 -0.040359 0.000000
# 2 0.000061 0.013954 -0.005644 0.000000 -0.005701 0.000000
# 3 -0.026107 -0.005644 0.027386 0.000000 0.032369 0.000000
# 4 0.000000 0.000000 0.000000 0.035178 0.000000 0.001074
# 5 -0.040359 -0.005701 0.032369 0.000000 0.082942 0.000000
# 6 0.000000 0.000000 0.000000 0.001074 0.000000 0.037139
#
#
# Mechanical properties :
#
#
# Convention : Reuss Voigt Hill
#
# Bulk Modulus (GPa) = 39.82546 50.16257 44.99401
# Shear Modulus (GPa) = 15.84784 25.85143 20.84964
#
# Velocity S-wave (km/s) = 2.92108 3.73079 3.35049
# Velocity P-wave (km/s) = 5.72884 6.75031 6.26045
#
# Compressibility (1/GPa) = 0.02510957
#
# Stress axis : x y z
#
# Youngs Moduli (GPa) = 21.20813 71.66528 36.51567
#
# Poissons Ratio (x) = -0.00434 0.95333
# Poissons Ratio (y) = -0.00128 0.20609
# Poissons Ratio (z) = 0.55369 0.40447
#
# Static dielectric constant tensor:
#      x y z
#    x 1.627030 0.000000 0.006790 
#    y 0.000000 1.676830 0.000000 
#    z 0.006790 0.000000 1.660080 
# 
# From -- ./inp_files/11140.got.cif
#   From: 2010.05.17/outbox.cif.g08.bks.cpg/sg14_6_cif.got.tgz:11140.got - 2010.06.03 17:49:19.
