data_PCOD9240520
_publ_section_title
;
Structure prediction by ZEFSAII (Michael W. Deem and Ramdas Pophale) SiO2 
 PCOD9240520
Probable space group: P 21/C
;
_chemical_formula_sum "Si O2"
_cell_formula_units_Z 30
_cell_length_a 10.860872
_cell_length_b 8.611475
_cell_length_c 15.080493
_cell_angle_alpha 90.000000
_cell_angle_beta 118.092130
_cell_angle_gamma 90.000000
_cell_volume 1244.287321
_symmetry_space_group_name_H-M "P 21/C"
_symmetry_group_IT_number 14
_symmetry_cell_setting 'monoclinic'
loop_
_space_group_symop_operation_xyz
x,y,z
-x,1/2+y,1/2-z
-x,-y,-z
x,1/2-y,1/2+z
loop_
_atom_site_type_symbol
_atom_site_label
_atom_site_fract_x
_atom_site_fract_y
_atom_site_fract_z
Si Si1 0.430939 0.619817 0.772503
Si Si2 0.286023 0.031499 0.385282
Si Si3 0.279064 0.453734 0.568015
Si Si4 0.232948 0.890498 0.714752
Si Si5 0.749455 0.614788 0.923344
Si Si6 0.039409 0.620213 0.707096
Si Si7 0.291745 0.377301 0.380089
Si Si8 0.000000 0.000000 0.000000
O O1 0.381221 0.580414 0.856589
O O2 0.376427 0.494648 0.682567
O O3 0.348164 0.773481 0.715884
O O4 0.595370 0.638049 0.830486
O O5 0.277957 0.044055 0.488942
O O6 0.336241 0.203271 0.372869
O O7 0.131006 0.979430 0.305470
O O8 0.189299 0.290961 0.552209
O O9 0.347809 0.425283 0.496046
O O10 0.151945 0.571884 0.513815
O O11 0.114183 0.786266 0.719602
O O12 0.173623 0.001010 0.617673
O O13 0.312624 0.994027 0.814105
O O14 0.877358 0.636374 0.672763
O O15 0.052880 0.533591 0.618354
#
# Coordination Sequence:
#
# PCOD9240520 Si02
#       8
#     4   4   4   4   4   4   4   2
#     4  11  22  42  63  90 130 171 210 261 318 370
#     4  10  21  41  62  89 126 170 209 257 323 370
#     4  10  21  41  66  90 125 170 206 258 326 368
#     4  11  23  39  62  98 125 161 221 256 309 384
#     4  11  24  41  63  94 128 166 217 263 306 379
#     4  10  21  40  63  90 125 165 203 258 322 378
#     4  10  22  39  63  91 128 161 214 262 314 381
#     4  10  18  40  66  84 120 162 198 250 318 380
#
# _framework density 24.110187
#
# number of rings (size 3 to 8) (size 9 to 14) (size 15 to 20)
#    0.000    1.600    2.667    2.800    0.000    2.133 
#    2.400   14.000    0.000    0.000    0.000    0.000 
#    0.000    0.000    0.000    0.000    0.000    0.000 
#
# Total GULP energy -167174.612575 kJ/mol
# GULP energy per Si atom -5572.487086 kJ/mol
# Density = 2.405531 g / cm^3
# Si number density = 24.110187 Si / 1000 Ang^3
#
#
#
# Elastic Constant Matrix: (Units=GPa)
#
#
# Indices 1 2 3 4 5 6 
#
# 1 30.7807 -5.1442 -13.7422 0.0000 3.7746 0.0000
# 2 -5.1442 67.2068 43.0804 0.0000 -23.1003 0.0000
# 3 -13.7422 43.0804 100.6125 0.0000 -15.1579 0.0000
# 4 0.0000 0.0000 0.0000 18.7652 0.0000 -15.0167
# 5 3.7746 -23.1003 -15.1579 0.0000 32.9134 0.0000
# 6 0.0000 0.0000 0.0000 -15.0167 0.0000 22.0896
#
#
#
# Elastic Compliance Matrix: (Units=1/GPa)
#
#
# Indices 1 2 3 4 5 6 
#
# 1 0.034796 -0.001457 0.004966 0.000000 -0.002726 0.000000
# 2 -0.001457 0.025216 -0.008924 0.000000 0.013755 0.000000
# 3 0.004966 -0.008924 0.014409 0.000000 -0.000197 0.000000
# 4 0.000000 0.000000 0.000000 0.116867 0.000000 0.079447
# 5 -0.002726 0.013755 -0.000197 0.000000 0.040259 0.000000
# 6 0.000000 0.000000 0.000000 0.079447 0.000000 0.099279
#
#
# Mechanical properties :
#
#
# Convention : Reuss Voigt Hill
#
# Bulk Modulus (GPa) = 15.72551 27.44311 21.58431
# Shear Modulus (GPa) = 13.77972 26.38072 20.08022
#
# Velocity S-wave (km/s) = 2.39326 3.31142 2.88905
# Velocity P-wave (km/s) = 3.76477 5.10174 4.48337
#
# Compressibility (1/GPa) = 0.06359095
#
# Stress axis : x y z
#
# Youngs Moduli (GPa) = 28.73925 39.65722 69.40278
#
# Poissons Ratio (x) = 0.05776 -0.34462
# Poissons Ratio (y) = 0.04186 0.61933
# Poissons Ratio (z) = -0.14271 0.35389
#
# Static dielectric constant tensor:
#      x y z
#    x 2.064460 0.000000 0.091070 
#    y 0.000000 2.183880 0.000000 
#    z 0.091070 0.000000 1.934940 
# 
# From -- ./inp_files/43662.got.cif
#   From: 2010.05.17/outbox.cif.g08.bks.cpg/sg14_22_cif.got.tgz:43662.got - 2010.06.03 17:49:19.
