data_PCOD9240647
_publ_section_title
;
Structure prediction by ZEFSAII (Michael W. Deem and Ramdas Pophale) SiO2 
 PCOD9240647
Probable space group: P 21/C
;
_chemical_formula_sum "Si O2"
_cell_formula_units_Z 32
_cell_length_a 11.510255
_cell_length_b 15.488465
_cell_length_c 9.013569
_cell_angle_alpha 90.000000
_cell_angle_beta 116.523316
_cell_angle_gamma 90.000000
_cell_volume 1437.782306
_symmetry_space_group_name_H-M "P 21/C"
_symmetry_group_IT_number 14
_symmetry_cell_setting 'monoclinic'
loop_
_space_group_symop_operation_xyz
x,y,z
-x,1/2+y,1/2-z
-x,-y,-z
x,1/2-y,1/2+z
loop_
_atom_site_type_symbol
_atom_site_label
_atom_site_fract_x
_atom_site_fract_y
_atom_site_fract_z
Si Si1 0.073716 0.131439 0.222788
Si Si2 0.466914 0.541590 0.253926
Si Si3 0.242978 0.057288 0.073059
Si Si4 0.209200 0.863163 0.929402
Si Si5 0.513879 0.361176 0.414930
Si Si6 0.194552 0.586647 0.097770
Si Si7 0.918419 0.904655 0.440679
Si Si8 0.746940 0.790930 0.165667
O O1 0.133618 0.070315 0.133221
O O2 0.052160 0.086735 0.368367
O O3 0.182960 0.201814 0.321149
O O4 0.931578 0.166435 0.094479
O O5 0.610932 0.560102 0.275855
O O6 0.462688 0.438189 0.279384
O O7 0.466431 0.588139 0.416460
O O8 0.335119 0.575896 0.102425
O O9 0.234693 0.136886 0.952238
O O10 0.225526 0.964224 0.985703
O O11 0.206612 0.853354 0.749266
O O12 0.347405 0.824658 0.058054
O O13 0.403942 0.290588 0.379001
O O14 0.160994 0.490671 0.140311
O O15 0.058201 0.608297 0.940896
O O16 0.826384 0.826769 0.350651
#
# Coordination Sequence:
#
# PCOD9240647 Si02
#       8
#     4   4   4   4   4   4   4   4
#     4  11  23  32  48  80 113 135 164 215 274 321
#     4   8  13  27  52  79  93 121 176 215 243 288
#     4  10  19  34  55  76 104 138 175 219 258 302
#     4   9  17  34  56  79  99 135 184 219 246 302
#     4   8  14  27  54  76  90 124 179 217 233 288
#     4   9  15  30  54  78  97 127 178 222 242 295
#     4  10  19  31  51  75 103 134 170 211 261 307
#     4  11  19  35  54  75 102 138 177 215 260 309
#
# _framework density 22.256499000000002
#
# number of rings (size 3 to 8) (size 9 to 14) (size 15 to 20)
#    0.000    2.500    2.500    2.625    0.000    0.000 
#    0.000    1.875    0.000    4.500    0.000    0.000 
#    0.000    0.000    0.000    0.000    0.000    0.000 
#
# Total GULP energy -178191.548829 kJ/mol
# GULP energy per Si atom -5568.485901 kJ/mol
# Density = 2.220584 g / cm^3
# Si number density = 22.256499 Si / 1000 Ang^3
#
#
#
# Elastic Constant Matrix: (Units=GPa)
#
#
# Indices 1 2 3 4 5 6 
#
# 1 142.7370 8.1045 31.8985 0.0000 49.8092 0.0000
# 2 8.1045 37.7029 -2.7146 0.0000 10.2810 0.0000
# 3 31.8985 -2.7146 36.5587 0.0000 21.5016 0.0000
# 4 0.0000 0.0000 0.0000 8.6483 0.0000 6.9778
# 5 49.8092 10.2810 21.5016 0.0000 42.1616 0.0000
# 6 0.0000 0.0000 0.0000 6.9778 0.0000 22.5406
#
#
#
# Elastic Compliance Matrix: (Units=1/GPa)
#
#
# Indices 1 2 3 4 5 6 
#
# 1 0.012177 0.000752 -0.002857 0.000000 -0.013113 0.000000
# 2 0.000752 0.030607 0.009326 0.000000 -0.013108 0.000000
# 3 -0.002857 0.009326 0.042698 0.000000 -0.020673 0.000000
# 4 0.000000 0.000000 0.000000 0.154127 0.000000 -0.047713
# 5 -0.013113 -0.013108 -0.020673 0.000000 0.052949 0.000000
# 6 0.000000 0.000000 0.000000 -0.047713 0.000000 0.059135
#
#
# Mechanical properties :
#
#
# Convention : Reuss Voigt Hill
#
# Bulk Modulus (GPa) = 10.00763 32.39727 21.20245
# Shear Modulus (GPa) = 13.49312 26.65076 20.07194
#
# Velocity S-wave (km/s) = 2.46490 3.46415 3.00633
# Velocity P-wave (km/s) = 3.55066 5.53068 4.64734
#
# Compressibility (1/GPa) = 0.09992375
#
# Stress axis : x y z
#
# Youngs Moduli (GPa) = 82.11903 32.67197 23.42045
#
# Poissons Ratio (x) = -0.02458 0.06692
# Poissons Ratio (y) = -0.06177 -0.21841
# Poissons Ratio (z) = 0.23464 -0.30469
#
# Static dielectric constant tensor:
#      x y z
#    x 1.901840 0.000000 0.031050 
#    y 0.000000 1.826070 0.000000 
#    z 0.031050 0.000000 1.851690 
# 
# From -- ./inp_files/30202.got.cif
#   From: 2010.05.17/outbox.cif.g08.bks.cpg/sg14_16_cif.got.tgz:30202.got - 2010.06.03 17:49:19.
