data_PCOD9240509
_publ_section_title
;
Structure prediction by ZEFSAII (Michael W. Deem and Ramdas Pophale) SiO2 
 PCOD9240509
Probable space group: P 21/C
;
_chemical_formula_sum "Si O2"
_cell_formula_units_Z 26
_cell_length_a 11.375195
_cell_length_b 8.968327
_cell_length_c 20.155986
_cell_angle_alpha 90.000000
_cell_angle_beta 31.626754
_cell_angle_gamma 90.000000
_cell_volume 1078.259765
_symmetry_space_group_name_H-M "P 21/C"
_symmetry_group_IT_number 14
_symmetry_cell_setting 'monoclinic'
loop_
_space_group_symop_operation_xyz
x,y,z
-x,1/2+y,1/2-z
-x,-y,-z
x,1/2-y,1/2+z
loop_
_atom_site_type_symbol
_atom_site_label
_atom_site_fract_x
_atom_site_fract_y
_atom_site_fract_z
Si Si1 0.203558 0.338674 0.868749
Si Si2 0.913027 0.206422 0.126949
Si Si3 0.002470 0.114843 0.715255
Si Si4 0.540594 0.383289 0.244978
Si Si5 0.234376 0.966604 0.997464
Si Si6 0.955413 0.317533 0.855919
Si Si7 0.500000 0.500000 0.500000
O O1 0.283025 0.493550 0.863876
O O2 0.400047 0.218176 0.763593
O O3 0.110138 0.375150 0.841136
O O4 0.037904 0.258157 0.999670
O O5 0.007314 0.292852 0.145356
O O6 0.662389 0.262564 0.234266
O O7 0.986431 0.036859 0.106439
O O8 0.134417 0.960689 0.640103
O O9 0.744738 0.067701 0.854136
O O10 0.076820 0.215513 0.741878
O O11 0.369180 0.487058 0.367967
O O12 0.373172 0.036975 0.990985
O O13 0.214050 0.793752 0.025913
#
# Coordination Sequence:
#
# PCOD9240509 Si02
#       7
#     4   4   4   4   4   4   2
#     4  11  26  42  70 104 142 184 233 294 350 421
#     4  11  23  43  70 101 139 184 232 292 354 410
#     4  11  22  42  71  95 139 182 233 290 339 419
#     4  11  24  43  67 101 142 182 227 292 350 421
#     4  10  23  39  69  98 134 184 227 283 350 415
#     4  11  24  43  68 102 136 185 234 284 355 414
#     4  10  18  40  62  94 128 174 228 268 346 398
#
# _framework density 24.112928
#
# number of rings (size 3 to 8) (size 9 to 14) (size 15 to 20)
#    0.000    1.231    3.077    2.308    4.308    1.231 
#    0.000    0.000    0.000   13.846    0.000    0.000 
#    0.000    0.000    0.000    0.000    0.000    0.000 
#
# Total GULP energy -144739.815480 kJ/mol
# GULP energy per Si atom -5566.915980 kJ/mol
# Density = 2.405805 g / cm^3
# Si number density = 24.112928 Si / 1000 Ang^3
#
#
#
# Elastic Constant Matrix: (Units=GPa)
#
#
# Indices 1 2 3 4 5 6 
#
# 1 59.9831 18.6572 7.0140 0.0000 23.0060 0.0000
# 2 18.6572 76.8993 28.6218 0.0000 5.5203 0.0000
# 3 7.0140 28.6218 30.5899 0.0000 8.9196 0.0000
# 4 0.0000 0.0000 0.0000 21.4448 0.0000 1.7819
# 5 23.0060 5.5203 8.9196 0.0000 31.9963 0.0000
# 6 0.0000 0.0000 0.0000 1.7819 0.0000 34.2252
#
#
#
# Elastic Compliance Matrix: (Units=1/GPa)
#
#
# Indices 1 2 3 4 5 6 
#
# 1 0.025358 -0.007178 0.006375 0.000000 -0.018772 0.000000
# 2 -0.007178 0.022093 -0.021137 0.000000 0.007242 0.000000
# 3 0.006375 -0.021137 0.055816 0.000000 -0.016497 0.000000
# 4 0.000000 0.000000 0.000000 0.046834 0.000000 -0.002438
# 5 -0.018772 0.007242 -0.016497 0.000000 0.048101 0.000000
# 6 0.000000 0.000000 0.000000 -0.002438 0.000000 0.029345
#
#
# Mechanical properties :
#
#
# Convention : Reuss Voigt Hill
#
# Bulk Modulus (GPa) = 16.83846 30.67316 23.75581
# Shear Modulus (GPa) = 17.16900 25.07854 21.12377
#
# Velocity S-wave (km/s) = 2.67127 3.22847 2.96300
# Velocity P-wave (km/s) = 4.06357 5.16194 4.64533
#
# Compressibility (1/GPa) = 0.05938787
#
# Stress axis : x y z
#
# Youngs Moduli (GPa) = 39.43487 45.26360 17.91592
#
# Poissons Ratio (x) = 0.32488 -0.11421
# Poissons Ratio (y) = 0.28305 0.37869
# Poissons Ratio (z) = -0.25140 0.95674
#
# Static dielectric constant tensor:
#      x y z
#    x 1.881740 0.000000 -0.016820 
#    y 0.000000 1.980380 0.000000 
#    z -0.016820 0.000000 2.003480 
# 
# From -- ./inp_files/73054.got.cif
#   From: 2010.05.17/outbox.cif.g08.bks.cpg/sg14_37_cif.got.tgz:73054.got - 2010.06.03 17:49:19.
