data_PCOD9240438
_publ_section_title
;
Structure prediction by ZEFSAII (Michael W. Deem and Ramdas Pophale) SiO2 
 PCOD9240438
Probable space group: P 21/C
;
_chemical_formula_sum "Si O2"
_cell_formula_units_Z 26
_cell_length_a 17.913355
_cell_length_b 8.476798
_cell_length_c 10.064004
_cell_angle_alpha 90.000000
_cell_angle_beta 40.699213
_cell_angle_gamma 90.000000
_cell_volume 996.519426
_symmetry_space_group_name_H-M "P 21/C"
_symmetry_group_IT_number 14
_symmetry_cell_setting 'monoclinic'
loop_
_space_group_symop_operation_xyz
x,y,z
-x,1/2+y,1/2-z
-x,-y,-z
x,1/2-y,1/2+z
loop_
_atom_site_type_symbol
_atom_site_label
_atom_site_fract_x
_atom_site_fract_y
_atom_site_fract_z
Si Si1 0.448499 0.249692 0.014224
Si Si2 0.515963 0.949092 0.768790
Si Si3 0.000000 0.000000 0.000000
Si Si4 0.046394 0.282844 0.807380
Si Si5 0.250476 0.649586 0.079085
Si Si6 0.799998 0.742529 0.137093
Si Si7 0.799867 0.382054 0.136176
O O1 0.480263 0.183156 0.117453
O O2 0.322065 0.322564 0.193878
O O3 0.517776 0.373010 0.827862
O O4 0.444077 0.093996 0.925618
O O5 0.641158 0.032346 0.578374
O O6 0.868698 0.069330 0.212888
O O7 0.999164 0.895743 0.138333
O O8 0.118981 0.318943 0.581224
O O9 0.126541 0.265436 0.828170
O O10 0.935048 0.384236 0.983824
O O11 0.265827 0.797115 0.156674
O O12 0.225535 0.709953 0.964399
O O13 0.770725 0.561968 0.143768
#
# Coordination Sequence:
#
# PCOD9240438 Si02
#       7
#     4   4   2   4   4   4   4
#     4  11  25  46  74 101 136 180 227 286 341 397
#     4  11  26  48  73 102 139 177 228 287 339 404
#     4  10  18  38  62  88 130 176 206 270 330 406
#     4  11  23  38  66  93 138 175 228 271 346 392
#     4  11  23  45  66  98 138 177 225 281 344 402
#     4  12  23  43  64  99 135 178 227 282 332 415
#     4  11  24  42  65  99 134 183 222 283 336 416
#
# _framework density 26.090810999999999
#
# number of rings (size 3 to 8) (size 9 to 14) (size 15 to 20)
#    0.000    0.923    3.077    4.154    2.154    0.615 
#    8.308    0.000    0.000    0.000    0.000    0.000 
#    0.000    0.000    0.000    0.000    0.000    0.000 
#
# Total GULP energy -144936.383338 kJ/mol
# GULP energy per Si atom -5574.476282 kJ/mol
# Density = 2.603143 g / cm^3
# Si number density = 26.090811 Si / 1000 Ang^3
#
#
#
# Elastic Constant Matrix: (Units=GPa)
#
#
# Indices 1 2 3 4 5 6 
#
# 1 82.1051 -4.9646 30.9128 0.0000 15.8201 0.0000
# 2 -4.9646 48.1202 7.1540 0.0000 -1.8022 0.0000
# 3 30.9128 7.1540 140.9690 0.0000 7.2471 0.0000
# 4 0.0000 0.0000 0.0000 34.4675 0.0000 9.4231
# 5 15.8201 -1.8022 7.2471 0.0000 48.6485 0.0000
# 6 0.0000 0.0000 0.0000 9.4231 0.0000 35.1861
#
#
#
# Elastic Compliance Matrix: (Units=1/GPa)
#
#
# Indices 1 2 3 4 5 6 
#
# 1 0.014204 0.001757 -0.002993 0.000000 -0.004108 0.000000
# 2 0.001757 0.021199 -0.001483 0.000000 0.000435 0.000000
# 3 -0.002993 -0.001483 0.007838 0.000000 -0.000249 0.000000
# 4 0.000000 0.000000 0.000000 0.031305 0.000000 -0.008384
# 5 -0.004108 0.000435 -0.000249 0.000000 0.021945 0.000000
# 6 0.000000 0.000000 0.000000 -0.008384 0.000000 0.030666
#
#
# Mechanical properties :
#
#
# Convention : Reuss Voigt Hill
#
# Bulk Modulus (GPa) = 26.45343 37.48876 31.97110
# Shear Modulus (GPa) = 34.43604 39.53322 36.98463
#
# Velocity S-wave (km/s) = 3.63692 3.89680 3.76910
# Velocity P-wave (km/s) = 5.27231 5.88613 5.58765
#
# Compressibility (1/GPa) = 0.03780228
#
# Stress axis : x y z
#
# Youngs Moduli (GPa) = 70.40247 47.17130 127.58147
#
# Poissons Ratio (x) = -0.08286 0.38182
# Poissons Ratio (y) = -0.12366 0.18925
# Poissons Ratio (z) = 0.21069 0.06997
#
# Static dielectric constant tensor:
#      x y z
#    x 1.969130 0.000000 0.039520 
#    y 0.000000 2.064800 0.000000 
#    z 0.039520 0.000000 1.954460 
# 
# From -- ./inp_files/35700.got.cif
#   From: 2010.05.17/outbox.cif.g08.bks.cpg/sg14_18_cif.got.tgz:35700.got - 2010.06.03 17:49:19.
