data_PCOD9240100
_publ_section_title
;
Structure prediction by ZEFSAII (Michael W. Deem and Ramdas Pophale) SiO2 
 PCOD9240100
Probable space group: P 21/C
;
_chemical_formula_sum "Si O2"
_cell_formula_units_Z 20
_cell_length_a 9.595231
_cell_length_b 11.114409
_cell_length_c 7.749892
_cell_angle_alpha 90.000000
_cell_angle_beta 70.787521
_cell_angle_gamma 90.000000
_cell_volume 780.458150
_symmetry_space_group_name_H-M "P 21/C"
_symmetry_group_IT_number 14
_symmetry_cell_setting 'monoclinic'
loop_
_space_group_symop_operation_xyz
x,y,z
-x,1/2+y,1/2-z
-x,-y,-z
x,1/2-y,1/2+z
loop_
_atom_site_type_symbol
_atom_site_label
_atom_site_fract_x
_atom_site_fract_y
_atom_site_fract_z
Si Si1 0.922258 0.559423 0.800486
Si Si2 0.729088 0.632749 0.588384
Si Si3 0.778825 0.547465 0.215088
Si Si4 0.580278 0.348695 0.158389
Si Si5 0.709617 0.379652 0.748658
O O1 0.871458 0.635909 0.655827
O O2 0.859561 0.424307 0.782083
O O3 0.092221 0.542959 0.771287
O O4 0.836374 0.598873 0.008604
O O5 0.757999 0.642367 0.375600
O O6 0.580817 0.694145 0.716811
O O7 0.684835 0.490944 0.632224
O O8 0.636963 0.467021 0.233039
O O9 0.696959 0.243555 0.153442
O O10 0.591104 0.374535 0.951301
#
# Coordination Sequence:
#
# PCOD9240100 Si02
#       5
#     4   4   4   4   4
#     4   8  20  36  57  84 114 145 190 232 278 346
#     4  10  20  36  61  83 113 154 187 237 281 335
#     4  10  18  34  61  84 109 149 188 229 289 335
#     4  11  20  36  59  83 116 151 191 235 283 338
#     4   9  21  35  56  83 114 149 192 230 283 337
#
# _framework density 25.625973999999999
#
# number of rings (size 3 to 8) (size 9 to 14) (size 15 to 20)
#    1.200    1.200    0.000    3.000    0.000    0.000 
#    0.000    0.000    8.800    0.000    0.000    0.000 
#    0.000    0.000    0.000    0.000    0.000    0.000 
#
# Total GULP energy -111760.286014 kJ/mol
# GULP energy per Si atom -5588.014301 kJ/mol
# Density = 2.556765 g / cm^3
# Si number density = 25.625974 Si / 1000 Ang^3
#
#
#
# Elastic Constant Matrix: (Units=GPa)
#
#
# Indices 1 2 3 4 5 6 
#
# 1 99.4713 6.0776 34.5906 0.0000 3.6583 0.0000
# 2 6.0776 57.5897 14.4696 0.0000 24.3576 0.0000
# 3 34.5906 14.4696 118.1382 0.0000 22.2685 0.0000
# 4 0.0000 0.0000 0.0000 19.5329 0.0000 17.0652
# 5 3.6583 24.3576 22.2685 0.0000 33.4513 0.0000
# 6 0.0000 0.0000 0.0000 17.0652 0.0000 27.3280
#
#
#
# Elastic Compliance Matrix: (Units=1/GPa)
#
#
# Indices 1 2 3 4 5 6 
#
# 1 0.011278 -0.001121 -0.003529 0.000000 0.001932 0.000000
# 2 -0.001121 0.025222 0.000775 0.000000 -0.018759 0.000000
# 3 -0.003529 0.000775 0.010791 0.000000 -0.007362 0.000000
# 4 0.000000 0.000000 0.000000 0.112659 0.000000 -0.070351
# 5 0.001932 -0.018759 -0.007362 0.000000 0.048243 0.000000
# 6 0.000000 0.000000 0.000000 -0.070351 0.000000 0.080524
#
#
# Mechanical properties :
#
#
# Convention : Reuss Voigt Hill
#
# Bulk Modulus (GPa) = 25.29041 42.83055 34.06048
# Shear Modulus (GPa) = 16.14752 30.73317 23.44034
#
# Velocity S-wave (km/s) = 2.51295 3.46684 3.02770
# Velocity P-wave (km/s) = 4.27906 5.72498 5.05399
#
# Compressibility (1/GPa) = 0.03954067
#
# Stress axis : x y z
#
# Youngs Moduli (GPa) = 88.67006 39.64830 92.67266
#
# Poissons Ratio (x) = 0.04443 0.32704
# Poissons Ratio (y) = 0.09936 -0.07181
# Poissons Ratio (z) = 0.31292 -0.03072
#
# Static dielectric constant tensor:
#      x y z
#    x 1.954380 0.000000 -0.020030 
#    y 0.000000 2.004200 0.000000 
#    z -0.020030 0.000000 1.995980 
# 
# From -- ./inp_files/12591.got.cif
#   From: 2010.05.17/outbox.cif.g08.bks.cpg/sg14_7_cif.got.tgz:12591.got - 2010.06.03 17:49:19.
