data_PCOD9240834
_publ_section_title
;
Structure prediction by ZEFSAII (Michael W. Deem and Ramdas Pophale) SiO2 
 PCOD9240834
Probable space group: P 21/C
;
_chemical_formula_sum "Si O2"
_cell_formula_units_Z 28
_cell_length_a 13.042152
_cell_length_b 9.473947
_cell_length_c 13.379797
_cell_angle_alpha 90.000000
_cell_angle_beta 39.605660
_cell_angle_gamma 90.000000
_cell_volume 1053.925691
_symmetry_space_group_name_H-M "P 21/C"
_symmetry_group_IT_number 14
_symmetry_cell_setting 'monoclinic'
loop_
_space_group_symop_operation_xyz
x,y,z
-x,1/2+y,1/2-z
-x,-y,-z
x,1/2-y,1/2+z
loop_
_atom_site_type_symbol
_atom_site_label
_atom_site_fract_x
_atom_site_fract_y
_atom_site_fract_z
Si Si1 0.033493 0.323710 0.173434
Si Si2 0.442040 0.416574 0.186680
Si Si3 0.919239 0.648495 0.568722
Si Si4 0.049231 0.087171 0.363096
Si Si5 0.336262 0.798727 0.077237
Si Si6 0.378736 0.179226 0.393667
Si Si7 0.372140 0.489845 0.702717
O O1 0.017752 0.495047 0.176063
O O2 0.842876 0.293499 0.331572
O O3 0.058313 0.235152 0.050815
O O4 0.214589 0.297362 0.079624
O O5 0.267139 0.384507 0.275528
O O6 0.437025 0.323146 0.294833
O O7 0.482845 0.580628 0.165332
O O8 0.575390 0.343912 0.017888
O O9 0.997295 0.750622 0.593177
O O10 0.000000 0.500000 0.500000
O O11 0.241832 0.083203 0.227061
O O12 0.000000 0.000000 0.500000
O O13 0.345806 0.849807 0.186105
O O14 0.452545 0.921453 0.943720
O O15 0.324138 0.067111 0.346975
#
# Coordination Sequence:
#
# PCOD9240834 Si02
#       7
#     4   4   4   4   4   4   4
#     4   9  18  32  57  82 103 146 190 229 276 339
#     4  10  21  38  55  83 116 149 188 235 288 336
#     4  10  19  33  53  80 113 144 183 231 275 330
#     4   9  13  28  53  79 102 129 191 227 257 323
#     4   9  17  31  56  83 110 136 183 243 275 316
#     4  10  19  36  57  81 111 153 193 226 282 354
#     4   9  15  30  57  81 105 142 190 229 273 328
#
# _framework density 26.567337999999999
#
# number of rings (size 3 to 8) (size 9 to 14) (size 15 to 20)
#    0.000    2.571    5.714    0.000    0.000    1.143 
#    0.000    6.429    0.000    0.000    0.000    0.000 
#    0.000    0.000    0.000    0.000    0.000    0.000 
#
# Total GULP energy -156146.407093 kJ/mol
# GULP energy per Si atom -5576.657396 kJ/mol
# Density = 2.650687 g / cm^3
# Si number density = 26.567338 Si / 1000 Ang^3
#
#
#
# Elastic Constant Matrix: (Units=GPa)
#
#
# Indices 1 2 3 4 5 6 
#
# 1 74.1672 34.9345 34.8792 0.0000 -7.0425 0.0000
# 2 34.9345 173.2802 41.1046 0.0000 -17.9079 0.0000
# 3 34.8792 41.1046 159.1112 0.0000 -36.5106 0.0000
# 4 0.0000 0.0000 0.0000 24.4357 0.0000 -12.2996
# 5 -7.0425 -17.9079 -36.5106 0.0000 24.9026 0.0000
# 6 0.0000 0.0000 0.0000 -12.2996 0.0000 30.1898
#
#
#
# Elastic Compliance Matrix: (Units=1/GPa)
#
#
# Indices 1 2 3 4 5 6 
#
# 1 0.016114 -0.002689 -0.003369 0.000000 -0.002316 0.000000
# 2 -0.002689 0.006765 -0.000326 0.000000 0.003626 0.000000
# 3 -0.003369 -0.000326 0.010301 0.000000 0.013915 0.000000
# 4 0.000000 0.000000 0.000000 0.051481 0.000000 0.020974
# 5 -0.002316 0.003626 0.013915 0.000000 0.062511 0.000000
# 6 0.000000 0.000000 0.000000 0.020974 0.000000 0.041669
#
#
# Mechanical properties :
#
#
# Convention : Reuss Voigt Hill
#
# Bulk Modulus (GPa) = 48.99203 69.82169 59.40686
# Shear Modulus (GPa) = 23.99087 35.61497 29.80292
#
# Velocity S-wave (km/s) = 3.00829 3.66533 3.35294
# Velocity P-wave (km/s) = 5.52695 6.65214 6.11548
#
# Compressibility (1/GPa) = 0.02041148
#
# Stress axis : x y z
#
# Youngs Moduli (GPa) = 62.05738 147.81444 97.08003
#
# Poissons Ratio (x) = 0.39745 0.32709
# Poissons Ratio (y) = 0.16686 0.03166
# Poissons Ratio (z) = 0.20909 0.04821
#
# Static dielectric constant tensor:
#      x y z
#    x 2.329870 0.000000 0.131190 
#    y 0.000000 2.389030 0.000000 
#    z 0.131190 0.000000 2.173140 
# 
# From -- ./inp_files/69062.got.cif
#   From: 2010.05.17/outbox.cif.g08.bks.cpg/sg14_35_cif.got.tgz:69062.got - 2010.06.03 17:49:19.
