data_PCOD9240034
_publ_section_title
;
Structure prediction by ZEFSAII (Michael W. Deem and Ramdas Pophale) SiO2 
 PCOD9240034
Probable space group: P 21/C
;
_chemical_formula_sum "Si O2"
_cell_formula_units_Z 28
_cell_length_a 13.546267
_cell_length_b 22.120229
_cell_length_c 7.971156
_cell_angle_alpha 90.000000
_cell_angle_beta 36.982746
_cell_angle_gamma 90.000000
_cell_volume 1436.878261
_symmetry_space_group_name_H-M "P 21/C"
_symmetry_group_IT_number 14
_symmetry_cell_setting 'monoclinic'
loop_
_space_group_symop_operation_xyz
x,y,z
-x,1/2+y,1/2-z
-x,-y,-z
x,1/2-y,1/2+z
loop_
_atom_site_type_symbol
_atom_site_label
_atom_site_fract_x
_atom_site_fract_y
_atom_site_fract_z
Si Si1 0.927307 0.182673 0.752720
Si Si2 0.359585 0.458361 0.519244
Si Si3 0.900389 0.616251 0.282932
Si Si4 0.939712 0.319956 0.631547
Si Si5 0.302357 0.928606 0.528631
Si Si6 0.076436 0.005371 0.639253
Si Si7 0.270005 0.928740 0.937348
O O1 0.049790 0.156783 0.444215
O O2 0.900372 0.252242 0.742395
O O3 0.766708 0.139562 0.957506
O O4 0.981071 0.178623 0.876312
O O5 0.278913 0.411633 0.496908
O O6 0.352507 0.525749 0.453535
O O7 0.224048 0.459707 0.848647
O O8 0.545337 0.439803 0.300466
O O9 0.927349 0.651969 0.419932
O O10 0.020548 0.557021 0.122660
O O11 0.784576 0.364138 0.869805
O O12 0.162645 0.979288 0.687742
O O13 0.364120 0.932475 0.634469
O O14 0.913822 0.045512 0.856116
#
# Coordination Sequence:
#
# PCOD9240034 Si02
#       7
#     4   4   4   4   4   4   4
#     4  11  18  35  59  82 104 140 204 227 272 323
#     4  11  19  35  56  81 121 144 172 232 294 325
#     4  10  19  36  58  81 111 143 192 231 268 332
#     4  10  22  34  60  81 104 150 194 236 267 333
#     4  10  22  33  53  87 116 141 184 229 284 330
#     4  10  18  34  56  83 108 148 184 220 273 334
#     4  10  19  34  56  80 106 152 185 227 273 336
#
# _framework density 19.486688999999998
#
# number of rings (size 3 to 8) (size 9 to 14) (size 15 to 20)
#    0.000    1.714    4.286    2.143    0.000    1.143 
#    0.000    0.000    6.286    1.714    0.000    0.000 
#    0.000    0.000    0.000    0.000    0.000    0.000 
#
# Total GULP energy -156067.627992 kJ/mol
# GULP energy per Si atom -5573.843857 kJ/mol
# Density = 1.944234 g / cm^3
# Si number density = 19.486689 Si / 1000 Ang^3
#
#
#
# Elastic Constant Matrix: (Units=GPa)
#
#
# Indices 1 2 3 4 5 6 
#
# 1 72.9243 20.3036 19.9558 0.0000 16.1535 0.0000
# 2 20.3036 92.5494 7.2006 0.0000 6.9184 0.0000
# 3 19.9558 7.2006 66.0689 0.0000 0.7757 0.0000
# 4 0.0000 0.0000 0.0000 19.2619 0.0000 6.0894
# 5 16.1535 6.9184 0.7757 0.0000 27.7062 0.0000
# 6 0.0000 0.0000 0.0000 6.0894 0.0000 21.8233
#
#
#
# Elastic Compliance Matrix: (Units=1/GPa)
#
#
# Indices 1 2 3 4 5 6 
#
# 1 0.018015 -0.002840 -0.005019 0.000000 -0.009654 0.000000
# 2 -0.002840 0.011549 -0.000387 0.000000 -0.001217 0.000000
# 3 -0.005019 -0.000387 0.016664 0.000000 0.002556 0.000000
# 4 0.000000 0.000000 0.000000 0.056939 0.000000 -0.015888
# 5 -0.009654 -0.001217 0.002556 0.000000 0.041954 0.000000
# 6 0.000000 0.000000 0.000000 -0.015888 0.000000 0.050256
#
#
# Mechanical properties :
#
#
# Convention : Reuss Voigt Hill
#
# Bulk Modulus (GPa) = 33.62739 36.27364 34.95052
# Shear Modulus (GPa) = 22.54493 26.03046 24.28770
#
# Velocity S-wave (km/s) = 3.40507 3.65884 3.53423
# Velocity P-wave (km/s) = 5.72306 6.04189 5.88463
#
# Compressibility (1/GPa) = 0.02973766
#
# Stress axis : x y z
#
# Youngs Moduli (GPa) = 55.50824 86.58629 60.01077
#
# Poissons Ratio (x) = 0.24592 0.30117
# Poissons Ratio (y) = 0.15765 0.02320
# Poissons Ratio (z) = 0.27857 0.03347
#
# Static dielectric constant tensor:
#      x y z
#    x 1.751810 0.000000 0.038730 
#    y 0.000000 1.686180 0.000000 
#    z 0.038730 0.000000 1.685270 
# 
# From -- ./inp_files/9976.got.cif
#   From: 2010.05.17/outbox.cif.g08.bks.cpg/sg14_5_cif.got.tgz:9976.got - 2010.06.03 17:49:19.
