data_PCOD9240649
_publ_section_title
;
Structure prediction by ZEFSAII (Michael W. Deem and Ramdas Pophale) SiO2 
 PCOD9240649
Probable space group: P 21/C
;
_chemical_formula_sum "Si O2"
_cell_formula_units_Z 28
_cell_length_a 22.596394
_cell_length_b 5.138829
_cell_length_c 22.219763
_cell_angle_alpha 90.000000
_cell_angle_beta 145.070290
_cell_angle_gamma 90.000000
_cell_volume 1477.311684
_symmetry_space_group_name_H-M "P 21/C"
_symmetry_group_IT_number 14
_symmetry_cell_setting 'monoclinic'
loop_
_space_group_symop_operation_xyz
x,y,z
-x,1/2+y,1/2-z
-x,-y,-z
x,1/2-y,1/2+z
loop_
_atom_site_type_symbol
_atom_site_label
_atom_site_fract_x
_atom_site_fract_y
_atom_site_fract_z
Si Si1 0.626819 0.103196 0.675819
Si Si2 0.194402 0.870119 0.089937
Si Si3 0.109509 0.360117 0.081019
Si Si4 0.078435 0.745259 0.881667
Si Si5 0.057787 0.740104 0.724324
Si Si6 0.426692 0.200149 0.974207
Si Si7 0.231966 0.527876 0.289077
O O1 0.694869 0.040491 0.791126
O O2 0.508310 0.186413 0.589851
O O3 0.697279 0.311561 0.698708
O O4 0.609123 0.890317 0.609262
O O5 0.170144 0.581298 0.094272
O O6 0.115000 0.084756 0.051590
O O7 0.173795 0.836406 0.002153
O O8 0.166757 0.330720 0.193050
O O9 0.000000 0.500000 0.000000
O O10 0.096725 0.762286 0.825666
O O11 0.031879 0.460093 0.857633
O O12 0.988944 0.954484 0.821710
O O13 0.148916 0.800203 0.754323
O O14 0.317724 0.089407 0.905535
O O15 0.500000 0.000000 0.000000
#
# Coordination Sequence:
#
# PCOD9240649 Si02
#       7
#     4   4   4   4   4   4   4
#     4   9  19  31  50  78 103 132 169 212 267 314
#     4  11  20  33  51  74 104 136 170 205 258 311
#     4  11  21  30  47  76 109 134 162 208 258 309
#     4  10  21  38  52  76 105 144 178 213 246 301
#     4  10  22  36  55  75 106 141 181 210 249 303
#     4   9  17  33  49  73 106 131 168 212 263 319
#     4  10  19  31  51  77 104 136 172 212 260 312
#
# _framework density 18.953344999999999
#
# number of rings (size 3 to 8) (size 9 to 14) (size 15 to 20)
#    0.000    2.000    1.429    3.000    2.000    1.143 
#    0.000    0.000    0.000    0.000   11.143    0.000 
#    0.000    0.000    0.000    0.000    0.000    0.000 
#
# Total GULP energy -155911.582875 kJ/mol
# GULP energy per Si atom -5568.270817 kJ/mol
# Density = 1.891021 g / cm^3
# Si number density = 18.953345 Si / 1000 Ang^3
#
#
#
# Elastic Constant Matrix: (Units=GPa)
#
#
# Indices 1 2 3 4 5 6 
#
# 1 19.5623 -4.6021 13.8409 0.0000 -4.9322 0.0000
# 2 -4.6021 47.7027 -6.9593 0.0000 -5.4626 0.0000
# 3 13.8409 -6.9593 134.4303 0.0000 -13.8071 0.0000
# 4 0.0000 0.0000 0.0000 24.3340 0.0000 -0.6496
# 5 -4.9322 -5.4626 -13.8071 0.0000 17.8341 0.0000
# 6 0.0000 0.0000 0.0000 -0.6496 0.0000 15.1633
#
#
#
# Elastic Compliance Matrix: (Units=1/GPa)
#
#
# Indices 1 2 3 4 5 6 
#
# 1 0.059579 0.006891 -0.004203 0.000000 0.015334 0.000000
# 2 0.006891 0.023010 0.001522 0.000000 0.010132 0.000000
# 3 -0.004203 0.001522 0.008559 0.000000 0.005931 0.000000
# 4 0.000000 0.000000 0.000000 0.041142 0.000000 0.001762
# 5 0.015334 0.010132 0.005931 0.000000 0.068008 0.000000
# 6 0.000000 0.000000 0.000000 0.001762 0.000000 0.066024
#
#
# Mechanical properties :
#
#
# Convention : Reuss Voigt Hill
#
# Bulk Modulus (GPa) = 10.04315 22.91715 16.48015
# Shear Modulus (GPa) = 17.17666 24.76065 20.96865
#
# Velocity S-wave (km/s) = 3.01368 3.61834 3.32976
# Velocity P-wave (km/s) = 4.17374 5.43821 4.84738
#
# Compressibility (1/GPa) = 0.09957038
#
# Stress axis : x y z
#
# Youngs Moduli (GPa) = 16.78432 43.45869 116.82997
#
# Poissons Ratio (x) = -0.29946 0.49099
# Poissons Ratio (y) = -0.11566 -0.17787
# Poissons Ratio (z) = 0.07054 -0.06616
#
# Static dielectric constant tensor:
#      x y z
#    x 1.649150 0.000000 0.009660 
#    y 0.000000 1.807450 0.000000 
#    z 0.009660 0.000000 1.805640 
# 
# From -- ./inp_files/74765.got.cif
#   From: 2010.05.17/outbox.cif.g08.bks.cpg/sg14_38_cif.got.tgz:74765.got - 2010.06.03 17:49:19.
