data_PCOD9240164
_publ_section_title
;
Structure prediction by ZEFSAII (Michael W. Deem and Ramdas Pophale) SiO2 
 PCOD9240164
Probable space group: P 21/C
;
_chemical_formula_sum "Si O2"
_cell_formula_units_Z 22
_cell_length_a 9.443398
_cell_length_b 5.245800
_cell_length_c 26.445121
_cell_angle_alpha 90.000000
_cell_angle_beta 142.031607
_cell_angle_gamma 90.000000
_cell_volume 805.973460
_symmetry_space_group_name_H-M "P 21/C"
_symmetry_group_IT_number 14
_symmetry_cell_setting 'monoclinic'
loop_
_space_group_symop_operation_xyz
x,y,z
-x,1/2+y,1/2-z
-x,-y,-z
x,1/2-y,1/2+z
loop_
_atom_site_type_symbol
_atom_site_label
_atom_site_fract_x
_atom_site_fract_y
_atom_site_fract_z
Si Si1 0.589031 0.270258 0.412220
Si Si2 0.661090 0.249867 0.043319
Si Si3 0.000000 0.000000 0.500000
Si Si4 0.279862 0.729757 0.829797
Si Si5 0.218680 0.789924 0.703766
Si Si6 0.223275 0.293040 0.643829
O O1 0.734036 0.242323 0.505256
O O2 0.463315 0.538357 0.376609
O O3 0.770804 0.182076 0.421983
O O4 0.397975 0.046695 0.358155
O O5 0.803923 0.248339 0.135827
O O6 0.500000 0.500000 0.000000
O O7 0.500000 0.000000 0.000000
O O8 0.868552 0.758490 0.437846
O O9 0.132276 0.766559 0.737450
O O10 0.142985 0.544709 0.650796
O O11 0.497877 0.792247 0.781027
O O12 0.149671 0.050998 0.657737
#
# Coordination Sequence:
#
# PCOD9240164 Si02
#       6
#     4   4   2   4   4   4
#     4  10  21  32  54  85 114 147 185 233 293 349
#     4   8  16  31  51  80 107 138 188 241 276 325
#     4  12  24  38  56  86 124 154 180 238 310 362
#     4  10  18  35  59  79 108 146 195 241 279 331
#     4  10  20  38  53  79 105 150 196 230 274 341
#     4  10  23  34  54  76 115 147 188 231 279 354
#
# _framework density 27.296184
#
# number of rings (size 3 to 8) (size 9 to 14) (size 15 to 20)
#    0.000    2.182    1.818    1.091    5.091    2.909 
#    0.000    0.000    0.000    2.182    0.000    0.000 
#    0.000    0.000    0.000    0.000    0.000    0.000 
#
# Total GULP energy -122580.890217 kJ/mol
# GULP energy per Si atom -5571.858646 kJ/mol
# Density = 2.723406 g / cm^3
# Si number density = 27.296184 Si / 1000 Ang^3
#
#
#
# Elastic Constant Matrix: (Units=GPa)
#
#
# Indices 1 2 3 4 5 6 
#
# 1 52.1119 47.0475 12.5469 0.0000 -17.8150 0.0000
# 2 47.0475 171.0059 48.8178 0.0000 -15.4317 0.0000
# 3 12.5469 48.8178 95.1886 0.0000 -21.5546 0.0000
# 4 0.0000 0.0000 0.0000 50.7735 0.0000 -6.6191
# 5 -17.8150 -15.4317 -21.5546 0.0000 48.6510 0.0000
# 6 0.0000 0.0000 0.0000 -6.6191 0.0000 24.6114
#
#
#
# Elastic Compliance Matrix: (Units=1/GPa)
#
#
# Indices 1 2 3 4 5 6 
#
# 1 0.028717 -0.007718 0.002223 0.000000 0.009052 0.000000
# 2 -0.007718 0.008946 -0.003966 0.000000 -0.001746 0.000000
# 3 0.002223 -0.003966 0.013500 0.000000 0.005537 0.000000
# 4 0.000000 0.000000 0.000000 0.020411 0.000000 0.005489
# 5 0.009052 -0.001746 0.005537 0.000000 0.025769 0.000000
# 6 0.000000 0.000000 0.000000 0.005489 0.000000 0.042108
#
#
# Mechanical properties :
#
#
# Convention : Reuss Voigt Hill
#
# Bulk Modulus (GPa) = 31.01667 59.45896 45.23781
# Shear Modulus (GPa) = 29.56468 38.80012 34.18240
#
# Velocity S-wave (km/s) = 3.29463 3.77430 3.54259
# Velocity P-wave (km/s) = 5.08532 6.38936 5.77427
#
# Compressibility (1/GPa) = 0.03224073
#
# Stress axis : x y z
#
# Youngs Moduli (GPa) = 34.82226 111.78323 74.07282
#
# Poissons Ratio (x) = 0.86280 -0.16467
# Poissons Ratio (y) = 0.26877 0.29376
# Poissons Ratio (z) = -0.07741 0.44332
#
# Static dielectric constant tensor:
#      x y z
#    x 2.314050 0.000000 -0.085080 
#    y 0.000000 2.064420 0.000000 
#    z -0.085080 0.000000 2.204330 
# 
# From -- ./inp_files/42617.got.cif
#   From: 2010.05.17/outbox.cif.g08.bks.cpg/sg14_22_cif.got.tgz:42617.got - 2010.06.03 17:49:19.
