data_PCOD9240283
_publ_section_title
;
Structure prediction by ZEFSAII (Michael W. Deem and Ramdas Pophale) SiO2 
 PCOD9240283
Probable space group: P 21/C
;
_chemical_formula_sum "Si O2"
_cell_formula_units_Z 20
_cell_length_a 6.487747
_cell_length_b 14.028059
_cell_length_c 9.437984
_cell_angle_alpha 90.000000
_cell_angle_beta 72.534871
_cell_angle_gamma 90.000000
_cell_volume 819.357585
_symmetry_space_group_name_H-M "P 21/C"
_symmetry_group_IT_number 14
_symmetry_cell_setting 'monoclinic'
loop_
_space_group_symop_operation_xyz
x,y,z
-x,1/2+y,1/2-z
-x,-y,-z
x,1/2-y,1/2+z
loop_
_atom_site_type_symbol
_atom_site_label
_atom_site_fract_x
_atom_site_fract_y
_atom_site_fract_z
Si Si1 0.553808 0.441566 0.212735
Si Si2 0.988845 0.155097 0.945233
Si Si3 0.219087 0.942819 0.622698
Si Si4 0.210856 0.042015 0.112091
Si Si5 0.766784 0.249188 0.750680
O O1 0.334877 0.468769 0.177509
O O2 0.585844 0.517453 0.332860
O O3 0.600276 0.336606 0.262036
O O4 0.737778 0.454175 0.052192
O O5 0.851942 0.218643 0.081416
O O6 0.861535 0.057102 0.943594
O O7 0.970582 0.209583 0.800742
O O8 0.197296 0.121768 0.993050
O O9 0.324929 0.842533 0.651192
O O10 0.980052 0.935203 0.735413
#
# Coordination Sequence:
#
# PCOD9240283 Si02
#       5
#     4   4   4   4   4
#     4  10  20  36  62  87 119 155 195 240 290 349
#     4   9  18  34  59  81 114 151 196 229 295 341
#     4  10  20  36  62  87 119 155 195 240 290 349
#     4   9  19  36  58  83 114 153 196 241 288 345
#     4  10  18  36  60  86 116 162 186 242 296 342
#
# _framework density 24.409365999999999
#
# number of rings (size 3 to 8) (size 9 to 14) (size 15 to 20)
#    0.000    2.400    2.000    0.600    0.000    0.000 
#    0.000   33.000   17.600    0.000    0.000    0.000 
#    0.000    0.000    0.000    0.000    0.000    0.000 
#
# Total GULP energy -111690.450669 kJ/mol
# GULP energy per Si atom -5584.522533 kJ/mol
# Density = 2.435381 g / cm^3
# Si number density = 24.409366 Si / 1000 Ang^3
#
#
#
# Elastic Constant Matrix: (Units=GPa)
#
#
# Indices 1 2 3 4 5 6 
#
# 1 32.8079 26.2808 15.5658 0.0000 -8.8088 0.0000
# 2 26.2808 108.4547 29.8395 0.0000 11.4824 0.0000
# 3 15.5658 29.8395 120.3141 0.0000 5.7510 0.0000
# 4 0.0000 0.0000 0.0000 36.4243 0.0000 -10.8058
# 5 -8.8088 11.4824 5.7510 0.0000 31.4624 0.0000
# 6 0.0000 0.0000 0.0000 -10.8058 0.0000 4.2963
#
#
#
# Elastic Compliance Matrix: (Units=1/GPa)
#
#
# Indices 1 2 3 4 5 6 
#
# 1 0.047126 -0.012286 -0.003929 0.000000 0.018396 0.000000
# 2 -0.012286 0.013427 -0.001354 0.000000 -0.008093 0.000000
# 3 -0.003929 -0.001354 0.009266 0.000000 -0.002300 0.000000
# 4 0.000000 0.000000 0.000000 0.108150 0.000000 0.272011
# 5 0.018396 -0.008093 -0.002300 0.000000 0.040308 0.000000
# 6 0.000000 0.000000 0.000000 0.272011 0.000000 0.916898
#
#
# Mechanical properties :
#
#
# Convention : Reuss Voigt Hill
#
# Bulk Modulus (GPa) = 28.83485 44.99433 36.91459
# Shear Modulus (GPa) = 4.23057 27.09598 15.66328
#
# Velocity S-wave (km/s) = 1.31793 3.33538 2.53591
# Velocity P-wave (km/s) = 3.76226 5.77116 4.87139
#
# Compressibility (1/GPa) = 0.03468025
#
# Stress axis : x y z
#
# Youngs Moduli (GPa) = 21.21975 74.47754 107.92645
#
# Poissons Ratio (x) = 0.91505 0.42406
# Poissons Ratio (y) = 0.26071 0.14610
# Poissons Ratio (z) = 0.08338 0.10082
#
# Static dielectric constant tensor:
#      x y z
#    x 1.983530 0.000000 0.001850 
#    y 0.000000 1.936950 0.000000 
#    z 0.001850 0.000000 1.956240 
# 
# From -- ./inp_files/7896.got.cif
#   From: 2010.05.17/outbox.cif.g08.bks.cpg/sg14_4_cif.got.tgz:7896.got - 2010.06.03 17:49:19.
