data_PCOD9240032
_publ_section_title
;
Structure prediction by ZEFSAII (Michael W. Deem and Ramdas Pophale) SiO2 
 PCOD9240032
Probable space group: P 21/C
;
_chemical_formula_sum "Si O2"
_cell_formula_units_Z 28
_cell_length_a 4.892743
_cell_length_b 24.171839
_cell_length_c 9.137895
_cell_angle_alpha 90.000000
_cell_angle_beta 100.313553
_cell_angle_gamma 90.000000
_cell_volume 1063.246435
_symmetry_space_group_name_H-M "P 21/C"
_symmetry_group_IT_number 14
_symmetry_cell_setting 'monoclinic'
loop_
_space_group_symop_operation_xyz
x,y,z
-x,1/2+y,1/2-z
-x,-y,-z
x,1/2-y,1/2+z
loop_
_atom_site_type_symbol
_atom_site_label
_atom_site_fract_x
_atom_site_fract_y
_atom_site_fract_z
Si Si1 0.083049 0.623916 0.721268
Si Si2 0.233757 0.741455 0.346465
Si Si3 0.424377 0.117270 0.347645
Si Si4 0.395488 0.427970 0.136681
Si Si5 0.232401 0.171420 0.055470
Si Si6 0.720079 0.026626 0.915539
Si Si7 0.053089 0.684954 0.065431
O O1 0.394062 0.624519 0.820150
O O2 0.437107 0.524932 0.758340
O O3 0.895690 0.585380 0.811970
O O4 0.846617 0.660100 0.618608
O O5 0.543813 0.721589 0.410106
O O6 0.096416 0.796590 0.402004
O O7 0.041980 0.693397 0.392265
O O8 0.182384 0.736283 0.168492
O O9 0.365360 0.069064 0.459019
O O10 0.338385 0.120727 0.168903
O O11 0.746687 0.133650 0.380560
O O12 0.247580 0.167876 0.406608
O O13 0.810289 0.409264 0.416568
O O14 0.500000 0.000000 0.000000
O O15 0.000000 0.000000 0.000000
#
# Coordination Sequence:
#
# PCOD9240032 Si02
#       7
#     4   4   4   4   4   4   4
#     4  10  20  33  56  85 104 138 184 213 268 310
#     4  10  21  35  52  75 104 144 180 224 274 313
#     4  10  21  37  54  76 110 141 178 224 272 318
#     4  10  20  33  56  85 104 138 184 213 268 310
#     4  10  21  37  54  76 110 141 178 224 272 318
#     4  10  18  34  56  82 114 136 170 220 270 320
#     4  10  21  35  52  75 104 144 180 224 274 313
#
# _framework density 26.334441000000002
#
# number of rings (size 3 to 8) (size 9 to 14) (size 15 to 20)
#    0.857    1.143    1.429    2.571    0.000    3.429 
#    0.000    0.000    0.000    1.714    0.000    0.000 
#    0.000    0.000    0.000    0.000    0.000    0.000 
#
# Total GULP energy -155870.296865 kJ/mol
# GULP energy per Si atom -5566.796317 kJ/mol
# Density = 2.627450 g / cm^3
# Si number density = 26.334441 Si / 1000 Ang^3
#
#
#
# Elastic Constant Matrix: (Units=GPa)
#
#
# Indices 1 2 3 4 5 6 
#
# 1 162.4386 11.2265 24.7810 0.0000 -3.0371 0.0000
# 2 11.2265 6.6401 6.2541 0.0000 -2.3881 0.0000
# 3 24.7810 6.2541 120.2370 0.0000 5.6567 0.0000
# 4 0.0000 0.0000 0.0000 48.2020 0.0000 -3.0205
# 5 -3.0371 -2.3881 5.6567 0.0000 28.6950 0.0000
# 6 0.0000 0.0000 0.0000 -3.0205 0.0000 25.9988
#
#
#
# Elastic Compliance Matrix: (Units=1/GPa)
#
#
# Indices 1 2 3 4 5 6 
#
# 1 0.007058 -0.011108 -0.000877 0.000000 -0.000005 0.000000
# 2 -0.011108 0.182455 -0.007934 0.000000 0.015573 0.000000
# 3 -0.000877 -0.007934 0.009029 0.000000 -0.002533 0.000000
# 4 0.000000 0.000000 0.000000 0.020898 0.000000 0.002428
# 5 -0.000005 0.015573 -0.002533 0.000000 0.036644 0.000000
# 6 0.000000 0.000000 0.000000 0.002428 0.000000 0.038745
#
#
# Mechanical properties :
#
#
# Convention : Reuss Voigt Hill
#
# Bulk Modulus (GPa) = 6.30100 41.53766 23.91933
# Shear Modulus (GPa) = 12.90094 37.04942 24.97518
#
# Velocity S-wave (km/s) = 2.21574 3.75491 3.08293
# Velocity P-wave (km/s) = 2.99064 5.88273 4.66639
#
# Compressibility (1/GPa) = 0.15870495
#
# Stress axis : x y z
#
# Youngs Moduli (GPa) = 141.69251 5.48080 110.74942
#
# Poissons Ratio (x) = 0.06088 0.09708
# Poissons Ratio (y) = 1.57398 0.87864
# Poissons Ratio (z) = 0.12420 0.04348
#
# Static dielectric constant tensor:
#      x y z
#    x 1.936330 0.000000 0.006930 
#    y 0.000000 2.540350 0.000000 
#    z 0.006930 0.000000 2.413140 
# 
# From -- ./inp_files/6688.got.cif
#   From: 2010.05.17/outbox.cif.g08.bks.cpg/sg14_4_cif.got.tgz:6688.got - 2010.06.03 17:49:19.
