data_PCOD9240389
_publ_section_title
;
Structure prediction by ZEFSAII (Michael W. Deem and Ramdas Pophale) SiO2 
 PCOD9240389
Probable space group: P 21/C
;
_chemical_formula_sum "Si O2"
_cell_formula_units_Z 32
_cell_length_a 14.310461
_cell_length_b 11.358026
_cell_length_c 19.029118
_cell_angle_alpha 90.000000
_cell_angle_beta 149.264119
_cell_angle_gamma 90.000000
_cell_volume 1580.757049
_symmetry_space_group_name_H-M "P 21/C"
_symmetry_group_IT_number 14
_symmetry_cell_setting 'monoclinic'
loop_
_space_group_symop_operation_xyz
x,y,z
-x,1/2+y,1/2-z
-x,-y,-z
x,1/2-y,1/2+z
loop_
_atom_site_type_symbol
_atom_site_label
_atom_site_fract_x
_atom_site_fract_y
_atom_site_fract_z
Si Si1 0.818419 0.383362 0.273505
Si Si2 0.828134 0.698878 0.478185
Si Si3 0.185283 0.796216 0.984486
Si Si4 0.329166 0.706221 0.228570
Si Si5 0.798033 0.643548 0.299413
Si Si6 0.540504 0.509136 0.327236
Si Si7 0.625671 0.371411 0.003120
Si Si8 0.639680 0.605194 0.924725
O O1 0.820081 0.259213 0.315485
O O2 0.793342 0.500243 0.304266
O O3 0.030304 0.385899 0.390727
O O4 0.686455 0.379588 0.122732
O O5 0.842067 0.702592 0.402685
O O6 0.638558 0.626700 0.362574
O O7 0.811701 0.819170 0.510620
O O8 0.969429 0.824407 0.858907
O O9 0.259416 0.733245 0.104332
O O10 0.240807 0.712642 0.955707
O O11 0.310213 0.913101 0.054283
O O12 0.391913 0.572299 0.281361
O O13 0.489702 0.799444 0.351486
O O14 0.587455 0.669122 0.141360
O O15 0.435085 0.451505 0.194887
O O16 0.653499 0.501809 0.989211
#
# Coordination Sequence:
#
# PCOD9240389 Si02
#       8
#     4   4   4   4   4   4   4   4
#     4  12  24  39  64  98 131 164 223 272 320 385
#     4  11  21  38  65  97 121 161 223 268 308 383
#     4  11  22  40  68  92 130 174 219 262 323 393
#     4  10  19  36  64  93 121 162 219 272 311 376
#     4  12  21  42  69  91 124 173 225 262 311 389
#     4  10  18  37  63  95 119 164 216 268 315 374
#     4  12  25  43  61 100 136 169 209 272 335 384
#     4  10  20  36  65  91 128 163 206 269 325 369
#
# _framework density 20.243465
#
# number of rings (size 3 to 8) (size 9 to 14) (size 15 to 20)
#    0.000    1.000    6.250    3.000    0.000    1.000 
#    2.250    4.375    0.000    0.000    0.000    0.000 
#    0.000    0.000    0.000    0.000    0.000    0.000 
#
# Total GULP energy -178190.930101 kJ/mol
# GULP energy per Si atom -5568.466566 kJ/mol
# Density = 2.019739 g / cm^3
# Si number density = 20.243465 Si / 1000 Ang^3
#
#
#
# Elastic Constant Matrix: (Units=GPa)
#
#
# Indices 1 2 3 4 5 6 
#
# 1 51.3318 18.7822 21.1518 0.0000 2.0784 0.0000
# 2 18.7822 49.6545 11.7109 0.0000 -3.4151 0.0000
# 3 21.1518 11.7109 84.3049 0.0000 5.3253 0.0000
# 4 0.0000 0.0000 0.0000 16.4757 0.0000 12.1692
# 5 2.0784 -3.4151 5.3253 0.0000 24.8566 0.0000
# 6 0.0000 0.0000 0.0000 12.1692 0.0000 37.2177
#
#
#
# Elastic Compliance Matrix: (Units=1/GPa)
#
#
# Indices 1 2 3 4 5 6 
#
# 1 0.024622 -0.008309 -0.004887 0.000000 -0.002153 0.000000
# 2 -0.008309 0.023935 -0.001512 0.000000 0.004307 0.000000
# 3 -0.004887 -0.001512 0.013468 0.000000 -0.002684 0.000000
# 4 0.000000 0.000000 0.000000 0.080021 0.000000 -0.026165
# 5 -0.002153 0.004307 -0.002684 0.000000 0.041578 0.000000
# 6 0.000000 0.000000 0.000000 -0.026165 0.000000 0.035424
#
#
# Mechanical properties :
#
#
# Convention : Reuss Voigt Hill
#
# Bulk Modulus (GPa) = 30.66767 32.06457 31.36612
# Shear Modulus (GPa) = 19.28007 24.61975 21.94991
#
# Velocity S-wave (km/s) = 3.08946 3.49116 3.29644
# Velocity P-wave (km/s) = 5.28287 5.66788 5.47875
#
# Compressibility (1/GPa) = 0.03260763
#
# Stress axis : x y z
#
# Youngs Moduli (GPa) = 40.61328 41.77977 74.25239
#
# Poissons Ratio (x) = 0.34715 0.36290
# Poissons Ratio (y) = 0.33746 0.11229
# Poissons Ratio (z) = 0.19849 0.06318
#
# Static dielectric constant tensor:
#      x y z
#    x 1.902680 0.000000 0.126520 
#    y 0.000000 1.766800 0.000000 
#    z 0.126520 0.000000 1.751560 
# 
# From -- ./inp_files/59514.got.cif
#   From: 2010.05.17/outbox.cif.g08.bks.cpg/sg14_30_cif.got.tgz:59514.got - 2010.06.03 17:49:19.
