data_PCOD9240036
_publ_section_title
;
Structure prediction by ZEFSAII (Michael W. Deem and Ramdas Pophale) SiO2 
 PCOD9240036
Probable space group: P 21/C
;
_chemical_formula_sum "Si O2"
_cell_formula_units_Z 30
_cell_length_a 11.659421
_cell_length_b 19.594627
_cell_length_c 8.361488
_cell_angle_alpha 90.000000
_cell_angle_beta 145.923432
_cell_angle_gamma 90.000000
_cell_volume 1070.331755
_symmetry_space_group_name_H-M "P 21/C"
_symmetry_group_IT_number 14
_symmetry_cell_setting 'monoclinic'
loop_
_space_group_symop_operation_xyz
x,y,z
-x,1/2+y,1/2-z
-x,-y,-z
x,1/2-y,1/2+z
loop_
_atom_site_type_symbol
_atom_site_label
_atom_site_fract_x
_atom_site_fract_y
_atom_site_fract_z
Si Si1 0.136701 0.844008 0.842725
Si Si2 0.810663 0.505454 0.596146
Si Si3 0.387667 0.182908 0.259681
Si Si4 0.000000 0.000000 0.000000
Si Si5 0.125152 0.843087 0.170318
Si Si6 0.568750 0.596430 0.505545
Si Si7 0.087871 0.866881 0.460830
Si Si8 0.622363 0.669727 0.883541
O O1 0.046368 0.822495 0.570084
O O2 0.129178 0.926669 0.829280
O O3 0.041408 0.822887 0.899883
O O4 0.374825 0.826983 0.115682
O O5 0.805749 0.518939 0.400401
O O6 0.620745 0.522105 0.492058
O O7 0.986964 0.558062 0.853527
O O8 0.636458 0.177062 0.555691
O O9 0.341554 0.139975 0.043478
O O10 0.317298 0.161992 0.358853
O O11 0.332633 0.259974 0.154277
O O12 0.102324 0.925347 0.149801
O O13 0.040022 0.824787 0.245560
O O14 0.331969 0.617345 0.239701
O O15 0.661691 0.612231 0.789701
#
# Coordination Sequence:
#
# PCOD9240036 Si02
#       8
#     4   4   4   2   4   4   4   4
#     4   9  18  32  52  83 116 147 192 236 285 347
#     4  10  19  36  57  84 124 154 187 242 293 354
#     4  10  18  34  56  85 111 152 197 245 293 349
#     4   8  16  34  54  80 116 154 176 234 288 340
#     4   8  16  30  51  79 111 143 193 229 283 343
#     4  10  21  36  58  88 114 150 195 242 291 348
#     4   9  18  33  54  80 114 153 182 229 289 342
#     4  10  19  33  56  85 111 148 201 242 288 352
#
# _framework density 28.028694000000002
#
# number of rings (size 3 to 8) (size 9 to 14) (size 15 to 20)
#    0.000    2.667    1.333    0.400    0.000    2.133 
#    0.000   32.000    0.000    9.600    3.467    0.000 
#    0.000    0.000    0.000    0.000    0.000    0.000 
#
# Total GULP energy -167171.728003 kJ/mol
# GULP energy per Si atom -5572.390933 kJ/mol
# Density = 2.796490 g / cm^3
# Si number density = 28.028694 Si / 1000 Ang^3
#
#
#
# Elastic Constant Matrix: (Units=GPa)
#
#
# Indices 1 2 3 4 5 6 
#
# 1 234.8644 34.9511 65.1632 0.0000 -37.3222 0.0000
# 2 34.9511 105.9920 45.2408 0.0000 -8.0561 0.0000
# 3 65.1632 45.2408 112.1612 0.0000 -41.9721 0.0000
# 4 0.0000 0.0000 0.0000 23.7150 0.0000 -4.3034
# 5 -37.3222 -8.0561 -41.9721 0.0000 74.4303 0.0000
# 6 0.0000 0.0000 0.0000 -4.3034 0.0000 36.1523
#
#
#
# Elastic Compliance Matrix: (Units=1/GPa)
#
#
# Indices 1 2 3 4 5 6 
#
# 1 0.005185 -0.000637 -0.002292 0.000000 0.001239 0.000000
# 2 -0.000637 0.011652 -0.005041 0.000000 -0.001901 0.000000
# 3 -0.002292 -0.005041 0.014761 0.000000 0.006629 0.000000
# 4 0.000000 0.000000 0.000000 0.043098 0.000000 0.005130
# 5 0.001239 -0.001901 0.006629 0.000000 0.017589 0.000000
# 6 0.000000 0.000000 0.000000 0.005130 0.000000 0.028271
#
#
# Mechanical properties :
#
#
# Convention : Reuss Voigt Hill
#
# Bulk Modulus (GPa) = 63.86514 82.63641 73.25078
# Shear Modulus (GPa) = 35.28142 47.37037 41.32589
#
# Velocity S-wave (km/s) = 3.55175 4.11550 3.84398
# Velocity P-wave (km/s) = 6.29722 7.22011 6.77440
#
# Compressibility (1/GPa) = 0.01565799
#
# Stress axis : x y z
#
# Youngs Moduli (GPa) = 192.85001 85.82194 67.74456
#
# Poissons Ratio (x) = 0.05471 0.15527
# Poissons Ratio (y) = 0.12294 0.34150
# Poissons Ratio (z) = 0.44200 0.43263
#
# Static dielectric constant tensor:
#      x y z
#    x 2.290060 0.000000 -0.041650 
#    y 0.000000 2.219100 0.000000 
#    z -0.041650 0.000000 2.279610 
# 
# From -- ./inp_files/14545.got.cif
#   From: 2010.05.17/outbox.cif.g08.bks.cpg/sg14_8_cif.got.tgz:14545.got - 2010.06.03 17:49:19.
