data_PCOD9240292
_publ_section_title
;
Structure prediction by ZEFSAII (Michael W. Deem and Ramdas Pophale) SiO2 
 PCOD9240292
Probable space group: P 21/C
;
_chemical_formula_sum "Si O2"
_cell_formula_units_Z 32
_cell_length_a 13.924853
_cell_length_b 5.238946
_cell_length_c 26.765931
_cell_angle_alpha 90.000000
_cell_angle_beta 141.985028
_cell_angle_gamma 90.000000
_cell_volume 1202.552623
_symmetry_space_group_name_H-M "P 21/C"
_symmetry_group_IT_number 14
_symmetry_cell_setting 'monoclinic'
loop_
_space_group_symop_operation_xyz
x,y,z
-x,1/2+y,1/2-z
-x,-y,-z
x,1/2-y,1/2+z
loop_
_atom_site_type_symbol
_atom_site_label
_atom_site_fract_x
_atom_site_fract_y
_atom_site_fract_z
Si Si1 0.836445 0.433279 0.704877
Si Si2 0.864540 0.385578 0.127054
Si Si3 0.715065 0.936902 0.711988
Si Si4 0.534762 0.416423 0.374414
Si Si5 0.031359 0.389494 0.607645
Si Si6 0.595838 0.122053 0.272287
Si Si7 0.750533 0.722348 0.004622
Si Si8 0.820824 0.328917 0.945797
O O1 0.769275 0.694040 0.700072
O O2 0.021680 0.449609 0.791410
O O3 0.815187 0.360732 0.638234
O O4 0.765241 0.190935 0.704611
O O5 0.969050 0.315626 0.121938
O O6 0.733516 0.545722 0.046241
O O7 0.535256 0.860306 0.643821
O O8 0.796574 0.938175 0.800531
O O9 0.411476 0.560834 0.289109
O O10 0.603348 0.587568 0.445731
O O11 0.693049 0.383510 0.407754
O O12 0.913977 0.621428 0.571822
O O13 0.985744 0.280841 0.533801
O O14 0.504337 0.878084 0.258769
O O15 0.769062 0.126130 0.367595
O O16 0.772452 0.560259 0.962360
#
# Coordination Sequence:
#
# PCOD9240292 Si02
#       8
#     4   4   4   4   4   4   4   4
#     4  11  23  37  62  87 120 153 205 250 287 354
#     4  10  20  36  61  88 113 153 211 252 285 333
#     4  11  24  39  57  90 124 162 190 242 316 358
#     4  10  22  37  60  85 126 158 196 242 303 368
#     4   9  19  35  58  86 115 154 197 255 290 355
#     4  10  19  35  60  89 113 154 206 247 284 345
#     4  10  18  36  61  85 116 153 206 247 295 344
#     4   9  19  35  60  88 113 154 206 251 284 348
#
# _framework density 26.610061999999999
#
# number of rings (size 3 to 8) (size 9 to 14) (size 15 to 20)
#    0.000    2.000    2.500    1.500    3.500    0.000 
#    0.000    1.875    0.000    0.750    0.000    0.000 
#    0.000    0.000    0.000    0.000    0.000    0.000 
#
# Total GULP energy -178879.476591 kJ/mol
# GULP energy per Si atom -5589.983643 kJ/mol
# Density = 2.654950 g / cm^3
# Si number density = 26.610062 Si / 1000 Ang^3
#
#
#
# Elastic Constant Matrix: (Units=GPa)
#
#
# Indices 1 2 3 4 5 6 
#
# 1 60.1672 29.4771 29.3590 0.0000 3.8166 0.0000
# 2 29.4771 123.1513 26.2785 0.0000 -8.7894 0.0000
# 3 29.3590 26.2785 115.4908 0.0000 -13.7999 0.0000
# 4 0.0000 0.0000 0.0000 48.8904 0.0000 -9.0688
# 5 3.8166 -8.7894 -13.7999 0.0000 16.0356 0.0000
# 6 0.0000 0.0000 0.0000 -9.0688 0.0000 20.9240
#
#
#
# Elastic Compliance Matrix: (Units=1/GPa)
#
#
# Indices 1 2 3 4 5 6 
#
# 1 0.023126 -0.005165 -0.006353 0.000000 -0.013802 0.000000
# 2 -0.005165 0.009853 -0.000152 0.000000 0.006499 0.000000
# 3 -0.006353 -0.000152 0.011680 0.000000 0.011480 0.000000
# 4 0.000000 0.000000 0.000000 0.022242 0.000000 0.009640
# 5 -0.013802 0.006499 0.011480 0.000000 0.079088 0.000000
# 6 0.000000 0.000000 0.000000 0.009640 0.000000 0.051970
#
#
# Mechanical properties :
#
#
# Convention : Reuss Voigt Hill
#
# Bulk Modulus (GPa) = 46.90745 52.11537 49.51141
# Shear Modulus (GPa) = 21.89083 31.41629 26.65356
#
# Velocity S-wave (km/s) = 2.87130 3.43974 3.16829
# Velocity P-wave (km/s) = 5.35336 5.95005 5.65958
#
# Compressibility (1/GPa) = 0.02131857
#
# Stress axis : x y z
#
# Youngs Moduli (GPa) = 43.24092 101.49535 85.61557
#
# Poissons Ratio (x) = 0.52421 0.54391
# Poissons Ratio (y) = 0.22333 0.01305
# Poissons Ratio (z) = 0.27471 0.01547
#
# Static dielectric constant tensor:
#      x y z
#    x 2.102560 0.000000 0.008930 
#    y 0.000000 2.213600 0.000000 
#    z 0.008930 0.000000 2.193150 
# 
# From -- ./inp_files/68917.got.cif
#   From: 2010.05.17/outbox.cif.g08.bks.cpg/sg14_35_cif.got.tgz:68917.got - 2010.06.03 17:49:19.
