data_PCOD9240790
_publ_section_title
;
Structure prediction by ZEFSAII (Michael W. Deem and Ramdas Pophale) SiO2 
 PCOD9240790
Probable space group: P 21/C
;
_chemical_formula_sum "Si O2"
_cell_formula_units_Z 28
_cell_length_a 21.821316
_cell_length_b 5.194493
_cell_length_c 18.762327
_cell_angle_alpha 90.000000
_cell_angle_beta 37.622449
_cell_angle_gamma 90.000000
_cell_volume 1298.269476
_symmetry_space_group_name_H-M "P 21/C"
_symmetry_group_IT_number 14
_symmetry_cell_setting 'monoclinic'
loop_
_space_group_symop_operation_xyz
x,y,z
-x,1/2+y,1/2-z
-x,-y,-z
x,1/2-y,1/2+z
loop_
_atom_site_type_symbol
_atom_site_label
_atom_site_fract_x
_atom_site_fract_y
_atom_site_fract_z
Si Si1 0.714431 0.816344 0.130254
Si Si2 0.507441 0.915086 0.792736
Si Si3 0.167390 0.060077 0.666650
Si Si4 0.087554 0.513741 0.091430
Si Si5 0.138587 0.605251 0.433980
Si Si6 0.046888 0.734412 0.387916
Si Si7 0.705869 0.445710 0.482080
O O1 0.612839 0.656187 0.232228
O O2 0.749491 0.000632 0.162138
O O3 0.702328 0.982468 0.069306
O O4 0.810943 0.635388 0.026997
O O5 0.482441 0.670997 0.764499
O O6 0.410901 0.951123 0.932081
O O7 0.087194 0.040408 0.675542
O O8 0.225590 0.329367 0.614076
O O9 0.113577 0.983138 0.788635
O O10 0.245891 0.831423 0.575733
O O11 0.986769 0.425939 0.143872
O O12 0.108229 0.795193 0.040644
O O13 0.110164 0.812221 0.399425
O O14 0.060227 0.379103 0.489846
#
# Coordination Sequence:
#
# PCOD9240790 Si02
#       7
#     4   4   4   4   4   4   4
#     4   9  19  33  56  86 113 149 188 245 293 341
#     4  10  19  32  59  90 119 150 190 245 306 345
#     4  11  23  37  58  86 119 155 192 244 298 343
#     4  10  20  34  57  82 113 146 196 244 290 344
#     4  10  20  40  54  81 117 148 205 237 289 352
#     4  10  24  35  57  82 111 161 195 241 290 352
#     4  10  20  37  55  88 120 147 192 246 293 352
#
# _framework density 21.567171999999999
#
# number of rings (size 3 to 8) (size 9 to 14) (size 15 to 20)
#    0.000    2.000    1.429    3.000    6.000    0.000 
#    0.000    0.000    0.000    1.714    0.000    0.000 
#    0.000    0.000    0.000    0.000    0.000    0.000 
#
# Total GULP energy -156209.964118 kJ/mol
# GULP energy per Si atom -5578.927290 kJ/mol
# Density = 2.151808 g / cm^3
# Si number density = 21.567172 Si / 1000 Ang^3
#
#
#
# Elastic Constant Matrix: (Units=GPa)
#
#
# Indices 1 2 3 4 5 6 
#
# 1 77.0339 10.3931 40.2829 0.0000 -18.4818 0.0000
# 2 10.3931 82.5553 14.5545 0.0000 -18.3655 0.0000
# 3 40.2829 14.5545 75.5896 0.0000 -15.9638 0.0000
# 4 0.0000 0.0000 0.0000 28.8917 0.0000 -10.5742
# 5 -18.4818 -18.3655 -15.9638 0.0000 28.2942 0.0000
# 6 0.0000 0.0000 0.0000 -10.5742 0.0000 24.5366
#
#
#
# Elastic Compliance Matrix: (Units=1/GPa)
#
#
# Indices 1 2 3 4 5 6 
#
# 1 0.019454 0.000963 -0.008784 0.000000 0.008377 0.000000
# 2 0.000963 0.014258 -0.001330 0.000000 0.009134 0.000000
# 3 -0.008784 -0.001330 0.019041 0.000000 0.004143 0.000000
# 4 0.000000 0.000000 0.000000 0.041094 0.000000 0.017710
# 5 0.008377 0.009134 0.004143 0.000000 0.049080 0.000000
# 6 0.000000 0.000000 0.000000 0.017710 0.000000 0.048388
#
#
# Mechanical properties :
#
#
# Convention : Reuss Voigt Hill
#
# Bulk Modulus (GPa) = 29.02520 40.62663 34.82591
# Shear Modulus (GPa) = 22.61412 27.67439 25.14426
#
# Velocity S-wave (km/s) = 3.24164 3.58603 3.41817
# Velocity P-wave (km/s) = 5.24387 6.00202 5.63571
#
# Compressibility (1/GPa) = 0.03445282
#
# Stress axis : x y z
#
# Youngs Moduli (GPa) = 51.40225 70.13520 52.51741
#
# Poissons Ratio (x) = -0.06753 0.46131
# Poissons Ratio (y) = -0.04950 0.06983
# Poissons Ratio (z) = 0.45151 0.09325
#
# Static dielectric constant tensor:
#      x y z
#    x 1.857150 0.000000 -0.005960 
#    y 0.000000 1.878130 0.000000 
#    z -0.005960 0.000000 1.787740 
# 
# From -- ./inp_files/60927.got.cif
#   From: 2010.05.17/outbox.cif.g08.bks.cpg/sg14_31_cif.got.tgz:60927.got - 2010.06.03 17:49:19.
