data_PCOD9240194
_publ_section_title
;
Structure prediction by ZEFSAII (Michael W. Deem and Ramdas Pophale) SiO2 
 PCOD9240194
Probable space group: P 21/C
;
_chemical_formula_sum "Si O2"
_cell_formula_units_Z 28
_cell_length_a 13.312565
_cell_length_b 13.521622
_cell_length_c 8.313241
_cell_angle_alpha 90.000000
_cell_angle_beta 42.632400
_cell_angle_gamma 90.000000
_cell_volume 1013.530733
_symmetry_space_group_name_H-M "P 21/C"
_symmetry_group_IT_number 14
_symmetry_cell_setting 'monoclinic'
loop_
_space_group_symop_operation_xyz
x,y,z
-x,1/2+y,1/2-z
-x,-y,-z
x,1/2-y,1/2+z
loop_
_atom_site_type_symbol
_atom_site_label
_atom_site_fract_x
_atom_site_fract_y
_atom_site_fract_z
Si Si1 0.979138 0.249259 0.471549
Si Si2 0.294874 0.638041 0.576545
Si Si3 0.951952 0.925639 0.790612
Si Si4 0.517082 0.337797 0.143321
Si Si5 0.222706 0.464450 0.845800
Si Si6 0.235605 0.563429 0.301346
Si Si7 0.315024 0.230586 0.169032
O O1 0.992657 0.187247 0.286049
O O2 0.876351 0.171013 0.691323
O O3 0.886992 0.349938 0.575895
O O4 0.150430 0.259587 0.312468
O O5 0.385733 0.737872 0.484654
O O6 0.327384 0.555738 0.673071
O O7 0.313083 0.593757 0.379098
O O8 0.859764 0.942755 0.731425
O O9 0.096648 0.994470 0.611034
O O10 0.851889 0.964718 0.052383
O O11 0.634272 0.425923 0.983012
O O12 0.402080 0.323685 0.134042
O O13 0.415340 0.324114 0.417871
O O14 0.290628 0.361187 0.822407
#
# Coordination Sequence:
#
# PCOD9240194 Si02
#       7
#     4   4   4   4   4   4   4
#     4   9  20  33  60  87 109 148 199 236 276 340
#     4   9  18  38  59  85 104 154 195 233 277 343
#     4   8  15  32  56  85 109 141 197 236 277 330
#     4  11  23  36  55  82 122 148 188 224 293 351
#     4   8  16  32  58  82 108 140 196 242 272 328
#     4  10  18  35  61  79 114 153 185 235 286 334
#     4  11  22  36  54  87 115 146 185 241 279 338
#
# _framework density 27.626196
#
# number of rings (size 3 to 8) (size 9 to 14) (size 15 to 20)
#    0.000    2.571    1.429    2.571    4.000    0.571 
#    0.000    6.429    0.000    3.429    0.000    0.000 
#    0.000    0.000    0.000    0.000    0.000    0.000 
#
# Total GULP energy -156780.482615 kJ/mol
# GULP energy per Si atom -5599.302951 kJ/mol
# Density = 2.756332 g / cm^3
# Si number density = 27.626196 Si / 1000 Ang^3
#
#
#
# Elastic Constant Matrix: (Units=GPa)
#
#
# Indices 1 2 3 4 5 6 
#
# 1 55.3269 0.0252 40.5026 0.0000 -8.3153 0.0000
# 2 0.0252 103.9663 55.5397 0.0000 -14.0938 0.0000
# 3 40.5026 55.5397 170.6327 0.0000 -14.4148 0.0000
# 4 0.0000 0.0000 0.0000 52.9659 0.0000 -8.0072
# 5 -8.3153 -14.0938 -14.4148 0.0000 38.4992 0.0000
# 6 0.0000 0.0000 0.0000 -8.0072 0.0000 33.5799
#
#
#
# Elastic Compliance Matrix: (Units=1/GPa)
#
#
# Indices 1 2 3 4 5 6 
#
# 1 0.023479 0.004046 -0.006544 0.000000 0.004102 0.000000
# 2 0.004046 0.012671 -0.004770 0.000000 0.003727 0.000000
# 3 -0.006544 -0.004770 0.008984 0.000000 0.000204 0.000000
# 4 0.000000 0.000000 0.000000 0.019586 0.000000 0.004670
# 5 0.004102 0.003727 0.000204 0.000000 0.028301 0.000000
# 6 0.000000 0.000000 0.000000 0.004670 0.000000 0.030893
#
#
# Mechanical properties :
#
#
# Convention : Reuss Voigt Hill
#
# Bulk Modulus (GPa) = 32.68075 58.00678 45.34376
# Shear Modulus (GPa) = 33.63626 40.59957 37.11792
#
# Velocity S-wave (km/s) = 3.49313 3.83770 3.66946
# Velocity P-wave (km/s) = 5.30326 6.37808 5.86534
#
# Compressibility (1/GPa) = 0.03059905
#
# Stress axis : x y z
#
# Youngs Moduli (GPa) = 42.59040 78.92162 111.31394
#
# Poissons Ratio (x) = -0.31933 0.72840
# Poissons Ratio (y) = -0.17233 0.53095
# Poissons Ratio (z) = 0.27870 0.37645
#
# Static dielectric constant tensor:
#      x y z
#    x 2.269280 0.000000 0.038770 
#    y 0.000000 2.154560 0.000000 
#    z 0.038770 0.000000 2.107280 
# 
# From -- ./inp_files/34074.got.cif
#   From: 2010.05.17/outbox.cif.g08.bks.cpg/sg14_18_cif.got.tgz:34074.got - 2010.06.03 17:49:19.
