data_PCOD9240856
_publ_section_title
;
Structure prediction by ZEFSAII (Michael W. Deem and Ramdas Pophale) SiO2 
 PCOD9240856
Probable space group: P 21/C
;
_chemical_formula_sum "Si O2"
_cell_formula_units_Z 24
_cell_length_a 28.518551
_cell_length_b 7.476108
_cell_length_c 5.322417
_cell_angle_alpha 90.000000
_cell_angle_beta 88.795129
_cell_angle_gamma 90.000000
_cell_volume 1134.529744
_symmetry_space_group_name_H-M "P 21/C"
_symmetry_group_IT_number 14
_symmetry_cell_setting 'monoclinic'
loop_
_space_group_symop_operation_xyz
x,y,z
-x,1/2+y,1/2-z
-x,-y,-z
x,1/2-y,1/2+z
loop_
_atom_site_type_symbol
_atom_site_label
_atom_site_fract_x
_atom_site_fract_y
_atom_site_fract_z
Si Si1 0.321379 0.368465 0.401109
Si Si2 0.043437 0.366110 0.462386
Si Si3 0.236529 0.635453 0.495939
Si Si4 0.869941 0.370220 0.531714
Si Si5 0.414733 0.344916 0.543149
Si Si6 0.482908 0.796131 0.497368
O O1 0.319477 0.277963 0.127113
O O2 0.277552 0.495914 0.443328
O O3 0.372328 0.464596 0.443825
O O4 0.041013 0.274903 0.190041
O O5 0.091607 0.475991 0.480000
O O6 0.000000 0.500000 0.500000
O O7 0.240569 0.783691 0.275088
O O8 0.183675 0.560423 0.472692
O O9 0.875895 0.257730 0.788218
O O10 0.406790 0.183584 0.339407
O O11 0.471455 0.338208 0.512863
O O12 0.455751 0.745525 0.748550
O O13 0.500000 0.000000 0.500000
#
# Coordination Sequence:
#
# PCOD9240856 Si02
#       6
#     4   4   4   4   4   4
#     4  10  19  33  56  78 104 143 181 218 263 324
#     4  12  24  39  60  85 114 149 190 233 278 332
#     4  10  21  36  56  82 113 144 178 227 281 324
#     4  10  21  39  58  80 113 148 182 227 280 329
#     4   8  16  30  50  71  98 134 173 210 257 311
#     4  10  19  33  55  78 105 138 176 219 267 320
#
# _framework density 21.154136999999999
#
# number of rings (size 3 to 8) (size 9 to 14) (size 15 to 20)
#    0.000    2.000    0.000    4.000    0.000    1.333 
#    0.000    0.000    0.000   54.000    0.000    0.000 
#    0.000    0.000    0.000    0.000    0.000    0.000 
#
# Total GULP energy -133706.321328 kJ/mol
# GULP energy per Si atom -5571.096722 kJ/mol
# Density = 2.110599 g / cm^3
# Si number density = 21.154137 Si / 1000 Ang^3
#
#
#
# Elastic Constant Matrix: (Units=GPa)
#
#
# Indices 1 2 3 4 5 6 
#
# 1 117.5788 38.8519 -1.6994 0.0000 -7.9460 0.0000
# 2 38.8519 42.8215 6.8118 0.0000 -4.2378 0.0000
# 3 -1.6994 6.8118 127.5527 0.0000 -6.7911 0.0000
# 4 0.0000 0.0000 0.0000 31.4506 0.0000 -6.8633
# 5 -7.9460 -4.2378 -6.7911 0.0000 25.7732 0.0000
# 6 0.0000 0.0000 0.0000 -6.8633 0.0000 41.0008
#
#
#
# Elastic Compliance Matrix: (Units=1/GPa)
#
#
# Indices 1 2 3 4 5 6 
#
# 1 0.012340 -0.011117 0.000876 0.000000 0.002207 0.000000
# 2 -0.011117 0.033901 -0.001870 0.000000 0.001654 0.000000
# 3 0.000876 -0.001870 0.008063 0.000000 0.002087 0.000000
# 4 0.000000 0.000000 0.000000 0.033001 0.000000 0.005524
# 5 0.002207 0.001654 0.002087 0.000000 0.040302 0.000000
# 6 0.000000 0.000000 0.000000 0.005524 0.000000 0.025314
#
#
# Mechanical properties :
#
#
# Convention : Reuss Voigt Hill
#
# Bulk Modulus (GPa) = 33.24536 41.76463 37.50499
# Shear Modulus (GPa) = 26.71340 35.91083 31.31212
#
# Velocity S-wave (km/s) = 3.55744 4.12464 3.85150
# Velocity P-wave (km/s) = 5.71172 6.51686 6.12753
#
# Compressibility (1/GPa) = 0.03007939
#
# Stress axis : x y z
#
# Youngs Moduli (GPa) = 81.03578 29.49803 124.03003
#
# Poissons Ratio (x) = 0.32793 -0.10860
# Poissons Ratio (y) = 0.90089 0.23200
# Poissons Ratio (z) = -0.07096 0.05518
#
# Static dielectric constant tensor:
#      x y z
#    x 1.819060 0.000000 -0.010410 
#    y 0.000000 1.896130 0.000000 
#    z -0.010410 0.000000 1.834490 
# 
# From -- ./inp_files/4520.got.cif
#   From: 2010.05.17/outbox.cif.g08.bks.cpg/sg14_3_cif.got.tgz:4520.got - 2010.06.03 17:49:19.
