data_PCOD9240666
_publ_section_title
;
Structure prediction by ZEFSAII (Michael W. Deem and Ramdas Pophale) SiO2 
 PCOD9240666
Probable space group: P 21/C
;
_chemical_formula_sum "Si O2"
_cell_formula_units_Z 32
_cell_length_a 11.351910
_cell_length_b 11.911192
_cell_length_c 12.595556
_cell_angle_alpha 90.000000
_cell_angle_beta 46.695306
_cell_angle_gamma 90.000000
_cell_volume 1239.377966
_symmetry_space_group_name_H-M "P 21/C"
_symmetry_group_IT_number 14
_symmetry_cell_setting 'monoclinic'
loop_
_space_group_symop_operation_xyz
x,y,z
-x,1/2+y,1/2-z
-x,-y,-z
x,1/2-y,1/2+z
loop_
_atom_site_type_symbol
_atom_site_label
_atom_site_fract_x
_atom_site_fract_y
_atom_site_fract_z
Si Si1 0.986198 0.699972 0.384227
Si Si2 0.173339 0.023395 0.160771
Si Si3 0.900360 0.360234 0.474061
Si Si4 0.098091 0.338894 0.888640
Si Si5 0.432413 0.562106 0.214061
Si Si6 0.645399 0.257905 0.889767
Si Si7 0.504011 0.072475 0.850027
Si Si8 0.594004 0.685307 0.796736
O O1 0.984395 0.621123 0.492874
O O2 0.170668 0.705456 0.232792
O O3 0.884906 0.639298 0.358793
O O4 0.925767 0.817809 0.470526
O O5 0.125097 0.044547 0.312473
O O6 0.087059 0.925699 0.144731
O O7 0.362732 0.027060 0.012963
O O8 0.725049 0.392729 0.626573
O O9 0.940698 0.227933 0.439373
O O10 0.257823 0.264012 0.764456
O O11 0.466929 0.655670 0.106898
O O12 0.553484 0.523386 0.233737
O O13 0.388400 0.445682 0.181889
O O14 0.632940 0.139476 0.838390
O O15 0.567312 0.261785 0.053354
O O16 0.427371 0.164906 0.815801
#
# Coordination Sequence:
#
# PCOD9240666 Si02
#       8
#     4   4   4   4   4   4   4   4
#     4   9  20  32  51  79 107 132 173 219 260 299
#     4  11  17  33  57  74 103 144 171 214 259 310
#     4   8  17  32  52  76 105 130 172 213 256 301
#     4  10  19  31  54  80 101 137 176 209 257 315
#     4   8  18  33  52  74 108 133 169 215 265 299
#     4  11  19  33  53  80 112 130 168 230 257 301
#     4   9  19  32  53  77 105 140 172 213 261 313
#     4  10  19  32  53  82 103 133 180 205 264 310
#
# _framework density 25.819403000000001
#
# number of rings (size 3 to 8) (size 9 to 14) (size 15 to 20)
#    1.500    1.000    2.500    0.750    3.500    1.000 
#    0.000    0.000    0.000    3.000    0.000    0.000 
#    0.000    0.000    0.000    0.000    0.000    0.000 
#
# Total GULP energy -178454.079401 kJ/mol
# GULP energy per Si atom -5576.689981 kJ/mol
# Density = 2.576064 g / cm^3
# Si number density = 25.819403 Si / 1000 Ang^3
#
#
#
# Elastic Constant Matrix: (Units=GPa)
#
#
# Indices 1 2 3 4 5 6 
#
# 1 64.8970 29.2839 8.2039 0.0000 4.7572 0.0000
# 2 29.2839 89.2574 22.7557 0.0000 9.2261 0.0000
# 3 8.2039 22.7557 83.0899 0.0000 -7.6485 0.0000
# 4 0.0000 0.0000 0.0000 41.6494 0.0000 20.8923
# 5 4.7572 9.2261 -7.6485 0.0000 21.2021 0.0000
# 6 0.0000 0.0000 0.0000 20.8923 0.0000 48.3808
#
#
#
# Elastic Compliance Matrix: (Units=1/GPa)
#
#
# Indices 1 2 3 4 5 6 
#
# 1 0.018147 -0.005671 -0.000399 0.000000 -0.001748 0.000000
# 2 -0.005671 0.014798 -0.004105 0.000000 -0.006647 0.000000
# 3 -0.000399 -0.004105 0.013831 0.000000 0.006865 0.000000
# 4 0.000000 0.000000 0.000000 0.030649 0.000000 -0.013235
# 5 -0.001748 -0.006647 0.006865 0.000000 0.052926 0.000000
# 6 0.000000 0.000000 0.000000 -0.013235 0.000000 0.026385
#
#
# Mechanical properties :
#
#
# Convention : Reuss Voigt Hill
#
# Bulk Modulus (GPa) = 37.84341 39.74792 38.79566
# Shear Modulus (GPa) = 26.89709 34.04654 30.47182
#
# Velocity S-wave (km/s) = 3.23110 3.63525 3.43912
# Velocity P-wave (km/s) = 5.34872 5.74874 5.55234
#
# Compressibility (1/GPa) = 0.02642468
#
# Stress axis : x y z
#
# Youngs Moduli (GPa) = 55.10655 67.57805 72.30326
#
# Poissons Ratio (x) = 0.38324 0.02888
# Poissons Ratio (y) = 0.31251 0.29677
# Poissons Ratio (z) = 0.02201 0.27738
#
# Static dielectric constant tensor:
#      x y z
#    x 2.074990 0.000000 0.060840 
#    y 0.000000 2.139970 0.000000 
#    z 0.060840 0.000000 2.013360 
# 
# From -- ./inp_files/30296.got.cif
#   From: 2010.05.17/outbox.cif.g08.bks.cpg/sg14_16_cif.got.tgz:30296.got - 2010.06.03 17:49:19.
