data_PCOD9240202
_publ_section_title
;
Structure prediction by ZEFSAII (Michael W. Deem and Ramdas Pophale) SiO2 
 PCOD9240202
Probable space group: P 21/C
;
_chemical_formula_sum "Si O2"
_cell_formula_units_Z 24
_cell_length_a 7.223133
_cell_length_b 9.445537
_cell_length_c 14.823235
_cell_angle_alpha 90.000000
_cell_angle_beta 112.717227
_cell_angle_gamma 90.000000
_cell_volume 932.878148
_symmetry_space_group_name_H-M "P 21/C"
_symmetry_group_IT_number 14
_symmetry_cell_setting 'monoclinic'
loop_
_space_group_symop_operation_xyz
x,y,z
-x,1/2+y,1/2-z
-x,-y,-z
x,1/2-y,1/2+z
loop_
_atom_site_type_symbol
_atom_site_label
_atom_site_fract_x
_atom_site_fract_y
_atom_site_fract_z
Si Si1 0.204733 0.908655 0.930703
Si Si2 0.571314 0.533766 0.367128
Si Si3 0.685027 0.409936 0.203365
Si Si4 0.952352 0.795712 0.149064
Si Si5 0.717580 0.664777 0.944729
Si Si6 0.964635 0.869657 0.335710
O O1 0.095685 0.760349 0.899155
O O2 0.364683 0.932503 0.880254
O O3 0.062490 0.046150 0.897387
O O4 0.323106 0.920494 0.046830
O O5 0.577769 0.486374 0.265712
O O6 0.693285 0.680268 0.394832
O O7 0.512248 0.384770 0.097079
O O8 0.876876 0.471559 0.185428
O O9 0.813024 0.282240 0.277745
O O10 0.844055 0.806998 0.226920
O O11 0.839551 0.696800 0.057648
O O12 0.839232 0.573056 0.894807
#
# Coordination Sequence:
#
# PCOD9240202 Si02
#       6
#     4   4   4   4   4   4
#     4  10  18  35  61  87 113 144 191 243 284 334
#     4  10  19  33  62  88 110 147 191 239 289 330
#     4  10  21  36  53  90 114 146 188 230 289 336
#     4   9  21  36  57  89 109 149 189 233 284 334
#     4  11  20  39  59  82 119 147 186 242 281 334
#     4  10  21  35  54  88 114 149 185 235 285 335
#
# _framework density 25.726835999999999
#
# number of rings (size 3 to 8) (size 9 to 14) (size 15 to 20)
#    1.000    1.000    1.667    3.000    0.000    2.667 
#    3.000    0.000    0.000   15.000    0.000    0.000 
#    0.000    0.000    0.000    0.000    0.000    0.000 
#
# Total GULP energy -133863.287693 kJ/mol
# GULP energy per Si atom -5577.636987 kJ/mol
# Density = 2.566828 g / cm^3
# Si number density = 25.726836 Si / 1000 Ang^3
#
#
#
# Elastic Constant Matrix: (Units=GPa)
#
#
# Indices 1 2 3 4 5 6 
#
# 1 128.9035 -7.5965 47.9504 0.0000 -0.2577 0.0000
# 2 -7.5965 9.4136 48.2186 0.0000 13.1404 0.0000
# 3 47.9504 48.2186 99.1200 0.0000 8.9314 0.0000
# 4 0.0000 0.0000 0.0000 34.9307 0.0000 -4.8402
# 5 -0.2577 13.1404 8.9314 0.0000 33.7870 0.0000
# 6 0.0000 0.0000 0.0000 -4.8402 0.0000 16.2774
#
#
#
# Elastic Compliance Matrix: (Units=1/GPa)
#
#
# Indices 1 2 3 4 5 6 
#
# 1 0.006293 -0.011405 0.002151 0.000000 0.003915 0.000000
# 2 -0.011405 -0.040347 0.024318 0.000000 0.009176 0.000000
# 3 0.002151 0.024318 -0.001978 0.000000 -0.008918 0.000000
# 4 0.000000 0.000000 0.000000 0.029858 0.000000 0.008879
# 5 0.003915 0.009176 -0.008918 0.000000 0.028416 0.000000
# 6 0.000000 0.000000 0.000000 0.008879 0.000000 0.064075
#
#
# Mechanical properties :
#
#
# Convention : Reuss Voigt Hill
#
# Bulk Modulus (GPa) = -169.36935 46.06469 -61.65233
# Shear Modulus (GPa) = 92.21563 26.92334 59.56948
#
# Velocity S-wave (km/s) = 5.99349 3.23849 4.81714
# Velocity P-wave (km/s) = 4.25214 5.65048 2.63127
#
# Compressibility (1/GPa) = -0.00590426
#
# Stress axis : x y z
#
# Youngs Moduli (GPa) = 158.90119 -24.78493 -505.49103
#
# Poissons Ratio (x) = -0.28268 1.08740
# Poissons Ratio (y) = 1.81234 12.29263
# Poissons Ratio (z) = -0.34182 0.60272
#
# Static dielectric constant tensor:
#      x y z
#    x 2.121890 0.000000 -0.007040 
#    y 0.000000 2.121590 0.000000 
#    z -0.007040 0.000000 2.049440 
# 
# From -- ./inp_files/39811.got.cif
#   From: 2010.05.17/outbox.cif.g08.bks.cpg/sg14_20_cif.got.tgz:39811.got - 2010.06.03 17:49:19.
