data_PCOD9240067
_publ_section_title
;
Structure prediction by ZEFSAII (Michael W. Deem and Ramdas Pophale) SiO2 
 PCOD9240067
Probable space group: P 21/C
;
_chemical_formula_sum "Si O2"
_cell_formula_units_Z 28
_cell_length_a 12.024103
_cell_length_b 9.745025
_cell_length_c 14.224765
_cell_angle_alpha 90.000000
_cell_angle_beta 45.156213
_cell_angle_gamma 90.000000
_cell_volume 1181.807113
_symmetry_space_group_name_H-M "P 21/C"
_symmetry_group_IT_number 14
_symmetry_cell_setting 'monoclinic'
loop_
_space_group_symop_operation_xyz
x,y,z
-x,1/2+y,1/2-z
-x,-y,-z
x,1/2-y,1/2+z
loop_
_atom_site_type_symbol
_atom_site_label
_atom_site_fract_x
_atom_site_fract_y
_atom_site_fract_z
Si Si1 0.304541 0.161930 0.664254
Si Si2 0.406933 0.177401 0.410899
Si Si3 0.461719 0.083552 0.762423
Si Si4 0.188494 0.589032 0.480030
Si Si5 0.952348 0.849672 0.413656
Si Si6 0.114886 0.910760 0.801413
Si Si7 0.002126 0.160949 0.387105
O O1 0.428809 0.191368 0.509145
O O2 0.369868 0.154584 0.730515
O O3 0.156724 0.265136 0.753893
O O4 0.239944 0.009271 0.678787
O O5 0.514562 0.288710 0.293778
O O6 0.222026 0.203320 0.504528
O O7 0.430437 0.027631 0.352360
O O8 0.350928 0.989694 0.895477
O O9 0.167926 0.592553 0.378959
O O10 0.048425 0.493537 0.600834
O O11 0.148680 0.741436 0.538361
O O12 0.971823 0.843933 0.515252
O O13 0.076574 0.743524 0.295755
O O14 0.978952 0.006069 0.367542
#
# Coordination Sequence:
#
# PCOD9240067 Si02
#       7
#     4   4   4   4   4   4   4
#     4  10  21  42  63  87 120 159 198 247 306 359
#     4  12  25  39  64  85 119 167 203 244 295 357
#     4  11  23  43  59  86 123 158 211 244 286 369
#     4   8  14  31  59  80 112 158 185 228 299 344
#     4  10  18  34  58  97 122 149 195 245 308 347
#     4   8  14  31  59  87 112 148 183 240 296 354
#     4   9  18  34  63  90 124 151 186 256 310 346
#
# _framework density 23.692530000000001
#
# number of rings (size 3 to 8) (size 9 to 14) (size 15 to 20)
#    0.000    2.286    2.857    2.143    2.000    1.143 
#    0.000    2.143    0.000    0.000    0.000    0.000 
#    0.000    0.000    0.000    0.000    0.000    0.000 
#
# Total GULP energy -156442.272041 kJ/mol
# GULP energy per Si atom -5587.224001 kJ/mol
# Density = 2.363860 g / cm^3
# Si number density = 23.692530 Si / 1000 Ang^3
#
#
#
# Elastic Constant Matrix: (Units=GPa)
#
#
# Indices 1 2 3 4 5 6 
#
# 1 17.9367 -3.6053 9.9670 0.0000 7.2527 0.0000
# 2 -3.6053 160.2048 41.0650 0.0000 6.7523 0.0000
# 3 9.9670 41.0650 100.0205 0.0000 17.7394 0.0000
# 4 0.0000 0.0000 0.0000 22.7935 0.0000 -14.9385
# 5 7.2527 6.7523 17.7394 0.0000 20.7996 0.0000
# 6 0.0000 0.0000 0.0000 -14.9385 0.0000 19.2248
#
#
#
# Elastic Compliance Matrix: (Units=1/GPa)
#
#
# Indices 1 2 3 4 5 6 
#
# 1 0.067370 0.003541 -0.004473 0.000000 -0.020825 0.000000
# 2 0.003541 0.007163 -0.003137 0.000000 -0.000885 0.000000
# 3 -0.004473 -0.003137 0.013284 0.000000 -0.008751 0.000000
# 4 0.000000 0.000000 0.000000 0.089401 0.000000 0.069469
# 5 -0.020825 -0.000885 -0.008751 0.000000 0.063090 0.000000
# 6 0.000000 0.000000 0.000000 0.069469 0.000000 0.105997
#
#
# Mechanical properties :
#
#
# Convention : Reuss Voigt Hill
#
# Bulk Modulus (GPa) = 12.55065 41.44614 26.99839
# Shear Modulus (GPa) = 13.12326 27.94593 20.53459
#
# Velocity S-wave (km/s) = 2.35606 3.43815 2.94719
# Velocity P-wave (km/s) = 3.56513 5.76996 4.79597
#
# Compressibility (1/GPa) = 0.07967717
#
# Stress axis : x y z
#
# Youngs Moduli (GPa) = 14.84342 139.60582 75.28042
#
# Poissons Ratio (x) = -0.49428 0.33676
# Poissons Ratio (y) = -0.05255 0.23614
# Poissons Ratio (z) = 0.06640 0.43792
#
# Static dielectric constant tensor:
#      x y z
#    x 1.917860 0.000000 0.002170 
#    y 0.000000 1.920620 0.000000 
#    z 0.002170 0.000000 1.882860 
# 
# From -- ./inp_files/46445.got.cif
#   From: 2010.05.17/outbox.cif.g08.bks.cpg/sg14_24_cif.got.tgz:46445.got - 2010.06.03 17:49:19.
