data_PCOD9240249
_publ_section_title
;
Structure prediction by ZEFSAII (Michael W. Deem and Ramdas Pophale) SiO2 
 PCOD9240249
Probable space group: P 21/C
;
_chemical_formula_sum "Si O2"
_cell_formula_units_Z 26
_cell_length_a 9.737605
_cell_length_b 9.120335
_cell_length_c 16.534170
_cell_angle_alpha 90.000000
_cell_angle_beta 38.214061
_cell_angle_gamma 90.000000
_cell_volume 908.356076
_symmetry_space_group_name_H-M "P 21/C"
_symmetry_group_IT_number 14
_symmetry_cell_setting 'monoclinic'
loop_
_space_group_symop_operation_xyz
x,y,z
-x,1/2+y,1/2-z
-x,-y,-z
x,1/2-y,1/2+z
loop_
_atom_site_type_symbol
_atom_site_label
_atom_site_fract_x
_atom_site_fract_y
_atom_site_fract_z
Si Si1 0.280796 0.923012 0.964036
Si Si2 0.266964 0.573563 0.714406
Si Si3 0.156264 0.390322 0.166577
Si Si4 0.585151 0.380532 0.048560
Si Si5 0.000000 0.000000 0.500000
Si Si6 0.884133 0.707334 0.480731
Si Si7 0.459225 0.843071 0.708037
O O1 0.270525 0.760697 0.002356
O O2 0.346987 0.893616 0.840583
O O3 0.493093 0.002475 0.907245
O O4 0.076851 0.037013 0.054351
O O5 0.301538 0.747876 0.721783
O O6 0.102602 0.569476 0.713369
O O7 0.140543 0.488539 0.846366
O O8 0.328903 0.332625 0.153067
O O9 0.289370 0.538493 0.082416
O O10 0.162633 0.282985 0.085325
O O11 0.583418 0.510195 0.116786
O O12 0.992725 0.177100 0.519274
O O13 0.645148 0.720144 0.636531
#
# Coordination Sequence:
#
# PCOD9240249 Si02
#       7
#     4   4   4   4   2   4   4
#     4  11  21  35  60  93 114 161 200 262 302 374
#     4  10  21  35  59  83 119 158 207 243 313 362
#     4   9  21  40  58  84 115 172 195 254 307 370
#     4  10  21  39  62  82 124 157 208 243 320 368
#     4  10  18  36  56  82 122 158 188 260 296 364
#     4   9  19  35  58  82 119 154 203 238 311 350
#     4  10  20  35  57  86 116 158 191 248 307 374
#
# _framework density 28.623135000000001
#
# number of rings (size 3 to 8) (size 9 to 14) (size 15 to 20)
#    0.000    2.154    1.538    1.846    4.308    1.846 
#    0.000    6.154    0.000    0.000    0.000    0.000 
#    0.000    0.000    0.000    0.000    0.000    0.000 
#
# Total GULP energy -144754.553493 kJ/mol
# GULP energy per Si atom -5567.482827 kJ/mol
# Density = 2.855799 g / cm^3
# Si number density = 28.623135 Si / 1000 Ang^3
#
#
#
# Elastic Constant Matrix: (Units=GPa)
#
#
# Indices 1 2 3 4 5 6 
#
# 1 92.9358 39.9900 1.7680 0.0000 -20.5901 0.0000
# 2 39.9900 192.6001 20.9306 0.0000 4.1894 0.0000
# 3 1.7680 20.9306 52.3360 0.0000 0.2921 0.0000
# 4 0.0000 0.0000 0.0000 40.6569 0.0000 -0.6583
# 5 -20.5901 4.1894 0.2921 0.0000 45.4488 0.0000
# 6 0.0000 0.0000 0.0000 -0.6583 0.0000 47.9554
#
#
#
# Elastic Compliance Matrix: (Units=1/GPa)
#
#
# Indices 1 2 3 4 5 6 
#
# 1 0.013452 -0.003009 0.000713 0.000000 0.006367 0.000000
# 2 -0.003009 0.006112 -0.002332 0.000000 -0.001912 0.000000
# 3 0.000713 -0.002332 0.020014 0.000000 0.000410 0.000000
# 4 0.000000 0.000000 0.000000 0.024602 0.000000 0.000338
# 5 0.006367 -0.001912 0.000410 0.000000 0.025061 0.000000
# 6 0.000000 0.000000 0.000000 0.000338 0.000000 0.020857
#
#
# Mechanical properties :
#
#
# Convention : Reuss Voigt Hill
#
# Bulk Modulus (GPa) = 32.97918 51.47212 42.22565
# Shear Modulus (GPa) = 38.62200 45.15778 41.88989
#
# Velocity S-wave (km/s) = 3.67731 3.97629 3.82972
# Velocity P-wave (km/s) = 5.43847 6.25324 5.86003
#
# Compressibility (1/GPa) = 0.03032216
#
# Stress axis : x y z
#
# Youngs Moduli (GPa) = 74.33842 163.61520 49.96613
#
# Poissons Ratio (x) = 0.49233 -0.03565
# Poissons Ratio (y) = 0.22369 0.11652
# Poissons Ratio (z) = -0.05304 0.38155
#
# Static dielectric constant tensor:
#      x y z
#    x 36.756200 0.000000 -46.023340 
#    y 0.000000 2.021860 0.000000 
#    z -46.023340 0.000000 63.828870 
# 
# From -- ./inp_files/66791.got.cif
#   From: 2010.05.17/outbox.cif.g08.bks.cpg/sg14_34_cif.got.tgz:66791.got - 2010.06.03 17:49:19.
