data_PCOD9240234
_publ_section_title
;
Structure prediction by ZEFSAII (Michael W. Deem and Ramdas Pophale) SiO2 
 PCOD9240234
Probable space group: P 21/C
;
_chemical_formula_sum "Si O2"
_cell_formula_units_Z 20
_cell_length_a 8.994954
_cell_length_b 7.551155
_cell_length_c 23.755055
_cell_angle_alpha 90.000000
_cell_angle_beta 30.711103
_cell_angle_gamma 90.000000
_cell_volume 824.028699
_symmetry_space_group_name_H-M "P 21/C"
_symmetry_group_IT_number 14
_symmetry_cell_setting 'monoclinic'
loop_
_space_group_symop_operation_xyz
x,y,z
-x,1/2+y,1/2-z
-x,-y,-z
x,1/2-y,1/2+z
loop_
_atom_site_type_symbol
_atom_site_label
_atom_site_fract_x
_atom_site_fract_y
_atom_site_fract_z
Si Si1 0.249781 0.882197 0.310394
Si Si2 0.596204 0.624043 0.038273
Si Si3 0.319856 0.496567 0.422589
Si Si4 0.687490 0.335471 0.462602
Si Si5 0.686987 0.986495 0.261606
O O1 0.434247 0.992243 0.204812
O O2 0.249868 0.679766 0.287534
O O3 0.921460 0.947930 0.424042
O O4 0.421289 0.903072 0.313040
O O5 0.649593 0.810973 0.054067
O O6 0.441186 0.674559 0.030608
O O7 0.395719 0.517632 0.146789
O O8 0.349457 0.651833 0.458431
O O9 0.000000 0.500000 0.500000
O O10 0.500000 0.500000 0.500000
O O11 0.023000 0.372662 0.339770
#
# Coordination Sequence:
#
# PCOD9240234 Si02
#       5
#     4   4   4   4   4
#     4  11  20  39  68 104 136 179 232 281 338 412
#     4  10  22  38  67  98 139 175 231 288 337 405
#     4  10  18  35  67  95 129 183 225 263 339 420
#     4  10  19  41  66  93 137 187 224 269 351 417
#     4  11  22  39  70 101 137 182 230 285 344 407
#
# _framework density 24.271000000000001
#
# number of rings (size 3 to 8) (size 9 to 14) (size 15 to 20)
#    0.000    1.600    6.000    0.600    0.000    0.000 
#    0.000   10.000    4.400   12.000    0.000    0.000 
#    0.000    0.000    0.000    0.000    0.000    0.000 
#
# Total GULP energy -112126.728298 kJ/mol
# GULP energy per Si atom -5606.336415 kJ/mol
# Density = 2.421576 g / cm^3
# Si number density = 24.271000 Si / 1000 Ang^3
#
#
#
# Elastic Constant Matrix: (Units=GPa)
#
#
# Indices 1 2 3 4 5 6 
#
# 1 153.9734 26.0973 44.3479 0.0000 -0.6083 0.0000
# 2 26.0973 96.7717 20.6028 0.0000 3.3469 0.0000
# 3 44.3479 20.6028 131.8219 0.0000 7.7185 0.0000
# 4 0.0000 0.0000 0.0000 25.4118 0.0000 -4.0493
# 5 -0.6083 3.3469 7.7185 0.0000 48.8546 0.0000
# 6 0.0000 0.0000 0.0000 -4.0493 0.0000 40.1877
#
#
#
# Elastic Compliance Matrix: (Units=1/GPa)
#
#
# Indices 1 2 3 4 5 6 
#
# 1 0.007415 -0.001532 -0.002288 0.000000 0.000559 0.000000
# 2 -0.001532 0.011017 -0.001172 0.000000 -0.000589 0.000000
# 3 -0.002288 -0.001172 0.008616 0.000000 -0.001309 0.000000
# 4 0.000000 0.000000 0.000000 0.039994 0.000000 0.004030
# 5 0.000559 -0.000589 -0.001309 0.000000 0.020723 0.000000
# 6 0.000000 0.000000 0.000000 0.004030 0.000000 0.025289
#
#
# Mechanical properties :
#
#
# Convention : Reuss Voigt Hill
#
# Bulk Modulus (GPa) = 58.60379 62.74031 60.67205
# Shear Modulus (GPa) = 38.84223 42.32542 40.58382
#
# Velocity S-wave (km/s) = 4.00478 4.18049 4.09358
# Velocity P-wave (km/s) = 6.75148 7.01485 6.88442
#
# Compressibility (1/GPa) = 0.01706374
#
# Stress axis : x y z
#
# Youngs Moduli (GPa) = 134.85270 90.77192 116.06893
#
# Poissons Ratio (x) = 0.13906 0.26557
# Poissons Ratio (y) = 0.20660 0.13603
# Poissons Ratio (z) = 0.30855 0.10638
#
# Static dielectric constant tensor:
#      x y z
#    x 1.876570 0.000000 0.039530 
#    y 0.000000 2.035000 0.000000 
#    z 0.039530 0.000000 1.856980 
# 
# From -- ./inp_files/23087.got.cif
#   From: 2010.05.17/outbox.cif.g08.bks.cpg/sg14_12_cif.got.tgz:23087.got - 2010.06.03 17:49:19.
