data_PCOD9240595
_publ_section_title
;
Structure prediction by ZEFSAII (Michael W. Deem and Ramdas Pophale) SiO2 
 PCOD9240595
Probable space group: P 21/C
;
_chemical_formula_sum "Si O2"
_cell_formula_units_Z 28
_cell_length_a 15.156118
_cell_length_b 5.382192
_cell_length_c 19.452015
_cell_angle_alpha 90.000000
_cell_angle_beta 44.479552
_cell_angle_gamma 90.000000
_cell_volume 1111.772127
_symmetry_space_group_name_H-M "P 21/C"
_symmetry_group_IT_number 14
_symmetry_cell_setting 'monoclinic'
loop_
_space_group_symop_operation_xyz
x,y,z
-x,1/2+y,1/2-z
-x,-y,-z
x,1/2-y,1/2+z
loop_
_atom_site_type_symbol
_atom_site_label
_atom_site_fract_x
_atom_site_fract_y
_atom_site_fract_z
Si Si1 0.745488 0.817047 0.197488
Si Si2 0.639358 0.404230 0.939044
Si Si3 0.020848 0.558819 0.408296
Si Si4 0.676765 0.884164 0.087828
Si Si5 0.049159 0.062302 0.332631
Si Si6 0.767335 0.906238 0.879701
Si Si7 0.450049 0.617461 0.861063
O O1 0.761166 0.813175 0.106182
O O2 0.825405 0.601093 0.189508
O O3 0.596957 0.828047 0.293092
O O4 0.825509 0.049300 0.181411
O O5 0.730769 0.632954 0.871869
O O6 0.680906 0.127604 0.895284
O O7 0.500000 0.500000 0.000000
O O8 0.631914 0.379520 0.024524
O O9 0.975402 0.316495 0.390974
O O10 0.000000 0.500000 0.500000
O O11 0.982016 0.817817 0.397181
O O12 0.572121 0.666378 0.148473
O O13 0.613484 0.148667 0.141530
O O14 0.737689 0.894383 0.977865
O O15 0.095003 0.043173 0.228632
#
# Coordination Sequence:
#
# PCOD9240595 Si02
#       7
#     4   4   4   4   4   4   4
#     4  10  23  34  60  79 112 147 196 224 280 328
#     4  10  19  30  48  73 115 151 186 225 258 316
#     4  10  23  40  61  84 108 134 186 247 294 328
#     4  10  22  35  52  79 122 155 182 221 266 332
#     4  10  22  35  62  82 108 141 187 233 285 334
#     4  10  20  35  50  79 111 150 183 221 276 324
#     4  10  21  32  50  80 116 155 189 221 264 323
#
# _framework density 25.185016999999998
#
# number of rings (size 3 to 8) (size 9 to 14) (size 15 to 20)
#    0.857    1.143    0.000    3.429    6.000    1.143 
#    0.000    0.000    0.000    1.714    0.000    0.000 
#    0.000    0.000    0.000    0.000    0.000    0.000 
#
# Total GULP energy -156121.476618 kJ/mol
# GULP energy per Si atom -5575.767022 kJ/mol
# Density = 2.512769 g / cm^3
# Si number density = 25.185017 Si / 1000 Ang^3
#
#
#
# Elastic Constant Matrix: (Units=GPa)
#
#
# Indices 1 2 3 4 5 6 
#
# 1 51.2189 27.0293 13.3304 0.0000 -8.4143 0.0000
# 2 27.0293 171.2902 73.9300 0.0000 5.0674 0.0000
# 3 13.3304 73.9300 137.6698 0.0000 23.3900 0.0000
# 4 0.0000 0.0000 0.0000 -174.7863 0.0000 -113.1812
# 5 -8.4143 5.0674 23.3900 0.0000 36.1559 0.0000
# 6 0.0000 0.0000 0.0000 -113.1812 0.0000 -38.2076
#
#
#
# Elastic Compliance Matrix: (Units=1/GPa)
#
#
# Indices 1 2 3 4 5 6 
#
# 1 0.022698 -0.003039 -0.001725 0.000000 0.006824 0.000000
# 2 -0.003039 0.008108 -0.004209 0.000000 0.000880 0.000000
# 3 -0.001725 -0.004209 0.010852 0.000000 -0.006832 0.000000
# 4 0.000000 0.000000 0.000000 0.006231 0.000000 -0.018458
# 5 0.006824 0.000880 -0.006832 0.000000 0.033543 0.000000
# 6 0.000000 0.000000 0.000000 -0.018458 0.000000 0.028505
#
#
# Mechanical properties :
#
#
# Convention : Reuss Voigt Hill
#
# Bulk Modulus (GPa) = 42.17459 65.41758 53.79609
# Shear Modulus (GPa) = 36.82206 -18.97501 8.92353
#
# Velocity S-wave (km/s) = 3.82784 -2.74784 1.88438
# Velocity P-wave (km/s) = 6.02650 3.99546 5.11285
#
# Compressibility (1/GPa) = 0.02371096
#
# Stress axis : x y z
#
# Youngs Moduli (GPa) = 44.05692 123.32894 92.14806
#
# Poissons Ratio (x) = 0.37479 0.15899
# Poissons Ratio (y) = 0.13388 0.38789
# Poissons Ratio (z) = 0.07601 0.51915
#
# Static dielectric constant tensor:
#      x y z
#    x 2.338100 0.000000 0.220650 
#    y 0.000000 2.180330 0.000000 
#    z 0.220650 0.000000 2.162780 
# 
# From -- ./inp_files/69518.got.cif
#   From: 2010.05.17/outbox.cif.g08.bks.cpg/sg14_35_cif.got.tgz:69518.got - 2010.06.03 17:49:19.
