data_PCOD9240225
_publ_section_title
;
Structure prediction by ZEFSAII (Michael W. Deem and Ramdas Pophale) SiO2 
 PCOD9240225
Probable space group: P 21/C
;
_chemical_formula_sum "Si O2"
_cell_formula_units_Z 32
_cell_length_a 7.275845
_cell_length_b 18.416075
_cell_length_c 13.544342
_cell_angle_alpha 90.000000
_cell_angle_beta 137.543379
_cell_angle_gamma 90.000000
_cell_volume 1225.074974
_symmetry_space_group_name_H-M "P 21/C"
_symmetry_group_IT_number 14
_symmetry_cell_setting 'monoclinic'
loop_
_space_group_symop_operation_xyz
x,y,z
-x,1/2+y,1/2-z
-x,-y,-z
x,1/2-y,1/2+z
loop_
_atom_site_type_symbol
_atom_site_label
_atom_site_fract_x
_atom_site_fract_y
_atom_site_fract_z
Si Si1 0.732368 0.226704 0.207960
Si Si2 0.067309 0.538016 0.363424
Si Si3 0.713293 0.849902 0.828115
Si Si4 0.694912 0.597937 0.616040
Si Si5 0.999704 0.410342 0.878422
Si Si6 0.443426 0.259410 0.395880
Si Si7 0.260813 0.847785 0.147538
Si Si8 0.354103 0.466785 0.197441
O O1 0.500622 0.178185 0.173686
O O2 0.980796 0.175265 0.343842
O O3 0.711781 0.307461 0.239707
O O4 0.682576 0.237684 0.071777
O O5 0.366253 0.579924 0.478377
O O6 0.159679 0.453938 0.405923
O O7 0.953002 0.553415 0.208803
O O8 0.844819 0.571973 0.348292
O O9 0.634223 0.813929 0.690653
O O10 0.989899 0.821065 0.987375
O O11 0.760402 0.682845 0.632828
O O12 0.779309 0.567653 0.756541
O O13 0.725160 0.448708 0.818524
O O14 0.219309 0.434258 0.045957
O O15 0.514341 0.308851 0.330344
O O16 0.346114 0.931699 0.182369
#
# Coordination Sequence:
#
# PCOD9240225 Si02
#       8
#     4   4   4   4   4   4   4   4
#     4  11  24  35  58  88 120 151 188 245 300 341
#     4  10  18  35  64  81 109 147 199 242 279 341
#     4  11  23  37  57  88 120 151 188 248 298 337
#     4   9  17  35  62  83 101 148 203 237 269 340
#     4  10  20  36  63  87 111 150 200 242 283 346
#     4  10  21  39  56  82 115 154 195 231 286 353
#     4  10  22  39  58  80 117 155 197 237 282 356
#     4   9  19  36  62  87 106 152 205 239 270 344
#
# _framework density 26.120850000000001
#
# number of rings (size 3 to 8) (size 9 to 14) (size 15 to 20)
#    0.000    2.000    3.750    0.000    7.000    1.000 
#    0.000    2.500    0.000    6.750    0.000    0.000 
#    0.000    0.000    0.000    0.000    0.000    0.000 
#
# Total GULP energy -178166.203502 kJ/mol
# GULP energy per Si atom -5567.693859 kJ/mol
# Density = 2.606140 g / cm^3
# Si number density = 26.120850 Si / 1000 Ang^3
#
#
#
# Elastic Constant Matrix: (Units=GPa)
#
#
# Indices 1 2 3 4 5 6 
#
# 1 79.7925 -34.7416 4.9763 0.0000 -3.3429 0.0000
# 2 -34.7416 94.8074 5.3516 0.0000 -12.8644 0.0000
# 3 4.9763 5.3516 104.6949 0.0000 -35.9546 0.0000
# 4 0.0000 0.0000 0.0000 22.3495 0.0000 -3.2652
# 5 -3.3429 -12.8644 -35.9546 0.0000 29.1745 0.0000
# 6 0.0000 0.0000 0.0000 -3.2652 0.0000 18.2836
#
#
#
# Elastic Compliance Matrix: (Units=1/GPa)
#
#
# Indices 1 2 3 4 5 6 
#
# 1 0.015504 0.006405 0.000894 0.000000 0.005702 0.000000
# 2 0.006405 0.014099 0.002361 0.000000 0.009861 0.000000
# 3 0.000894 0.002361 0.016959 0.000000 0.022043 0.000000
# 4 0.000000 0.000000 0.000000 0.045942 0.000000 0.008205
# 5 0.005702 0.009861 0.022043 0.000000 0.066444 0.000000
# 6 0.000000 0.000000 0.000000 0.008205 0.000000 0.056159
#
#
# Mechanical properties :
#
#
# Convention : Reuss Voigt Hill
#
# Bulk Modulus (GPa) = 15.17854 25.60751 20.39303
# Shear Modulus (GPa) = 22.96226 34.20874 28.58550
#
# Velocity S-wave (km/s) = 2.96814 3.62281 3.31169
# Velocity P-wave (km/s) = 4.19166 5.22728 4.73785
#
# Compressibility (1/GPa) = 0.06588247
#
# Stress axis : x y z
#
# Youngs Moduli (GPa) = 64.49839 70.92483 58.96739
#
# Poissons Ratio (x) = -0.45425 -0.05272
# Poissons Ratio (y) = -0.41310 -0.13924
# Poissons Ratio (z) = -0.05766 -0.16748
#
# Static dielectric constant tensor:
#      x y z
#    x 2.164430 0.000000 0.101710 
#    y 0.000000 2.219080 0.000000 
#    z 0.101710 0.000000 2.136460 
# 
# From -- ./inp_files/42011.got.cif
#   From: 2010.05.17/outbox.cif.g08.bks.cpg/sg14_22_cif.got.tgz:42011.got - 2010.06.03 17:49:19.
