data_PCOD9240046
_publ_section_title
;
Structure prediction by ZEFSAII (Michael W. Deem and Ramdas Pophale) SiO2 
 PCOD9240046
Probable space group: P 21/C
;
_chemical_formula_sum "Si O2"
_cell_formula_units_Z 32
_cell_length_a 13.210611
_cell_length_b 11.829588
_cell_length_c 22.145618
_cell_angle_alpha 90.000000
_cell_angle_beta 28.835956
_cell_angle_gamma 90.000000
_cell_volume 1669.170678
_symmetry_space_group_name_H-M "P 21/C"
_symmetry_group_IT_number 14
_symmetry_cell_setting 'monoclinic'
loop_
_space_group_symop_operation_xyz
x,y,z
-x,1/2+y,1/2-z
-x,-y,-z
x,1/2-y,1/2+z
loop_
_atom_site_type_symbol
_atom_site_label
_atom_site_fract_x
_atom_site_fract_y
_atom_site_fract_z
Si Si1 0.204902 0.662272 0.820395
Si Si2 0.747932 0.972258 0.297519
Si Si3 0.134539 0.044949 0.561179
Si Si4 0.309408 0.623077 0.066110
Si Si5 0.526495 0.936755 0.803025
Si Si6 0.842988 0.334251 0.429333
Si Si7 0.584393 0.097962 0.276323
Si Si8 0.027487 0.164692 0.431387
O O1 0.370985 0.560299 0.741759
O O2 0.316362 0.781628 0.761571
O O3 0.056670 0.632289 0.841032
O O4 0.053057 0.668010 0.958330
O O5 0.724080 0.089237 0.347205
O O6 0.708743 0.001803 0.248105
O O7 0.554446 0.894370 0.421165
O O8 0.970244 0.913867 0.190827
O O9 0.349386 0.097541 0.425438
O O10 0.185522 0.976684 0.595033
O O11 0.068113 0.948909 0.547826
O O12 0.227864 0.741519 0.083111
O O13 0.426035 0.927132 0.789183
O O14 0.722095 0.849061 0.702980
O O15 0.355844 0.903836 0.942167
O O16 0.937700 0.264768 0.437066
#
# Coordination Sequence:
#
# PCOD9240046 Si02
#       8
#     4   4   4   4   4   4   4   4
#     4  11  20  33  55  85 118 157 193 233 284 353
#     4  10  23  41  59  89 114 152 204 238 284 352
#     4   9  18  36  56  78 108 154 200 230 281 349
#     4   9  21  43  66  78 111 160 200 240 286 347
#     4  11  21  35  55  88 121 152 195 235 285 361
#     4  11  22  37  62  90 118 151 192 247 296 336
#     4  11  21  34  56  84 122 152 183 242 295 341
#     4  10  18  34  57  81 114 161 193 218 285 367
#
# _framework density 19.171196999999999
#
# number of rings (size 3 to 8) (size 9 to 14) (size 15 to 20)
#    0.000    1.750    3.750    1.500    0.000    3.500 
#    0.000    2.500    0.000    8.250    0.000    0.000 
#    0.000    0.000    0.000    0.000    0.000    0.000 
#
# Total GULP energy -178638.819077 kJ/mol
# GULP energy per Si atom -5582.463096 kJ/mol
# Density = 1.912756 g / cm^3
# Si number density = 19.171197 Si / 1000 Ang^3
#
#
#
# Elastic Constant Matrix: (Units=GPa)
#
#
# Indices 1 2 3 4 5 6 
#
# 1 56.5294 3.4198 34.4488 0.0000 -9.8316 0.0000
# 2 3.4198 54.1286 54.7034 0.0000 -11.6815 0.0000
# 3 34.4488 54.7034 111.1724 0.0000 -22.7042 0.0000
# 4 0.0000 0.0000 0.0000 22.6134 0.0000 -6.0159
# 5 -9.8316 -11.6815 -22.7042 0.0000 18.1061 0.0000
# 6 0.0000 0.0000 0.0000 -6.0159 0.0000 14.6958
#
#
#
# Elastic Compliance Matrix: (Units=1/GPa)
#
#
# Indices 1 2 3 4 5 6 
#
# 1 0.026018 0.013048 -0.013278 0.000000 0.005895 0.000000
# 2 0.013048 0.043319 -0.024471 0.000000 0.004348 0.000000
# 3 -0.013278 -0.024471 0.027495 0.000000 0.011480 0.000000
# 4 0.000000 0.000000 0.000000 0.049626 0.000000 0.020315
# 5 0.005895 0.004348 0.011480 0.000000 0.075631 0.000000
# 6 0.000000 0.000000 0.000000 0.020315 0.000000 0.076363
#
#
# Mechanical properties :
#
#
# Convention : Reuss Voigt Hill
#
# Bulk Modulus (GPa) = 21.08403 45.21938 33.15170
# Shear Modulus (GPa) = 13.74894 19.70027 16.72461
#
# Velocity S-wave (km/s) = 2.68090 3.20909 2.95682
# Velocity P-wave (km/s) = 4.53923 6.11305 5.38396
#
# Compressibility (1/GPa) = 0.04742927
#
# Stress axis : x y z
#
# Youngs Moduli (GPa) = 38.43535 23.08457 36.37014
#
# Poissons Ratio (x) = -0.30120 0.48294
# Poissons Ratio (y) = -0.50150 0.89000
# Poissons Ratio (z) = 0.51036 0.56489
#
# Static dielectric constant tensor:
#      x y z
#    x 1.688710 0.000000 -0.010270 
#    y 0.000000 1.657900 0.000000 
#    z -0.010270 0.000000 1.650940 
# 
# From -- ./inp_files/67402.got.cif
#   From: 2010.05.17/outbox.cif.g08.bks.cpg/sg14_34_cif.got.tgz:67402.got - 2010.06.03 17:49:19.
