data_PCOD9240448
_publ_section_title
;
Structure prediction by ZEFSAII (Michael W. Deem and Ramdas Pophale) SiO2 
 PCOD9240448
Probable space group: P 21/C
;
_chemical_formula_sum "Si O2"
_cell_formula_units_Z 24
_cell_length_a 18.910313
_cell_length_b 8.330155
_cell_length_c 14.551275
_cell_angle_alpha 90.000000
_cell_angle_beta 151.605334
_cell_angle_gamma 90.000000
_cell_volume 1090.038948
_symmetry_space_group_name_H-M "P 21/C"
_symmetry_group_IT_number 14
_symmetry_cell_setting 'monoclinic'
loop_
_space_group_symop_operation_xyz
x,y,z
-x,1/2+y,1/2-z
-x,-y,-z
x,1/2-y,1/2+z
loop_
_atom_site_type_symbol
_atom_site_label
_atom_site_fract_x
_atom_site_fract_y
_atom_site_fract_z
Si Si1 0.714694 0.118777 0.494664
Si Si2 0.012186 0.446556 0.771257
Si Si3 0.788338 0.838468 0.276110
Si Si4 0.113942 0.832726 0.677017
Si Si5 0.217905 0.169740 0.039048
Si Si6 0.575742 0.775112 0.373012
O O1 0.853185 0.072434 0.588441
O O2 0.784579 0.190838 0.668209
O O3 0.599338 0.245790 0.321461
O O4 0.623902 0.955821 0.406600
O O5 0.944614 0.421741 0.795865
O O6 0.873655 0.506326 0.552143
O O7 0.097299 0.281057 0.846733
O O8 0.750685 0.765012 0.331960
O O9 0.959166 0.780936 0.453117
O O10 0.801048 0.031874 0.283481
O O11 0.666922 0.780943 0.065613
O O12 0.361111 0.168238 0.139474
#
# Coordination Sequence:
#
# PCOD9240448 Si02
#       6
#     4   4   4   4   4   4
#     4  11  23  41  65  95 127 175 207 258 327 372
#     4  10  18  38  63  91 119 165 209 253 303 375
#     4  10  20  39  64  95 127 165 216 262 310 378
#     4  10  20  38  65  93 126 169 214 260 309 377
#     4  10  21  38  63  92 127 164 211 254 315 373
#     4  11  24  40  65  91 134 169 206 266 320 378
#
# _framework density 22.017562999999999
#
# number of rings (size 3 to 8) (size 9 to 14) (size 15 to 20)
#    0.000    1.667    5.000    1.000    0.000    0.667 
#    0.000   15.833    0.000    0.000    0.000    0.000 
#    0.000    0.000    0.000    0.000    0.000    0.000 
#
# Total GULP energy -133903.416927 kJ/mol
# GULP energy per Si atom -5579.309039 kJ/mol
# Density = 2.196745 g / cm^3
# Si number density = 22.017563 Si / 1000 Ang^3
#
#
#
# Elastic Constant Matrix: (Units=GPa)
#
#
# Indices 1 2 3 4 5 6 
#
# 1 42.4347 -4.2590 4.7971 0.0000 12.3499 0.0000
# 2 -4.2590 36.5519 15.3850 0.0000 20.6958 0.0000
# 3 4.7971 15.3850 79.9542 0.0000 17.1307 0.0000
# 4 0.0000 0.0000 0.0000 42.3631 0.0000 7.7543
# 5 12.3499 20.6958 17.1307 0.0000 26.2313 0.0000
# 6 0.0000 0.0000 0.0000 7.7543 0.0000 26.9250
#
#
#
# Elastic Compliance Matrix: (Units=1/GPa)
#
#
# Indices 1 2 3 4 5 6 
#
# 1 0.037219 0.025672 0.001071 0.000000 -0.038477 0.000000
# 2 0.025672 0.067279 -0.000609 0.000000 -0.064770 0.000000
# 3 0.001071 -0.000609 0.014609 0.000000 -0.009565 0.000000
# 4 0.000000 0.000000 0.000000 0.024919 0.000000 -0.007177
# 5 -0.038477 -0.064770 -0.009565 0.000000 0.113586 0.000000
# 6 0.000000 0.000000 0.000000 -0.007177 0.000000 0.039207
#
#
# Mechanical properties :
#
#
# Convention : Reuss Voigt Hill
#
# Bulk Modulus (GPa) = 5.83513 21.19855 13.51684
# Shear Modulus (GPa) = 16.57401 28.63840 22.60620
#
# Velocity S-wave (km/s) = 2.74663 3.61044 3.20775
# Velocity P-wave (km/s) = 3.56575 5.19897 4.45780
#
# Compressibility (1/GPa) = 0.17137575
#
# Stress axis : x y z
#
# Youngs Moduli (GPa) = 26.86784 14.86345 68.44927
#
# Poissons Ratio (x) = -0.38157 -0.07331
# Poissons Ratio (y) = -0.68974 0.04167
# Poissons Ratio (z) = -0.02878 0.00905
#
# Static dielectric constant tensor:
#      x y z
#    x 1.804040 0.000000 -0.000880 
#    y 0.000000 1.889040 0.000000 
#    z -0.000880 0.000000 1.804800 
# 
# From -- ./inp_files/61730.got.cif
#   From: 2010.05.17/outbox.cif.g08.bks.cpg/sg14_31_cif.got.tgz:61730.got - 2010.06.03 17:49:19.
