data_PCOD9240059
_publ_section_title
;
Structure prediction by ZEFSAII (Michael W. Deem and Ramdas Pophale) SiO2 
 PCOD9240059
Probable space group: P 21/C
;
_chemical_formula_sum "Si O2"
_cell_formula_units_Z 32
_cell_length_a 11.988904
_cell_length_b 7.924470
_cell_length_c 22.150453
_cell_angle_alpha 90.000000
_cell_angle_beta 143.904177
_cell_angle_gamma 90.000000
_cell_volume 1239.792350
_symmetry_space_group_name_H-M "P 21/C"
_symmetry_group_IT_number 14
_symmetry_cell_setting 'monoclinic'
loop_
_space_group_symop_operation_xyz
x,y,z
-x,1/2+y,1/2-z
-x,-y,-z
x,1/2-y,1/2+z
loop_
_atom_site_type_symbol
_atom_site_label
_atom_site_fract_x
_atom_site_fract_y
_atom_site_fract_z
Si Si1 0.921024 0.925025 0.729767
Si Si2 0.864024 0.835688 0.494295
Si Si3 0.792196 0.212472 0.594452
Si Si4 0.511992 0.471554 0.815309
Si Si5 0.601979 0.795610 0.136906
Si Si6 0.944502 0.177544 0.035284
Si Si7 0.850558 0.364169 0.318859
Si Si8 0.579870 0.964691 0.862481
O O1 0.790536 0.760886 0.685787
O O2 0.131836 0.852080 0.824799
O O3 0.835646 0.025904 0.636622
O O4 0.899175 0.059113 0.775122
O O5 0.724706 0.994270 0.430555
O O6 0.947709 0.796084 0.464480
O O7 0.714706 0.685959 0.442549
O O8 0.038105 0.805726 0.615644
O O9 0.575807 0.246655 0.482958
O O10 0.917190 0.246778 0.589586
O O11 0.414087 0.325151 0.811077
O O12 0.373697 0.630269 0.769704
O O13 0.505526 0.442551 0.741234
O O14 0.566586 0.978119 0.150124
O O15 0.067424 0.006466 0.098577
O O16 0.734662 0.118360 0.924278
#
# Coordination Sequence:
#
# PCOD9240059 Si02
#       8
#     4   4   4   4   4   4   4   4
#     4  10  22  42  70  85 117 166 207 266 304 361
#     4  11  19  33  59  87 123 158 196 252 299 374
#     4  10  22  41  65  91 117 163 217 253 312 359
#     4  11  20  31  58  88 123 159 197 241 306 371
#     4  10  23  41  61  90 127 162 197 258 315 360
#     4   9  17  35  61  82 118 158 200 251 303 362
#     4   9  18  36  55  85 114 159 197 241 310 367
#     4  10  18  34  58  85 120 159 203 236 303 382
#
# _framework density 25.810773999999999
#
# number of rings (size 3 to 8) (size 9 to 14) (size 15 to 20)
#    0.000    2.000    2.500    2.625    3.500    1.000 
#    0.000    6.875    5.500    0.000    0.000    0.000 
#    0.000    0.000    0.000    0.000    0.000    0.000 
#
# Total GULP energy -179169.897437 kJ/mol
# GULP energy per Si atom -5599.059295 kJ/mol
# Density = 2.575203 g / cm^3
# Si number density = 25.810774 Si / 1000 Ang^3
#
#
#
# Elastic Constant Matrix: (Units=GPa)
#
#
# Indices 1 2 3 4 5 6 
#
# 1 48.8571 11.9321 12.7965 0.0000 5.6677 0.0000
# 2 11.9321 42.0197 7.6159 0.0000 -3.8666 0.0000
# 3 12.7965 7.6159 128.0799 0.0000 10.2135 0.0000
# 4 0.0000 0.0000 0.0000 44.4885 0.0000 1.3995
# 5 5.6677 -3.8666 10.2135 0.0000 26.8809 0.0000
# 6 0.0000 0.0000 0.0000 1.3995 0.0000 50.7489
#
#
#
# Elastic Compliance Matrix: (Units=1/GPa)
#
#
# Indices 1 2 3 4 5 6 
#
# 1 0.023127 -0.006785 -0.001486 0.000000 -0.005288 0.000000
# 2 -0.006785 0.026501 -0.001357 0.000000 0.005758 0.000000
# 3 -0.001486 -0.001357 0.008278 0.000000 -0.003027 0.000000
# 4 0.000000 0.000000 0.000000 0.022497 0.000000 -0.000620
# 5 -0.005288 0.005758 -0.003027 0.000000 0.040294 0.000000
# 6 0.000000 0.000000 0.000000 -0.000620 0.000000 0.019722
#
#
# Mechanical properties :
#
#
# Convention : Reuss Voigt Hill
#
# Bulk Modulus (GPa) = 25.87214 31.51618 28.69416
# Shear Modulus (GPa) = 28.97569 36.86449 32.92009
#
# Velocity S-wave (km/s) = 3.35419 3.78333 3.57520
# Velocity P-wave (km/s) = 5.00463 5.59659 5.30886
#
# Compressibility (1/GPa) = 0.03865161
#
# Stress axis : x y z
#
# Youngs Moduli (GPa) = 43.23890 37.73474 120.79985
#
# Poissons Ratio (x) = 0.25602 0.17946
# Poissons Ratio (y) = 0.29336 0.16394
# Poissons Ratio (z) = 0.06423 0.05121
#
# Static dielectric constant tensor:
#      x y z
#    x 2.009180 0.000000 -0.007480 
#    y 0.000000 2.168890 0.000000 
#    z -0.007480 0.000000 2.032210 
# 
# From -- ./inp_files/77528.got.cif
#   From: 2010.05.17/outbox.cif.g08.bks.cpg/sg14_39_cif.got.tgz:77528.got - 2010.06.03 17:49:19.
