data_PCOD9240767
_publ_section_title
;
Structure prediction by ZEFSAII (Michael W. Deem and Ramdas Pophale) SiO2 
 PCOD9240767
Probable space group: P 21/C
;
_chemical_formula_sum "Si O2"
_cell_formula_units_Z 24
_cell_length_a 26.254542
_cell_length_b 4.970542
_cell_length_c 25.197899
_cell_angle_alpha 90.000000
_cell_angle_beta 15.952178
_cell_angle_gamma 90.000000
_cell_volume 903.742012
_symmetry_space_group_name_H-M "P 21/C"
_symmetry_group_IT_number 14
_symmetry_cell_setting 'monoclinic'
loop_
_space_group_symop_operation_xyz
x,y,z
-x,1/2+y,1/2-z
-x,-y,-z
x,1/2-y,1/2+z
loop_
_atom_site_type_symbol
_atom_site_label
_atom_site_fract_x
_atom_site_fract_y
_atom_site_fract_z
Si Si1 0.362722 0.128862 0.764068
Si Si2 0.934514 0.910156 0.282420
Si Si3 0.388645 0.426806 0.354660
Si Si4 0.808351 0.115293 0.298992
Si Si5 0.321487 0.631665 0.742828
Si Si6 0.233952 0.382172 0.723421
O O1 0.587011 0.103208 0.534493
O O2 0.281080 0.932866 0.801125
O O3 0.304444 0.039059 0.880861
O O4 0.306168 0.432037 0.808067
O O5 0.743343 0.740425 0.475373
O O6 0.928542 0.026688 0.228864
O O7 0.058796 0.669361 0.184503
O O8 0.450109 0.708186 0.315741
O O9 0.834181 0.912159 0.223730
O O10 0.842059 0.415277 0.244963
O O11 0.209834 0.510028 0.805523
O O12 0.540912 0.627438 0.508476
#
# Coordination Sequence:
#
# PCOD9240767 Si02
#       6
#     4   4   4   4   4   4
#     4  10  19  32  55  84 115 151 191 244 294 354
#     4  12  26  42  60  89 124 161 206 253 296 357
#     4  12  24  40  64  89 118 164 207 245 305 360
#     4  10  19  34  54  81 113 158 193 239 295 353
#     4   9  17  29  48  84 119 144 183 244 300 347
#     4   9  17  29  51  79 117 151 185 235 303 356
#
# _framework density 26.556253999999999
#
# number of rings (size 3 to 8) (size 9 to 14) (size 15 to 20)
#    0.000    1.667    1.667    4.000    4.667    4.000 
#    0.000    0.000    0.000    0.000    0.000   23.333 
#    0.000    0.000    0.000    0.000    0.000    0.000 
#
# Total GULP energy -134383.417639 kJ/mol
# GULP energy per Si atom -5599.309068 kJ/mol
# Density = 2.649581 g / cm^3
# Si number density = 26.556254 Si / 1000 Ang^3
#
#
#
# Elastic Constant Matrix: (Units=GPa)
#
#
# Indices 1 2 3 4 5 6 
#
# 1 93.6910 -5.7671 12.3580 0.0000 -13.7243 0.0000
# 2 -5.7671 88.6644 3.0065 0.0000 -14.9168 0.0000
# 3 12.3580 3.0065 52.8843 0.0000 -30.2010 0.0000
# 4 0.0000 0.0000 0.0000 14.0544 0.0000 2.0469
# 5 -13.7243 -14.9168 -30.2010 0.0000 36.6557 0.0000
# 6 0.0000 0.0000 0.0000 2.0469 0.0000 42.3255
#
#
#
# Elastic Compliance Matrix: (Units=1/GPa)
#
#
# Indices 1 2 3 4 5 6 
#
# 1 0.011496 0.001591 0.000096 0.000000 0.005031 0.000000
# 2 0.001591 0.012796 0.004183 0.000000 0.009249 0.000000
# 3 0.000096 0.004183 0.037095 0.000000 0.032301 0.000000
# 4 0.000000 0.000000 0.000000 0.071657 0.000000 -0.003465
# 5 0.005031 0.009249 0.032301 0.000000 0.059542 0.000000
# 6 0.000000 0.000000 0.000000 -0.003465 0.000000 0.023794
#
#
# Mechanical properties :
#
#
# Convention : Reuss Voigt Hill
#
# Bulk Modulus (GPa) = 13.67492 28.27051 20.97272
# Shear Modulus (GPa) = 21.83256 33.64993 27.74125
#
# Velocity S-wave (km/s) = 2.87038 3.56352 3.23557
# Velocity P-wave (km/s) = 4.01822 5.25359 4.67687
#
# Compressibility (1/GPa) = 0.07312658
#
# Stress axis : x y z
#
# Youngs Moduli (GPa) = 86.99028 78.14829 26.95746
#
# Poissons Ratio (x) = -0.12432 -0.00259
# Poissons Ratio (y) = -0.13838 -0.11276
# Poissons Ratio (z) = -0.00836 -0.32687
#
# Static dielectric constant tensor:
#      x y z
#    x 2.010400 0.000000 0.000370 
#    y 0.000000 1.922270 0.000000 
#    z 0.000370 0.000000 2.359840 
# 
# From -- ./inp_files/71596.got.cif
#   From: 2010.05.17/outbox.cif.g08.bks.cpg/sg14_36_cif.got.tgz:71596.got - 2010.06.03 17:49:19.
