data_PCOD9240848
_publ_section_title
;
Structure prediction by ZEFSAII (Michael W. Deem and Ramdas Pophale) SiO2 
 PCOD9240848
Probable space group: P 21/C
;
_chemical_formula_sum "Si O2"
_cell_formula_units_Z 24
_cell_length_a 21.395291
_cell_length_b 5.499028
_cell_length_c 20.085223
_cell_angle_alpha 90.000000
_cell_angle_beta 28.072946
_cell_angle_gamma 90.000000
_cell_volume 1112.060402
_symmetry_space_group_name_H-M "P 21/C"
_symmetry_group_IT_number 14
_symmetry_cell_setting 'monoclinic'
loop_
_space_group_symop_operation_xyz
x,y,z
-x,1/2+y,1/2-z
-x,-y,-z
x,1/2-y,1/2+z
loop_
_atom_site_type_symbol
_atom_site_label
_atom_site_fract_x
_atom_site_fract_y
_atom_site_fract_z
Si Si1 0.546719 0.648774 0.136052
Si Si2 0.252789 0.501857 0.612121
Si Si3 0.997223 0.277988 0.794771
Si Si4 0.653791 0.041628 0.832752
Si Si5 0.282464 0.823148 0.454554
Si Si6 0.407672 0.041714 0.651766
O O1 0.413738 0.705760 0.300609
O O2 0.664433 0.589324 0.076901
O O3 0.503028 0.437058 0.126095
O O4 0.611414 0.854562 0.029797
O O5 0.262936 0.586766 0.678399
O O6 0.247779 0.700796 0.558382
O O7 0.123529 0.332447 0.722263
O O8 0.994180 0.509103 0.745893
O O9 0.849654 0.299453 0.964171
O O10 0.663814 0.279303 0.777362
O O11 0.681679 0.779823 0.773151
O O12 0.500000 0.000000 0.000000
O O13 0.500000 0.000000 0.500000
#
# Coordination Sequence:
#
# PCOD9240848 Si02
#       6
#     4   4   4   4   4   4
#     4  12  21  34  58  84 119 147 186 242 294 336
#     4  11  21  36  58  82 114 153 190 237 282 347
#     4  10  22  38  57  80 118 156 193 226 282 352
#     4  10  19  33  54  81 106 140 195 237 272 319
#     4  11  23  36  54  90 121 149 189 236 301 344
#     4  10  20  33  53  81 109 143 187 238 277 328
#
# _framework density 21.581561000000001
#
# number of rings (size 3 to 8) (size 9 to 14) (size 15 to 20)
#    0.000    1.333    6.667    2.000    0.000    0.000 
#    0.000    0.000    0.000    2.000    0.000    0.000 
#    0.000    0.000    0.000    0.000    0.000    0.000 
#
# Total GULP energy -133766.166464 kJ/mol
# GULP energy per Si atom -5573.590269 kJ/mol
# Density = 2.153244 g / cm^3
# Si number density = 21.581561 Si / 1000 Ang^3
#
#
#
# Elastic Constant Matrix: (Units=GPa)
#
#
# Indices 1 2 3 4 5 6 
#
# 1 79.3603 13.1750 15.2808 0.0000 -16.6488 0.0000
# 2 13.1750 110.0086 15.0137 0.0000 -2.2488 0.0000
# 3 15.2808 15.0137 75.6479 0.0000 -23.9669 0.0000
# 4 0.0000 0.0000 0.0000 20.1846 0.0000 -7.8524
# 5 -16.6488 -2.2488 -23.9669 0.0000 19.7787 0.0000
# 6 0.0000 0.0000 0.0000 -7.8524 0.0000 34.5485
#
#
#
# Elastic Compliance Matrix: (Units=1/GPa)
#
#
# Indices 1 2 3 4 5 6 
#
# 1 0.015786 -0.001863 0.002149 0.000000 0.015680 0.000000
# 2 -0.001863 0.009608 -0.002729 0.000000 -0.003783 0.000000
# 3 0.002149 -0.002729 0.022402 0.000000 0.028644 0.000000
# 4 0.000000 0.000000 0.000000 0.054348 0.000000 0.012353
# 5 0.015680 -0.003783 0.028644 0.000000 0.098037 0.000000
# 6 0.000000 0.000000 0.000000 0.012353 0.000000 0.031752
#
#
# Mechanical properties :
#
#
# Convention : Reuss Voigt Hill
#
# Bulk Modulus (GPa) = 23.30541 39.10620 31.20581
# Shear Modulus (GPa) = 19.91052 29.67217 24.79134
#
# Velocity S-wave (km/s) = 3.04068 3.71197 3.39297
# Velocity P-wave (km/s) = 4.81143 6.04410 5.46264
#
# Compressibility (1/GPa) = 0.04290849
#
# Stress axis : x y z
#
# Youngs Moduli (GPa) = 63.34831 104.07469 44.63953
#
# Poissons Ratio (x) = 0.19392 -0.09592
# Poissons Ratio (y) = 0.11804 0.12183
# Poissons Ratio (z) = -0.13612 0.28403
#
# Static dielectric constant tensor:
#      x y z
#    x 1.820850 0.000000 -0.023520 
#    y 0.000000 2.002460 0.000000 
#    z -0.023520 0.000000 1.795270 
# 
# From -- ./inp_files/69500.got.cif
#   From: 2010.05.17/outbox.cif.g08.bks.cpg/sg14_35_cif.got.tgz:69500.got - 2010.06.03 17:49:19.
