data_PCOD9240477
_publ_section_title
;
Structure prediction by ZEFSAII (Michael W. Deem and Ramdas Pophale) SiO2 
 PCOD9240477
Probable space group: P 21/C
;
_chemical_formula_sum "Si O2"
_cell_formula_units_Z 32
_cell_length_a 11.800396
_cell_length_b 8.654939
_cell_length_c 19.068563
_cell_angle_alpha 90.000000
_cell_angle_beta 131.253855
_cell_angle_gamma 90.000000
_cell_volume 1464.125310
_symmetry_space_group_name_H-M "P 21/C"
_symmetry_group_IT_number 14
_symmetry_cell_setting 'monoclinic'
loop_
_space_group_symop_operation_xyz
x,y,z
-x,1/2+y,1/2-z
-x,-y,-z
x,1/2-y,1/2+z
loop_
_atom_site_type_symbol
_atom_site_label
_atom_site_fract_x
_atom_site_fract_y
_atom_site_fract_z
Si Si1 0.080328 0.866805 0.315530
Si Si2 0.273641 0.374141 0.357050
Si Si3 0.684233 0.306454 0.683371
Si Si4 0.987271 0.775168 0.422888
Si Si5 0.096711 0.859361 0.606048
Si Si6 0.338469 0.295762 0.737589
Si Si7 0.209099 0.347815 0.946702
Si Si8 0.551453 0.911466 0.345182
O O1 0.183297 0.785004 0.301464
O O2 0.908183 0.896087 0.223207
O O3 0.068111 0.764755 0.381318
O O4 0.158845 0.026439 0.368923
O O5 0.346918 0.540718 0.374412
O O6 0.321835 0.273432 0.309053
O O7 0.294787 0.284960 0.438619
O O8 0.545794 0.199110 0.644289
O O9 0.754943 0.347245 0.787650
O O10 0.098977 0.767796 0.534012
O O11 0.834624 0.674610 0.358952
O O12 0.931985 0.955193 0.407538
O O13 0.947788 0.792361 0.583465
O O14 0.404685 0.175053 0.708419
O O15 0.449629 0.440774 0.787079
O O16 0.299623 0.432232 0.046187
#
# Coordination Sequence:
#
# PCOD9240477 Si02
#       8
#     4   4   4   4   4   4   4   4
#     4  10  20  37  66  97 125 166 222 268 328 380
#     4  11  21  40  69  93 129 167 221 277 318 379
#     4  12  23  40  63 101 128 174 214 272 332 385
#     4   9  19  37  67  96 121 168 218 273 313 380
#     4  10  18  38  70  95 123 166 226 267 321 380
#     4  11  23  43  63  95 129 177 215 268 328 389
#     4  11  22  43  66  96 127 177 218 266 325 396
#     4  12  28  42  67  93 138 174 217 263 333 407
#
# _framework density 21.856051999999998
#
# number of rings (size 3 to 8) (size 9 to 14) (size 15 to 20)
#    0.000    1.250    6.250    1.500    0.000    3.500 
#    0.000    3.125    0.000    0.000    0.000    0.000 
#    0.000    0.000    0.000    0.000    0.000    0.000 
#
# Total GULP energy -178783.144638 kJ/mol
# GULP energy per Si atom -5586.973270 kJ/mol
# Density = 2.180631 g / cm^3
# Si number density = 21.856052 Si / 1000 Ang^3
#
#
#
# Elastic Constant Matrix: (Units=GPa)
#
#
# Indices 1 2 3 4 5 6 
#
# 1 92.4979 27.6711 8.5627 0.0000 3.0329 0.0000
# 2 27.6711 39.1384 6.0060 0.0000 9.0965 0.0000
# 3 8.5627 6.0060 55.9487 0.0000 4.4952 0.0000
# 4 0.0000 0.0000 0.0000 24.5660 0.0000 4.3529
# 5 3.0329 9.0965 4.4952 0.0000 17.8979 0.0000
# 6 0.0000 0.0000 0.0000 4.3529 0.0000 13.6785
#
#
#
# Elastic Compliance Matrix: (Units=1/GPa)
#
#
# Indices 1 2 3 4 5 6 
#
# 1 0.013938 -0.010414 -0.001276 0.000000 0.003252 0.000000
# 2 -0.010414 0.036968 -0.001028 0.000000 -0.016766 0.000000
# 3 -0.001276 -0.001028 0.018493 0.000000 -0.003906 0.000000
# 4 0.000000 0.000000 0.000000 0.043139 0.000000 -0.013728
# 5 0.003252 -0.016766 -0.003906 0.000000 0.064824 0.000000
# 6 0.000000 0.000000 0.000000 -0.013728 0.000000 0.077476
#
#
# Mechanical properties :
#
#
# Convention : Reuss Voigt Hill
#
# Bulk Modulus (GPa) = 22.74672 30.22940 26.48806
# Shear Modulus (GPa) = 16.95329 20.91816 18.93572
#
# Velocity S-wave (km/s) = 2.78812 3.09704 2.94663
# Velocity P-wave (km/s) = 4.56015 5.16237 4.87057
#
# Compressibility (1/GPa) = 0.04396238
#
# Stress axis : x y z
#
# Youngs Moduli (GPa) = 71.74611 27.05071 54.07447
#
# Poissons Ratio (x) = 0.28171 0.06902
# Poissons Ratio (y) = 0.74717 0.05556
# Poissons Ratio (z) = 0.09158 0.02779
#
# Static dielectric constant tensor:
#      x y z
#    x 1.791000 0.000000 -0.022290 
#    y 0.000000 1.821060 0.000000 
#    z -0.022290 0.000000 1.833120 
# 
# From -- ./inp_files/67042.got.cif
#   From: 2010.05.17/outbox.cif.g08.bks.cpg/sg14_34_cif.got.tgz:67042.got - 2010.06.03 17:49:19.
