data_PCOD9240777
_publ_section_title
;
Structure prediction by ZEFSAII (Michael W. Deem and Ramdas Pophale) SiO2 
 PCOD9240777
Probable space group: P 21/C
;
_chemical_formula_sum "Si O2"
_cell_formula_units_Z 28
_cell_length_a 21.615566
_cell_length_b 5.615769
_cell_length_c 24.784163
_cell_angle_alpha 90.000000
_cell_angle_beta 29.073739
_cell_angle_gamma 90.000000
_cell_volume 1461.935274
_symmetry_space_group_name_H-M "P 21/C"
_symmetry_group_IT_number 14
_symmetry_cell_setting 'monoclinic'
loop_
_space_group_symop_operation_xyz
x,y,z
-x,1/2+y,1/2-z
-x,-y,-z
x,1/2-y,1/2+z
loop_
_atom_site_type_symbol
_atom_site_label
_atom_site_fract_x
_atom_site_fract_y
_atom_site_fract_z
Si Si1 0.851598 0.231750 0.907592
Si Si2 0.469674 0.908250 0.609439
Si Si3 0.332471 0.550891 0.876228
Si Si4 0.610799 0.945096 0.219394
Si Si5 0.330152 0.774793 0.611943
Si Si6 0.304922 0.392274 0.542086
Si Si7 0.897989 0.505146 0.766714
O O1 0.912415 0.319869 0.804924
O O2 0.964455 0.102530 0.853201
O O3 0.738322 0.061833 0.973188
O O4 0.784422 0.435775 0.992848
O O5 0.380843 0.777171 0.633846
O O6 0.561058 0.728582 0.572162
O O7 0.395740 0.054499 0.710753
O O8 0.569457 0.068205 0.499465
O O9 0.327972 0.301626 0.847842
O O10 0.466762 0.555989 0.805606
O O11 0.328760 0.802544 0.846212
O O12 0.325003 0.529102 0.583469
O O13 0.190288 0.888593 0.711692
O O14 0.191280 0.210438 0.640162
#
# Coordination Sequence:
#
# PCOD9240777 Si02
#       7
#     4   4   4   4   4   4   4
#     4  11  21  34  56  84 117 152 193 242 301 359
#     4  10  20  35  58  81 117 148 193 242 297 354
#     4  10  23  36  57  82 119 152 198 239 293 355
#     4  10  22  38  55  84 114 158 194 241 294 353
#     4   9  20  35  54  87 113 148 190 241 301 353
#     4  10  19  32  56  86 112 150 185 243 296 365
#     4  10  20  34  54  83 115 148 187 240 300 355
#
# _framework density 19.152692999999999
#
# number of rings (size 3 to 8) (size 9 to 14) (size 15 to 20)
#    0.000    2.000    1.429    3.000   10.000    0.000 
#    0.000    0.000    0.000    1.714    0.000    0.000 
#    0.000    0.000    0.000    0.000    0.000    0.000 
#
# Total GULP energy -156252.093411 kJ/mol
# GULP energy per Si atom -5580.431908 kJ/mol
# Density = 1.910910 g / cm^3
# Si number density = 19.152693 Si / 1000 Ang^3
#
#
#
# Elastic Constant Matrix: (Units=GPa)
#
#
# Indices 1 2 3 4 5 6 
#
# 1 65.1241 26.4411 36.4815 0.0000 -2.9305 0.0000
# 2 26.4411 78.6066 21.7746 0.0000 -1.9966 0.0000
# 3 36.4815 21.7746 54.3956 0.0000 -2.6215 0.0000
# 4 0.0000 0.0000 0.0000 29.2813 0.0000 0.7165
# 5 -2.9305 -1.9966 -2.6215 0.0000 18.1091 0.0000
# 6 0.0000 0.0000 0.0000 0.7165 0.0000 17.5963
#
#
#
# Elastic Compliance Matrix: (Units=1/GPa)
#
#
# Indices 1 2 3 4 5 6 
#
# 1 0.025910 -0.004369 -0.015558 0.000000 0.001459 0.000000
# 2 -0.004369 0.015055 -0.003072 0.000000 0.000508 0.000000
# 3 -0.015558 -0.003072 0.030120 0.000000 0.001504 0.000000
# 4 0.000000 0.000000 0.000000 0.034186 0.000000 -0.001392
# 5 0.001459 0.000508 0.001504 0.000000 0.055731 0.000000
# 6 0.000000 0.000000 0.000000 -0.001392 0.000000 0.056887
#
#
# Mechanical properties :
#
#
# Convention : Reuss Voigt Hill
#
# Bulk Modulus (GPa) = 39.85993 40.83564 40.34779
# Shear Modulus (GPa) = 18.36556 20.55927 19.46241
#
# Velocity S-wave (km/s) = 3.09997 3.27989 3.19120
# Velocity P-wave (km/s) = 5.80258 5.97587 5.88986
#
# Compressibility (1/GPa) = 0.02508785
#
# Stress axis : x y z
#
# Youngs Moduli (GPa) = 38.59500 66.42317 33.20014
#
# Poissons Ratio (x) = 0.29018 0.51653
# Poissons Ratio (y) = 0.16861 0.10199
# Poissons Ratio (z) = 0.60046 0.20406
#
# Static dielectric constant tensor:
#      x y z
#    x 1.647750 0.000000 0.000520 
#    y 0.000000 1.760130 0.000000 
#    z 0.000520 0.000000 1.660420 
# 
# From -- ./inp_files/66454.got.cif
#   From: 2010.05.17/outbox.cif.g08.bks.cpg/sg14_34_cif.got.tgz:66454.got - 2010.06.03 17:49:19.
