data_PCOD9240182
_publ_section_title
;
Structure prediction by ZEFSAII (Michael W. Deem and Ramdas Pophale) SiO2 
 PCOD9240182
Probable space group: P 21/C
;
_chemical_formula_sum "Si O2"
_cell_formula_units_Z 24
_cell_length_a 13.057190
_cell_length_b 9.727113
_cell_length_c 15.942793
_cell_angle_alpha 90.000000
_cell_angle_beta 144.200596
_cell_angle_gamma 90.000000
_cell_volume 1184.448744
_symmetry_space_group_name_H-M "P 21/C"
_symmetry_group_IT_number 14
_symmetry_cell_setting 'monoclinic'
loop_
_space_group_symop_operation_xyz
x,y,z
-x,1/2+y,1/2-z
-x,-y,-z
x,1/2-y,1/2+z
loop_
_atom_site_type_symbol
_atom_site_label
_atom_site_fract_x
_atom_site_fract_y
_atom_site_fract_z
Si Si1 0.883130 0.597391 0.979736
Si Si2 0.712668 0.067910 0.519431
Si Si3 0.512174 0.813224 0.204276
Si Si4 0.834311 0.268147 0.730242
Si Si5 0.472383 0.201503 0.585477
Si Si6 0.652901 0.985635 0.031792
O O1 0.717365 0.663636 0.822963
O O2 0.804285 0.501040 0.000417
O O3 0.000000 0.500000 0.000000
O O4 0.003264 0.714480 0.100651
O O5 0.571390 0.180104 0.394373
O O6 0.843922 0.150620 0.666577
O O7 0.612910 0.942164 0.497133
O O8 0.492536 0.804018 0.291339
O O9 0.414308 0.943299 0.098334
O O10 0.654501 0.234596 0.660513
O O11 0.806940 0.417846 0.668552
O O12 0.334913 0.323952 0.475533
O O13 0.500000 0.000000 0.000000
#
# Coordination Sequence:
#
# PCOD9240182 Si02
#       6
#     4   4   4   4   4   4
#     4  11  22  38  61  88 119 154 194 240 290 344
#     4  10  22  38  58  85 117 153 193 240 291 343
#     4  10  20  36  58  85 115 153 195 233 284 352
#     4  10  21  37  58  87 116 147 195 246 289 333
#     4  10  18  35  60  84 114 154 193 234 286 352
#     4   9  18  34  58  83 112 155 193 223 279 358
#
# _framework density 20.262588999999998
#
# number of rings (size 3 to 8) (size 9 to 14) (size 15 to 20)
#    0.000    2.000    0.000    5.500    0.000    2.667 
#    0.000    2.500    0.000    2.000    0.000    0.000 
#    0.000    0.000    0.000    0.000    0.000    0.000 
#
# Total GULP energy -134018.551718 kJ/mol
# GULP energy per Si atom -5584.106322 kJ/mol
# Density = 2.021647 g / cm^3
# Si number density = 20.262589 Si / 1000 Ang^3
#
#
#
# Elastic Constant Matrix: (Units=GPa)
#
#
# Indices 1 2 3 4 5 6 
#
# 1 72.4644 23.9298 1.4250 0.0000 3.0946 0.0000
# 2 23.9298 124.6587 21.3973 0.0000 3.7866 0.0000
# 3 1.4250 21.3973 66.5177 0.0000 9.4729 0.0000
# 4 0.0000 0.0000 0.0000 20.3065 0.0000 3.5148
# 5 3.0946 3.7866 9.4729 0.0000 28.1066 0.0000
# 6 0.0000 0.0000 0.0000 3.5148 0.0000 26.8516
#
#
#
# Elastic Compliance Matrix: (Units=1/GPa)
#
#
# Indices 1 2 3 4 5 6 
#
# 1 0.014820 -0.002944 0.000846 0.000000 -0.001520 0.000000
# 2 -0.002944 0.009077 -0.002866 0.000000 0.000067 0.000000
# 3 0.000846 -0.002866 0.016697 0.000000 -0.005335 0.000000
# 4 0.000000 0.000000 0.000000 0.050387 0.000000 -0.006596
# 5 -0.001520 0.000067 -0.005335 0.000000 0.037535 0.000000
# 6 0.000000 0.000000 0.000000 -0.006596 0.000000 0.038105
#
#
# Mechanical properties :
#
#
# Convention : Reuss Voigt Hill
#
# Bulk Modulus (GPa) = 32.60953 39.68276 36.14615
# Shear Modulus (GPa) = 26.77055 29.51218 28.14137
#
# Velocity S-wave (km/s) = 3.63875 3.82053 3.73075
# Velocity P-wave (km/s) = 5.81226 6.25210 6.03619
#
# Compressibility (1/GPa) = 0.03066588
#
# Stress axis : x y z
#
# Youngs Moduli (GPa) = 67.47477 110.16851 59.89019
#
# Poissons Ratio (x) = 0.32434 -0.05067
# Poissons Ratio (y) = 0.19865 0.17167
# Poissons Ratio (z) = -0.05709 0.31579
#
# Static dielectric constant tensor:
#      x y z
#    x 1.730330 0.000000 0.004260 
#    y 0.000000 1.718910 0.000000 
#    z 0.004260 0.000000 1.732240 
# 
# From -- ./inp_files/58995.got.cif
#   From: 2010.05.17/outbox.cif.g08.bks.cpg/sg14_30_cif.got.tgz:58995.got - 2010.06.03 17:49:19.
