data_PCOD9240869
_publ_section_title
;
Structure prediction by ZEFSAII (Michael W. Deem and Ramdas Pophale) SiO2 
 PCOD9240869
Probable space group: P 21/C
;
_chemical_formula_sum "Si O2"
_cell_formula_units_Z 24
_cell_length_a 8.224362
_cell_length_b 13.664773
_cell_length_c 9.369817
_cell_angle_alpha 90.000000
_cell_angle_beta 84.633639
_cell_angle_gamma 90.000000
_cell_volume 1048.402557
_symmetry_space_group_name_H-M "P 21/C"
_symmetry_group_IT_number 14
_symmetry_cell_setting 'monoclinic'
loop_
_space_group_symop_operation_xyz
x,y,z
-x,1/2+y,1/2-z
-x,-y,-z
x,1/2-y,1/2+z
loop_
_atom_site_type_symbol
_atom_site_label
_atom_site_fract_x
_atom_site_fract_y
_atom_site_fract_z
Si Si1 0.956353 0.102735 0.424573
Si Si2 0.784547 0.668069 0.891541
Si Si3 0.436304 0.969374 0.157166
Si Si4 0.633427 0.461134 0.881486
Si Si5 0.328457 0.198536 0.893080
Si Si6 0.111352 0.053744 0.109614
O O1 0.053939 0.174640 0.523669
O O2 0.016206 0.097343 0.254474
O O3 0.761086 0.116485 0.431041
O O4 0.000000 0.000000 0.500000
O O5 0.749852 0.556492 0.847522
O O6 0.770306 0.722627 0.742722
O O7 0.645186 0.706536 0.011844
O O8 0.526882 0.048955 0.249415
O O9 0.511886 0.861264 0.170898
O O10 0.242718 0.980047 0.172181
O O11 0.500000 0.000000 0.000000
O O12 0.500000 0.500000 0.000000
O O13 0.219010 0.130648 0.008135
O O14 0.000000 0.000000 0.000000
#
# Coordination Sequence:
#
# PCOD9240869 Si02
#       6
#     4   4   4   4   4   4
#     4  10  19  33  55  83 112 147 190 233 280 334
#     4  10  20  36  55  82 114 150 187 229 285 345
#     4   9  18  33  54  81 110 143 188 232 277 334
#     4  10  20  35  57  82 110 146 191 239 283 335
#     4  10  21  36  56  82 114 152 187 227 287 345
#     4  11  20  35  59  84 112 148 193 242 283 337
#
# _framework density 22.891971999999999
#
# number of rings (size 3 to 8) (size 9 to 14) (size 15 to 20)
#    0.000    2.000    0.000    7.000    0.000    1.333 
#    0.000    1.667    0.000    6.000    0.000    0.000 
#    0.000    0.000    0.000    0.000    0.000    0.000 
#
# Total GULP energy -133661.606747 kJ/mol
# GULP energy per Si atom -5569.233614 kJ/mol
# Density = 2.283987 g / cm^3
# Si number density = 22.891972 Si / 1000 Ang^3
#
#
#
# Elastic Constant Matrix: (Units=GPa)
#
#
# Indices 1 2 3 4 5 6 
#
# 1 133.8413 8.9709 43.9341 0.0000 22.9306 0.0000
# 2 8.9709 40.0760 -2.2901 0.0000 9.5762 0.0000
# 3 43.9341 -2.2901 165.5606 0.0000 22.7209 0.0000
# 4 0.0000 0.0000 0.0000 30.7933 0.0000 0.9635
# 5 22.9306 9.5762 22.7209 0.0000 41.5710 0.0000
# 6 0.0000 0.0000 0.0000 0.9635 0.0000 22.9473
#
#
#
# Elastic Compliance Matrix: (Units=1/GPa)
#
#
# Indices 1 2 3 4 5 6 
#
# 1 0.008770 -0.001223 -0.001858 0.000000 -0.003540 0.000000
# 2 -0.001223 0.026837 0.001569 0.000000 -0.006365 0.000000
# 3 -0.001858 0.001569 0.006988 0.000000 -0.003156 0.000000
# 4 0.000000 0.000000 0.000000 0.032517 0.000000 -0.001365
# 5 -0.003540 -0.006365 -0.003156 0.000000 0.029199 0.000000
# 6 0.000000 0.000000 0.000000 -0.001365 0.000000 0.043635
#
#
# Mechanical properties :
#
#
# Convention : Reuss Voigt Hill
#
# Bulk Modulus (GPa) = 25.27146 48.96752 37.11949
# Shear Modulus (GPa) = 30.45774 38.31986 34.38880
#
# Velocity S-wave (km/s) = 3.65156 4.09582 3.88005
# Velocity P-wave (km/s) = 5.37047 6.61852 6.02689
#
# Compressibility (1/GPa) = 0.03957032
#
# Stress axis : x y z
#
# Youngs Moduli (GPa) = 114.02428 37.26185 143.10183
#
# Poissons Ratio (x) = 0.04559 0.26594
# Poissons Ratio (y) = 0.13950 -0.22458
# Poissons Ratio (z) = 0.21190 -0.05848
#
# Static dielectric constant tensor:
#      x y z
#    x 1.952610 0.000000 0.015480 
#    y 0.000000 2.112490 0.000000 
#    z 0.015480 0.000000 1.832180 
# 
# From -- ./inp_files/9105.got.cif
#   From: 2010.05.17/outbox.cif.g08.bks.cpg/sg14_5_cif.got.tgz:9105.got - 2010.06.03 17:49:19.
