data_PCOD9240349
_publ_section_title
;
Structure prediction by ZEFSAII (Michael W. Deem and Ramdas Pophale) SiO2 
 PCOD9240349
Probable space group: P 21/C
;
_chemical_formula_sum "Si O2"
_cell_formula_units_Z 32
_cell_length_a 13.752382
_cell_length_b 9.760879
_cell_length_c 12.109797
_cell_angle_alpha 90.000000
_cell_angle_beta 114.418787
_cell_angle_gamma 90.000000
_cell_volume 1480.153100
_symmetry_space_group_name_H-M "P 21/C"
_symmetry_group_IT_number 14
_symmetry_cell_setting 'monoclinic'
loop_
_space_group_symop_operation_xyz
x,y,z
-x,1/2+y,1/2-z
-x,-y,-z
x,1/2-y,1/2+z
loop_
_atom_site_type_symbol
_atom_site_label
_atom_site_fract_x
_atom_site_fract_y
_atom_site_fract_z
Si Si1 0.904649 0.297216 0.724990
Si Si2 0.950848 0.478442 0.150629
Si Si3 0.162053 0.509286 0.130447
Si Si4 0.414060 0.304692 0.020211
Si Si5 0.429866 0.434387 0.689593
Si Si6 0.407839 0.894704 0.537743
Si Si7 0.283919 0.874596 0.009242
Si Si8 0.369498 0.055423 0.845808
O O1 0.914042 0.136423 0.716981
O O2 0.846808 0.343416 0.811507
O O3 0.837423 0.356291 0.589220
O O4 0.017770 0.375425 0.784022
O O5 0.065228 0.432414 0.149838
O O6 0.870874 0.488681 0.011095
O O7 0.276691 0.450722 0.212034
O O8 0.537602 0.337290 0.047845
O O9 0.373907 0.201929 0.906836
O O10 0.407789 0.214897 0.127580
O O11 0.361178 0.453960 0.998825
O O12 0.492274 0.415120 0.832395
O O13 0.324302 0.528418 0.627931
O O14 0.519038 0.510366 0.654926
O O15 0.330895 0.777519 0.546328
O O16 0.337106 0.948869 0.927078
#
# Coordination Sequence:
#
# PCOD9240349 Si02
#       8
#     4   4   4   4   4   4   4   4
#     4   9  19  36  61  81 107 143 182 231 283 328
#     4   9  18  39  58  81 108 142 181 236 275 325
#     4   8  19  36  60  80 111 142 185 221 281 339
#     4  10  21  35  51  75 117 143 181 231 268 303
#     4  11  20  35  57  78 114 156 186 212 274 342
#     4  11  21  34  51  83 112 143 185 236 257 309
#     4  10  19  37  54  80 111 149 185 220 274 332
#     4  10  18  37  57  77 106 160 178 215 279 343
#
# _framework density 21.619384
#
# number of rings (size 3 to 8) (size 9 to 14) (size 15 to 20)
#    0.750    1.500    2.500    1.500    1.750    0.000 
#    2.250    1.875    0.000    0.000    0.000    0.000 
#    0.000    0.000    0.000    0.000    0.000    0.000 
#
# Total GULP energy -178461.521686 kJ/mol
# GULP energy per Si atom -5576.922553 kJ/mol
# Density = 2.157018 g / cm^3
# Si number density = 21.619384 Si / 1000 Ang^3
#
#
#
# Elastic Constant Matrix: (Units=GPa)
#
#
# Indices 1 2 3 4 5 6 
#
# 1 21.8706 -1.1245 -0.9676 0.0000 4.7385 0.0000
# 2 -1.1245 133.1672 33.5848 0.0000 -3.6256 0.0000
# 3 -0.9676 33.5848 101.2604 0.0000 18.6770 0.0000
# 4 0.0000 0.0000 0.0000 17.6746 0.0000 -2.8194
# 5 4.7385 -3.6256 18.6770 0.0000 21.6627 0.0000
# 6 0.0000 0.0000 0.0000 -2.8194 0.0000 16.1784
#
#
#
# Elastic Compliance Matrix: (Units=1/GPa)
#
#
# Indices 1 2 3 4 5 6 
#
# 1 0.048768 -0.000772 0.003226 0.000000 -0.013579 0.000000
# 2 -0.000772 0.008579 -0.003744 0.000000 0.004832 0.000000
# 3 0.003226 -0.003744 0.013548 0.000000 -0.013013 0.000000
# 4 0.000000 0.000000 0.000000 0.058196 0.000000 0.010142
# 5 -0.013579 0.004832 -0.013013 0.000000 0.061161 0.000000
# 6 0.000000 0.000000 0.000000 0.010142 0.000000 0.063578
#
#
# Mechanical properties :
#
#
# Convention : Reuss Voigt Hill
#
# Bulk Modulus (GPa) = 14.63761 35.47597 25.05679
# Shear Modulus (GPa) = 17.90952 26.09019 21.99986
#
# Velocity S-wave (km/s) = 2.88132 3.47767 3.19344
# Velocity P-wave (km/s) = 4.22547 5.70706 5.02121
#
# Compressibility (1/GPa) = 0.06831715
#
# Stress axis : x y z
#
# Youngs Moduli (GPa) = 20.50506 116.56867 73.80974
#
# Poissons Ratio (x) = 0.08994 -0.23814
# Poissons Ratio (y) = 0.01582 0.27634
# Poissons Ratio (z) = -0.06616 0.43643
#
# Static dielectric constant tensor:
#      x y z
#    x 1.812240 0.000000 -0.018320 
#    y 0.000000 1.801760 0.000000 
#    z -0.018320 0.000000 1.817640 
# 
# From -- ./inp_files/48424.got.cif
#   From: 2010.05.17/outbox.cif.g08.bks.cpg/sg14_25_cif.got.tgz:48424.got - 2010.06.03 17:49:19.
