data_PCOD9240599
_publ_section_title
;
Structure prediction by ZEFSAII (Michael W. Deem and Ramdas Pophale) SiO2 
 PCOD9240599
Probable space group: P 21/C
;
_chemical_formula_sum "Si O2"
_cell_formula_units_Z 32
_cell_length_a 16.050443
_cell_length_b 21.628062
_cell_length_c 15.832029
_cell_angle_alpha 90.000000
_cell_angle_beta 18.175045
_cell_angle_gamma 90.000000
_cell_volume 1714.296758
_symmetry_space_group_name_H-M "P 21/C"
_symmetry_group_IT_number 14
_symmetry_cell_setting 'monoclinic'
loop_
_space_group_symop_operation_xyz
x,y,z
-x,1/2+y,1/2-z
-x,-y,-z
x,1/2-y,1/2+z
loop_
_atom_site_type_symbol
_atom_site_label
_atom_site_fract_x
_atom_site_fract_y
_atom_site_fract_z
Si Si1 0.885115 0.823560 0.673513
Si Si2 0.396738 0.527874 0.011948
Si Si3 0.269768 0.583952 0.590601
Si Si4 0.630993 0.288412 0.415574
Si Si5 0.696311 0.161516 0.451570
Si Si6 0.773548 0.862098 0.966575
Si Si7 0.196854 0.447223 0.843609
Si Si8 0.849861 0.502443 0.441192
O O1 0.846383 0.825256 0.811252
O O2 0.810451 0.893402 0.718089
O O3 0.159729 0.804829 0.361893
O O4 0.656032 0.783505 0.851201
O O5 0.366142 0.602048 0.046180
O O6 0.628985 0.514230 0.723079
O O7 0.500000 0.500000 0.000000
O O8 0.129294 0.502238 0.223032
O O9 0.357046 0.653675 0.530209
O O10 0.499499 0.542951 0.417540
O O11 0.232974 0.557570 0.532550
O O12 0.972547 0.577654 0.914038
O O13 0.669356 0.225789 0.429744
O O14 0.003400 0.156220 0.181184
O O15 0.510484 0.152790 0.715083
O O16 0.824725 0.936152 0.905717
O O17 0.000000 0.500000 0.000000
#
# Coordination Sequence:
#
# PCOD9240599 Si02
#       8
#     4   4   4   4   4   4   4   4
#     4  10  20  34  54  80 108 139 181 223 256 320
#     4  10  21  38  59  81 104 137 185 235 280 319
#     4  10  20  33  51  77 109 143 172 208 264 322
#     4  10  21  37  54  77 114 149 177 216 272 330
#     4  10  21  38  58  77 107 147 180 224 277 323
#     4  10  20  35  57  81 104 138 184 226 269 319
#     4  10  19  30  49  77 110 143 171 206 255 310
#     4  10  20  35  57  82 109 138 176 228 275 325
#
# _framework density 18.666547000000001
#
# number of rings (size 3 to 8) (size 9 to 14) (size 15 to 20)
#    0.000    2.000    0.000    3.750    0.000    4.000 
#    0.000    3.750    0.000    0.000    0.000    0.000 
#    0.000    0.000    0.000    0.000    0.000    0.000 
#
# Total GULP energy -178203.342799 kJ/mol
# GULP energy per Si atom -5568.854462 kJ/mol
# Density = 1.862406 g / cm^3
# Si number density = 18.666547 Si / 1000 Ang^3
#
#
#
# Elastic Constant Matrix: (Units=GPa)
#
#
# Indices 1 2 3 4 5 6 
#
# 1 68.1766 48.8510 5.4967 0.0000 -0.0632 0.0000
# 2 48.8510 78.3804 -2.3709 0.0000 -1.1345 0.0000
# 3 5.4967 -2.3709 73.7373 0.0000 -22.4780 0.0000
# 4 0.0000 0.0000 0.0000 17.0642 0.0000 -0.2453
# 5 -0.0632 -1.1345 -22.4780 0.0000 20.8937 0.0000
# 6 0.0000 0.0000 0.0000 -0.2453 0.0000 17.2503
#
#
#
# Elastic Compliance Matrix: (Units=1/GPa)
#
#
# Indices 1 2 3 4 5 6 
#
# 1 0.027383 -0.017274 -0.004252 0.000000 -0.005429 0.000000
# 2 -0.017274 0.023707 0.003610 0.000000 0.005119 0.000000
# 3 -0.004252 0.003610 0.020907 0.000000 0.022676 0.000000
# 4 0.000000 0.000000 0.000000 0.058614 0.000000 0.000833
# 5 -0.005429 0.005119 0.022676 0.000000 0.072518 0.000000
# 6 0.000000 0.000000 0.000000 0.000833 0.000000 0.057982
#
#
# Mechanical properties :
#
#
# Convention : Reuss Voigt Hill
#
# Bulk Modulus (GPa) = 27.64895 36.02754 31.83824
# Shear Modulus (GPa) = 16.18141 22.26281 19.22211
#
# Velocity S-wave (km/s) = 2.94745 3.45724 3.21247
# Velocity P-wave (km/s) = 5.14077 5.93962 5.55458
#
# Compressibility (1/GPa) = 0.03616774
#
# Stress axis : x y z
#
# Youngs Moduli (GPa) = 36.51939 42.18077 47.83068
#
# Poissons Ratio (x) = 0.72861 0.20336
# Poissons Ratio (y) = 0.63082 -0.17269
# Poissons Ratio (z) = 0.15527 -0.15229
#
# Static dielectric constant tensor:
#      x y z
#    x 1.630190 0.000000 0.005140 
#    y 0.000000 1.722990 0.000000 
#    z 0.005140 0.000000 1.668770 
# 
# From -- ./inp_files/47602.got.cif
#   From: 2010.05.17/outbox.cif.g08.bks.cpg/sg14_24_cif.got.tgz:47602.got - 2010.06.03 17:49:19.
