data_PCOD9240208
_publ_section_title
;
Structure prediction by ZEFSAII (Michael W. Deem and Ramdas Pophale) SiO2 
 PCOD9240208
Probable space group: P 21/C
;
_chemical_formula_sum "Si O2"
_cell_formula_units_Z 20
_cell_length_a 7.975696
_cell_length_b 7.941577
_cell_length_c 27.283411
_cell_angle_alpha 90.000000
_cell_angle_beta 24.649898
_cell_angle_gamma 90.000000
_cell_volume 720.751470
_symmetry_space_group_name_H-M "P 21/C"
_symmetry_group_IT_number 14
_symmetry_cell_setting 'monoclinic'
loop_
_space_group_symop_operation_xyz
x,y,z
-x,1/2+y,1/2-z
-x,-y,-z
x,1/2-y,1/2+z
loop_
_atom_site_type_symbol
_atom_site_label
_atom_site_fract_x
_atom_site_fract_y
_atom_site_fract_z
Si Si1 0.922148 0.542248 0.918855
Si Si2 0.893465 0.751381 0.343150
Si Si3 0.093958 0.091917 0.758207
Si Si4 0.989742 0.321408 0.391278
Si Si5 0.864725 0.882597 0.990268
O O1 0.137768 0.632754 0.815488
O O2 0.079741 0.359347 0.891581
O O3 0.500000 0.500000 0.000000
O O4 0.925116 0.684029 0.960589
O O5 0.158839 0.602871 0.251003
O O6 0.506129 0.678941 0.474989
O O7 0.717811 0.845123 0.341899
O O8 0.162556 0.189340 0.790431
O O9 0.615520 0.105069 0.878006
O O10 0.058833 0.504731 0.395371
O O11 0.000000 0.000000 0.000000
#
# Coordination Sequence:
#
# PCOD9240208 Si02
#       5
#     4   4   4   4   4
#     4  10  18  35  62  86 116 155 204 253 297 361
#     4  10  19  31  60  92 111 147 209 259 293 346
#     4  11  19  35  61  92 115 155 206 262 297 359
#     4  10  20  38  61  88 116 156 210 257 299 359
#     4  11  22  38  59  86 126 162 192 248 321 373
#
# _framework density 27.748816999999999
#
# number of rings (size 3 to 8) (size 9 to 14) (size 15 to 20)
#    0.000    1.600    6.000    2.400    2.800    0.800 
#    0.000    0.000   13.200    0.000    0.000    0.000 
#    0.000    0.000    0.000    0.000    0.000    0.000 
#
# Total GULP energy -111621.667631 kJ/mol
# GULP energy per Si atom -5581.083382 kJ/mol
# Density = 2.768566 g / cm^3
# Si number density = 27.748817 Si / 1000 Ang^3
#
#
#
# Elastic Constant Matrix: (Units=GPa)
#
#
# Indices 1 2 3 4 5 6 
#
# 1 90.7607 40.5720 33.8873 0.0000 13.7130 0.0000
# 2 40.5720 234.6666 13.0736 0.0000 11.6689 0.0000
# 3 33.8873 13.0736 88.4927 0.0000 6.9480 0.0000
# 4 0.0000 0.0000 0.0000 35.7013 0.0000 22.4414
# 5 13.7130 11.6689 6.9480 0.0000 55.1198 0.0000
# 6 0.0000 0.0000 0.0000 22.4414 0.0000 44.6858
#
#
#
# Elastic Compliance Matrix: (Units=1/GPa)
#
#
# Indices 1 2 3 4 5 6 
#
# 1 0.014143 -0.002049 -0.004920 0.000000 -0.002465 0.000000
# 2 -0.002049 0.004632 0.000138 0.000000 -0.000488 0.000000
# 3 -0.004920 0.000138 0.013201 0.000000 -0.000469 0.000000
# 4 0.000000 0.000000 0.000000 0.040931 0.000000 -0.020556
# 5 -0.002465 -0.000488 -0.000469 0.000000 0.018918 0.000000
# 6 0.000000 0.000000 0.000000 -0.020556 0.000000 0.032702
#
#
# Mechanical properties :
#
#
# Convention : Reuss Voigt Hill
#
# Bulk Modulus (GPa) = 54.59643 65.44287 60.01965
# Shear Modulus (GPa) = 34.65196 48.86053 41.75625
#
# Velocity S-wave (km/s) = 3.53763 4.20076 3.88338
# Velocity P-wave (km/s) = 6.03361 6.86758 6.46406
#
# Compressibility (1/GPa) = 0.01831621
#
# Stress axis : x y z
#
# Youngs Moduli (GPa) = 70.70625 215.88395 75.75339
#
# Poissons Ratio (x) = 0.44225 0.37269
# Poissons Ratio (y) = 0.14485 -0.01049
# Poissons Ratio (z) = 0.34786 -0.02990
#
# Static dielectric constant tensor:
#      x y z
#    x 2.360110 0.000000 -0.020650 
#    y 0.000000 2.317570 0.000000 
#    z -0.020650 0.000000 2.228090 
# 
# From -- ./inp_files/38797.got.cif
#   From: 2010.05.17/outbox.cif.g08.bks.cpg/sg14_20_cif.got.tgz:38797.got - 2010.06.03 17:49:19.
