data_PCOD9240996
_publ_section_title
;
Structure prediction by ZEFSAII (Michael W. Deem and Ramdas Pophale) SiO2 
 PCOD9240996
Probable space group: P 21/C
;
_chemical_formula_sum "Si O2"
_cell_formula_units_Z 28
_cell_length_a 7.971585
_cell_length_b 8.778568
_cell_length_c 23.343862
_cell_angle_alpha 90.000000
_cell_angle_beta 133.287194
_cell_angle_gamma 90.000000
_cell_volume 1189.127198
_symmetry_space_group_name_H-M "P 21/C"
_symmetry_group_IT_number 14
_symmetry_cell_setting 'monoclinic'
loop_
_space_group_symop_operation_xyz
x,y,z
-x,1/2+y,1/2-z
-x,-y,-z
x,1/2-y,1/2+z
loop_
_atom_site_type_symbol
_atom_site_label
_atom_site_fract_x
_atom_site_fract_y
_atom_site_fract_z
Si Si1 0.514873 0.985935 0.935712
Si Si2 0.178682 0.184108 0.783815
Si Si3 0.129307 0.761733 0.976855
Si Si4 0.868290 0.117533 0.291248
Si Si5 0.409674 0.261007 0.645840
Si Si6 0.746617 0.032679 0.585353
Si Si7 0.476855 0.933079 0.632096
O O1 0.301695 0.082700 0.861168
O O2 0.526171 0.829520 0.902539
O O3 0.741480 0.084654 0.975548
O O4 0.500000 0.000000 0.000000
O O5 0.374369 0.297297 0.806113
O O6 0.972534 0.274659 0.765769
O O7 0.114331 0.060307 0.722002
O O8 0.189314 0.694217 0.927937
O O9 0.859649 0.793088 0.912257
O O10 0.249849 0.636189 0.047698
O O11 0.602393 0.163842 0.232417
O O12 0.065517 0.102259 0.386133
O O13 0.420533 0.079273 0.655892
O O14 0.664727 0.000751 0.631107
O O15 0.500000 0.000000 0.500000
#
# Coordination Sequence:
#
# PCOD9240996 Si02
#       7
#     4   4   4   4   4   4   4
#     4  10  21  37  58  84 111 149 195 236 281 340
#     4   9  19  34  56  83 110 142 190 239 280 336
#     4  10  20  36  55  82 115 147 190 237 286 345
#     4  10  19  34  54  81 112 147 186 237 293 342
#     4  11  21  34  56  85 119 150 182 237 298 349
#     4   9  18  34  57  77 103 146 196 240 276 334
#     4   9  18  35  58  82 108 147 192 234 282 346
#
# _framework density 23.546683999999999
#
# number of rings (size 3 to 8) (size 9 to 14) (size 15 to 20)
#    0.000    2.286    0.000    4.286    0.000    3.429 
#    0.000    2.857    0.000    1.714    0.000    0.000 
#    0.000    0.000    0.000    0.000    0.000    0.000 
#
# Total GULP energy -155981.144724 kJ/mol
# GULP energy per Si atom -5570.755169 kJ/mol
# Density = 2.349309 g / cm^3
# Si number density = 23.546684 Si / 1000 Ang^3
#
#
#
# Elastic Constant Matrix: (Units=GPa)
#
#
# Indices 1 2 3 4 5 6 
#
# 1 60.3276 14.8099 28.9316 0.0000 17.0036 0.0000
# 2 14.8099 90.7272 15.7773 0.0000 10.3785 0.0000
# 3 28.9316 15.7773 81.8211 0.0000 41.7925 0.0000
# 4 0.0000 0.0000 0.0000 36.4466 0.0000 4.3013
# 5 17.0036 10.3785 41.7925 0.0000 38.7825 0.0000
# 6 0.0000 0.0000 0.0000 4.3013 0.0000 14.4502
#
#
#
# Elastic Compliance Matrix: (Units=1/GPa)
#
#
# Indices 1 2 3 4 5 6 
#
# 1 0.020450 -0.002091 -0.005636 0.000000 -0.002333 0.000000
# 2 -0.002091 0.011659 -0.000853 0.000000 -0.001284 0.000000
# 3 -0.005636 -0.000853 0.028917 0.000000 -0.028462 0.000000
# 4 0.000000 0.000000 0.000000 0.028436 0.000000 -0.008465
# 5 -0.002333 -0.001284 -0.028462 0.000000 0.057822 0.000000
# 6 0.000000 0.000000 0.000000 -0.008465 0.000000 0.071723
#
#
# Mechanical properties :
#
#
# Convention : Reuss Voigt Hill
#
# Bulk Modulus (GPa) = 22.79722 39.10149 30.94935
# Shear Modulus (GPa) = 19.93707 29.49300 24.71504
#
# Velocity S-wave (km/s) = 2.91297 3.54295 3.24330
# Velocity P-wave (km/s) = 4.58439 5.77743 5.21514
#
# Compressibility (1/GPa) = 0.04386500
#
# Stress axis : x y z
#
# Youngs Moduli (GPa) = 48.89961 85.77364 34.58178
#
# Poissons Ratio (x) = 0.17937 0.19492
# Poissons Ratio (y) = 0.10226 0.02949
# Poissons Ratio (z) = 0.27562 0.07314
#
# Static dielectric constant tensor:
#      x y z
#    x 1.994490 0.000000 0.046730 
#    y 0.000000 1.947930 0.000000 
#    z 0.046730 0.000000 2.457860 
# 
# From -- ./inp_files/76494.got.cif
#   From: 2010.05.17/outbox.cif.g08.bks.cpg/sg14_39_cif.got.tgz:76494.got - 2010.06.03 17:49:19.
