data_PCOD9240759
_publ_section_title
;
Structure prediction by ZEFSAII (Michael W. Deem and Ramdas Pophale) SiO2 
 PCOD9240759
Probable space group: P 21/C
;
_chemical_formula_sum "Si O2"
_cell_formula_units_Z 32
_cell_length_a 15.294495
_cell_length_b 12.305639
_cell_length_c 9.153449
_cell_angle_alpha 90.000000
_cell_angle_beta 92.530107
_cell_angle_gamma 90.000000
_cell_volume 1721.077812
_symmetry_space_group_name_H-M "P 21/C"
_symmetry_group_IT_number 14
_symmetry_cell_setting 'monoclinic'
loop_
_space_group_symop_operation_xyz
x,y,z
-x,1/2+y,1/2-z
-x,-y,-z
x,1/2-y,1/2+z
loop_
_atom_site_type_symbol
_atom_site_label
_atom_site_fract_x
_atom_site_fract_y
_atom_site_fract_z
Si Si1 0.996526 0.928202 0.354397
Si Si2 0.122506 0.737749 0.961250
Si Si3 0.529510 0.744770 0.475851
Si Si4 0.578157 0.368628 0.790812
Si Si5 0.626819 0.878414 0.240725
Si Si6 0.186168 0.065968 0.835893
Si Si7 0.771613 0.331801 0.774446
Si Si8 0.907186 0.021598 0.918865
O O1 0.902734 0.920897 0.266162
O O2 0.030931 0.808185 0.398325
O O3 0.069449 0.978763 0.249574
O O4 0.000000 0.000000 0.500000
O O5 0.189465 0.744044 0.832544
O O6 0.163622 0.660218 0.084793
O O7 0.115898 0.855611 0.034629
O O8 0.477940 0.832677 0.572350
O O9 0.467361 0.679013 0.358665
O O10 0.598820 0.806067 0.377288
O O11 0.574196 0.663933 0.595153
O O12 0.597210 0.497366 0.774791
O O13 0.672985 0.311930 0.813283
O O14 0.730017 0.866075 0.209529
O O15 0.221262 0.944811 0.808290
O O16 0.158671 0.061738 0.005292
O O17 0.000000 0.000000 0.000000
#
# Coordination Sequence:
#
# PCOD9240759 Si02
#       8
#     4   4   4   4   4   4   4   4
#     4  11  20  35  57  82 111 149 194 231 283 341
#     4  11  19  33  53  81 112 146 182 239 277 340
#     4  10  21  38  62  90 115 157 200 233 302 375
#     4  10  20  37  62  89 118 152 193 251 303 351
#     4  10  21  40  61  85 124 155 194 250 291 351
#     4   9  20  38  54  77 115 151 184 236 288 333
#     4  10  19  32  55  81 112 141 185 236 290 328
#     4   9  20  36  54  76 109 150 190 229 285 333
#
# _framework density 18.593001000000001
#
# number of rings (size 3 to 8) (size 9 to 14) (size 15 to 20)
#    0.000    2.000    2.500    1.500    0.000    0.000 
#    4.500    2.500    0.000    0.000    0.000    0.000 
#    0.000    0.000    0.000    0.000    0.000    0.000 
#
# Total GULP energy -178171.836487 kJ/mol
# GULP energy per Si atom -5567.869890 kJ/mol
# Density = 1.855068 g / cm^3
# Si number density = 18.593001 Si / 1000 Ang^3
#
#
#
# Elastic Constant Matrix: (Units=GPa)
#
#
# Indices 1 2 3 4 5 6 
#
# 1 96.4217 10.5869 35.8221 0.0000 -25.6631 0.0000
# 2 10.5869 35.2361 14.2723 0.0000 -13.2175 0.0000
# 3 35.8221 14.2723 115.4380 0.0000 -25.2740 0.0000
# 4 0.0000 0.0000 0.0000 15.0306 0.0000 -2.1054
# 5 -25.6631 -13.2175 -25.2740 0.0000 25.6550 0.0000
# 6 0.0000 0.0000 0.0000 -2.1054 0.0000 23.1222
#
#
#
# Elastic Compliance Matrix: (Units=1/GPa)
#
#
# Indices 1 2 3 4 5 6 
#
# 1 0.014440 0.001413 -0.001701 0.000000 0.013497 0.000000
# 2 0.001413 0.035338 -0.000653 0.000000 0.018977 0.000000
# 3 -0.001701 -0.000653 0.011252 0.000000 0.009047 0.000000
# 4 0.000000 0.000000 0.000000 0.067390 0.000000 0.006136
# 5 0.013497 0.018977 0.009047 0.000000 0.071170 0.000000
# 6 0.000000 0.000000 0.000000 0.006136 0.000000 0.043807
#
#
# Mechanical properties :
#
#
# Convention : Reuss Voigt Hill
#
# Bulk Modulus (GPa) = 16.90620 40.93984 28.92302
# Shear Modulus (GPa) = 18.86827 25.18920 22.02873
#
# Velocity S-wave (km/s) = 3.18906 3.68471 3.44581
# Velocity P-wave (km/s) = 4.76158 6.33794 5.60545
#
# Compressibility (1/GPa) = 0.05914990
#
# Stress axis : x y z
#
# Youngs Moduli (GPa) = 69.25137 28.29799 88.87377
#
# Poissons Ratio (x) = -0.03999 0.15114
# Poissons Ratio (y) = -0.09787 0.05802
# Poissons Ratio (z) = 0.11777 0.01847
#
# Static dielectric constant tensor:
#      x y z
#    x 1.666610 0.000000 -0.040620 
#    y 0.000000 1.660040 0.000000 
#    z -0.040620 0.000000 1.692820 
# 
# From -- ./inp_files/15812.got.cif
#   From: 2010.05.17/outbox.cif.g08.bks.cpg/sg14_8_cif.got.tgz:15812.got - 2010.06.03 17:49:19.
