data_PCOD9240987
_publ_section_title
;
Structure prediction by ZEFSAII (Michael W. Deem and Ramdas Pophale) SiO2 
 PCOD9240987
Probable space group: P 21/C
;
_chemical_formula_sum "Si O2"
_cell_formula_units_Z 28
_cell_length_a 28.914545
_cell_length_b 8.127372
_cell_length_c 17.535470
_cell_angle_alpha 90.000000
_cell_angle_beta 159.700187
_cell_angle_gamma 90.000000
_cell_volume 1429.647637
_symmetry_space_group_name_H-M "P 21/C"
_symmetry_group_IT_number 14
_symmetry_cell_setting 'monoclinic'
loop_
_space_group_symop_operation_xyz
x,y,z
-x,1/2+y,1/2-z
-x,-y,-z
x,1/2-y,1/2+z
loop_
_atom_site_type_symbol
_atom_site_label
_atom_site_fract_x
_atom_site_fract_y
_atom_site_fract_z
Si Si1 0.368217 0.688306 0.243918
Si Si2 0.786357 0.511727 0.124478
Si Si3 0.368059 0.485372 0.388489
Si Si4 0.024622 0.730693 0.499499
Si Si5 0.469824 0.208891 0.742899
Si Si6 0.632620 0.053544 0.871757
Si Si7 0.849524 0.946760 0.331444
O O1 0.323502 0.617516 0.256174
O O2 0.526017 0.641966 0.483588
O O3 0.346512 0.874471 0.180303
O O4 0.285874 0.581448 0.055386
O O5 0.909677 0.620335 0.285267
O O6 0.852571 0.382945 0.285200
O O7 0.676784 0.631015 0.992720
O O8 0.449674 0.591056 0.576454
O O9 0.249943 0.403200 0.254188
O O10 0.071979 0.887168 0.525352
O O11 0.952013 0.808714 0.462162
O O12 0.551900 0.197400 0.791698
O O13 0.455196 0.389215 0.755512
O O14 0.763292 0.005720 0.123340
#
# Coordination Sequence:
#
# PCOD9240987 Si02
#       7
#     4   4   4   4   4   4   4
#     4  10  20  37  56  77 112 147 176 225 284 333
#     4  10  19  34  53  81 110 141 181 225 269 325
#     4   9  21  37  55  79 112 145 178 225 284 329
#     4  10  20  32  56  80 109 140 183 226 269 310
#     4  10  20  32  56  83 109 141 185 237 278 324
#     4  11  19  33  56  83 108 141 186 234 282 323
#     4  10  19  35  54  84 106 143 184 235 260 331
#
# _framework density 19.585245
#
# number of rings (size 3 to 8) (size 9 to 14) (size 15 to 20)
#    0.000    2.000    2.857    2.571    2.000    0.571 
#    0.000    1.429    0.000    0.000    0.000    0.000 
#    0.000    0.000    0.000    0.000    0.000    0.000 
#
# Total GULP energy -156117.151675 kJ/mol
# GULP energy per Si atom -5575.612560 kJ/mol
# Density = 1.954067 g / cm^3
# Si number density = 19.585245 Si / 1000 Ang^3
#
#
#
# Elastic Constant Matrix: (Units=GPa)
#
#
# Indices 1 2 3 4 5 6 
#
# 1 55.4568 3.3732 17.4246 0.0000 5.7356 0.0000
# 2 3.3732 72.5996 6.9183 0.0000 4.1928 0.0000
# 3 17.4246 6.9183 58.3774 0.0000 8.9167 0.0000
# 4 0.0000 0.0000 0.0000 26.7637 0.0000 10.3771
# 5 5.7356 4.1928 8.9167 0.0000 14.8221 0.0000
# 6 0.0000 0.0000 0.0000 10.3771 0.0000 22.3688
#
#
#
# Elastic Compliance Matrix: (Units=1/GPa)
#
#
# Indices 1 2 3 4 5 6 
#
# 1 0.020182 -0.000168 -0.005306 0.000000 -0.004570 0.000000
# 2 -0.000168 0.014076 -0.001123 0.000000 -0.003241 0.000000
# 3 -0.005306 -0.001123 0.020355 0.000000 -0.009874 0.000000
# 4 0.000000 0.000000 0.000000 0.045559 0.000000 -0.021135
# 5 -0.004570 -0.003241 -0.009874 0.000000 0.076093 0.000000
# 6 0.000000 0.000000 0.000000 -0.021135 0.000000 0.054510
#
#
# Mechanical properties :
#
#
# Convention : Reuss Voigt Hill
#
# Bulk Modulus (GPa) = 24.14347 26.87403 25.50875
# Shear Modulus (GPa) = 19.39676 23.37208 21.38442
#
# Velocity S-wave (km/s) = 3.15044 3.45824 3.30792
# Velocity P-wave (km/s) = 5.05844 5.44952 5.25762
#
# Compressibility (1/GPa) = 0.04141907
#
# Stress axis : x y z
#
# Youngs Moduli (GPa) = 49.54887 71.04192 49.12804
#
# Poissons Ratio (x) = 0.01195 0.26067
# Poissons Ratio (y) = 0.00833 0.05517
# Poissons Ratio (z) = 0.26291 0.07977
#
# Static dielectric constant tensor:
#      x y z
#    x 1.703730 0.000000 0.028450 
#    y 0.000000 1.746800 0.000000 
#    z 0.028450 0.000000 1.715840 
# 
# From -- ./inp_files/62616.got.cif
#   From: 2010.05.17/outbox.cif.g08.bks.cpg/sg14_32_cif.got.tgz:62616.got - 2010.06.03 17:49:19.
