data_PCOD9240347
_publ_section_title
;
Structure prediction by ZEFSAII (Michael W. Deem and Ramdas Pophale) SiO2 
 PCOD9240347
Probable space group: P 21/C
;
_chemical_formula_sum "Si O2"
_cell_formula_units_Z 28
_cell_length_a 12.421189
_cell_length_b 18.328393
_cell_length_c 9.720641
_cell_angle_alpha 90.000000
_cell_angle_beta 46.414726
_cell_angle_gamma 90.000000
_cell_volume 1602.988389
_symmetry_space_group_name_H-M "P 21/C"
_symmetry_group_IT_number 14
_symmetry_cell_setting 'monoclinic'
loop_
_space_group_symop_operation_xyz
x,y,z
-x,1/2+y,1/2-z
-x,-y,-z
x,1/2-y,1/2+z
loop_
_atom_site_type_symbol
_atom_site_label
_atom_site_fract_x
_atom_site_fract_y
_atom_site_fract_z
Si Si1 0.846553 0.020038 0.802577
Si Si2 0.227692 0.162322 0.840852
Si Si3 0.404382 0.424503 0.412106
Si Si4 0.011894 0.358898 0.769601
Si Si5 0.753643 0.058798 0.577134
Si Si6 0.242213 0.176880 0.276129
Si Si7 0.862101 0.589105 0.864832
O O1 0.829697 0.039909 0.657443
O O2 0.960092 0.075801 0.774221
O O3 0.923427 0.940994 0.759726
O O4 0.680108 0.002552 0.000966
O O5 0.340024 0.114125 0.832710
O O6 0.296901 0.242004 0.757427
O O7 0.183526 0.124975 0.737547
O O8 0.079176 0.167449 0.066689
O O9 0.579835 0.431506 0.252891
O O10 0.350443 0.374025 0.588723
O O11 0.092835 0.312955 0.816183
O O12 0.837695 0.370648 0.941588
O O13 0.785869 0.989992 0.450633
O O14 0.197090 0.136647 0.455438
#
# Coordination Sequence:
#
# PCOD9240347 Si02
#       7
#     4   4   4   4   4   4   4
#     4   9  17  32  55  81  98 130 181 216 256 306
#     4  10  22  35  52  80 106 143 179 208 269 316
#     4  10  22  34  55  81 109 141 167 220 269 318
#     4   9  18  34  55  80 102 130 179 228 254 295
#     4  11  18  34  57  80 110 132 176 224 270 312
#     4  10  18  37  57  74 102 143 189 210 247 325
#     4  11  18  32  60  79 102 136 179 232 257 305
#
# _framework density 17.467376000000002
#
# number of rings (size 3 to 8) (size 9 to 14) (size 15 to 20)
#    0.000    2.286    4.286    3.000    0.000    5.714 
#    0.000    1.429    0.000    0.000    0.000    0.000 
#    0.000    0.000    0.000    0.000    0.000    0.000 
#
# Total GULP energy -155944.861473 kJ/mol
# GULP energy per Si atom -5569.459338 kJ/mol
# Density = 1.742762 g / cm^3
# Si number density = 17.467376 Si / 1000 Ang^3
#
#
#
# Elastic Constant Matrix: (Units=GPa)
#
#
# Indices 1 2 3 4 5 6 
#
# 1 66.3381 14.0641 51.6328 0.0000 3.9127 0.0000
# 2 14.0641 36.4591 15.8927 0.0000 6.5509 0.0000
# 3 51.6328 15.8927 93.1298 0.0000 -2.4875 0.0000
# 4 0.0000 0.0000 0.0000 0.8779 0.0000 -4.9811
# 5 3.9127 6.5509 -2.4875 0.0000 42.3631 0.0000
# 6 0.0000 0.0000 0.0000 -4.9811 0.0000 7.6969
#
#
#
# Elastic Compliance Matrix: (Units=1/GPa)
#
#
# Indices 1 2 3 4 5 6 
#
# 1 0.027426 -0.003685 -0.014652 0.000000 -0.002824 0.000000
# 2 -0.003685 0.031173 -0.003401 0.000000 -0.004680 0.000000
# 3 -0.014652 -0.003401 0.019522 0.000000 0.003026 0.000000
# 4 0.000000 0.000000 0.000000 -0.426324 0.000000 -0.275897
# 5 -0.002824 -0.004680 0.003026 0.000000 0.024768 0.000000
# 6 0.000000 0.000000 0.000000 -0.275897 0.000000 -0.048625
#
#
# Mechanical properties :
#
#
# Convention : Reuss Voigt Hill
#
# Bulk Modulus (GPa) = 28.86515 39.90069 34.38292
# Shear Modulus (GPa) = -15.77121 17.81008 1.01944
#
# Velocity S-wave (km/s) = -3.00808 3.19661 0.76478
# Velocity P-wave (km/s) = 2.12045 6.04293 4.52843
#
# Compressibility (1/GPa) = 0.03464385
#
# Stress axis : x y z
#
# Youngs Moduli (GPa) = 36.46124 32.07885 51.22324
#
# Poissons Ratio (x) = 0.11823 0.75053
# Poissons Ratio (y) = 0.13438 0.17423
# Poissons Ratio (z) = 0.53424 0.10911
#
# Static dielectric constant tensor:
#      x y z
#    x 1.609030 0.000000 -0.031150 
#    y 0.000000 1.628450 0.000000 
#    z -0.031150 0.000000 1.630510 
# 
# From -- ./inp_files/14142.got.cif
#   From: 2010.05.17/outbox.cif.g08.bks.cpg/sg14_8_cif.got.tgz:14142.got - 2010.06.03 17:49:19.
