data_PCOD9240118
_publ_section_title
;
Structure prediction by ZEFSAII (Michael W. Deem and Ramdas Pophale) SiO2 
 PCOD9240118
Probable space group: P 21/C
;
_chemical_formula_sum "Si O2"
_cell_formula_units_Z 28
_cell_length_a 8.627317
_cell_length_b 19.339756
_cell_length_c 10.411031
_cell_angle_alpha 90.000000
_cell_angle_beta 125.573655
_cell_angle_gamma 90.000000
_cell_volume 1412.888042
_symmetry_space_group_name_H-M "P 21/C"
_symmetry_group_IT_number 14
_symmetry_cell_setting 'monoclinic'
loop_
_space_group_symop_operation_xyz
x,y,z
-x,1/2+y,1/2-z
-x,-y,-z
x,1/2-y,1/2+z
loop_
_atom_site_type_symbol
_atom_site_label
_atom_site_fract_x
_atom_site_fract_y
_atom_site_fract_z
Si Si1 0.923736 0.469852 0.630089
Si Si2 0.376094 0.420961 0.200981
Si Si3 0.965310 0.682895 0.970135
Si Si4 0.759552 0.070531 0.319089
Si Si5 0.964260 0.703263 0.682559
Si Si6 0.794181 0.419823 0.304531
Si Si7 0.632559 0.903065 0.002454
O O1 0.881958 0.437336 0.747167
O O2 0.889597 0.419898 0.493357
O O3 0.767878 0.531495 0.537559
O O4 0.124660 0.509370 0.717932
O O5 0.230541 0.359147 0.104662
O O6 0.269132 0.494411 0.136198
O O7 0.568598 0.419012 0.213068
O O8 0.427272 0.414187 0.377736
O O9 0.961066 0.721308 0.831366
O O10 0.129870 0.625025 0.041929
O O11 0.996993 0.733644 0.103500
O O12 0.551016 0.096145 0.175335
O O13 0.123782 0.645133 0.732197
O O14 0.763806 0.664502 0.556434
#
# Coordination Sequence:
#
# PCOD9240118 Si02
#       7
#     4   4   4   4   4   4   4
#     4   9  17  31  61  98 120 156 190 245 302 369
#     4  10  19  37  62  96 125 159 201 258 307 365
#     4  11  26  43  61  84 127 167 207 255 305 368
#     4  11  19  37  65  93 122 161 200 251 320 362
#     4  10  25  43  59  85 122 165 210 248 307 369
#     4  10  18  34  63  91 127 151 203 244 296 366
#     4   9  17  36  62  91 121 157 202 246 302 375
#
# _framework density 19.817564999999998
#
# number of rings (size 3 to 8) (size 9 to 14) (size 15 to 20)
#    0.000    2.000    2.857    2.143    2.000    1.143 
#    0.000    7.143    0.000    0.000    0.000    0.000 
#    0.000    0.000    0.000    0.000    0.000    0.000 
#
# Total GULP energy -156435.851136 kJ/mol
# GULP energy per Si atom -5586.994683 kJ/mol
# Density = 1.977246 g / cm^3
# Si number density = 19.817565 Si / 1000 Ang^3
#
#
#
# Elastic Constant Matrix: (Units=GPa)
#
#
# Indices 1 2 3 4 5 6 
#
# 1 106.4106 25.2557 29.5360 0.0000 -0.2719 0.0000
# 2 25.2557 64.2588 24.6968 0.0000 -11.3880 0.0000
# 3 29.5360 24.6968 56.1986 0.0000 -6.9630 0.0000
# 4 0.0000 0.0000 0.0000 21.6819 0.0000 -5.8329
# 5 -0.2719 -11.3880 -6.9630 0.0000 17.9980 0.0000
# 6 0.0000 0.0000 0.0000 -5.8329 0.0000 17.0135
#
#
#
# Elastic Compliance Matrix: (Units=1/GPa)
#
#
# Indices 1 2 3 4 5 6 
#
# 1 0.011589 -0.003269 -0.005135 0.000000 -0.003880 0.000000
# 2 -0.003269 0.021182 -0.006235 0.000000 0.010941 0.000000
# 3 -0.005135 -0.006235 0.023879 0.000000 0.005216 0.000000
# 4 0.000000 0.000000 0.000000 0.050808 0.000000 0.017419
# 5 -0.003880 0.010941 0.005216 0.000000 0.064444 0.000000
# 6 0.000000 0.000000 0.000000 0.017419 0.000000 0.064749
#
#
# Mechanical properties :
#
#
# Convention : Reuss Voigt Hill
#
# Bulk Modulus (GPa) = 36.53303 42.87166 39.70234
# Shear Modulus (GPa) = 18.17839 21.16396 19.67118
#
# Velocity S-wave (km/s) = 3.03196 3.27148 3.15399
# Velocity P-wave (km/s) = 5.54362 5.99585 5.77416
#
# Compressibility (1/GPa) = 0.02737249
#
# Stress axis : x y z
#
# Youngs Moduli (GPa) = 86.29079 47.20953 41.87785
#
# Poissons Ratio (x) = 0.15432 0.21504
# Poissons Ratio (y) = 0.28207 0.26111
# Poissons Ratio (z) = 0.44309 0.29435
#
# Static dielectric constant tensor:
#      x y z
#    x 1.705180 0.000000 -0.003410 
#    y 0.000000 1.685870 0.000000 
#    z -0.003410 0.000000 1.695950 
# 
# From -- ./inp_files/26674.got.cif
#   From: 2010.05.17/outbox.cif.g08.bks.cpg/sg14_14_cif.got.tgz:26674.got - 2010.06.03 17:49:19.
