data_PCOD9240238
_publ_section_title
;
Structure prediction by ZEFSAII (Michael W. Deem and Ramdas Pophale) SiO2 
 PCOD9240238
Probable space group: P 21/C
;
_chemical_formula_sum "Si O2"
_cell_formula_units_Z 28
_cell_length_a 5.622486
_cell_length_b 9.212138
_cell_length_c 20.048861
_cell_angle_alpha 90.000000
_cell_angle_beta 115.044399
_cell_angle_gamma 90.000000
_cell_volume 940.799645
_symmetry_space_group_name_H-M "P 21/C"
_symmetry_group_IT_number 14
_symmetry_cell_setting 'monoclinic'
loop_
_space_group_symop_operation_xyz
x,y,z
-x,1/2+y,1/2-z
-x,-y,-z
x,1/2-y,1/2+z
loop_
_atom_site_type_symbol
_atom_site_label
_atom_site_fract_x
_atom_site_fract_y
_atom_site_fract_z
Si Si1 0.669710 0.141858 0.147414
Si Si2 0.222507 0.708903 0.971622
Si Si3 0.639245 0.429810 0.896441
Si Si4 0.110412 0.147805 0.286711
Si Si5 0.249791 0.138791 0.004104
Si Si6 0.618194 0.859386 0.285998
Si Si7 0.166855 0.638805 0.642790
O O1 0.522607 0.250786 0.179162
O O2 0.885944 0.063589 0.218237
O O3 0.442945 0.056521 0.079217
O O4 0.809713 0.245105 0.109063
O O5 0.266178 0.557298 0.016476
O O6 0.528211 0.772408 0.010134
O O7 0.957116 0.771295 0.975662
O O8 0.330375 0.448751 0.847771
O O9 0.761492 0.527076 0.852112
O O10 0.694399 0.260750 0.886922
O O11 0.238502 0.254638 0.247893
O O12 0.987130 0.255253 0.325598
O O13 0.057126 0.060481 0.928367
O O14 0.389836 0.936957 0.213652
#
# Coordination Sequence:
#
# PCOD9240238 Si02
#       7
#     4   4   4   4   4   4   4
#     4   9  19  32  54  82 113 145 183 227 273 341
#     4   9  18  33  55  78 114 146 188 216 282 332
#     4  10  20  35  55  80 112 150 185 230 277 337
#     4  10  18  36  52  76 111 148 185 234 274 331
#     4   9  17  34  55  80 104 155 182 226 270 336
#     4  10  21  33  54  84 113 143 190 229 279 329
#     4   9  19  35  54  76 109 150 188 228 276 330
#
# _framework density 29.761913
#
# number of rings (size 3 to 8) (size 9 to 14) (size 15 to 20)
#    0.857    1.714    1.429    0.857    0.000    2.857 
#    0.000    3.571    0.000    0.857    0.000   23.000 
#    0.000    0.000    0.000    0.000    0.000    0.000 
#
# Total GULP energy -156494.530974 kJ/mol
# GULP energy per Si atom -5589.090392 kJ/mol
# Density = 2.969417 g / cm^3
# Si number density = 29.761913 Si / 1000 Ang^3
#
#
#
# Elastic Constant Matrix: (Units=GPa)
#
#
# Indices 1 2 3 4 5 6 
#
# 1 194.0617 34.3305 37.4298 0.0000 -16.3228 0.0000
# 2 34.3305 104.8301 0.5659 0.0000 -1.3074 0.0000
# 3 37.4298 0.5659 123.2344 0.0000 14.6923 0.0000
# 4 0.0000 0.0000 0.0000 20.1708 0.0000 -0.4206
# 5 -16.3228 -1.3074 14.6923 0.0000 69.4218 0.0000
# 6 0.0000 0.0000 0.0000 -0.4206 0.0000 49.2823
#
#
#
# Elastic Compliance Matrix: (Units=1/GPa)
#
#
# Indices 1 2 3 4 5 6 
#
# 1 0.006044 -0.001946 -0.002043 0.000000 0.001817 0.000000
# 2 -0.001946 0.010168 0.000591 0.000000 -0.000391 0.000000
# 3 -0.002043 0.000591 0.009016 0.000000 -0.002377 0.000000
# 4 0.000000 0.000000 0.000000 0.049585 0.000000 0.000423
# 5 0.001817 -0.000391 -0.002377 0.000000 0.015328 0.000000
# 6 0.000000 0.000000 0.000000 0.000423 0.000000 0.020295
#
#
# Mechanical properties :
#
#
# Convention : Reuss Voigt Hill
#
# Bulk Modulus (GPa) = 54.25349 62.97541 58.61445
# Shear Modulus (GPa) = 40.52612 51.09495 45.81054
#
# Velocity S-wave (km/s) = 3.69409 4.14791 3.92756
# Velocity P-wave (km/s) = 6.03853 6.64424 6.34861
#
# Compressibility (1/GPa) = 0.01843199
#
# Stress axis : x y z
#
# Youngs Moduli (GPa) = 165.44861 98.34413 110.91374
#
# Poissons Ratio (x) = 0.19135 0.22665
# Poissons Ratio (y) = 0.32191 -0.06554
# Poissons Ratio (z) = 0.33809 -0.05811
#
# Static dielectric constant tensor:
#      x y z
#    x 2.375460 0.000000 0.026700 
#    y 0.000000 2.247640 0.000000 
#    z 0.026700 0.000000 2.434710 
# 
# From -- ./inp_files/63547.got.cif
#   From: 2010.05.17/outbox.cif.g08.bks.cpg/sg14_32_cif.got.tgz:63547.got - 2010.06.03 17:49:19.
