data_PCOD9240491
_publ_section_title
;
Structure prediction by ZEFSAII (Michael W. Deem and Ramdas Pophale) SiO2 
 PCOD9240491
Probable space group: P 21/C
;
_chemical_formula_sum "Si O2"
_cell_formula_units_Z 28
_cell_length_a 5.299975
_cell_length_b 15.514603
_cell_length_c 13.292929
_cell_angle_alpha 90.000000
_cell_angle_beta 118.350533
_cell_angle_gamma 90.000000
_cell_volume 961.937605
_symmetry_space_group_name_H-M "P 21/C"
_symmetry_group_IT_number 14
_symmetry_cell_setting 'monoclinic'
loop_
_space_group_symop_operation_xyz
x,y,z
-x,1/2+y,1/2-z
-x,-y,-z
x,1/2-y,1/2+z
loop_
_atom_site_type_symbol
_atom_site_label
_atom_site_fract_x
_atom_site_fract_y
_atom_site_fract_z
Si Si1 0.932363 0.008444 0.617619
Si Si2 0.931883 0.274356 0.360379
Si Si3 0.446602 0.885818 0.748923
Si Si4 0.341423 0.618091 0.471077
Si Si5 0.791321 0.856574 0.462200
Si Si6 0.102334 0.261440 0.673328
Si Si7 0.055758 0.052802 0.861862
O O1 0.259468 0.968074 0.682394
O O2 0.731360 0.935025 0.528846
O O3 0.954619 0.092633 0.552239
O O4 0.893151 0.031077 0.726932
O O5 0.197369 0.227384 0.464547
O O6 0.990922 0.279631 0.252979
O O7 0.876345 0.372000 0.382351
O O8 0.719268 0.194968 0.330451
O O9 0.436578 0.883707 0.868775
O O10 0.759554 0.854675 0.775911
O O11 0.631407 0.599213 0.587285
O O12 0.140529 0.533087 0.436482
O O13 0.165931 0.707904 0.446034
O O14 0.682973 0.804075 0.342730
#
# Coordination Sequence:
#
# PCOD9240491 Si02
#       7
#     4   4   4   4   4   4   4
#     4   9  19  38  62  87 124 164 199 256 321 361
#     4  10  21  37  63  91 124 164 207 259 308 374
#     4   9  20  39  60  93 127 161 211 260 303 376
#     4   9  21  37  62  89 124 165 208 260 310 370
#     4  10  20  38  63  88 121 163 205 255 311 373
#     4  11  21  40  63  92 124 165 210 258 313 373
#     4  10  18  39  62  91 126 165 208 260 313 371
#
# _framework density 29.107917
#
# number of rings (size 3 to 8) (size 9 to 14) (size 15 to 20)
#    0.000    2.286    1.429    1.714    0.000    2.286 
#    2.571   10.714    0.000    0.000    0.000    0.000 
#    0.000    0.000    0.000    0.000    0.000    0.000 
#
# Total GULP energy -156137.388180 kJ/mol
# GULP energy per Si atom -5576.335292 kJ/mol
# Density = 2.904167 g / cm^3
# Si number density = 29.107917 Si / 1000 Ang^3
#
#
#
# Elastic Constant Matrix: (Units=GPa)
#
#
# Indices 1 2 3 4 5 6 
#
# 1 60.6825 27.4803 6.1129 0.0000 12.8752 0.0000
# 2 27.4803 200.1224 51.4973 0.0000 -5.8191 0.0000
# 3 6.1129 51.4973 109.5540 0.0000 -15.7640 0.0000
# 4 0.0000 0.0000 0.0000 72.3810 0.0000 -3.7607
# 5 12.8752 -5.8191 -15.7640 0.0000 22.9578 0.0000
# 6 0.0000 0.0000 0.0000 -3.7607 0.0000 47.6482
#
#
#
# Elastic Compliance Matrix: (Units=1/GPa)
#
#
# Indices 1 2 3 4 5 6 
#
# 1 0.020815 -0.002788 -0.001811 0.000000 -0.013624 0.000000
# 2 -0.002788 0.006062 -0.002494 0.000000 0.001388 0.000000
# 3 -0.001811 -0.002494 0.011603 0.000000 0.008351 0.000000
# 4 0.000000 0.000000 0.000000 0.013873 0.000000 0.001095
# 5 -0.013624 0.001388 0.008351 0.000000 0.057284 0.000000
# 6 0.000000 0.000000 0.000000 0.001095 0.000000 0.021074
#
#
# Mechanical properties :
#
#
# Convention : Reuss Voigt Hill
#
# Bulk Modulus (GPa) = 41.16485 60.06000 50.61242
# Shear Modulus (GPa) = 32.68064 47.61530 40.14797
#
# Velocity S-wave (km/s) = 3.35437 4.04891 3.71789
# Velocity P-wave (km/s) = 5.40141 6.52201 5.98798
#
# Compressibility (1/GPa) = 0.02429257
#
# Stress axis : x y z
#
# Youngs Moduli (GPa) = 48.04237 164.96113 86.18418
#
# Poissons Ratio (x) = 0.45997 0.15609
# Poissons Ratio (y) = 0.13396 0.21497
# Poissons Ratio (z) = 0.08701 0.41146
#
# Static dielectric constant tensor:
#      x y z
#    x 2.417540 0.000000 0.118290 
#    y 0.000000 2.297580 0.000000 
#    z 0.118290 0.000000 2.439550 
# 
# From -- ./inp_files/41024.got.cif
#   From: 2010.05.17/outbox.cif.g08.bks.cpg/sg14_21_cif.got.tgz:41024.got - 2010.06.03 17:49:19.
