data_PCOD9241244
_publ_section_title
;
Structure prediction by ZEFSAII (Michael W. Deem and Ramdas Pophale) SiO2 
 PCOD9241244
Probable space group: P 21/C
;
_chemical_formula_sum "Si O2"
_cell_formula_units_Z 24
_cell_length_a 6.902213
_cell_length_b 11.832098
_cell_length_c 15.420267
_cell_angle_alpha 90.000000
_cell_angle_beta 131.659465
_cell_angle_gamma 90.000000
_cell_volume 940.861634
_symmetry_space_group_name_H-M "P 21/C"
_symmetry_group_IT_number 14
_symmetry_cell_setting 'monoclinic'
loop_
_space_group_symop_operation_xyz
x,y,z
-x,1/2+y,1/2-z
-x,-y,-z
x,1/2-y,1/2+z
loop_
_atom_site_type_symbol
_atom_site_label
_atom_site_fract_x
_atom_site_fract_y
_atom_site_fract_z
Si Si1 0.679997 0.766639 0.571789
Si Si2 0.205662 0.492576 0.949821
Si Si3 0.801114 0.967044 0.173729
Si Si4 0.272222 0.946473 0.113704
Si Si5 0.839124 0.871042 0.801135
Si Si6 0.840474 0.279348 0.997622
O O1 0.807311 0.643898 0.615018
O O2 0.734579 0.816587 0.683739
O O3 0.368652 0.764047 0.484267
O O4 0.806165 0.856015 0.543064
O O5 0.001318 0.531708 0.814483
O O6 0.500000 0.500000 0.000000
O O7 0.169296 0.585607 0.014169
O O8 0.513585 0.975385 0.124613
O O9 0.889518 0.071825 0.143782
O O10 0.249530 0.810247 0.102695
O O11 0.321515 0.019841 0.214665
O O12 0.000000 0.000000 0.000000
O O13 0.891617 0.774061 0.887053
#
# Coordination Sequence:
#
# PCOD9241244 Si02
#       6
#     4   4   4   4   4   4
#     4   9  18  31  56  85 110 158 185 230 294 336
#     4   9  17  32  57  84 114 149 194 230 286 352
#     4  10  19  35  59  84 114 155 190 234 298 334
#     4   9  20  34  55  84 109 150 192 239 285 334
#     4  10  19  35  57  82 117 144 197 242 275 355
#     4   9  17  33  56  82 112 148 186 238 291 335
#
# _framework density 25.508533
#
# number of rings (size 3 to 8) (size 9 to 14) (size 15 to 20)
#    0.000    2.667    1.667    0.000    0.000    6.000 
#    0.000    6.667    0.000   20.000    0.000    0.000 
#    0.000    0.000    0.000    0.000    0.000    0.000 
#
# Total GULP energy -133917.877158 kJ/mol
# GULP energy per Si atom -5579.911548 kJ/mol
# Density = 2.545047 g / cm^3
# Si number density = 25.508533 Si / 1000 Ang^3
#
#
#
# Elastic Constant Matrix: (Units=GPa)
#
#
# Indices 1 2 3 4 5 6 
#
# 1 86.3922 37.9061 22.7623 0.0000 15.8063 0.0000
# 2 37.9061 208.8275 30.6733 0.0000 6.6973 0.0000
# 3 22.7623 30.6733 83.9010 0.0000 15.1540 0.0000
# 4 0.0000 0.0000 0.0000 41.3863 0.0000 -9.5719
# 5 15.8063 6.6973 15.1540 0.0000 29.9619 0.0000
# 6 0.0000 0.0000 0.0000 -9.5719 0.0000 52.3001
#
#
#
# Elastic Compliance Matrix: (Units=1/GPa)
#
#
# Indices 1 2 3 4 5 6 
#
# 1 0.014102 -0.002076 -0.001989 0.000000 -0.005970 0.000000
# 2 -0.002076 0.005367 -0.001519 0.000000 0.000664 0.000000
# 3 -0.001989 -0.001519 0.014046 0.000000 -0.005716 0.000000
# 4 0.000000 0.000000 0.000000 0.025231 0.000000 0.004618
# 5 -0.005970 0.000664 -0.005716 0.000000 0.039267 0.000000
# 6 0.000000 0.000000 0.000000 0.004618 0.000000 0.019966
#
#
# Mechanical properties :
#
#
# Convention : Reuss Voigt Hill
#
# Bulk Modulus (GPa) = 44.74668 62.42269 53.58468
# Shear Modulus (GPa) = 36.60430 43.91492 40.25961
#
# Velocity S-wave (km/s) = 3.79223 4.15369 3.97707
# Velocity P-wave (km/s) = 6.06255 6.89410 6.49166
#
# Compressibility (1/GPa) = 0.02234803
#
# Stress axis : x y z
#
# Youngs Moduli (GPa) = 70.91041 186.31248 71.19502
#
# Poissons Ratio (x) = 0.38684 0.14158
# Poissons Ratio (y) = 0.14723 0.10813
# Poissons Ratio (z) = 0.14102 0.28298
#
# Static dielectric constant tensor:
#      x y z
#    x 2.052970 0.000000 -0.014520 
#    y 0.000000 2.081560 0.000000 
#    z -0.014520 0.000000 2.087090 
# 
# From -- ./inp_files/39310.got.cif
#   From: 2010.05.17/outbox.cif.g08.bks.cpg/sg14_20_cif.got.tgz:39310.got - 2010.06.03 17:49:19.
