data_PCOD9241276
_publ_section_title
;
Structure prediction by ZEFSAII (Michael W. Deem and Ramdas Pophale) SiO2 
 PCOD9241276
Probable space group: P 21/C
;
_chemical_formula_sum "Si O2"
_cell_formula_units_Z 28
_cell_length_a 13.120316
_cell_length_b 7.951100
_cell_length_c 21.464054
_cell_angle_alpha 90.000000
_cell_angle_beta 152.467698
_cell_angle_gamma 90.000000
_cell_volume 1035.044166
_symmetry_space_group_name_H-M "P 21/C"
_symmetry_group_IT_number 14
_symmetry_cell_setting 'monoclinic'
loop_
_space_group_symop_operation_xyz
x,y,z
-x,1/2+y,1/2-z
-x,-y,-z
x,1/2-y,1/2+z
loop_
_atom_site_type_symbol
_atom_site_label
_atom_site_fract_x
_atom_site_fract_y
_atom_site_fract_z
Si Si1 0.822686 0.043888 0.963168
Si Si2 0.169656 0.941776 0.331029
Si Si3 0.711030 0.987354 0.241981
Si Si4 0.432893 0.202971 0.709868
Si Si5 0.170243 0.413151 0.956762
Si Si6 0.816201 0.139282 0.792341
Si Si7 0.278220 0.916540 0.945405
O O1 0.672573 0.882779 0.862423
O O2 0.695794 0.198354 0.862227
O O3 0.789662 0.089274 0.018512
O O4 0.079728 0.987817 0.100758
O O5 0.256909 0.963764 0.308009
O O6 0.239346 0.758065 0.390040
O O7 0.248227 0.061538 0.429143
O O8 0.904159 0.964523 0.185029
O O9 0.664652 0.878665 0.278962
O O10 0.966973 0.962000 0.362648
O O11 0.680195 0.191341 0.233665
O O12 0.537969 0.950654 0.093156
O O13 0.355943 0.086027 0.609944
O O14 0.040256 0.237872 0.892271
#
# Coordination Sequence:
#
# PCOD9241276 Si02
#       7
#     4   4   4   4   4   4   4
#     4   9  20  33  56  87 113 147 187 238 282 329
#     4  11  19  35  55  87 111 146 192 235 283 336
#     4   9  19  37  59  85 108 152 196 232 271 342
#     4  10  19  35  58  87 112 149 192 238 271 342
#     4   9  19  31  56  85 108 144 189 234 269 329
#     4   8  18  35  55  84 107 145 189 234 267 331
#     4  10  21  36  60  82 112 149 192 244 273 341
#
# _framework density 27.051984999999998
#
# number of rings (size 3 to 8) (size 9 to 14) (size 15 to 20)
#    0.857    1.714    1.429    0.429    4.000    2.286 
#    0.000    0.000    0.000   18.857    0.000    0.000 
#    0.000    0.000    0.000    0.000    0.000    0.000 
#
# Total GULP energy -156349.820145 kJ/mol
# GULP energy per Si atom -5583.922148 kJ/mol
# Density = 2.699041 g / cm^3
# Si number density = 27.051985 Si / 1000 Ang^3
#
#
#
# Elastic Constant Matrix: (Units=GPa)
#
#
# Indices 1 2 3 4 5 6 
#
# 1 58.7883 24.5553 46.6611 0.0000 -11.8238 0.0000
# 2 24.5553 55.8037 40.0980 0.0000 -15.6379 0.0000
# 3 46.6611 40.0980 195.7884 0.0000 -26.0247 0.0000
# 4 0.0000 0.0000 0.0000 52.3021 0.0000 -14.4456
# 5 -11.8238 -15.6379 -26.0247 0.0000 53.9940 0.0000
# 6 0.0000 0.0000 0.0000 -14.4456 0.0000 44.1554
#
#
#
# Elastic Compliance Matrix: (Units=1/GPa)
#
#
# Indices 1 2 3 4 5 6 
#
# 1 0.023351 -0.007111 -0.003956 0.000000 0.001147 0.000000
# 2 -0.007111 0.024149 -0.002701 0.000000 0.004135 0.000000
# 3 -0.003956 -0.002701 0.006822 0.000000 0.001639 0.000000
# 4 0.000000 0.000000 0.000000 0.021019 0.000000 0.006876
# 5 0.001147 0.004135 0.001639 0.000000 0.020759 0.000000
# 6 0.000000 0.000000 0.000000 0.006876 0.000000 0.024897
#
#
# Mechanical properties :
#
#
# Convention : Reuss Voigt Hill
#
# Bulk Modulus (GPa) = 37.33541 59.22325 48.27933
# Shear Modulus (GPa) = 31.75359 43.36136 37.55747
#
# Velocity S-wave (km/s) = 3.42979 4.00795 3.73009
# Velocity P-wave (km/s) = 5.43286 6.58469 6.03631
#
# Compressibility (1/GPa) = 0.02678423
#
# Stress axis : x y z
#
# Youngs Moduli (GPa) = 42.82421 41.40988 146.59330
#
# Poissons Ratio (x) = 0.29446 0.57997
# Poissons Ratio (y) = 0.30452 0.39601
# Poissons Ratio (z) = 0.16943 0.11187
#
# Static dielectric constant tensor:
#      x y z
#    x 2.253240 0.000000 0.019800 
#    y 0.000000 2.108430 0.000000 
#    z 0.019800 0.000000 2.113020 
# 
# From -- ./inp_files/80509.got.cif
#   From: 2010.05.17/outbox.cif.g08.bks.cpg/sg14_41_cif.got.tgz:80509.got - 2010.06.03 17:49:19.
