data_PCOD9241434
_publ_section_title
;
Structure prediction by ZEFSAII (Michael W. Deem and Ramdas Pophale) SiO2 
 PCOD9241434
Probable space group: P 21/C
;
_chemical_formula_sum "Si O2"
_cell_formula_units_Z 28
_cell_length_a 9.040703
_cell_length_b 11.967080
_cell_length_c 11.277546
_cell_angle_alpha 90.000000
_cell_angle_beta 75.192874
_cell_angle_gamma 90.000000
_cell_volume 1179.608456
_symmetry_space_group_name_H-M "P 21/C"
_symmetry_group_IT_number 14
_symmetry_cell_setting 'monoclinic'
loop_
_space_group_symop_operation_xyz
x,y,z
-x,1/2+y,1/2-z
-x,-y,-z
x,1/2-y,1/2+z
loop_
_atom_site_type_symbol
_atom_site_label
_atom_site_fract_x
_atom_site_fract_y
_atom_site_fract_z
Si Si1 0.581002 0.286072 0.363596
Si Si2 0.819077 0.219177 0.135443
Si Si3 0.237956 0.355392 0.421848
Si Si4 0.062901 0.207821 0.759206
Si Si5 0.180409 0.555526 0.589503
Si Si6 0.326358 0.605582 0.965392
Si Si7 0.671720 0.575204 0.838345
O O1 0.655083 0.222070 0.236475
O O2 0.401330 0.298554 0.398682
O O3 0.668545 0.402664 0.371667
O O4 0.625347 0.209995 0.464423
O O5 0.947510 0.214197 0.211381
O O6 0.834126 0.130910 0.027333
O O7 0.812378 0.345366 0.082056
O O8 0.188992 0.429138 0.543005
O O9 0.269034 0.444965 0.307116
O O10 0.119994 0.269895 0.382707
O O11 0.961452 0.095012 0.801075
O O12 0.223211 0.185259 0.658940
O O13 0.487511 0.578360 0.867923
O O14 0.289263 0.507960 0.064192
#
# Coordination Sequence:
#
# PCOD9241434 Si02
#       7
#     4   4   4   4   4   4   4
#     4  10  20  34  57  83 106 140 190 226 270 327
#     4  10  19  36  56  81 112 142 189 217 271 332
#     4  10  19  37  54  81 113 137 182 231 270 321
#     4   9  21  35  52  82 111 145 180 226 267 326
#     4  10  20  34  60  79 109 153 175 224 279 326
#     4  10  19  36  58  77 105 149 180 230 274 321
#     4   9  20  35  55  78 109 143 183 225 278 313
#
# _framework density 23.736689999999999
#
# number of rings (size 3 to 8) (size 9 to 14) (size 15 to 20)
#    0.857    1.429    1.429    1.714    0.000    1.714 
#    0.000    0.000    6.286    0.000    0.000    0.000 
#    0.000    0.000    0.000    0.000    0.000    0.000 
#
# Total GULP energy -155923.675652 kJ/mol
# GULP energy per Si atom -5568.702702 kJ/mol
# Density = 2.368266 g / cm^3
# Si number density = 23.736690 Si / 1000 Ang^3
#
#
#
# Elastic Constant Matrix: (Units=GPa)
#
#
# Indices 1 2 3 4 5 6 
#
# 1 104.7306 13.2122 12.6246 0.0000 3.8825 0.0000
# 2 13.2122 37.1939 17.6361 0.0000 -3.0855 0.0000
# 3 12.6246 17.6361 76.5861 0.0000 -11.0867 0.0000
# 4 0.0000 0.0000 0.0000 24.7038 0.0000 -3.1862
# 5 3.8825 -3.0855 -11.0867 0.0000 33.0695 0.0000
# 6 0.0000 0.0000 0.0000 -3.1862 0.0000 12.8557
#
#
#
# Elastic Compliance Matrix: (Units=1/GPa)
#
#
# Indices 1 2 3 4 5 6 
#
# 1 0.010168 -0.003193 -0.001216 0.000000 -0.001899 0.000000
# 2 -0.003193 0.031193 -0.006496 0.000000 0.001107 0.000000
# 3 -0.001216 -0.006496 0.015436 0.000000 0.004711 0.000000
# 4 0.000000 0.000000 0.000000 0.041816 0.000000 0.010364
# 5 -0.001899 0.001107 0.004711 0.000000 0.032145 0.000000
# 6 0.000000 0.000000 0.000000 0.010364 0.000000 0.080355
#
#
# Mechanical properties :
#
#
# Convention : Reuss Voigt Hill
#
# Bulk Modulus (GPa) = 28.58290 33.93961 31.26125
# Shear Modulus (GPa) = 20.44275 25.79497 23.11886
#
# Velocity S-wave (km/s) = 2.93786 3.30011 3.12424
# Velocity P-wave (km/s) = 4.85549 5.37125 5.11987
#
# Compressibility (1/GPa) = 0.03498596
#
# Stress axis : x y z
#
# Youngs Moduli (GPa) = 98.34688 32.05894 64.78521
#
# Poissons Ratio (x) = 0.10237 0.07876
# Poissons Ratio (y) = 0.31403 0.42087
# Poissons Ratio (z) = 0.11957 0.20827
#
# Static dielectric constant tensor:
#      x y z
#    x 1.990760 0.000000 0.008260 
#    y 0.000000 1.972440 0.000000 
#    z 0.008260 0.000000 2.008610 
# 
# From -- ./inp_files/25193.got.cif
#   From: 2010.05.17/outbox.cif.g08.bks.cpg/sg14_13_cif.got.tgz:25193.got - 2010.06.03 17:49:19.
