data_PCOD9241819
_publ_section_title
;
Structure prediction by ZEFSAII (Michael W. Deem and Ramdas Pophale) SiO2 
 PCOD9241819
Probable space group: P 21/C
;
_chemical_formula_sum "Si O2"
_cell_formula_units_Z 32
_cell_length_a 15.512903
_cell_length_b 11.338915
_cell_length_c 8.953494
_cell_angle_alpha 90.000000
_cell_angle_beta 75.891935
_cell_angle_gamma 90.000000
_cell_volume 1527.411978
_symmetry_space_group_name_H-M "P 21/C"
_symmetry_group_IT_number 14
_symmetry_cell_setting 'monoclinic'
loop_
_space_group_symop_operation_xyz
x,y,z
-x,1/2+y,1/2-z
-x,-y,-z
x,1/2-y,1/2+z
loop_
_atom_site_type_symbol
_atom_site_label
_atom_site_fract_x
_atom_site_fract_y
_atom_site_fract_z
Si Si1 0.349504 0.233794 0.794602
Si Si2 0.067190 0.673225 0.305495
Si Si3 0.888985 0.602959 0.300423
Si Si4 0.806206 0.260225 0.009380
Si Si5 0.948809 0.887182 0.460831
Si Si6 0.223467 0.323742 0.083147
Si Si7 0.255285 0.586876 0.698065
Si Si8 0.584660 0.915733 0.954762
O O1 0.280863 0.171420 0.709058
O O2 0.417734 0.307732 0.663162
O O3 0.291666 0.326349 0.917150
O O4 0.392054 0.144103 0.895410
O O5 0.139597 0.670675 0.405528
O O6 0.120256 0.680347 0.128523
O O7 0.984235 0.584265 0.337679
O O8 0.014780 0.797188 0.353425
O O9 0.823213 0.694393 0.407631
O O10 0.835486 0.485369 0.291074
O O11 0.911106 0.665419 0.132363
O O12 0.742157 0.189202 0.926886
O O13 0.755561 0.351921 0.136829
O O14 0.860952 0.908647 0.398859
O O15 0.000000 0.000000 0.500000
O O16 0.334665 0.497624 0.635720
O O17 0.500000 0.000000 0.000000
#
# Coordination Sequence:
#
# PCOD9241819 Si02
#       8
#     4   4   4   4   4   4   4   4
#     4  10  20  44  71 102 129 170 217 270 334 412
#     4  10  21  36  53  85 126 175 226 281 315 385
#     4  11  20  34  60  86 123 179 228 270 331 366
#     4  10  22  40  58  86 135 175 229 270 334 406
#     4  11  20  32  54  88 128 177 225 282 329 369
#     4  10  19  37  64  89 132 172 226 275 324 393
#     4  11  23  43  65  89 129 178 218 277 343 404
#     4  11  25  47  76 106 136 165 213 279 347 411
#
# _framework density 20.950469999999999
#
# number of rings (size 3 to 8) (size 9 to 14) (size 15 to 20)
#    0.000    1.500    5.000    1.500    0.000    1.500 
#    2.250    6.250    0.000    0.000    0.000    0.000 
#    0.000    0.000    0.000    0.000    0.000    0.000 
#
# Total GULP energy -178731.226306 kJ/mol
# GULP energy per Si atom -5585.350822 kJ/mol
# Density = 2.090279 g / cm^3
# Si number density = 20.950470 Si / 1000 Ang^3
#
#
#
# Elastic Constant Matrix: (Units=GPa)
#
#
# Indices 1 2 3 4 5 6 
#
# 1 91.9256 39.5519 48.1460 0.0000 -2.8381 0.0000
# 2 39.5519 82.8196 45.2388 0.0000 -0.1622 0.0000
# 3 48.1460 45.2388 138.4792 0.0000 1.8714 0.0000
# 4 0.0000 0.0000 0.0000 33.0600 0.0000 -2.5432
# 5 -2.8381 -0.1622 1.8714 0.0000 19.4037 0.0000
# 6 0.0000 0.0000 0.0000 -2.5432 0.0000 41.7050
#
#
#
# Elastic Compliance Matrix: (Units=1/GPa)
#
#
# Indices 1 2 3 4 5 6 
#
# 1 0.015081 -0.005252 -0.003561 0.000000 0.002505 0.000000
# 2 -0.005252 0.016533 -0.003571 0.000000 -0.000286 0.000000
# 3 -0.003561 -0.003571 0.009646 0.000000 -0.001481 0.000000
# 4 0.000000 0.000000 0.000000 0.030391 0.000000 0.001853
# 5 0.002505 -0.000286 -0.001481 0.000000 0.052044 0.000000
# 6 0.000000 0.000000 0.000000 0.001853 0.000000 0.024091
#
#
# Mechanical properties :
#
#
# Convention : Reuss Voigt Hill
#
# Bulk Modulus (GPa) = 60.63978 64.34418 62.49198
# Shear Modulus (GPa) = 28.08201 30.85292 29.46747
#
# Velocity S-wave (km/s) = 3.66512 3.84169 3.75444
# Velocity P-wave (km/s) = 6.84967 7.10333 6.97765
#
# Compressibility (1/GPa) = 0.01649082
#
# Stress axis : x y z
#
# Youngs Moduli (GPa) = 66.31042 60.48646 103.66821
#
# Poissons Ratio (x) = 0.31766 0.36920
# Poissons Ratio (y) = 0.34825 0.37022
# Poissons Ratio (z) = 0.23616 0.21601
#
# Static dielectric constant tensor:
#      x y z
#    x 1.769120 0.000000 0.016240 
#    y 0.000000 1.785870 0.000000 
#    z 0.016240 0.000000 1.804270 
# 
# From -- ./inp_files/15805.got.cif
#   From: 2010.05.17/outbox.cif.g08.bks.cpg/sg14_8_cif.got.tgz:15805.got - 2010.06.03 17:49:19.
