data_PCOD9241271
_publ_section_title
;
Structure prediction by ZEFSAII (Michael W. Deem and Ramdas Pophale) SiO2 
 PCOD9241271
Probable space group: P 21/C
;
_chemical_formula_sum "Si O2"
_cell_formula_units_Z 24
_cell_length_a 7.968316
_cell_length_b 14.948452
_cell_length_c 9.951626
_cell_angle_alpha 90.000000
_cell_angle_beta 96.481888
_cell_angle_gamma 90.000000
_cell_volume 1177.800452
_symmetry_space_group_name_H-M "P 21/C"
_symmetry_group_IT_number 14
_symmetry_cell_setting 'monoclinic'
loop_
_space_group_symop_operation_xyz
x,y,z
-x,1/2+y,1/2-z
-x,-y,-z
x,1/2-y,1/2+z
loop_
_atom_site_type_symbol
_atom_site_label
_atom_site_fract_x
_atom_site_fract_y
_atom_site_fract_z
Si Si1 0.883232 0.114339 0.102607
Si Si2 0.459008 0.711053 0.128824
Si Si3 0.654610 0.614025 0.616628
Si Si4 0.764174 0.297284 0.155119
Si Si5 0.506654 0.059796 0.169270
Si Si6 0.967234 0.058132 0.808112
O O1 0.899106 0.219610 0.128518
O O2 0.009952 0.048905 0.194001
O O3 0.633710 0.302488 0.020664
O O4 0.903274 0.087305 0.949697
O O5 0.605374 0.783548 0.125234
O O6 0.329100 0.758875 0.221030
O O7 0.518027 0.618709 0.201358
O O8 0.626454 0.584945 0.458510
O O9 0.527043 0.546788 0.684036
O O10 0.842168 0.595238 0.682002
O O11 0.691087 0.090063 0.128309
O O12 0.851211 0.391513 0.192017
#
# Coordination Sequence:
#
# PCOD9241271 Si02
#       6
#     4   4   4   4   4   4
#     4   9  18  36  57  82 111 155 186 223 285 346
#     4  11  20  38  61  81 113 155 193 224 285 348
#     4  10  19  35  58  86 114 146 192 240 280 333
#     4  11  20  38  59  83 113 154 193 226 283 355
#     4   9  19  36  60  82 111 156 193 224 282 350
#     4  10  20  33  59  88 115 143 195 240 278 333
#
# _framework density 20.376965999999999
#
# number of rings (size 3 to 8) (size 9 to 14) (size 15 to 20)
#    0.000    2.000    5.000    0.000    0.000    1.333 
#    0.000    8.333    0.000    0.000    0.000    0.000 
#    0.000    0.000    0.000    0.000    0.000    0.000 
#
# Total GULP energy -133968.617450 kJ/mol
# GULP energy per Si atom -5582.025727 kJ/mol
# Density = 2.033059 g / cm^3
# Si number density = 20.376966 Si / 1000 Ang^3
#
#
#
# Elastic Constant Matrix: (Units=GPa)
#
#
# Indices 1 2 3 4 5 6 
#
# 1 31.6209 3.4950 2.7302 0.0000 1.4894 0.0000
# 2 3.4950 83.8792 17.4438 0.0000 11.5417 0.0000
# 3 2.7302 17.4438 50.7103 0.0000 10.9472 0.0000
# 4 0.0000 0.0000 0.0000 36.8636 0.0000 7.0823
# 5 1.4894 11.5417 10.9472 0.0000 15.2101 0.0000
# 6 0.0000 0.0000 0.0000 7.0823 0.0000 25.4127
#
#
#
# Elastic Compliance Matrix: (Units=1/GPa)
#
#
# Indices 1 2 3 4 5 6 
#
# 1 0.031892 -0.000877 -0.001048 0.000000 -0.001704 0.000000
# 2 -0.000877 0.013690 -0.002887 0.000000 -0.008225 0.000000
# 3 -0.001048 -0.002887 0.024004 0.000000 -0.014983 0.000000
# 4 0.000000 0.000000 0.000000 0.028662 0.000000 -0.007988
# 5 -0.001704 -0.008225 -0.014983 0.000000 0.082938 0.000000
# 6 0.000000 0.000000 0.000000 -0.007988 0.000000 0.041577
#
#
# Mechanical properties :
#
#
# Convention : Reuss Voigt Hill
#
# Bulk Modulus (GPa) = 16.67645 23.72760 20.20203
# Shear Modulus (GPa) = 19.81199 25.00005 22.40602
#
# Velocity S-wave (km/s) = 3.12151 3.50648 3.31958
# Velocity P-wave (km/s) = 4.60364 5.29750 4.96271
#
# Compressibility (1/GPa) = 0.05996479
#
# Stress axis : x y z
#
# Youngs Moduli (GPa) = 31.35561 73.04336 41.66015
#
# Poissons Ratio (x) = 0.06403 0.04365
# Poissons Ratio (y) = 0.02749 0.12025
# Poissons Ratio (z) = 0.03285 0.21084
#
# Static dielectric constant tensor:
#      x y z
#    x 1.750470 0.000000 -0.018640 
#    y 0.000000 1.786290 0.000000 
#    z -0.018640 0.000000 1.695590 
# 
# From -- ./inp_files/25018.got.cif
#   From: 2010.05.17/outbox.cif.g08.bks.cpg/sg14_13_cif.got.tgz:25018.got - 2010.06.03 17:49:19.
