data_PCOD9241792
_publ_section_title
;
Structure prediction by ZEFSAII (Michael W. Deem and Ramdas Pophale) SiO2 
 PCOD9241792
Probable space group: P 21/C
;
_chemical_formula_sum "Si O2"
_cell_formula_units_Z 32
_cell_length_a 22.167755
_cell_length_b 8.637006
_cell_length_c 13.992027
_cell_angle_alpha 90.000000
_cell_angle_beta 31.513637
_cell_angle_gamma 90.000000
_cell_volume 1400.294247
_symmetry_space_group_name_H-M "P 21/C"
_symmetry_group_IT_number 14
_symmetry_cell_setting 'monoclinic'
loop_
_space_group_symop_operation_xyz
x,y,z
-x,1/2+y,1/2-z
-x,-y,-z
x,1/2-y,1/2+z
loop_
_atom_site_type_symbol
_atom_site_label
_atom_site_fract_x
_atom_site_fract_y
_atom_site_fract_z
Si Si1 0.273414 0.001152 0.273636
Si Si2 0.928887 0.704363 0.270070
Si Si3 0.116855 0.645665 0.867095
Si Si4 0.071343 0.236673 0.023590
Si Si5 0.788484 0.582077 0.816312
Si Si6 0.320803 0.849003 0.405952
Si Si7 0.588949 0.838797 0.072517
Si Si8 0.744507 0.014635 0.991482
O O1 0.227286 0.840552 0.288266
O O2 0.306263 0.968124 0.338138
O O3 0.169225 0.127466 0.401361
O O4 0.376236 0.069195 0.070941
O O5 0.985073 0.736995 0.295720
O O6 0.872564 0.841913 0.283756
O O7 0.819588 0.601877 0.450996
O O8 0.019573 0.618551 0.080058
O O9 0.178646 0.527302 0.709624
O O10 0.035203 0.738843 0.904788
O O11 0.141450 0.096339 0.877445
O O12 0.746995 0.417935 0.911319
O O13 0.673397 0.689415 0.964255
O O14 0.453184 0.817653 0.253874
O O15 0.270279 0.682900 0.447676
O O16 0.626690 0.940149 0.113366
#
# Coordination Sequence:
#
# PCOD9241792 Si02
#       8
#     4   4   4   4   4   4   4   4
#     4  10  20  36  60  87 115 154 207 243 286 365
#     4  10  19  39  63  83 118 170 194 228 303 372
#     4  10  21  40  61  87 120 161 200 241 291 363
#     4  10  19  37  63  85 117 161 198 235 298 365
#     4   9  20  38  60  86 117 151 204 245 294 363
#     4  12  21  36  59  91 118 150 203 260 302 339
#     4   9  20  40  63  78 114 165 201 241 307 366
#     4  10  22  38  59  90 123 152 199 255 299 351
#
# _framework density 22.852340999999999
#
# number of rings (size 3 to 8) (size 9 to 14) (size 15 to 20)
#    0.000    2.000    1.250    4.875    1.750    0.000 
#    4.500    2.500    0.000    3.000    0.000    0.000 
#    0.000    0.000    0.000    0.000    0.000    0.000 
#
# Total GULP energy -178202.578549 kJ/mol
# GULP energy per Si atom -5568.830580 kJ/mol
# Density = 2.280033 g / cm^3
# Si number density = 22.852341 Si / 1000 Ang^3
#
#
#
# Elastic Constant Matrix: (Units=GPa)
#
#
# Indices 1 2 3 4 5 6 
#
# 1 75.3379 -7.8714 31.1961 0.0000 11.6674 0.0000
# 2 -7.8714 21.5832 -0.5161 0.0000 -7.8563 0.0000
# 3 31.1961 -0.5161 61.2221 0.0000 -9.0292 0.0000
# 4 0.0000 0.0000 0.0000 7.9851 0.0000 -5.0383
# 5 11.6674 -7.8563 -9.0292 0.0000 25.3913 0.0000
# 6 0.0000 0.0000 0.0000 -5.0383 0.0000 10.1590
#
#
#
# Elastic Compliance Matrix: (Units=1/GPa)
#
#
# Indices 1 2 3 4 5 6 
#
# 1 0.020757 0.002457 -0.012507 0.000000 -0.013225 0.000000
# 2 0.002457 0.053024 0.001528 0.000000 0.015820 0.000000
# 3 -0.012507 0.001528 0.024945 0.000000 0.015090 0.000000
# 4 0.000000 0.000000 0.000000 0.182270 0.000000 0.090396
# 5 -0.013225 0.015820 0.015090 0.000000 0.055722 0.000000
# 6 0.000000 0.000000 0.000000 0.090396 0.000000 0.143266
#
#
# Mechanical properties :
#
#
# Convention : Reuss Voigt Hill
#
# Bulk Modulus (GPa) = 12.24244 22.64007 17.44126
# Shear Modulus (GPa) = 9.53735 17.72939 13.63337
#
# Velocity S-wave (km/s) = 2.04512 2.78838 2.44516
# Velocity P-wave (km/s) = 3.30840 4.50504 3.95227
#
# Compressibility (1/GPa) = 0.08168305
#
# Stress axis : x y z
#
# Youngs Moduli (GPa) = 48.17590 18.85956 40.08764
#
# Poissons Ratio (x) = -0.04634 0.50137
# Poissons Ratio (y) = -0.11837 -0.06126
# Poissons Ratio (z) = 0.60253 -0.02882
#
# Static dielectric constant tensor:
#      x y z
#    x 1.915350 0.000000 0.039360 
#    y 0.000000 1.967770 0.000000 
#    z 0.039360 0.000000 1.838270 
# 
# From -- ./inp_files/51355.got.cif
#   From: 2010.05.17/outbox.cif.g08.bks.cpg/sg14_26_cif.got.tgz:51355.got - 2010.06.03 17:49:19.
