data_PCOD9241097
_publ_section_title
;
Structure prediction by ZEFSAII (Michael W. Deem and Ramdas Pophale) SiO2 
 PCOD9241097
Probable space group: P 21/C
;
_chemical_formula_sum "Si O2"
_cell_formula_units_Z 28
_cell_length_a 16.423235
_cell_length_b 7.979508
_cell_length_c 22.265779
_cell_angle_alpha 90.000000
_cell_angle_beta 20.458636
_cell_angle_gamma 90.000000
_cell_volume 1019.902141
_symmetry_space_group_name_H-M "P 21/C"
_symmetry_group_IT_number 14
_symmetry_cell_setting 'monoclinic'
loop_
_space_group_symop_operation_xyz
x,y,z
-x,1/2+y,1/2-z
-x,-y,-z
x,1/2-y,1/2+z
loop_
_atom_site_type_symbol
_atom_site_label
_atom_site_fract_x
_atom_site_fract_y
_atom_site_fract_z
Si Si1 0.062721 0.960224 0.703767
Si Si2 0.773673 0.360834 0.695857
Si Si3 0.678044 0.732355 0.515899
Si Si4 0.538034 0.719978 0.865795
Si Si5 0.929449 0.873726 0.667329
Si Si6 0.335564 0.404932 0.844732
Si Si7 0.152419 0.971017 0.991552
O O1 0.265099 0.817081 0.563873
O O2 0.859504 0.919624 0.891239
O O3 0.935199 0.961881 0.727552
O O4 0.196534 0.135266 0.615590
O O5 0.643221 0.534169 0.801536
O O6 0.848603 0.388335 0.575690
O O7 0.988874 0.366221 0.592721
O O8 0.584398 0.212917 0.827144
O O9 0.661918 0.829421 0.589823
O O10 0.675047 0.839702 0.816626
O O11 0.615558 0.786045 0.746265
O O12 0.045546 0.690906 0.597528
O O13 0.105509 0.979328 0.502441
O O14 0.579648 0.507447 0.677922
#
# Coordination Sequence:
#
# PCOD9241097 Si02
#       7
#     4   4   4   4   4   4   4
#     4  10  20  41  57  84 116 162 188 242 281 348
#     4   8  17  33  54  79 116 141 182 239 281 332
#     4   9  20  38  60  80 121 154 198 236 288 338
#     4  10  19  36  61  81 113 151 188 234 297 342
#     4  10  20  35  59  82 115 149 191 233 292 344
#     4  10  19  34  58  85 112 146 185 243 289 342
#     4   9  16  31  54  81 106 145 179 231 291 323
#
# _framework density 27.453616
#
# number of rings (size 3 to 8) (size 9 to 14) (size 15 to 20)
#    0.000    2.571    1.429    1.286    0.000    0.000 
#    7.714    9.286   12.571    0.000    0.000    0.000 
#    0.000    0.000    0.000    0.000    0.000    0.000 
#
# Total GULP energy -156702.989550 kJ/mol
# GULP energy per Si atom -5596.535341 kJ/mol
# Density = 2.739113 g / cm^3
# Si number density = 27.453616 Si / 1000 Ang^3
#
#
#
# Elastic Constant Matrix: (Units=GPa)
#
#
# Indices 1 2 3 4 5 6 
#
# 1 60.1617 -15.2199 18.0914 0.0000 -16.7043 0.0000
# 2 -15.2199 85.0608 14.1298 0.0000 -6.3072 0.0000
# 3 18.0914 14.1298 130.5276 0.0000 -3.4954 0.0000
# 4 0.0000 0.0000 0.0000 46.6217 0.0000 0.0640
# 5 -16.7043 -6.3072 -3.4954 0.0000 40.1673 0.0000
# 6 0.0000 0.0000 0.0000 0.0640 0.0000 32.1872
#
#
#
# Elastic Compliance Matrix: (Units=1/GPa)
#
#
# Indices 1 2 3 4 5 6 
#
# 1 0.021528 0.005099 -0.003282 0.000000 0.009468 0.000000
# 2 0.005099 0.013306 -0.002039 0.000000 0.004033 0.000000
# 3 -0.003282 -0.002039 0.008311 0.000000 -0.000962 0.000000
# 4 0.000000 0.000000 0.000000 0.021449 0.000000 -0.000043
# 5 0.009468 0.004033 -0.000962 0.000000 0.029383 0.000000
# 6 0.000000 0.000000 0.000000 -0.000043 0.000000 0.031068
#
#
# Mechanical properties :
#
#
# Convention : Reuss Voigt Hill
#
# Bulk Modulus (GPa) = 23.41881 34.41697 28.91789
# Shear Modulus (GPa) = 35.78492 41.04516 38.41504
#
# Velocity S-wave (km/s) = 3.61427 3.87081 3.74474
# Velocity P-wave (km/s) = 5.09570 5.70449 5.40867
#
# Compressibility (1/GPa) = 0.04270071
#
# Stress axis : x y z
#
# Youngs Moduli (GPa) = 46.45183 75.15160 120.32060
#
# Poissons Ratio (x) = -0.38321 0.39492
# Poissons Ratio (y) = -0.23687 0.24536
# Poissons Ratio (z) = 0.15247 0.15325
#
# Static dielectric constant tensor:
#      x y z
#    x 2.232480 0.000000 0.020960 
#    y 0.000000 2.214800 0.000000 
#    z 0.020960 0.000000 2.208580 
# 
# From -- ./inp_files/74342.got.cif
#   From: 2010.05.17/outbox.cif.g08.bks.cpg/sg14_38_cif.got.tgz:74342.got - 2010.06.03 17:49:19.
