data_PCOD9241102
_publ_section_title
;
Structure prediction by ZEFSAII (Michael W. Deem and Ramdas Pophale) SiO2 
 PCOD9241102
Probable space group: P 21/C
;
_chemical_formula_sum "Si O2"
_cell_formula_units_Z 28
_cell_length_a 14.772756
_cell_length_b 9.180278
_cell_length_c 17.062764
_cell_angle_alpha 90.000000
_cell_angle_beta 36.003819
_cell_angle_gamma 90.000000
_cell_volume 1360.270460
_symmetry_space_group_name_H-M "P 21/C"
_symmetry_group_IT_number 14
_symmetry_cell_setting 'monoclinic'
loop_
_space_group_symop_operation_xyz
x,y,z
-x,1/2+y,1/2-z
-x,-y,-z
x,1/2-y,1/2+z
loop_
_atom_site_type_symbol
_atom_site_label
_atom_site_fract_x
_atom_site_fract_y
_atom_site_fract_z
Si Si1 0.648565 0.956984 0.048788
Si Si2 0.495832 0.036575 0.410379
Si Si3 0.528977 0.779374 0.820910
Si Si4 0.755631 0.822091 0.517188
Si Si5 0.720796 0.564996 0.317623
Si Si6 0.324054 0.693121 0.768253
Si Si7 0.049852 0.567159 0.048330
O O1 0.781081 0.851081 0.988355
O O2 0.485739 0.877900 0.184035
O O3 0.622746 0.124012 0.089780
O O4 0.665002 0.951576 0.944218
O O5 0.341836 0.120150 0.489048
O O6 0.634071 0.145414 0.289167
O O7 0.500000 0.000000 0.500000
O O8 0.503291 0.889738 0.353912
O O9 0.650138 0.823816 0.669153
O O10 0.605272 0.837644 0.847899
O O11 0.891366 0.934150 0.439071
O O12 0.721336 0.407835 0.274211
O O13 0.892963 0.630381 0.193427
O O14 0.191520 0.671388 0.925654
O O15 0.000000 0.500000 0.000000
#
# Coordination Sequence:
#
# PCOD9241102 Si02
#       7
#     4   4   4   4   4   4   4
#     4  10  19  34  58  89 111 151 201 253 295 357
#     4  11  23  36  59  95 128 152 195 268 314 351
#     4  11  19  35  61  90 117 155 204 251 306 364
#     4  11  21  37  61  85 122 155 210 248 302 367
#     4  10  19  36  64  84 121 161 203 243 312 368
#     4   9  18  36  61  84 116 153 204 240 304 362
#     4  10  19  39  62  85 116 166 203 248 303 374
#
# _framework density 20.584140000000001
#
# number of rings (size 3 to 8) (size 9 to 14) (size 15 to 20)
#    0.000    1.714    4.286    5.143    2.000    0.000 
#    0.000    5.000    0.000    0.000    0.000    0.000 
#    0.000    0.000    0.000    0.000    0.000    0.000 
#
# Total GULP energy -156170.661607 kJ/mol
# GULP energy per Si atom -5577.523629 kJ/mol
# Density = 2.053729 g / cm^3
# Si number density = 20.584140 Si / 1000 Ang^3
#
#
#
# Elastic Constant Matrix: (Units=GPa)
#
#
# Indices 1 2 3 4 5 6 
#
# 1 64.1448 13.0791 7.7956 0.0000 -0.1154 0.0000
# 2 13.0791 136.2078 16.9965 0.0000 -8.1949 0.0000
# 3 7.7956 16.9965 68.8161 0.0000 -9.7479 0.0000
# 4 0.0000 0.0000 0.0000 20.3941 0.0000 2.8791
# 5 -0.1154 -8.1949 -9.7479 0.0000 25.9528 0.0000
# 6 0.0000 0.0000 0.0000 2.8791 0.0000 30.4174
#
#
#
# Elastic Compliance Matrix: (Units=1/GPa)
#
#
# Indices 1 2 3 4 5 6 
#
# 1 0.016070 -0.001401 -0.001613 0.000000 -0.000977 0.000000
# 2 -0.001401 0.007776 -0.001495 0.000000 0.001888 0.000000
# 3 -0.001613 -0.001495 0.015859 0.000000 0.005478 0.000000
# 4 0.000000 0.000000 0.000000 0.049698 0.000000 -0.004704
# 5 -0.000977 0.001888 0.005478 0.000000 0.041181 0.000000
# 6 0.000000 0.000000 0.000000 -0.004704 0.000000 0.033321
#
#
# Mechanical properties :
#
#
# Convention : Reuss Voigt Hill
#
# Bulk Modulus (GPa) = 32.58469 38.32345 35.45407
# Shear Modulus (GPa) = 27.29996 30.77268 29.03632
#
# Velocity S-wave (km/s) = 3.64574 3.87068 3.75989
# Velocity P-wave (km/s) = 5.79536 6.21567 6.00919
#
# Compressibility (1/GPa) = 0.03068926
#
# Stress axis : x y z
#
# Youngs Moduli (GPa) = 62.22944 128.59606 63.05478
#
# Poissons Ratio (x) = 0.18011 0.10170
# Poissons Ratio (y) = 0.08716 0.09424
# Poissons Ratio (z) = 0.10036 0.19219
#
# Static dielectric constant tensor:
#      x y z
#    x 1.772440 0.000000 -0.020750 
#    y 0.000000 1.560920 0.000000 
#    z -0.020750 0.000000 1.781830 
# 
# From -- ./inp_files/59032.got.cif
#   From: 2010.05.17/outbox.cif.g08.bks.cpg/sg14_30_cif.got.tgz:59032.got - 2010.06.03 17:49:19.
