data_PCOD9241521
_publ_section_title
;
Structure prediction by ZEFSAII (Michael W. Deem and Ramdas Pophale) SiO2 
 PCOD9241521
Probable space group: P 21/C
;
_chemical_formula_sum "Si O2"
_cell_formula_units_Z 32
_cell_length_a 14.615093
_cell_length_b 15.588209
_cell_length_c 14.712898
_cell_angle_alpha 90.000000
_cell_angle_beta 152.705298
_cell_angle_gamma 90.000000
_cell_volume 1537.089619
_symmetry_space_group_name_H-M "P 21/C"
_symmetry_group_IT_number 14
_symmetry_cell_setting 'monoclinic'
loop_
_space_group_symop_operation_xyz
x,y,z
-x,1/2+y,1/2-z
-x,-y,-z
x,1/2-y,1/2+z
loop_
_atom_site_type_symbol
_atom_site_label
_atom_site_fract_x
_atom_site_fract_y
_atom_site_fract_z
Si Si1 0.474525 0.115231 0.011175
Si Si2 0.747146 0.408623 0.921548
Si Si3 0.406768 0.673994 0.054068
Si Si4 0.343982 0.310772 0.905605
Si Si5 0.849605 0.294105 0.781373
Si Si6 0.493011 0.831550 0.250616
Si Si7 0.215041 0.077254 0.622155
Si Si8 0.106693 0.780229 0.988958
O O1 0.559641 0.092767 0.185401
O O2 0.676003 0.134626 0.131805
O O3 0.374852 0.208396 0.929993
O O4 0.316252 0.063821 0.810491
O O5 0.662696 0.407233 0.948826
O O6 0.870532 0.489478 0.994576
O O7 0.871116 0.319773 0.022837
O O8 0.539923 0.656856 0.082177
O O9 0.520651 0.738588 0.224907
O O10 0.211526 0.729681 0.852293
O O11 0.107825 0.322020 0.695657
O O12 0.417859 0.338384 0.069865
O O13 0.822062 0.233428 0.844944
O O14 0.056800 0.344932 0.974162
O O15 0.601328 0.897563 0.281193
O O16 0.257347 0.835566 0.061631
#
# Coordination Sequence:
#
# PCOD9241521 Si02
#       8
#     4   4   4   4   4   4   4   4
#     4  10  19  38  60  87 119 151 192 243 294 352
#     4  10  23  39  57  90 127 152 189 242 303 354
#     4  10  19  40  59  84 120 150 199 245 278 355
#     4  11  19  37  63  86 108 155 200 245 288 329
#     4  10  19  36  60  85 114 150 198 240 285 342
#     4  11  21  35  59  86 114 150 205 237 287 349
#     4  12  23  37  60  89 123 159 185 242 308 350
#     4  10  20  37  59  86 113 147 199 244 282 348
#
# _framework density 20.818565
#
# number of rings (size 3 to 8) (size 9 to 14) (size 15 to 20)
#    0.000    1.500    8.750    0.375    3.500    2.000 
#    2.250    0.625    0.000    0.750    0.000    0.000 
#    0.000    0.000    0.000    0.000    0.000    0.000 
#
# Total GULP energy -178239.768946 kJ/mol
# GULP energy per Si atom -5569.992780 kJ/mol
# Density = 2.077118 g / cm^3
# Si number density = 20.818565 Si / 1000 Ang^3
#
#
#
# Elastic Constant Matrix: (Units=GPa)
#
#
# Indices 1 2 3 4 5 6 
#
# 1 111.0194 3.2835 53.3443 0.0000 -9.9794 0.0000
# 2 3.2835 14.7724 -1.2889 0.0000 2.8476 0.0000
# 3 53.3443 -1.2889 87.7124 0.0000 10.2252 0.0000
# 4 0.0000 0.0000 0.0000 14.7462 0.0000 -1.7816
# 5 -9.9794 2.8476 10.2252 0.0000 31.0582 0.0000
# 6 0.0000 0.0000 0.0000 -1.7816 0.0000 21.8829
#
#
#
# Elastic Compliance Matrix: (Units=1/GPa)
#
#
# Indices 1 2 3 4 5 6 
#
# 1 0.014804 -0.005832 -0.010093 0.000000 0.008614 0.000000
# 2 -0.005832 0.071489 0.005802 0.000000 -0.010339 0.000000
# 3 -0.010093 0.005802 0.018786 0.000000 -0.009960 0.000000
# 4 0.000000 0.000000 0.000000 0.068488 0.000000 0.005576
# 5 0.008614 -0.010339 -0.009960 0.000000 0.039192 0.000000
# 6 0.000000 0.000000 0.000000 0.005576 0.000000 0.046152
#
#
# Mechanical properties :
#
#
# Convention : Reuss Voigt Hill
#
# Bulk Modulus (GPa) = 11.78778 36.02022 23.90400
# Shear Modulus (GPa) = 16.26366 24.08183 20.17274
#
# Velocity S-wave (km/s) = 2.79804 3.40479 3.11622
# Velocity P-wave (km/s) = 4.01412 5.72681 4.94517
#
# Compressibility (1/GPa) = 0.08483359
#
# Stress axis : x y z
#
# Youngs Moduli (GPa) = 67.54892 13.98817 53.23175
#
# Poissons Ratio (x) = 0.08157 0.53729
# Poissons Ratio (y) = 0.39393 -0.30888
# Poissons Ratio (z) = 0.68180 -0.08117
#
# Static dielectric constant tensor:
#      x y z
#    x 1.802970 0.000000 -0.005260 
#    y 0.000000 1.775940 0.000000 
#    z -0.005260 0.000000 1.819090 
# 
# From -- ./inp_files/47546.got.cif
#   From: 2010.05.17/outbox.cif.g08.bks.cpg/sg14_24_cif.got.tgz:47546.got - 2010.06.03 17:49:19.
