data_PCOD9241768
_publ_section_title
;
Structure prediction by ZEFSAII (Michael W. Deem and Ramdas Pophale) SiO2 
 PCOD9241768
Probable space group: P 21/C
;
_chemical_formula_sum "Si O2"
_cell_formula_units_Z 28
_cell_length_a 9.169389
_cell_length_b 13.003438
_cell_length_c 18.209495
_cell_angle_alpha 90.000000
_cell_angle_beta 41.777278
_cell_angle_gamma 90.000000
_cell_volume 1446.522177
_symmetry_space_group_name_H-M "P 21/C"
_symmetry_group_IT_number 14
_symmetry_cell_setting 'monoclinic'
loop_
_space_group_symop_operation_xyz
x,y,z
-x,1/2+y,1/2-z
-x,-y,-z
x,1/2-y,1/2+z
loop_
_atom_site_type_symbol
_atom_site_label
_atom_site_fract_x
_atom_site_fract_y
_atom_site_fract_z
Si Si1 0.820641 0.541941 0.814232
Si Si2 0.256382 0.276689 0.038120
Si Si3 0.984141 0.377997 0.009520
Si Si4 0.518966 0.154774 0.641149
Si Si5 0.729460 0.554876 0.391829
Si Si6 0.836505 0.683706 0.215491
Si Si7 0.712088 0.319118 0.911327
O O1 0.805145 0.639196 0.875246
O O2 0.625258 0.556617 0.828593
O O3 0.760187 0.440197 0.883234
O O4 0.056828 0.519438 0.688911
O O5 0.225006 0.158328 0.076477
O O6 0.122636 0.316338 0.018007
O O7 0.520295 0.286384 0.928753
O O8 0.063668 0.350033 0.898386
O O9 0.000000 0.500000 0.000000
O O10 0.725760 0.357405 0.114887
O O11 0.342672 0.233320 0.735872
O O12 0.612273 0.199317 0.529142
O O13 0.500000 0.500000 0.500000
O O14 0.728544 0.597764 0.308251
O O15 0.046425 0.728074 0.181649
#
# Coordination Sequence:
#
# PCOD9241768 Si02
#       7
#     4   4   4   4   4   4   4
#     4  10  20  38  66  94 114 169 224 257 320 391
#     4  11  21  41  65  97 127 167 216 286 319 385
#     4  11  23  42  63  92 132 166 219 269 325 398
#     4  10  19  37  62  84 119 168 205 257 316 381
#     4  11  24  38  65 102 132 164 221 280 333 388
#     4  10  21  41  60  91 122 173 205 261 335 386
#     4   9  18  35  65  86 116 153 222 257 303 384
#
# _framework density 19.356773
#
# number of rings (size 3 to 8) (size 9 to 14) (size 15 to 20)
#    0.000    1.714    2.857    5.143    2.000    0.000 
#   12.857    0.000    0.000    1.714    0.000    0.000 
#    0.000    0.000    0.000    0.000    0.000    0.000 
#
# Total GULP energy -155934.757234 kJ/mol
# GULP energy per Si atom -5569.098473 kJ/mol
# Density = 1.931272 g / cm^3
# Si number density = 19.356773 Si / 1000 Ang^3
#
#
#
# Elastic Constant Matrix: (Units=GPa)
#
#
# Indices 1 2 3 4 5 6 
#
# 1 134.6903 44.9291 51.9804 0.0000 -30.1926 0.0000
# 2 44.9291 86.3845 40.3405 0.0000 -8.4133 0.0000
# 3 51.9804 40.3405 115.2312 0.0000 -29.1082 0.0000
# 4 0.0000 0.0000 0.0000 43.7841 0.0000 -2.7229
# 5 -30.1926 -8.4133 -29.1082 0.0000 35.5536 0.0000
# 6 0.0000 0.0000 0.0000 -2.7229 0.0000 25.8007
#
#
#
# Elastic Compliance Matrix: (Units=1/GPa)
#
#
# Indices 1 2 3 4 5 6 
#
# 1 0.011086 -0.004273 -0.001743 0.000000 0.006977 0.000000
# 2 -0.004273 0.015507 -0.004401 0.000000 -0.003562 0.000000
# 3 -0.001743 -0.004401 0.013072 0.000000 0.008180 0.000000
# 4 0.000000 0.000000 0.000000 0.022990 0.000000 0.002426
# 5 0.006977 -0.003562 0.008180 0.000000 0.039906 0.000000
# 6 0.000000 0.000000 0.000000 0.002426 0.000000 0.039015
#
#
# Mechanical properties :
#
#
# Convention : Reuss Voigt Hill
#
# Bulk Modulus (GPa) = 53.10298 67.86734 60.48516
# Shear Modulus (GPa) = 29.64103 34.29808 31.96955
#
# Velocity S-wave (km/s) = 3.91743 4.21395 4.06839
# Velocity P-wave (km/s) = 6.92496 7.66902 7.30647
#
# Compressibility (1/GPa) = 0.01883134
#
# Stress axis : x y z
#
# Youngs Moduli (GPa) = 90.20240 64.48830 76.50210
#
# Poissons Ratio (x) = 0.27553 0.13333
# Poissons Ratio (y) = 0.38540 0.33669
# Poissons Ratio (z) = 0.15721 0.28382
#
# Static dielectric constant tensor:
#      x y z
#    x 1.780890 0.000000 0.031480 
#    y 0.000000 1.626310 0.000000 
#    z 0.031480 0.000000 1.774890 
# 
# From -- ./inp_files/65546.got.cif
#   From: 2010.05.17/outbox.cif.g08.bks.cpg/sg14_33_cif.got.tgz:65546.got - 2010.06.03 17:49:19.
