data_PCOD9241992
_publ_section_title
;
Structure prediction by ZEFSAII (Michael W. Deem and Ramdas Pophale) SiO2 
 PCOD9241992
Probable space group: P 21/C
;
_chemical_formula_sum "Si O2"
_cell_formula_units_Z 24
_cell_length_a 12.244779
_cell_length_b 10.734848
_cell_length_c 12.701673
_cell_angle_alpha 90.000000
_cell_angle_beta 135.153304
_cell_angle_gamma 90.000000
_cell_volume 1177.409787
_symmetry_space_group_name_H-M "P 21/C"
_symmetry_group_IT_number 14
_symmetry_cell_setting 'monoclinic'
loop_
_space_group_symop_operation_xyz
x,y,z
-x,1/2+y,1/2-z
-x,-y,-z
x,1/2-y,1/2+z
loop_
_atom_site_type_symbol
_atom_site_label
_atom_site_fract_x
_atom_site_fract_y
_atom_site_fract_z
Si Si1 0.315320 0.339101 0.584667
Si Si2 0.062126 0.265340 0.261429
Si Si3 0.169331 0.137978 0.619321
Si Si4 0.399777 0.568834 0.341602
Si Si5 0.890470 0.427166 0.506210
Si Si6 0.868536 0.263877 0.812308
O O1 0.224455 0.260614 0.433281
O O2 0.271667 0.260638 0.659083
O O3 0.487673 0.361246 0.662920
O O4 0.235137 0.474894 0.539025
O O5 0.098806 0.350967 0.187442
O O6 0.937958 0.313693 0.262234
O O7 0.989872 0.138802 0.165346
O O8 0.015443 0.147036 0.442025
O O9 0.286839 0.023781 0.699830
O O10 0.500000 0.500000 0.500000
O O11 0.283161 0.661691 0.320528
O O12 0.830024 0.316042 0.389697
O O13 0.000000 0.500000 0.500000
#
# Coordination Sequence:
#
# PCOD9241992 Si02
#       6
#     4   4   4   4   4   4
#     4  11  23  41  64  94 130 168 204 275 321 372
#     4  10  19  38  64  92 120 162 214 255 308 378
#     4  10  22  42  63  93 127 166 217 258 315 382
#     4  12  24  40  66  91 133 165 209 265 324 374
#     4  11  20  41  66  93 124 167 216 262 312 377
#     4  10  23  39  66  96 121 167 222 252 318 383
#
# _framework density 20.383728000000001
#
# number of rings (size 3 to 8) (size 9 to 14) (size 15 to 20)
#    0.000    1.333    6.667    1.500    2.333    0.000 
#    3.000    0.000    0.000    6.000    0.000    0.000 
#    0.000    0.000    0.000    0.000    0.000    0.000 
#
# Total GULP energy -133793.270217 kJ/mol
# GULP energy per Si atom -5574.719592 kJ/mol
# Density = 2.033733 g / cm^3
# Si number density = 20.383728 Si / 1000 Ang^3
#
#
#
# Elastic Constant Matrix: (Units=GPa)
#
#
# Indices 1 2 3 4 5 6 
#
# 1 138.2697 32.7404 40.4460 0.0000 16.5765 0.0000
# 2 32.7404 57.5490 20.4317 0.0000 11.2937 0.0000
# 3 40.4460 20.4317 54.2761 0.0000 -1.1209 0.0000
# 4 0.0000 0.0000 0.0000 27.2548 0.0000 17.4388
# 5 16.5765 11.2937 -1.1209 0.0000 35.7803 0.0000
# 6 0.0000 0.0000 0.0000 17.4388 0.0000 42.3847
#
#
#
# Elastic Compliance Matrix: (Units=1/GPa)
#
#
# Indices 1 2 3 4 5 6 
#
# 1 0.010350 -0.002656 -0.006799 0.000000 -0.004170 0.000000
# 2 -0.002656 0.022412 -0.006582 0.000000 -0.006050 0.000000
# 3 -0.006799 -0.006582 0.026093 0.000000 0.006045 0.000000
# 4 0.000000 0.000000 0.000000 0.049801 0.000000 -0.020490
# 5 -0.004170 -0.006050 0.006045 0.000000 0.031979 0.000000
# 6 0.000000 0.000000 0.000000 -0.020490 0.000000 0.032024
#
#
# Mechanical properties :
#
#
# Convention : Reuss Voigt Hill
#
# Bulk Modulus (GPa) = 37.34064 48.59233 42.96649
# Shear Modulus (GPa) = 23.40160 31.51575 27.45868
#
# Velocity S-wave (km/s) = 3.39197 3.93634 3.67425
# Velocity P-wave (km/s) = 5.80510 6.67460 6.25498
#
# Compressibility (1/GPa) = 0.02678047
#
# Stress axis : x y z
#
# Youngs Moduli (GPa) = 96.62036 44.61948 38.32384
#
# Poissons Ratio (x) = 0.11851 0.26056
# Poissons Ratio (y) = 0.25663 0.25226
# Poissons Ratio (z) = 0.65690 0.29370
#
# Static dielectric constant tensor:
#      x y z
#    x 1.729450 0.000000 -0.039720 
#    y 0.000000 1.791480 0.000000 
#    z -0.039720 0.000000 1.748370 
# 
# From -- ./inp_files/28749.got.cif
#   From: 2010.05.17/outbox.cif.g08.bks.cpg/sg14_15_cif.got.tgz:28749.got - 2010.06.03 17:49:19.
