data_PCOD9241025
_publ_section_title
;
Structure prediction by ZEFSAII (Michael W. Deem and Ramdas Pophale) SiO2 
 PCOD9241025
Probable space group: P 21/C
;
_chemical_formula_sum "Si O2"
_cell_formula_units_Z 28
_cell_length_a 15.582775
_cell_length_b 17.756050
_cell_length_c 7.390502
_cell_angle_alpha 90.000000
_cell_angle_beta 44.982363
_cell_angle_gamma 90.000000
_cell_volume 1445.494265
_symmetry_space_group_name_H-M "P 21/C"
_symmetry_group_IT_number 14
_symmetry_cell_setting 'monoclinic'
loop_
_space_group_symop_operation_xyz
x,y,z
-x,1/2+y,1/2-z
-x,-y,-z
x,1/2-y,1/2+z
loop_
_atom_site_type_symbol
_atom_site_label
_atom_site_fract_x
_atom_site_fract_y
_atom_site_fract_z
Si Si1 0.867906 0.054130 0.892608
Si Si2 0.627804 0.646028 0.043831
Si Si3 0.675757 0.807102 0.865428
Si Si4 0.246779 0.996758 0.572872
Si Si5 0.392664 0.923429 0.833001
Si Si6 0.485072 0.922987 0.282092
Si Si7 0.872063 0.577824 0.101758
O O1 0.879900 0.975041 0.766878
O O2 0.840724 0.040576 0.146306
O O3 0.992696 0.096853 0.667868
O O4 0.749042 0.090886 0.977082
O O5 0.685440 0.667323 0.146390
O O6 0.484373 0.634368 0.289457
O O7 0.658973 0.717913 0.879889
O O8 0.687360 0.565394 0.913960
O O9 0.793112 0.848896 0.771573
O O10 0.557433 0.848276 0.123706
O O11 0.185265 0.028700 0.481930
O O12 0.361383 0.942216 0.358986
O O13 0.443997 0.920790 0.551221
O O14 0.422644 0.006078 0.869336
#
# Coordination Sequence:
#
# PCOD9241025 Si02
#       7
#     4   4   4   4   4   4   4
#     4  10  19  34  56  77 110 139 174 225 257 321
#     4  10  22  31  54  78 106 144 169 229 276 316
#     4  11  21  34  51  80 109 137 183 219 271 327
#     4   9  20  35  54  82 105 138 184 226 268 310
#     4   9  17  32  52  78 103 137 172 214 275 309
#     4   9  17  30  54  76 105 135 169 230 264 307
#     4  10  21  32  54  81 105 142 178 217 264 316
#
# _framework density 19.370538
#
# number of rings (size 3 to 8) (size 9 to 14) (size 15 to 20)
#    0.000    2.286    1.429    2.143    4.000    1.714 
#    0.000    0.000    0.000   12.000    0.000    0.000 
#    0.000    0.000    0.000    0.000    0.000    0.000 
#
# Total GULP energy -155963.761245 kJ/mol
# GULP energy per Si atom -5570.134330 kJ/mol
# Density = 1.932645 g / cm^3
# Si number density = 19.370538 Si / 1000 Ang^3
#
#
#
# Elastic Constant Matrix: (Units=GPa)
#
#
# Indices 1 2 3 4 5 6 
#
# 1 21.9253 -11.5493 -1.4503 0.0000 -7.0797 0.0000
# 2 -11.5493 52.8872 14.0200 0.0000 -8.8643 0.0000
# 3 -1.4503 14.0200 90.6544 0.0000 -18.2626 0.0000
# 4 0.0000 0.0000 0.0000 16.2238 0.0000 2.5737
# 5 -7.0797 -8.8643 -18.2626 0.0000 34.0198 0.0000
# 6 0.0000 0.0000 0.0000 2.5737 0.0000 9.9341
#
#
#
# Elastic Compliance Matrix: (Units=1/GPa)
#
#
# Indices 1 2 3 4 5 6 
#
# 1 0.059502 0.015372 0.002103 0.000000 0.017517 0.000000
# 2 0.015372 0.024167 -0.001770 0.000000 0.008546 0.000000
# 3 0.002103 -0.001770 0.012708 0.000000 0.006798 0.000000
# 4 0.000000 0.000000 0.000000 0.064280 0.000000 -0.016653
# 5 0.017517 0.008546 0.006798 0.000000 0.038916 0.000000
# 6 0.000000 0.000000 0.000000 -0.016653 0.000000 0.104977
#
#
# Mechanical properties :
#
#
# Convention : Reuss Voigt Hill
#
# Bulk Modulus (GPa) = 7.82541 18.61196 13.21869
# Shear Modulus (GPa) = 15.83606 22.99864 19.41735
#
# Velocity S-wave (km/s) = 2.86236 3.44946 3.16953
# Velocity P-wave (km/s) = 3.86946 5.04919 4.49817
#
# Compressibility (1/GPa) = 0.12778886
#
# Stress axis : x y z
#
# Youngs Moduli (GPa) = 16.80602 41.37929 78.69152
#
# Poissons Ratio (x) = -0.63610 -0.16553
# Poissons Ratio (y) = -0.25835 0.13928
# Poissons Ratio (z) = -0.03535 0.07324
#
# Static dielectric constant tensor:
#      x y z
#    x 1.751850 0.000000 0.000930 
#    y 0.000000 2.154810 0.000000 
#    z 0.000930 0.000000 1.707500 
# 
# From -- ./inp_files/13537.got.cif
#   From: 2010.05.17/outbox.cif.g08.bks.cpg/sg14_7_cif.got.tgz:13537.got - 2010.06.03 17:49:19.
