data_PCOD9241198
_publ_section_title
;
Structure prediction by ZEFSAII (Michael W. Deem and Ramdas Pophale) SiO2 
 PCOD9241198
Probable space group: P 21/C
;
_chemical_formula_sum "Si O2"
_cell_formula_units_Z 28
_cell_length_a 8.843477
_cell_length_b 10.852804
_cell_length_c 16.858962
_cell_angle_alpha 90.000000
_cell_angle_beta 55.403764
_cell_angle_gamma 90.000000
_cell_volume 1331.948133
_symmetry_space_group_name_H-M "P 21/C"
_symmetry_group_IT_number 14
_symmetry_cell_setting 'monoclinic'
loop_
_space_group_symop_operation_xyz
x,y,z
-x,1/2+y,1/2-z
-x,-y,-z
x,1/2-y,1/2+z
loop_
_atom_site_type_symbol
_atom_site_label
_atom_site_fract_x
_atom_site_fract_y
_atom_site_fract_z
Si Si1 0.742784 0.204884 0.433245
Si Si2 0.122278 0.776085 0.446006
Si Si3 0.927775 0.731941 0.268405
Si Si4 0.469009 0.173472 0.387730
Si Si5 0.776448 0.793317 0.159746
Si Si6 0.126167 0.069885 0.577937
Si Si7 0.828547 0.070453 0.200796
O O1 0.722847 0.223604 0.532973
O O2 0.553707 0.224825 0.444040
O O3 0.892157 0.277560 0.335261
O O4 0.833409 0.067463 0.405651
O O5 0.158606 0.667402 0.374459
O O6 0.944393 0.746627 0.553105
O O7 0.062242 0.896857 0.413378
O O8 0.781972 0.717343 0.240781
O O9 0.870800 0.834954 0.349309
O O10 0.998288 0.612566 0.296176
O O11 0.402384 0.268220 0.340306
O O12 0.293542 0.097034 0.468128
O O13 0.638953 0.096021 0.303439
O O14 0.814662 0.933378 0.172806
#
# Coordination Sequence:
#
# PCOD9241198 Si02
#       7
#     4   4   4   4   4   4   4
#     4  10  19  35  55  81 111 143 184 231 269 321
#     4   9  20  35  57  81 105 144 193 226 268 331
#     4   9  19  34  56  79 102 140 190 224 267 328
#     4  10  22  34  52  83 113 144 182 220 279 340
#     4  10  20  38  55  78 113 144 181 234 277 322
#     4  10  19  35  56  80 109 143 180 232 281 317
#     4  10  20  37  57  80 110 148 184 231 277 321
#
# _framework density 21.021839
#
# number of rings (size 3 to 8) (size 9 to 14) (size 15 to 20)
#    0.000    2.286    0.000    3.000    0.000    2.286 
#    0.000   12.143    0.000    0.000    0.000    0.000 
#    0.000    0.000    0.000    0.000    0.000    0.000 
#
# Total GULP energy -155954.511700 kJ/mol
# GULP energy per Si atom -5569.803989 kJ/mol
# Density = 2.097399 g / cm^3
# Si number density = 21.021839 Si / 1000 Ang^3
#
#
#
# Elastic Constant Matrix: (Units=GPa)
#
#
# Indices 1 2 3 4 5 6 
#
# 1 119.6085 38.1396 30.3202 0.0000 49.3280 0.0000
# 2 38.1396 86.3824 32.6384 0.0000 15.5790 0.0000
# 3 30.3202 32.6384 94.5468 0.0000 27.8686 0.0000
# 4 0.0000 0.0000 0.0000 27.3461 0.0000 -6.3469
# 5 49.3280 15.5790 27.8686 0.0000 46.1986 0.0000
# 6 0.0000 0.0000 0.0000 -6.3469 0.0000 -19.7020
#
#
#
# Elastic Compliance Matrix: (Units=1/GPa)
#
#
# Indices 1 2 3 4 5 6 
#
# 1 0.016448 -0.004731 0.001295 0.000000 -0.016748 0.000000
# 2 -0.004731 0.014841 -0.004403 0.000000 0.002703 0.000000
# 3 0.001295 -0.004403 0.014171 0.000000 -0.008447 0.000000
# 4 0.000000 0.000000 0.000000 0.034024 0.000000 -0.010961
# 5 -0.016748 0.002703 -0.008447 0.000000 0.043712 0.000000
# 6 0.000000 0.000000 0.000000 -0.010961 0.000000 -0.047225
#
#
# Mechanical properties :
#
#
# Convention : Reuss Voigt Hill
#
# Bulk Modulus (GPa) = 33.57616 55.85936 44.71776
# Shear Modulus (GPa) = 49.22401 24.06451 36.64426
#
# Velocity S-wave (km/s) = 4.84422 3.38707 4.17964
# Velocity P-wave (km/s) = 6.87716 6.47503 6.67912
#
# Compressibility (1/GPa) = 0.02978304
#
# Stress axis : x y z
#
# Youngs Moduli (GPa) = 60.79797 67.37921 70.56641
#
# Poissons Ratio (x) = 0.31877 -0.09139
# Poissons Ratio (y) = 0.28763 0.31069
# Poissons Ratio (z) = -0.07874 0.29666
#
# Static dielectric constant tensor:
#      x y z
#    x 1.883930 0.000000 0.077360 
#    y 0.000000 1.760800 0.000000 
#    z 0.077360 0.000000 1.776340 
# 
# From -- ./inp_files/40002.got.cif
#   From: 2010.05.17/outbox.cif.g08.bks.cpg/sg14_21_cif.got.tgz:40002.got - 2010.06.03 17:49:19.
