data_PCOD9241896
_publ_section_title
;
Structure prediction by ZEFSAII (Michael W. Deem and Ramdas Pophale) SiO2 
 PCOD9241896
Probable space group: P 21/C
;
_chemical_formula_sum "Si O2"
_cell_formula_units_Z 20
_cell_length_a 8.315497
_cell_length_b 12.491399
_cell_length_c 18.144397
_cell_angle_alpha 90.000000
_cell_angle_beta 153.841534
_cell_angle_gamma 90.000000
_cell_volume 830.879239
_symmetry_space_group_name_H-M "P 21/C"
_symmetry_group_IT_number 14
_symmetry_cell_setting 'monoclinic'
loop_
_space_group_symop_operation_xyz
x,y,z
-x,1/2+y,1/2-z
-x,-y,-z
x,1/2-y,1/2+z
loop_
_atom_site_type_symbol
_atom_site_label
_atom_site_fract_x
_atom_site_fract_y
_atom_site_fract_z
Si Si1 0.417915 0.254645 0.822605
Si Si2 0.545335 0.710983 0.428810
Si Si3 0.070000 0.374096 0.547533
Si Si4 0.258808 0.119534 0.388764
Si Si5 0.171818 0.425092 0.334745
O O1 0.716352 0.201299 0.891992
O O2 0.281220 0.149602 0.811094
O O3 0.180244 0.337301 0.675747
O O4 0.521697 0.329500 0.934922
O O5 0.146007 0.674004 0.290661
O O6 0.855849 0.648930 0.604687
O O7 0.615875 0.669490 0.376673
O O8 0.620847 0.832979 0.483007
O O9 0.000000 0.500000 0.500000
O O10 0.156559 0.998288 0.328849
O O11 0.500000 0.500000 0.500000
#
# Coordination Sequence:
#
# PCOD9241896 Si02
#       5
#     4   4   4   4   4
#     4  11  23  40  67  99 130 177 231 272 335 412
#     4  10  20  35  58  84 117 163 209 260 325 386
#     4  12  24  42  64  96 139 177 215 281 344 398
#     4  10  19  38  59  85 118 161 216 270 315 384
#     4   9  18  37  63  86 116 166 217 265 319 380
#
# _framework density 24.070886000000002
#
# number of rings (size 3 to 8) (size 9 to 14) (size 15 to 20)
#    0.000    1.600    0.000    8.400    0.000    0.000 
#    0.000   15.000    0.000    0.000    0.000    0.000 
#    0.000    0.000    0.000    0.000    0.000    0.000 
#
# Total GULP energy -111410.915310 kJ/mol
# GULP energy per Si atom -5570.545766 kJ/mol
# Density = 2.401610 g / cm^3
# Si number density = 24.070886 Si / 1000 Ang^3
#
#
#
# Elastic Constant Matrix: (Units=GPa)
#
#
# Indices 1 2 3 4 5 6 
#
# 1 92.2692 41.9024 8.1704 0.0000 -16.2581 0.0000
# 2 41.9024 154.5529 17.3628 0.0000 -1.5096 0.0000
# 3 8.1704 17.3628 82.0761 0.0000 -17.0893 0.0000
# 4 0.0000 0.0000 0.0000 57.3955 0.0000 -2.0208
# 5 -16.2581 -1.5096 -17.0893 0.0000 26.1628 0.0000
# 6 0.0000 0.0000 0.0000 -2.0208 0.0000 35.8755
#
#
#
# Elastic Compliance Matrix: (Units=1/GPa)
#
#
# Indices 1 2 3 4 5 6 
#
# 1 0.014157 -0.003902 0.001390 0.000000 0.009480 0.000000
# 2 -0.003902 0.007712 -0.001916 0.000000 -0.003231 0.000000
# 3 0.001390 -0.001916 0.014592 0.000000 0.010285 0.000000
# 4 0.000000 0.000000 0.000000 0.017458 0.000000 0.000983
# 5 0.009480 -0.003231 0.010285 0.000000 0.050645 0.000000
# 6 0.000000 0.000000 0.000000 0.000983 0.000000 0.027930
#
#
# Mechanical properties :
#
#
# Convention : Reuss Voigt Hill
#
# Bulk Modulus (GPa) = 36.22396 51.52992 43.87694
# Shear Modulus (GPa) = 33.21153 41.31761 37.26457
#
# Velocity S-wave (km/s) = 3.71851 4.14756 3.93888
# Velocity P-wave (km/s) = 5.78947 6.66261 6.24133
#
# Compressibility (1/GPa) = 0.02760604
#
# Stress axis : x y z
#
# Youngs Moduli (GPa) = 70.63550 129.67140 68.53027
#
# Poissons Ratio (x) = 0.50596 -0.09526
# Poissons Ratio (y) = 0.27561 0.13128
# Poissons Ratio (z) = -0.09819 0.24841
#
# Static dielectric constant tensor:
#      x y z
#    x 1.879610 0.000000 0.027340 
#    y 0.000000 1.410230 0.000000 
#    z 0.027340 0.000000 2.057990 
# 
# From -- ./inp_files/55629.got.cif
#   From: 2010.05.17/outbox.cif.g08.bks.cpg/sg14_28_cif.got.tgz:55629.got - 2010.06.03 17:49:19.
