data_PCOD9241569
_publ_section_title
;
Structure prediction by ZEFSAII (Michael W. Deem and Ramdas Pophale) SiO2 
 PCOD9241569
Probable space group: P 21/C
;
_chemical_formula_sum "Si O2"
_cell_formula_units_Z 20
_cell_length_a 11.077832
_cell_length_b 13.713374
_cell_length_c 4.925901
_cell_angle_alpha 90.000000
_cell_angle_beta 77.868229
_cell_angle_gamma 90.000000
_cell_volume 731.603315
_symmetry_space_group_name_H-M "P 21/C"
_symmetry_group_IT_number 14
_symmetry_cell_setting 'monoclinic'
loop_
_space_group_symop_operation_xyz
x,y,z
-x,1/2+y,1/2-z
-x,-y,-z
x,1/2-y,1/2+z
loop_
_atom_site_type_symbol
_atom_site_label
_atom_site_fract_x
_atom_site_fract_y
_atom_site_fract_z
Si Si1 0.334677 0.319566 0.017867
Si Si2 0.384926 0.502451 0.354106
Si Si3 0.056517 0.186243 0.528119
Si Si4 0.883196 0.440513 0.444844
Si Si5 0.706074 0.312165 0.853243
O O1 0.360780 0.229055 0.212989
O O2 0.386674 0.414522 0.141444
O O3 0.190519 0.351351 0.052432
O O4 0.500000 0.500000 0.500000
O O5 0.245532 0.502300 0.555856
O O6 0.387836 0.606102 0.199380
O O7 0.053928 0.217617 0.219438
O O8 0.945138 0.117332 0.668037
O O9 0.830918 0.361924 0.685031
O O10 0.000000 0.500000 0.500000
O O11 0.692908 0.216641 0.670611
#
# Coordination Sequence:
#
# PCOD9241569 Si02
#       5
#     4   4   4   4   4
#     4  10  22  42  66  96 132 174 221 279 340 401
#     4  10  24  44  66  98 135 177 230 280 339 408
#     4  10  19  36  61  91 124 162 210 263 324 390
#     4  10  20  40  65  94 138 166 227 267 342 386
#     4  10  23  43  70 100 138 181 228 281 345 410
#
# _framework density 27.337221
#
# number of rings (size 3 to 8) (size 9 to 14) (size 15 to 20)
#    1.200    0.800    2.000    1.200    0.000    3.200 
#    0.000    6.000    0.000    0.000    0.000    0.000 
#    0.000    0.000    0.000    0.000    0.000    0.000 
#
# Total GULP energy -111937.071179 kJ/mol
# GULP energy per Si atom -5596.853559 kJ/mol
# Density = 2.727500 g / cm^3
# Si number density = 27.337221 Si / 1000 Ang^3
#
#
#
# Elastic Constant Matrix: (Units=GPa)
#
#
# Indices 1 2 3 4 5 6 
#
# 1 206.7335 55.5624 26.4620 0.0000 29.6315 0.0000
# 2 55.5624 102.7656 17.7917 0.0000 13.0955 0.0000
# 3 26.4620 17.7917 81.1515 0.0000 17.7007 0.0000
# 4 0.0000 0.0000 0.0000 -24.8641 0.0000 67.4958
# 5 29.6315 13.0955 17.7007 0.0000 40.9526 0.0000
# 6 0.0000 0.0000 0.0000 67.4958 0.0000 -219.0661
#
#
#
# Elastic Compliance Matrix: (Units=1/GPa)
#
#
# Indices 1 2 3 4 5 6 
#
# 1 0.006140 -0.002787 -0.000681 0.000000 -0.003257 0.000000
# 2 -0.002787 0.011619 -0.001400 0.000000 -0.001094 0.000000
# 3 -0.000681 -0.001400 0.013963 0.000000 -0.005095 0.000000
# 4 0.000000 0.000000 0.000000 -0.245815 0.000000 -0.075737
# 5 -0.003257 -0.001094 -0.005095 0.000000 0.029327 0.000000
# 6 0.000000 0.000000 0.000000 -0.075737 0.000000 -0.027900
#
#
# Mechanical properties :
#
#
# Convention : Reuss Voigt Hill
#
# Bulk Modulus (GPa) = 45.48114 65.58697 55.53405
# Shear Modulus (GPa) = -25.56230 -21.20653 -23.38442
#
# Velocity S-wave (km/s) = -3.06121 -2.78823 -2.92790
# Velocity P-wave (km/s) = 2.04413 3.69842 2.98804
#
# Compressibility (1/GPa) = 0.02198714
#
# Stress axis : x y z
#
# Youngs Moduli (GPa) = 162.86203 86.06252 71.61867
#
# Poissons Ratio (x) = 0.23984 0.04875
# Poissons Ratio (y) = 0.45388 0.10027
# Poissons Ratio (z) = 0.11086 0.12050
#
# Static dielectric constant tensor:
#      x y z
#    x 2.204240 0.000000 -0.044100 
#    y 0.000000 2.175480 0.000000 
#    z -0.044100 0.000000 2.082580 
# 
# From -- ./inp_files/2521.got.cif
#   From: 2010.05.17/outbox.cif.g08.bks.cpg/sg14_2_cif.got.tgz:2521.got - 2010.06.03 17:49:19.
