data_PCOD9241144
_publ_section_title
;
Structure prediction by ZEFSAII (Michael W. Deem and Ramdas Pophale) SiO2 
 PCOD9241144
Probable space group: P 21/C
;
_chemical_formula_sum "Si O2"
_cell_formula_units_Z 32
_cell_length_a 9.414472
_cell_length_b 12.836864
_cell_length_c 13.334245
_cell_angle_alpha 90.000000
_cell_angle_beta 47.926429
_cell_angle_gamma 90.000000
_cell_volume 1196.173096
_symmetry_space_group_name_H-M "P 21/C"
_symmetry_group_IT_number 14
_symmetry_cell_setting 'monoclinic'
loop_
_space_group_symop_operation_xyz
x,y,z
-x,1/2+y,1/2-z
-x,-y,-z
x,1/2-y,1/2+z
loop_
_atom_site_type_symbol
_atom_site_label
_atom_site_fract_x
_atom_site_fract_y
_atom_site_fract_z
Si Si1 0.488399 0.756005 0.020564
Si Si2 0.009853 0.965213 0.610477
Si Si3 0.878127 0.255765 0.040543
Si Si4 0.168974 0.144112 0.032138
Si Si5 0.393987 0.455256 0.731723
Si Si6 0.220996 0.574951 0.561300
Si Si7 0.449370 0.286975 0.233599
Si Si8 0.401649 0.449858 0.952328
O O1 0.309252 0.834570 0.094655
O O2 0.516682 0.698017 0.900739
O O3 0.500450 0.663327 0.094901
O O4 0.684844 0.815770 0.952495
O O5 0.056953 0.843638 0.571591
O O6 0.792163 0.987930 0.743493
O O7 0.174171 0.035519 0.580607
O O8 0.000000 0.000000 0.500000
O O9 0.865809 0.149000 0.984319
O O10 0.664921 0.288046 0.174495
O O11 0.007738 0.228079 0.075608
O O12 0.299351 0.147267 0.868693
O O13 0.096395 0.032603 0.108558
O O14 0.577440 0.468612 0.577383
O O15 0.370525 0.332308 0.766574
O O16 0.419961 0.498297 0.832234
O O17 0.500000 0.500000 0.000000
#
# Coordination Sequence:
#
# PCOD9241144 Si02
#       8
#     4   4   4   4   4   4   4   4
#     4  10  22  41  60  95 128 166 214 267 316 386
#     4  10  19  34  61  88 123 166 208 261 329 376
#     4  10  21  40  63  98 129 165 222 268 317 389
#     4  12  21  42  71  89 129 176 218 257 333 385
#     4   9  19  40  57  90 121 165 209 255 317 393
#     4  10  24  39  67  89 132 174 213 257 328 391
#     4  10  22  41  66  88 128 169 206 274 321 372
#     4  11  20  33  60  89 126 158 208 269 329 360
#
# _framework density 26.751982000000002
#
# number of rings (size 3 to 8) (size 9 to 14) (size 15 to 20)
#    0.000    2.000    2.500    3.000    5.250    0.000 
#    0.000    7.500    5.500    0.000    0.000    0.000 
#    0.000    0.000    0.000    0.000    0.000    0.000 
#
# Total GULP energy -178532.916508 kJ/mol
# GULP energy per Si atom -5579.153641 kJ/mol
# Density = 2.669109 g / cm^3
# Si number density = 26.751982 Si / 1000 Ang^3
#
#
#
# Elastic Constant Matrix: (Units=GPa)
#
#
# Indices 1 2 3 4 5 6 
#
# 1 160.6205 39.1637 20.9617 0.0000 5.2804 0.0000
# 2 39.1637 141.2087 9.6496 0.0000 9.3891 0.0000
# 3 20.9617 9.6496 55.7291 0.0000 -4.6728 0.0000
# 4 0.0000 0.0000 0.0000 40.9854 0.0000 8.4855
# 5 5.2804 9.3891 -4.6728 0.0000 36.1768 0.0000
# 6 0.0000 0.0000 0.0000 8.4855 0.0000 43.1982
#
#
#
# Elastic Compliance Matrix: (Units=1/GPa)
#
#
# Indices 1 2 3 4 5 6 
#
# 1 0.006987 -0.001715 -0.002405 0.000000 -0.000886 0.000000
# 2 -0.001715 0.007740 -0.000852 0.000000 -0.001868 0.000000
# 3 -0.002405 -0.000852 0.019253 0.000000 0.003059 0.000000
# 4 0.000000 0.000000 0.000000 0.025433 0.000000 -0.004996
# 5 -0.000886 -0.001868 0.003059 0.000000 0.028651 0.000000
# 6 0.000000 0.000000 0.000000 -0.004996 0.000000 0.024130
#
#
# Mechanical properties :
#
#
# Convention : Reuss Voigt Hill
#
# Bulk Modulus (GPa) = 41.60494 55.23426 48.41960
# Shear Modulus (GPa) = 38.41722 43.25764 40.83743
#
# Velocity S-wave (km/s) = 3.79364 4.02554 3.91131
# Velocity P-wave (km/s) = 5.89701 6.50371 6.20778
#
# Compressibility (1/GPa) = 0.02403561
#
# Stress axis : x y z
#
# Youngs Moduli (GPa) = 143.12420 129.20408 51.94076
#
# Poissons Ratio (x) = 0.22153 0.12494
# Poissons Ratio (y) = 0.24539 0.04425
# Poissons Ratio (z) = 0.34427 0.11007
#
# Static dielectric constant tensor:
#      x y z
#    x 2.090990 0.000000 -0.012520 
#    y 0.000000 2.106150 0.000000 
#    z -0.012520 0.000000 2.013620 
# 
# From -- ./inp_files/41218.got.cif
#   From: 2010.05.17/outbox.cif.g08.bks.cpg/sg14_21_cif.got.tgz:41218.got - 2010.06.03 17:49:19.
