data_PCOD9241931
_publ_section_title
;
Structure prediction by ZEFSAII (Michael W. Deem and Ramdas Pophale) SiO2 
 PCOD9241931
Probable space group: P 21/C
;
_chemical_formula_sum "Si O2"
_cell_formula_units_Z 32
_cell_length_a 11.037293
_cell_length_b 7.999875
_cell_length_c 30.741922
_cell_angle_alpha 90.000000
_cell_angle_beta 148.775608
_cell_angle_gamma 90.000000
_cell_volume 1407.130359
_symmetry_space_group_name_H-M "P 21/C"
_symmetry_group_IT_number 14
_symmetry_cell_setting 'monoclinic'
loop_
_space_group_symop_operation_xyz
x,y,z
-x,1/2+y,1/2-z
-x,-y,-z
x,1/2-y,1/2+z
loop_
_atom_site_type_symbol
_atom_site_label
_atom_site_fract_x
_atom_site_fract_y
_atom_site_fract_z
Si Si1 0.888871 0.880105 0.377068
Si Si2 0.142828 0.112102 0.193120
Si Si3 0.271897 0.031687 0.840951
Si Si4 0.839944 0.716894 0.615836
Si Si5 0.419665 0.083120 0.640258
Si Si6 0.160222 0.833172 0.336928
Si Si7 0.304466 0.920482 0.761606
Si Si8 0.362372 0.059040 0.519647
O O1 0.839451 0.688529 0.349393
O O2 0.809480 0.932328 0.400588
O O3 0.727761 0.986552 0.293905
O O4 0.161488 0.920787 0.453200
O O5 0.014586 0.260489 0.180600
O O6 0.389899 0.058814 0.289227
O O7 0.976891 0.952249 0.144952
O O8 0.279248 0.838763 0.857070
O O9 0.383336 0.032767 0.827183
O O10 0.335796 0.156527 0.899673
O O11 0.000678 0.085778 0.749557
O O12 0.725959 0.789874 0.537606
O O13 0.043417 0.847886 0.692098
O O14 0.535909 0.257903 0.690691
O O15 0.379221 0.088126 0.576487
O O16 0.368369 0.958952 0.412995
#
# Coordination Sequence:
#
# PCOD9241931 Si02
#       8
#     4   4   4   4   4   4   4   4
#     4  11  23  40  66  93 125 165 219 267 313 374
#     4  10  22  40  63  93 119 164 220 264 305 373
#     4  11  18  36  61  90 122 167 207 259 306 383
#     4   9  21  37  59  87 129 161 200 254 321 384
#     4  11  22  44  64  88 126 174 219 261 308 374
#     4  11  21  37  64  90 131 157 210 261 319 384
#     4  10  19  38  61  89 117 167 218 257 308 368
#     4  11  23  41  60  95 131 173 196 259 340 384
#
# _framework density 22.741319000000001
#
# number of rings (size 3 to 8) (size 9 to 14) (size 15 to 20)
#    0.000    1.500    3.750    2.625    0.000    2.500 
#    0.000    4.375    0.000    0.000    0.000    0.000 
#    0.000    0.000    0.000    0.000    0.000    0.000 
#
# Total GULP energy -178685.058719 kJ/mol
# GULP energy per Si atom -5583.908085 kJ/mol
# Density = 2.268956 g / cm^3
# Si number density = 22.741319 Si / 1000 Ang^3
#
#
#
# Elastic Constant Matrix: (Units=GPa)
#
#
# Indices 1 2 3 4 5 6 
#
# 1 104.0176 29.2852 34.0608 0.0000 -8.5267 0.0000
# 2 29.2852 82.0631 36.5442 0.0000 -7.7671 0.0000
# 3 34.0608 36.5442 93.3438 0.0000 -8.6274 0.0000
# 4 0.0000 0.0000 0.0000 28.1056 0.0000 -8.5360
# 5 -8.5267 -7.7671 -8.6274 0.0000 33.3129 0.0000
# 6 0.0000 0.0000 0.0000 -8.5360 0.0000 23.7474
#
#
#
# Elastic Compliance Matrix: (Units=1/GPa)
#
#
# Indices 1 2 3 4 5 6 
#
# 1 0.011462 -0.002598 -0.003022 0.000000 0.001545 0.000000
# 2 -0.002598 0.015478 -0.004958 0.000000 0.001660 0.000000
# 3 -0.003022 -0.004958 0.013912 0.000000 0.001673 0.000000
# 4 0.000000 0.000000 0.000000 0.039940 0.000000 0.014357
# 5 0.001545 0.001660 0.001673 0.000000 0.031234 0.000000
# 6 0.000000 0.000000 0.000000 0.014357 0.000000 0.047270
#
#
# Mechanical properties :
#
#
# Convention : Reuss Voigt Hill
#
# Bulk Modulus (GPa) = 50.77678 53.24500 52.01089
# Shear Modulus (GPa) = 26.73538 29.00213 27.86875
#
# Velocity S-wave (km/s) = 3.43247 3.57502 3.50447
# Velocity P-wave (km/s) = 6.17135 6.36437 6.26860
#
# Compressibility (1/GPa) = 0.01969404
#
# Stress axis : x y z
#
# Youngs Moduli (GPa) = 87.24822 64.60799 71.88182
#
# Poissons Ratio (x) = 0.16785 0.21725
# Poissons Ratio (y) = 0.22667 0.35641
# Poissons Ratio (z) = 0.26369 0.32034
#
# Static dielectric constant tensor:
#      x y z
#    x 1.910060 0.000000 -0.018840 
#    y 0.000000 1.869940 0.000000 
#    z -0.018840 0.000000 1.853790 
# 
# From -- ./inp_files/80012.got.cif
#   From: 2010.05.17/outbox.cif.g08.bks.cpg/sg14_41_cif.got.tgz:80012.got - 2010.06.03 17:49:19.
