data_PCOD9241052
_publ_section_title
;
Structure prediction by ZEFSAII (Michael W. Deem and Ramdas Pophale) SiO2 
 PCOD9241052
Probable space group: P 21/C
;
_chemical_formula_sum "Si O2"
_cell_formula_units_Z 28
_cell_length_a 17.848999
_cell_length_b 5.171063
_cell_length_c 18.845466
_cell_angle_alpha 90.000000
_cell_angle_beta 47.449126
_cell_angle_gamma 90.000000
_cell_volume 1281.379555
_symmetry_space_group_name_H-M "P 21/C"
_symmetry_group_IT_number 14
_symmetry_cell_setting 'monoclinic'
loop_
_space_group_symop_operation_xyz
x,y,z
-x,1/2+y,1/2-z
-x,-y,-z
x,1/2-y,1/2+z
loop_
_atom_site_type_symbol
_atom_site_label
_atom_site_fract_x
_atom_site_fract_y
_atom_site_fract_z
Si Si1 0.839270 0.848512 0.066342
Si Si2 0.994387 0.724736 0.071970
Si Si3 0.902361 0.419374 0.744951
Si Si4 0.338909 0.112340 0.710902
Si Si5 0.103648 0.341311 0.111217
Si Si6 0.469650 0.749966 0.472673
Si Si7 0.283905 0.890354 0.158677
O O1 0.734393 0.862826 0.175039
O O2 0.917465 0.649377 0.056778
O O3 0.822516 0.773405 0.995167
O O4 0.910520 0.103457 0.016643
O O5 0.038486 0.542749 0.105337
O O6 0.916866 0.917401 0.164592
O O7 0.851665 0.550589 0.845503
O O8 0.834132 0.170658 0.773771
O O9 0.018851 0.363037 0.690249
O O10 0.457239 0.201288 0.641475
O O11 0.301258 0.321410 0.675863
O O12 0.324002 0.821374 0.690913
O O13 0.500000 0.500000 0.500000
O O14 0.349265 0.695154 0.547431
O O15 0.500000 0.000000 0.500000
#
# Coordination Sequence:
#
# PCOD9241052 Si02
#       7
#     4   4   4   4   4   4   4
#     4  10  21  32  53  78 104 142 177 227 272 329
#     4  10  20  36  49  74 107 138 188 217 275 321
#     4  11  21  34  53  74 108 148 188 225 271 331
#     4  10  19  34  56  83 111 138 177 230 281 322
#     4  11  22  34  50  74 107 146 183 227 268 324
#     4   8  16  31  51  81 109 132 172 226 273 320
#     4  10  20  33  56  83 108 142 181 223 276 325
#
# _framework density 21.851448000000001
#
# number of rings (size 3 to 8) (size 9 to 14) (size 15 to 20)
#    0.000    2.000    2.857    1.286    2.000    0.000 
#    0.000    0.000    0.000    0.000    3.714    0.000 
#    0.000    0.000    0.000    0.000    0.000    0.000 
#
# Total GULP energy -155972.216155 kJ/mol
# GULP energy per Si atom -5570.436291 kJ/mol
# Density = 2.180171 g / cm^3
# Si number density = 21.851448 Si / 1000 Ang^3
#
#
#
# Elastic Constant Matrix: (Units=GPa)
#
#
# Indices 1 2 3 4 5 6 
#
# 1 14.1181 -0.9136 18.6003 0.0000 9.4783 0.0000
# 2 -0.9136 71.4797 8.0999 0.0000 5.8761 0.0000
# 3 18.6003 8.0999 185.0465 0.0000 -7.2589 0.0000
# 4 0.0000 0.0000 0.0000 19.4263 0.0000 -2.2731
# 5 9.4783 5.8761 -7.2589 0.0000 35.2470 0.0000
# 6 0.0000 0.0000 0.0000 -2.2731 0.0000 24.8020
#
#
#
# Elastic Compliance Matrix: (Units=1/GPa)
#
#
# Indices 1 2 3 4 5 6 
#
# 1 0.110018 0.005556 -0.012601 0.000000 -0.033106 0.000000
# 2 0.005556 0.014561 -0.001361 0.000000 -0.004202 0.000000
# 3 -0.012601 -0.001361 0.006928 0.000000 0.005042 0.000000
# 4 0.000000 0.000000 0.000000 0.052035 0.000000 0.004769
# 5 -0.033106 -0.004202 0.005042 0.000000 0.039013 0.000000
# 6 0.000000 0.000000 0.000000 0.004769 0.000000 0.040756
#
#
# Mechanical properties :
#
#
# Convention : Reuss Voigt Hill
#
# Bulk Modulus (GPa) = 8.71875 35.80195 22.26035
# Shear Modulus (GPa) = 15.70583 32.21890 23.96236
#
# Velocity S-wave (km/s) = 2.68387 3.84402 3.31509
# Velocity P-wave (km/s) = 3.68821 6.01015 4.98622
#
# Compressibility (1/GPa) = 0.11469537
#
# Stress axis : x y z
#
# Youngs Moduli (GPa) = 9.08942 68.67863 144.34265
#
# Poissons Ratio (x) = -0.38155 1.81880
# Poissons Ratio (y) = -0.05050 0.19639
# Poissons Ratio (z) = 0.11453 0.09344
#
# Static dielectric constant tensor:
#      x y z
#    x 1.822170 0.000000 -0.032590 
#    y 0.000000 1.933850 0.000000 
#    z -0.032590 0.000000 1.932860 
# 
# From -- ./inp_files/69524.got.cif
#   From: 2010.05.17/outbox.cif.g08.bks.cpg/sg14_35_cif.got.tgz:69524.got - 2010.06.03 17:49:19.
