data_PCOD9241308
_publ_section_title
;
Structure prediction by ZEFSAII (Michael W. Deem and Ramdas Pophale) SiO2 
 PCOD9241308
Probable space group: P 21/C
;
_chemical_formula_sum "Si O2"
_cell_formula_units_Z 30
_cell_length_a 28.324871
_cell_length_b 5.008948
_cell_length_c 17.575679
_cell_angle_alpha 90.000000
_cell_angle_beta 145.498222
_cell_angle_gamma 90.000000
_cell_volume 1412.453670
_symmetry_space_group_name_H-M "P 21/C"
_symmetry_group_IT_number 14
_symmetry_cell_setting 'monoclinic'
loop_
_space_group_symop_operation_xyz
x,y,z
-x,1/2+y,1/2-z
-x,-y,-z
x,1/2-y,1/2+z
loop_
_atom_site_type_symbol
_atom_site_label
_atom_site_fract_x
_atom_site_fract_y
_atom_site_fract_z
Si Si1 0.833653 0.962822 0.021108
Si Si2 0.683185 0.115042 0.526416
Si Si3 0.869880 0.047983 0.470118
Si Si4 0.060554 0.535941 0.191716
Si Si5 0.835325 0.796561 0.792260
Si Si6 0.000000 0.500000 0.500000
Si Si7 0.327545 0.384439 0.593183
Si Si8 0.505593 0.503853 0.808778
O O1 0.895980 0.066885 0.169905
O O2 0.830821 0.191079 0.954609
O O3 0.744017 0.919096 0.940423
O O4 0.865983 0.686979 0.028444
O O5 0.760833 0.989889 0.673049
O O6 0.673619 0.914293 0.441486
O O7 0.596767 0.081764 0.457873
O O8 0.692039 0.410182 0.503107
O O9 0.818101 0.937453 0.329200
O O10 0.967631 0.081667 0.577698
O O11 0.117447 0.332015 0.218395
O O12 0.049486 0.793815 0.124926
O O13 0.913457 0.949800 0.931294
O O14 0.421430 0.455653 0.743952
O O15 0.492601 0.307164 0.718400
#
# Coordination Sequence:
#
# PCOD9241308 Si02
#       8
#     4   4   4   4   4   2   4   4
#     4  12  24  41  59  86 120 161 195 240 298 365
#     4  10  19  35  61  91 113 151 200 249 295 349
#     4  11  27  39  56  84 124 157 196 246 299 347
#     4  11  24  40  63  83 114 158 207 251 292 349
#     4  11  24  39  62  84 118 158 205 252 294 351
#     4  10  22  36  60  82 112 146 196 248 296 322
#     4  10  19  35  59  89 120 150 193 245 303 354
#     4   8  16  30  54  88 120 141 183 252 301 340
#
# _framework density 21.239635
#
# number of rings (size 3 to 8) (size 9 to 14) (size 15 to 20)
#    0.000    1.600    1.333    4.000    9.333    0.000 
#    0.000    0.000    0.000    1.600    0.000    0.000 
#    0.000    0.000    0.000    0.000    0.000    0.000 
#
# Total GULP energy -167157.017790 kJ/mol
# GULP energy per Si atom -5571.900593 kJ/mol
# Density = 2.119129 g / cm^3
# Si number density = 21.239635 Si / 1000 Ang^3
#
#
#
# Elastic Constant Matrix: (Units=GPa)
#
#
# Indices 1 2 3 4 5 6 
#
# 1 238.9311 80.0702 18.1016 0.0000 105.8790 0.0000
# 2 80.0702 109.5967 0.9868 0.0000 37.4082 0.0000
# 3 18.1016 0.9868 74.9313 0.0000 21.1903 0.0000
# 4 0.0000 0.0000 0.0000 25.4521 0.0000 2.7173
# 5 105.8790 37.4082 21.1903 0.0000 81.7946 0.0000
# 6 0.0000 0.0000 0.0000 2.7173 0.0000 55.8150
#
#
#
# Elastic Compliance Matrix: (Units=1/GPa)
#
#
# Indices 1 2 3 4 5 6 
#
# 1 0.011055 -0.003686 0.001023 0.000000 -0.012889 0.000000
# 2 -0.003686 0.012171 0.001030 0.000000 -0.001061 0.000000
# 3 0.001023 0.001030 0.014667 0.000000 -0.005595 0.000000
# 4 0.000000 0.000000 0.000000 0.039495 0.000000 -0.001923
# 5 -0.012889 -0.001061 -0.005595 0.000000 0.030844 0.000000
# 6 0.000000 0.000000 0.000000 -0.001923 0.000000 0.018010
#
#
# Mechanical properties :
#
#
# Convention : Reuss Voigt Hill
#
# Bulk Modulus (GPa) = 28.87992 69.08627 48.98309
# Shear Modulus (GPa) = 35.44849 54.23237 44.84043
#
# Velocity S-wave (km/s) = 4.08975 5.05856 4.59973
# Velocity P-wave (km/s) = 5.99400 8.16801 7.16395
#
# Compressibility (1/GPa) = 0.03462613
#
# Stress axis : x y z
#
# Youngs Moduli (GPa) = 90.45954 82.16569 68.17960
#
# Poissons Ratio (x) = 0.30289 -0.06974
# Poissons Ratio (y) = 0.33347 -0.07025
# Poissons Ratio (z) = -0.09253 -0.08466
#
# Static dielectric constant tensor:
#      x y z
#    x 1.794540 0.000000 -0.037000 
#    y 0.000000 1.863000 0.000000 
#    z -0.037000 0.000000 1.890120 
# 
# From -- ./inp_files/48194.got.cif
#   From: 2010.05.17/outbox.cif.g08.bks.cpg/sg14_25_cif.got.tgz:48194.got - 2010.06.03 17:49:19.
