data_PCOD9241474
_publ_section_title
;
Structure prediction by ZEFSAII (Michael W. Deem and Ramdas Pophale) SiO2 
 PCOD9241474
Probable space group: P 21/C
;
_chemical_formula_sum "Si O2"
_cell_formula_units_Z 24
_cell_length_a 5.388875
_cell_length_b 15.254470
_cell_length_c 12.964125
_cell_angle_alpha 90.000000
_cell_angle_beta 69.254997
_cell_angle_gamma 90.000000
_cell_volume 996.614498
_symmetry_space_group_name_H-M "P 21/C"
_symmetry_group_IT_number 14
_symmetry_cell_setting 'monoclinic'
loop_
_space_group_symop_operation_xyz
x,y,z
-x,1/2+y,1/2-z
-x,-y,-z
x,1/2-y,1/2+z
loop_
_atom_site_type_symbol
_atom_site_label
_atom_site_fract_x
_atom_site_fract_y
_atom_site_fract_z
Si Si1 0.799716 0.840371 0.913647
Si Si2 0.421770 0.288136 0.205965
Si Si3 0.715997 0.340895 0.812111
Si Si4 0.080615 0.714748 0.574066
Si Si5 0.168964 0.972920 0.118870
Si Si6 0.542831 0.519914 0.763462
O O1 0.587321 0.779302 0.887529
O O2 0.014953 0.857644 0.791288
O O3 0.750804 0.940242 0.956677
O O4 0.929499 0.786826 0.987932
O O5 0.591566 0.241310 0.269442
O O6 0.132874 0.292365 0.301123
O O7 0.504116 0.387720 0.171942
O O8 0.539688 0.428326 0.826565
O O9 0.774263 0.304530 0.916779
O O10 0.230495 0.621803 0.561051
O O11 0.329800 0.981715 0.202452
O O12 0.847964 0.974673 0.178383
#
# Coordination Sequence:
#
# PCOD9241474 Si02
#       6
#     4   4   4   4   4   4
#     4  10  21  36  57  86 116 148 189 235 288 343
#     4  10  20  37  57  81 114 153 188 234 286 338
#     4  10  20  37  57  81 114 153 188 234 286 338
#     4  10  21  36  57  86 116 148 189 235 288 343
#     4  10  19  36  58  88 117 145 183 241 294 346
#     4  10  20  36  60  83 114 152 194 231 286 344
#
# _framework density 24.081529
#
# number of rings (size 3 to 8) (size 9 to 14) (size 15 to 20)
#    0.000    2.000    3.333    0.500    0.000    1.333 
#    0.000    4.167    0.000    2.000    0.000    0.000 
#    0.000    0.000    0.000    0.000    0.000    0.000 
#
# Total GULP energy -134042.047388 kJ/mol
# GULP energy per Si atom -5585.085308 kJ/mol
# Density = 2.402672 g / cm^3
# Si number density = 24.081529 Si / 1000 Ang^3
#
#
#
# Elastic Constant Matrix: (Units=GPa)
#
#
# Indices 1 2 3 4 5 6 
#
# 1 82.8826 27.6034 24.2951 0.0000 23.1286 0.0000
# 2 27.6034 139.5642 48.2725 0.0000 22.0625 0.0000
# 3 24.2951 48.2725 77.9419 0.0000 24.9846 0.0000
# 4 0.0000 0.0000 0.0000 39.2101 0.0000 12.0903
# 5 23.1286 22.0625 24.9846 0.0000 52.0133 0.0000
# 6 0.0000 0.0000 0.0000 12.0903 0.0000 32.5279
#
#
#
# Elastic Compliance Matrix: (Units=1/GPa)
#
#
# Indices 1 2 3 4 5 6 
#
# 1 0.014494 -0.001368 -0.002116 0.000000 -0.004848 0.000000
# 2 -0.001368 0.009330 -0.005057 0.000000 -0.000920 0.000000
# 3 -0.002116 -0.005057 0.018478 0.000000 -0.005790 0.000000
# 4 0.000000 0.000000 0.000000 0.028805 0.000000 -0.010706
# 5 -0.004848 -0.000920 -0.005790 0.000000 0.024553 0.000000
# 6 0.000000 0.000000 0.000000 -0.010706 0.000000 0.034722
#
#
# Mechanical properties :
#
#
# Convention : Reuss Voigt Hill
#
# Bulk Modulus (GPa) = 39.65357 55.63677 47.64517
# Shear Modulus (GPa) = 32.07744 38.09812 35.08778
#
# Velocity S-wave (km/s) = 3.65366 3.98181 3.82126
# Velocity P-wave (km/s) = 5.85672 6.65533 6.26875
#
# Compressibility (1/GPa) = 0.02521841
#
# Stress axis : x y z
#
# Youngs Moduli (GPa) = 68.99306 107.17617 54.11887
#
# Poissons Ratio (x) = 0.14665 0.11454
# Poissons Ratio (y) = 0.09440 0.27370
# Poissons Ratio (z) = 0.14602 0.54202
#
# Static dielectric constant tensor:
#      x y z
#    x 2.070310 0.000000 -0.103100 
#    y 0.000000 2.010410 0.000000 
#    z -0.103100 0.000000 1.912330 
# 
# From -- ./inp_files/32694.got.cif
#   From: 2010.05.17/outbox.cif.g08.bks.cpg/sg14_17_cif.got.tgz:32694.got - 2010.06.03 17:49:19.
