data_PCOD9241026
_publ_section_title
;
Structure prediction by ZEFSAII (Michael W. Deem and Ramdas Pophale) SiO2 
 PCOD9241026
Probable space group: P 21/C
;
_chemical_formula_sum "Si O2"
_cell_formula_units_Z 32
_cell_length_a 10.162260
_cell_length_b 8.154994
_cell_length_c 28.901752
_cell_angle_alpha 90.000000
_cell_angle_beta 41.152664
_cell_angle_gamma 90.000000
_cell_volume 1576.190247
_symmetry_space_group_name_H-M "P 21/C"
_symmetry_group_IT_number 14
_symmetry_cell_setting 'monoclinic'
loop_
_space_group_symop_operation_xyz
x,y,z
-x,1/2+y,1/2-z
-x,-y,-z
x,1/2-y,1/2+z
loop_
_atom_site_type_symbol
_atom_site_label
_atom_site_fract_x
_atom_site_fract_y
_atom_site_fract_z
Si Si1 0.843916 0.481269 0.886223
Si Si2 0.073287 0.661912 0.746647
Si Si3 0.015840 0.003789 0.881902
Si Si4 0.239870 0.014276 0.733312
Si Si5 0.688582 0.509138 0.078713
Si Si6 0.989431 0.322029 0.942994
Si Si7 0.726015 0.746131 0.980700
Si Si8 0.681535 0.363575 0.400089
O O1 0.941988 0.408428 0.906537
O O2 0.705996 0.629652 0.941068
O O3 0.727163 0.331723 0.893653
O O4 0.002307 0.556721 0.808910
O O5 0.255804 0.589723 0.668327
O O6 0.888784 0.653875 0.759021
O O7 0.136203 0.842664 0.745620
O O8 0.027043 0.134257 0.919998
O O9 0.833187 0.051399 0.895301
O O10 0.205708 0.018245 0.797620
O O11 0.944526 0.828393 0.919641
O O12 0.466220 0.019377 0.655941
O O13 0.825504 0.587140 0.082330
O O14 0.801310 0.352087 0.026878
O O15 0.697014 0.638961 0.034267
O O16 0.550975 0.880248 0.028709
#
# Coordination Sequence:
#
# PCOD9241026 Si02
#       8
#     4   4   4   4   4   4   4   4
#     4  10  19  34  56  77 112 154 189 234 288 346
#     4  11  19  35  56  83 118 148 188 236 291 354
#     4  10  22  37  55  89 122 143 187 254 289 332
#     4  11  22  39  59  87 122 154 190 237 300 354
#     4  10  21  43  63  78 111 161 203 232 290 358
#     4   9  22  43  60  80 113 153 204 244 280 347
#     4  11  19  33  57  83 111 149 191 239 290 337
#     4  10  20  34  51  82 117 151 186 227 290 358
#
# _framework density 20.302116000000002
#
# number of rings (size 3 to 8) (size 9 to 14) (size 15 to 20)
#    0.000    1.750    3.750    0.750    0.000    2.500 
#    6.750    0.000    0.000    0.000    0.000    0.000 
#    0.000    0.000    0.000    0.000    0.000    0.000 
#
# Total GULP energy -178582.856374 kJ/mol
# GULP energy per Si atom -5580.714262 kJ/mol
# Density = 2.025591 g / cm^3
# Si number density = 20.302116 Si / 1000 Ang^3
#
#
#
# Elastic Constant Matrix: (Units=GPa)
#
#
# Indices 1 2 3 4 5 6 
#
# 1 38.9796 0.1290 27.1818 0.0000 3.1699 0.0000
# 2 0.1290 40.1402 40.1706 0.0000 -1.0895 0.0000
# 3 27.1818 40.1706 172.6707 0.0000 -2.4859 0.0000
# 4 0.0000 0.0000 0.0000 30.3227 0.0000 6.1888
# 5 3.1699 -1.0895 -2.4859 0.0000 23.5495 0.0000
# 6 0.0000 0.0000 0.0000 6.1888 0.0000 12.9182
#
#
#
# Elastic Compliance Matrix: (Units=1/GPa)
#
#
# Indices 1 2 3 4 5 6 
#
# 1 0.030353 0.006032 -0.006246 0.000000 -0.004466 0.000000
# 2 0.006032 0.033683 -0.008788 0.000000 -0.000181 0.000000
# 3 -0.006246 -0.008788 0.008839 0.000000 0.001367 0.000000
# 4 0.000000 0.000000 0.000000 0.036553 0.000000 -0.017511
# 5 -0.004466 -0.000181 0.001367 0.000000 0.043201 0.000000
# 6 0.000000 0.000000 0.000000 -0.017511 0.000000 0.085800
#
#
# Mechanical properties :
#
#
# Convention : Reuss Voigt Hill
#
# Bulk Modulus (GPa) = 18.22478 42.97262 30.59870
# Shear Modulus (GPa) = 18.20015 25.64535 21.92275
#
# Velocity S-wave (km/s) = 2.99735 3.55799 3.28964
# Velocity P-wave (km/s) = 4.57986 6.17184 5.43446
#
# Compressibility (1/GPa) = 0.05487034
#
# Stress axis : x y z
#
# Youngs Moduli (GPa) = 32.94572 29.68830 113.13778
#
# Poissons Ratio (x) = -0.17907 0.70662
# Poissons Ratio (y) = -0.19872 0.99429
# Poissons Ratio (z) = 0.20577 0.26091
#
# Static dielectric constant tensor:
#      x y z
#    x 1.704530 0.000000 0.009210 
#    y 0.000000 1.796320 0.000000 
#    z 0.009210 0.000000 1.759810 
# 
# From -- ./inp_files/61151.got.cif
#   From: 2010.05.17/outbox.cif.g08.bks.cpg/sg14_31_cif.got.tgz:61151.got - 2010.06.03 17:49:19.
