data_PCOD9241919
_publ_section_title
;
Structure prediction by ZEFSAII (Michael W. Deem and Ramdas Pophale) SiO2 
 PCOD9241919
Probable space group: P 21/C
;
_chemical_formula_sum "Si O2"
_cell_formula_units_Z 28
_cell_length_a 5.568556
_cell_length_b 15.878827
_cell_length_c 12.152646
_cell_angle_alpha 90.000000
_cell_angle_beta 112.037871
_cell_angle_gamma 90.000000
_cell_volume 996.051118
_symmetry_space_group_name_H-M "P 21/C"
_symmetry_group_IT_number 14
_symmetry_cell_setting 'monoclinic'
loop_
_space_group_symop_operation_xyz
x,y,z
-x,1/2+y,1/2-z
-x,-y,-z
x,1/2-y,1/2+z
loop_
_atom_site_type_symbol
_atom_site_label
_atom_site_fract_x
_atom_site_fract_y
_atom_site_fract_z
Si Si1 0.897696 0.416023 0.262587
Si Si2 0.252776 0.947622 0.500171
Si Si3 0.969580 0.392199 0.722736
Si Si4 0.866699 0.747088 0.075733
Si Si5 0.703994 0.464635 0.444577
Si Si6 0.664648 0.272212 0.462022
Si Si7 0.494782 0.159443 0.257016
O O1 0.820709 0.396841 0.124407
O O2 0.045651 0.506551 0.272742
O O3 0.667568 0.448359 0.306345
O O4 0.378520 0.603235 0.123090
O O5 0.500000 0.000000 0.500000
O O6 0.000000 0.000000 0.500000
O O7 0.950167 0.235855 0.497132
O O8 0.205061 0.368827 0.680615
O O9 0.090555 0.336166 0.844027
O O10 0.565630 0.746630 0.998275
O O11 0.953721 0.835346 0.154403
O O12 0.466269 0.751015 0.181404
O O13 0.500000 0.500000 0.500000
O O14 0.718415 0.369063 0.483695
O O15 0.000000 0.500000 0.500000
O O16 0.681828 0.357528 0.688489
#
# Coordination Sequence:
#
# PCOD9241919 Si02
#       7
#     4   4   4   4   4   4   4
#     4  11  23  41  68  91 133 171 209 271 319 377
#     4  12  23  38  62  99 129 164 210 252 325 396
#     4  10  20  37  63  89 127 163 206 254 312 378
#     4   9  20  36  60  93 119 168 210 253 318 373
#     4  11  24  42  63  91 120 168 223 265 316 368
#     4   9  19  38  64  82 121 163 206 265 316 361
#     4  10  19  38  60  91 125 164 197 252 319 384
#
# _framework density 28.11101
#
# number of rings (size 3 to 8) (size 9 to 14) (size 15 to 20)
#    0.000    1.714    2.857    1.714    0.000    6.857 
#    2.571    0.000    6.286    0.000    0.000    0.000 
#    0.000    0.000    0.000    0.000    0.000    0.000 
#
# Total GULP energy -156102.194615 kJ/mol
# GULP energy per Si atom -5575.078379 kJ/mol
# Density = 2.804703 g / cm^3
# Si number density = 28.111010 Si / 1000 Ang^3
#
#
#
# Elastic Constant Matrix: (Units=GPa)
#
#
# Indices 1 2 3 4 5 6 
#
# 1 287.1674 74.9786 59.4107 0.0000 -17.8200 0.0000
# 2 74.9786 141.2459 51.7691 0.0000 9.1351 0.0000
# 3 59.4107 51.7691 162.0518 0.0000 -9.4119 0.0000
# 4 0.0000 0.0000 0.0000 48.3038 0.0000 -2.0714
# 5 -17.8200 9.1351 -9.4119 0.0000 21.1455 0.0000
# 6 0.0000 0.0000 0.0000 -2.0714 0.0000 52.1974
#
#
#
# Elastic Compliance Matrix: (Units=1/GPa)
#
#
# Indices 1 2 3 4 5 6 
#
# 1 0.004545 -0.002493 -0.000601 0.000000 0.004640 0.000000
# 2 -0.002493 0.009874 -0.002680 0.000000 -0.007559 0.000000
# 3 -0.000601 -0.002680 0.007478 0.000000 0.003980 0.000000
# 4 0.000000 0.000000 0.000000 0.020738 0.000000 0.000823
# 5 0.004640 -0.007559 0.003980 0.000000 0.056239 0.000000
# 6 0.000000 0.000000 0.000000 0.000823 0.000000 0.019191
#
#
# Mechanical properties :
#
#
# Convention : Reuss Voigt Hill
#
# Bulk Modulus (GPa) = 96.60067 106.97576 101.78822
# Shear Modulus (GPa) = 37.57666 51.28311 44.42989
#
# Velocity S-wave (km/s) = 3.66009 4.27582 3.97988
# Velocity P-wave (km/s) = 7.23189 7.90660 7.57676
#
# Compressibility (1/GPa) = 0.01035189
#
# Stress axis : x y z
#
# Youngs Moduli (GPa) = 220.00547 101.27500 133.72224
#
# Poissons Ratio (x) = 0.25246 0.08031
# Poissons Ratio (y) = 0.54844 0.35831
# Poissons Ratio (z) = 0.13212 0.27137
#
# Static dielectric constant tensor:
#      x y z
#    x 2.356850 0.000000 0.082900 
#    y 0.000000 2.106980 0.000000 
#    z 0.082900 0.000000 2.452460 
# 
# From -- ./inp_files/21613.got.cif
#   From: 2010.05.17/outbox.cif.g08.bks.cpg/sg14_11_cif.got.tgz:21613.got - 2010.06.03 17:49:19.
