data_PCOD9241610
_publ_section_title
;
Structure prediction by ZEFSAII (Michael W. Deem and Ramdas Pophale) SiO2 
 PCOD9241610
Probable space group: P 21/C
;
_chemical_formula_sum "Si O2"
_cell_formula_units_Z 20
_cell_length_a 8.728351
_cell_length_b 7.154538
_cell_length_c 24.211007
_cell_angle_alpha 90.000000
_cell_angle_beta 146.179950
_cell_angle_gamma 90.000000
_cell_volume 841.509884
_symmetry_space_group_name_H-M "P 21/C"
_symmetry_group_IT_number 14
_symmetry_cell_setting 'monoclinic'
loop_
_space_group_symop_operation_xyz
x,y,z
-x,1/2+y,1/2-z
-x,-y,-z
x,1/2-y,1/2+z
loop_
_atom_site_type_symbol
_atom_site_label
_atom_site_fract_x
_atom_site_fract_y
_atom_site_fract_z
Si Si1 0.665458 0.084469 0.234522
Si Si2 0.394198 0.093487 0.603551
Si Si3 0.919160 0.634197 0.424460
Si Si4 0.259584 0.354538 0.943194
Si Si5 0.508384 0.686989 0.588830
O O1 0.648196 0.296031 0.206564
O O2 0.956803 0.057040 0.349449
O O3 0.382419 0.064590 0.185820
O O4 0.623878 0.952862 0.169203
O O5 0.152307 0.159353 0.572706
O O6 0.465780 0.883333 0.609226
O O7 0.000000 0.500000 0.500000
O O8 0.199024 0.640365 0.474570
O O9 0.296725 0.206422 0.905436
O O10 0.500000 0.500000 0.000000
O O11 0.318201 0.302120 0.023445
#
# Coordination Sequence:
#
# PCOD9241610 Si02
#       5
#     4   4   4   4   4
#     4   9  21  37  60  82 123 150 196 235 299 343
#     4   9  20  38  60  82 121 153 195 236 295 341
#     4   8  17  37  60  83 115 155 194 237 290 350
#     4  10  22  37  59  91 119 148 200 247 280 355
#     4  10  19  36  63  83 116 158 191 243 295 340
#
# _framework density 23.766801000000001
#
# number of rings (size 3 to 8) (size 9 to 14) (size 15 to 20)
#    1.200    1.600    0.000    0.600    5.600    0.800 
#    0.000   12.000    0.000    0.000    0.000    0.000 
#    0.000    0.000    0.000    0.000    0.000    0.000 
#
# Total GULP energy -111436.402200 kJ/mol
# GULP energy per Si atom -5571.820110 kJ/mol
# Density = 2.371271 g / cm^3
# Si number density = 23.766801 Si / 1000 Ang^3
#
#
#
# Elastic Constant Matrix: (Units=GPa)
#
#
# Indices 1 2 3 4 5 6 
#
# 1 85.5609 13.0219 30.5947 0.0000 9.5147 0.0000
# 2 13.0219 65.4417 20.9681 0.0000 2.6831 0.0000
# 3 30.5947 20.9681 140.8620 0.0000 27.6263 0.0000
# 4 0.0000 0.0000 0.0000 23.5627 0.0000 2.9107
# 5 9.5147 2.6831 27.6263 0.0000 23.5168 0.0000
# 6 0.0000 0.0000 0.0000 2.9107 0.0000 22.6083
#
#
#
# Elastic Compliance Matrix: (Units=1/GPa)
#
#
# Indices 1 2 3 4 5 6 
#
# 1 0.012986 -0.001826 -0.002026 0.000000 -0.002666 0.000000
# 2 -0.001826 0.016332 -0.002357 0.000000 0.001644 0.000000
# 3 -0.002026 -0.002357 0.009975 0.000000 -0.010629 0.000000
# 4 0.000000 0.000000 0.000000 0.043126 0.000000 -0.005552
# 5 -0.002666 0.001644 -0.010629 0.000000 0.055900 0.000000
# 6 0.000000 0.000000 0.000000 -0.005552 0.000000 0.044946
#
#
# Mechanical properties :
#
#
# Convention : Reuss Voigt Hill
#
# Bulk Modulus (GPa) = 37.20862 46.78156 41.99509
# Shear Modulus (GPa) = 24.43304 29.08956 26.76130
#
# Velocity S-wave (km/s) = 3.20977 3.50231 3.35923
# Velocity P-wave (km/s) = 5.42463 6.00676 5.72310
#
# Compressibility (1/GPa) = 0.02687549
#
# Stress axis : x y z
#
# Youngs Moduli (GPa) = 77.00405 61.22999 100.25418
#
# Poissons Ratio (x) = 0.11178 0.20312
# Poissons Ratio (y) = 0.14058 0.23630
# Poissons Ratio (z) = 0.15601 0.14432
#
# Static dielectric constant tensor:
#      x y z
#    x 1.934350 0.000000 0.013760 
#    y 0.000000 1.975370 0.000000 
#    z 0.013760 0.000000 1.926530 
# 
# From -- ./inp_files/79380.got.cif
#   From: 2010.05.17/outbox.cif.g08.bks.cpg/sg14_40_cif.got.tgz:79380.got - 2010.06.03 17:49:19.
