data_PCOD9241313
_publ_section_title
;
Structure prediction by ZEFSAII (Michael W. Deem and Ramdas Pophale) SiO2 
 PCOD9241313
Probable space group: P 21/C
;
_chemical_formula_sum "Si O2"
_cell_formula_units_Z 28
_cell_length_a 14.635433
_cell_length_b 9.227762
_cell_length_c 10.875529
_cell_angle_alpha 90.000000
_cell_angle_beta 63.214085
_cell_angle_gamma 90.000000
_cell_volume 1311.161677
_symmetry_space_group_name_H-M "P 21/C"
_symmetry_group_IT_number 14
_symmetry_cell_setting 'monoclinic'
loop_
_space_group_symop_operation_xyz
x,y,z
-x,1/2+y,1/2-z
-x,-y,-z
x,1/2-y,1/2+z
loop_
_atom_site_type_symbol
_atom_site_label
_atom_site_fract_x
_atom_site_fract_y
_atom_site_fract_z
Si Si1 0.156563 0.494457 0.318811
Si Si2 0.769907 0.244373 0.376544
Si Si3 0.045600 0.892759 0.115438
Si Si4 0.230741 0.260344 0.637947
Si Si5 0.617094 0.007153 0.891112
Si Si6 0.264946 0.485823 0.914195
Si Si7 0.070093 0.389812 0.879312
O O1 0.217706 0.636085 0.245036
O O2 0.111205 0.515173 0.479970
O O3 0.220457 0.348964 0.261251
O O4 0.058242 0.477709 0.284788
O O5 0.877295 0.329348 0.331009
O O6 0.677768 0.353732 0.407732
O O7 0.753810 0.135714 0.501482
O O8 0.996516 0.757595 0.068986
O O9 0.323127 0.370012 0.589812
O O10 0.254305 0.146317 0.516268
O O11 0.121673 0.347794 0.711887
O O12 0.635662 0.000284 0.732300
O O13 0.500000 0.000000 0.000000
O O14 0.176390 0.444333 0.872878
O O15 0.000000 0.500000 0.000000
#
# Coordination Sequence:
#
# PCOD9241313 Si02
#       7
#     4   4   4   4   4   4   4
#     4   9  21  36  55  90 127 165 205 247 306 381
#     4  11  22  37  61  89 123 165 213 260 318 385
#     4  10  20  34  57  89 129 172 208 246 302 384
#     4   9  22  42  62  89 127 172 209 264 329 382
#     4  11  26  45  68  92 119 163 224 287 340 383
#     4  10  22  44  63  93 135 166 213 269 322 389
#     4  10  19  35  59  96 136 175 207 251 300 380
#
# _framework density 21.35511
#
# number of rings (size 3 to 8) (size 9 to 14) (size 15 to 20)
#    0.000    2.000    1.429    0.857    2.000   12.571 
#    0.000    2.857    0.000    0.000    0.000    0.000 
#    0.000    0.000    0.000    0.000    0.000    0.000 
#
# Total GULP energy -155911.979313 kJ/mol
# GULP energy per Si atom -5568.284975 kJ/mol
# Density = 2.130650 g / cm^3
# Si number density = 21.355110 Si / 1000 Ang^3
#
#
#
# Elastic Constant Matrix: (Units=GPa)
#
#
# Indices 1 2 3 4 5 6 
#
# 1 69.6169 54.5601 40.1188 0.0000 -30.1559 0.0000
# 2 54.5601 133.0220 58.5213 0.0000 -17.0474 0.0000
# 3 40.1188 58.5213 128.2458 0.0000 -22.8949 0.0000
# 4 0.0000 0.0000 0.0000 35.8617 0.0000 2.7566
# 5 -30.1559 -17.0474 -22.8949 0.0000 35.1319 0.0000
# 6 0.0000 0.0000 0.0000 2.7566 0.0000 18.0923
#
#
#
# Elastic Compliance Matrix: (Units=1/GPa)
#
#
# Indices 1 2 3 4 5 6 
#
# 1 0.032617 -0.009751 -0.001811 0.000000 0.022085 0.000000
# 2 -0.009751 0.012447 -0.003446 0.000000 -0.004576 0.000000
# 3 -0.001811 -0.003446 0.010593 0.000000 0.003676 0.000000
# 4 0.000000 0.000000 0.000000 0.028215 0.000000 -0.004299
# 5 0.022085 -0.004576 0.003676 0.000000 0.047597 0.000000
# 6 0.000000 0.000000 0.000000 -0.004299 0.000000 0.055927
#
#
# Mechanical properties :
#
#
# Convention : Reuss Voigt Hill
#
# Bulk Modulus (GPa) = 39.00200 70.80944 54.90572
# Shear Modulus (GPa) = 22.12797 29.66280 25.89539
#
# Velocity S-wave (km/s) = 3.22248 3.73101 3.48603
# Velocity P-wave (km/s) = 5.67001 7.19657 6.47841
#
# Compressibility (1/GPa) = 0.02563971
#
# Stress axis : x y z
#
# Youngs Moduli (GPa) = 30.65929 80.34283 94.40171
#
# Poissons Ratio (x) = 0.78341 0.17097
# Poissons Ratio (y) = 0.29896 0.32533
# Poissons Ratio (z) = 0.05553 0.27688
#
# Static dielectric constant tensor:
#      x y z
#    x 1.792800 0.000000 0.071760 
#    y 0.000000 1.817570 0.000000 
#    z 0.071760 0.000000 1.916860 
# 
# From -- ./inp_files/31465.got.cif
#   From: 2010.05.17/outbox.cif.g08.bks.cpg/sg14_16_cif.got.tgz:31465.got - 2010.06.03 17:49:19.
