data_PCOD9241954
_publ_section_title
;
Structure prediction by ZEFSAII (Michael W. Deem and Ramdas Pophale) SiO2 
 PCOD9241954
Probable space group: P 21/C
;
_chemical_formula_sum "Si O2"
_cell_formula_units_Z 28
_cell_length_a 14.924870
_cell_length_b 10.067444
_cell_length_c 8.692699
_cell_angle_alpha 90.000000
_cell_angle_beta 117.243397
_cell_angle_gamma 90.000000
_cell_volume 1161.235569
_symmetry_space_group_name_H-M "P 21/C"
_symmetry_group_IT_number 14
_symmetry_cell_setting 'monoclinic'
loop_
_space_group_symop_operation_xyz
x,y,z
-x,1/2+y,1/2-z
-x,-y,-z
x,1/2-y,1/2+z
loop_
_atom_site_type_symbol
_atom_site_label
_atom_site_fract_x
_atom_site_fract_y
_atom_site_fract_z
Si Si1 0.340228 0.355285 0.345370
Si Si2 0.552053 0.847013 0.374351
Si Si3 0.958971 0.320081 0.963715
Si Si4 0.347432 0.916572 0.345588
Si Si5 0.857452 0.101201 0.703264
Si Si6 0.137594 0.056623 0.758922
Si Si7 0.800964 0.613658 0.367007
O O1 0.424572 0.379055 0.283762
O O2 0.393103 0.289668 0.534108
O O3 0.254156 0.464271 0.303208
O O4 0.267345 0.238372 0.224615
O O5 0.436649 0.837657 0.335982
O O6 0.601791 0.968237 0.509605
O O7 0.900646 0.369574 0.070496
O O8 0.075020 0.344863 0.097097
O O9 0.923291 0.177353 0.882150
O O10 0.923348 0.420108 0.801613
O O11 0.258932 0.848952 0.375426
O O12 0.279809 0.993537 0.167695
O O13 0.853515 0.947313 0.755293
O O14 0.137321 0.118885 0.928126
#
# Coordination Sequence:
#
# PCOD9241954 Si02
#       7
#     4   4   4   4   4   4   4
#     4  11  21  37  64  94 124 161 195 262 302 365
#     4  10  19  38  62  91 123 161 203 240 316 355
#     4  11  25  40  63  90 121 169 205 253 306 368
#     4   8  20  39  64  85 124 161 201 250 294 373
#     4  10  22  43  63  88 122 162 205 252 308 356
#     4  11  24  41  60  93 126 156 213 251 305 369
#     4   9  21  42  63  87 126 157 201 256 303 360
#
# _framework density 24.112248999999998
#
# number of rings (size 3 to 8) (size 9 to 14) (size 15 to 20)
#    0.857    1.143    1.429    1.714    2.000    1.714 
#    2.571    2.143    0.000    0.000    0.000    0.000 
#    0.000    0.000    0.000    0.000    0.000    0.000 
#
# Total GULP energy -156286.333682 kJ/mol
# GULP energy per Si atom -5581.654774 kJ/mol
# Density = 2.405737 g / cm^3
# Si number density = 24.112249 Si / 1000 Ang^3
#
#
#
# Elastic Constant Matrix: (Units=GPa)
#
#
# Indices 1 2 3 4 5 6 
#
# 1 132.3693 -13.7253 -8.4995 0.0000 9.8612 0.0000
# 2 -13.7253 23.7063 -8.7231 0.0000 0.9489 0.0000
# 3 -8.4995 -8.7231 47.4643 0.0000 -5.6438 0.0000
# 4 0.0000 0.0000 0.0000 13.6006 0.0000 2.6936
# 5 9.8612 0.9489 -5.6438 0.0000 37.0906 0.0000
# 6 0.0000 0.0000 0.0000 2.6936 0.0000 27.2188
#
#
#
# Elastic Compliance Matrix: (Units=1/GPa)
#
#
# Indices 1 2 3 4 5 6 
#
# 1 0.008464 0.005846 0.002347 0.000000 -0.002043 0.000000
# 2 0.005846 0.049280 0.009949 0.000000 -0.001301 0.000000
# 3 0.002347 0.009949 0.023640 0.000000 0.002719 0.000000
# 4 0.000000 0.000000 0.000000 0.074996 0.000000 -0.007422
# 5 -0.002043 -0.001301 0.002719 0.000000 0.027951 0.000000
# 6 0.000000 0.000000 0.000000 -0.007422 0.000000 0.037474
#
#
# Mechanical properties :
#
#
# Convention : Reuss Voigt Hill
#
# Bulk Modulus (GPa) = 8.49853 15.73824 12.11839
# Shear Modulus (GPa) = 22.24745 31.21451 26.73098
#
# Velocity S-wave (km/s) = 3.04083 3.60189 3.33319
# Velocity P-wave (km/s) = 3.98260 4.88256 4.45536
#
# Compressibility (1/GPa) = 0.11766740
#
# Stress axis : x y z
#
# Youngs Moduli (GPa) = 118.15279 20.29211 42.30036
#
# Poissons Ratio (x) = -0.11862 -0.09928
# Poissons Ratio (y) = -0.69067 -0.42084
# Poissons Ratio (z) = -0.27731 -0.20189
#
# Static dielectric constant tensor:
#      x y z
#    x 1.981960 0.000000 -0.001750 
#    y 0.000000 1.964280 0.000000 
#    z -0.001750 0.000000 1.901900 
# 
# From -- ./inp_files/15878.got.cif
#   From: 2010.05.17/outbox.cif.g08.bks.cpg/sg14_8_cif.got.tgz:15878.got - 2010.06.03 17:49:19.
