data_PCOD9241103
_publ_section_title
;
Structure prediction by ZEFSAII (Michael W. Deem and Ramdas Pophale) SiO2 
 PCOD9241103
Probable space group: P 21/C
;
_chemical_formula_sum "Si O2"
_cell_formula_units_Z 32
_cell_length_a 13.057340
_cell_length_b 17.301401
_cell_length_c 12.653189
_cell_angle_alpha 90.000000
_cell_angle_beta 34.942952
_cell_angle_gamma 90.000000
_cell_volume 1637.227655
_symmetry_space_group_name_H-M "P 21/C"
_symmetry_group_IT_number 14
_symmetry_cell_setting 'monoclinic'
loop_
_space_group_symop_operation_xyz
x,y,z
-x,1/2+y,1/2-z
-x,-y,-z
x,1/2-y,1/2+z
loop_
_atom_site_type_symbol
_atom_site_label
_atom_site_fract_x
_atom_site_fract_y
_atom_site_fract_z
Si Si1 0.987667 0.294542 0.544679
Si Si2 0.513148 0.623069 0.728038
Si Si3 0.260540 0.980104 0.583815
Si Si4 0.105193 0.424564 0.597055
Si Si5 0.792321 0.433118 0.629673
Si Si6 0.572144 0.636096 0.099405
Si Si7 0.605456 0.219056 0.863208
Si Si8 0.645188 0.773449 0.742037
O O1 0.933446 0.362779 0.509077
O O2 0.807419 0.246005 0.713294
O O3 0.040298 0.342556 0.605274
O O4 0.162296 0.245116 0.369799
O O5 0.698630 0.589820 0.523611
O O6 0.400739 0.659460 0.728081
O O7 0.566244 0.692722 0.762892
O O8 0.406755 0.561239 0.887247
O O9 0.263086 0.945578 0.700620
O O10 0.304453 0.070310 0.554611
O O11 0.065330 0.960792 0.700866
O O12 0.137530 0.486828 0.475773
O O13 0.617177 0.405324 0.715812
O O14 0.510756 0.706163 0.076217
O O15 0.662459 0.671504 0.126290
O O16 0.499091 0.191758 0.055760
#
# Coordination Sequence:
#
# PCOD9241103 Si02
#       8
#     4   4   4   4   4   4   4   4
#     4   9  19  34  55  83 108 144 185 219 281 339
#     4  10  21  37  56  83 113 149 188 229 284 335
#     4  11  20  34  59  83 118 140 183 242 278 326
#     4  10  20  32  57  90 111 136 181 234 292 334
#     4  10  19  34  58  89 114 137 181 235 297 327
#     4  10  21  35  57  90 109 149 187 227 289 332
#     4  10  22  38  57  78 115 157 184 225 282 334
#     4  10  21  38  55  80 120 146 189 229 271 341
#
# _framework density 19.545235999999999
#
# number of rings (size 3 to 8) (size 9 to 14) (size 15 to 20)
#    0.000    2.000    1.250    4.125    5.250    1.000 
#    2.250    4.375    0.000    1.500    0.000    0.000 
#    0.000    0.000    0.000    0.000    0.000    0.000 
#
# Total GULP energy -178455.811123 kJ/mol
# GULP energy per Si atom -5576.744098 kJ/mol
# Density = 1.950075 g / cm^3
# Si number density = 19.545236 Si / 1000 Ang^3
#
#
#
# Elastic Constant Matrix: (Units=GPa)
#
#
# Indices 1 2 3 4 5 6 
#
# 1 48.5350 17.9655 31.3991 0.0000 -16.4532 0.0000
# 2 17.9655 47.0082 13.4453 0.0000 -6.4312 0.0000
# 3 31.3991 13.4453 62.4975 0.0000 -26.1379 0.0000
# 4 0.0000 0.0000 0.0000 13.2261 0.0000 -4.1185
# 5 -16.4532 -6.4312 -26.1379 0.0000 25.7694 0.0000
# 6 0.0000 0.0000 0.0000 -4.1185 0.0000 14.8506
#
#
#
# Elastic Compliance Matrix: (Units=1/GPa)
#
#
# Indices 1 2 3 4 5 6 
#
# 1 0.034181 -0.008554 -0.012327 0.000000 0.007185 0.000000
# 2 -0.008554 0.024831 -0.001280 0.000000 -0.000563 0.000000
# 3 -0.012327 -0.001280 0.033074 0.000000 0.025357 0.000000
# 4 0.000000 0.000000 0.000000 0.082755 0.000000 0.022950
# 5 0.007185 -0.000563 0.025357 0.000000 0.068973 0.000000
# 6 0.000000 0.000000 0.000000 0.022950 0.000000 0.073702
#
#
# Mechanical properties :
#
#
# Convention : Reuss Voigt Hill
#
# Bulk Modulus (GPa) = 20.93633 31.51783 26.22708
# Shear Modulus (GPa) = 13.23593 17.11793 15.17693
#
# Velocity S-wave (km/s) = 2.60512 2.96262 2.78960
# Velocity P-wave (km/s) = 4.44790 5.27858 4.88095
#
# Compressibility (1/GPa) = 0.04776386
#
# Stress axis : x y z
#
# Youngs Moduli (GPa) = 29.25612 40.27196 30.23517
#
# Poissons Ratio (x) = 0.34450 0.37272
# Poissons Ratio (y) = 0.25027 0.03869
# Poissons Ratio (z) = 0.36065 0.05153
#
# Static dielectric constant tensor:
#      x y z
#    x 1.690520 0.000000 -0.041780 
#    y 0.000000 1.700510 0.000000 
#    z -0.041780 0.000000 1.702240 
# 
# From -- ./inp_files/30450.got.cif
#   From: 2010.05.17/outbox.cif.g08.bks.cpg/sg14_16_cif.got.tgz:30450.got - 2010.06.03 17:49:19.
