data_PCOD9241564
_publ_section_title
;
Structure prediction by ZEFSAII (Michael W. Deem and Ramdas Pophale) SiO2 
 PCOD9241564
Probable space group: P 21/C
;
_chemical_formula_sum "Si O2"
_cell_formula_units_Z 32
_cell_length_a 27.126912
_cell_length_b 5.267250
_cell_length_c 17.306703
_cell_angle_alpha 90.000000
_cell_angle_beta 142.865595
_cell_angle_gamma 90.000000
_cell_volume 1492.829883
_symmetry_space_group_name_H-M "P 21/C"
_symmetry_group_IT_number 14
_symmetry_cell_setting 'monoclinic'
loop_
_space_group_symop_operation_xyz
x,y,z
-x,1/2+y,1/2-z
-x,-y,-z
x,1/2-y,1/2+z
loop_
_atom_site_type_symbol
_atom_site_label
_atom_site_fract_x
_atom_site_fract_y
_atom_site_fract_z
Si Si1 0.148209 0.626985 0.092996
Si Si2 0.734998 0.621696 0.082119
Si Si3 0.584066 0.979262 0.557417
Si Si4 0.837061 0.125139 0.202348
Si Si5 0.246654 0.124389 0.209382
Si Si6 0.448570 0.153189 0.705373
Si Si7 0.005265 0.989617 0.704434
Si Si8 0.528746 0.475373 0.448980
O O1 0.139785 0.628884 0.176474
O O2 0.210779 0.400757 0.149849
O O3 0.184808 0.897957 0.112865
O O4 0.065420 0.563511 0.944908
O O5 0.790561 0.386027 0.124671
O O6 0.737861 0.605181 0.178938
O O7 0.776495 0.889123 0.114137
O O8 0.643641 0.613194 0.936012
O O9 0.593800 0.248510 0.527174
O O10 0.500000 0.000000 0.500000
O O11 0.662121 0.922554 0.707399
O O12 0.567723 0.745732 0.479426
O O13 0.915094 0.081749 0.245991
O O14 0.512154 0.933737 0.755962
O O15 0.453577 0.097980 0.802989
O O16 0.017397 0.239390 0.773423
O O17 0.500000 0.500000 0.500000
#
# Coordination Sequence:
#
# PCOD9241564 Si02
#       8
#     4   4   4   4   4   4   4   4
#     4  10  22  40  66  93 117 161 207 246 300 368
#     4  10  21  37  62  93 121 157 208 264 310 351
#     4  10  20  36  56  82 118 161 202 249 302 352
#     4  10  22  43  67  90 123 162 206 254 303 377
#     4  10  19  36  61  89 119 153 207 259 295 354
#     4  12  23  37  61  90 122 162 208 257 306 355
#     4  12  25  44  66  95 130 161 195 250 317 377
#     4  10  21  37  54  78 113 157 201 243 294 354
#
# _framework density 21.435797000000001
#
# number of rings (size 3 to 8) (size 9 to 14) (size 15 to 20)
#    0.000    1.500    0.000    5.625    0.000    2.000 
#    0.000   20.000    0.000    0.000    0.000    0.000 
#    0.000    0.000    0.000    0.000    0.000    0.000 
#
# Total GULP energy -178707.499771 kJ/mol
# GULP energy per Si atom -5584.609368 kJ/mol
# Density = 2.138701 g / cm^3
# Si number density = 21.435797 Si / 1000 Ang^3
#
#
#
# Elastic Constant Matrix: (Units=GPa)
#
#
# Indices 1 2 3 4 5 6 
#
# 1 62.0771 -5.9592 13.6567 0.0000 7.1247 0.0000
# 2 -5.9592 112.9462 -6.9876 0.0000 -7.8906 0.0000
# 3 13.6567 -6.9876 93.5666 0.0000 3.1397 0.0000
# 4 0.0000 0.0000 0.0000 32.6584 0.0000 6.4081
# 5 7.1247 -7.8906 3.1397 0.0000 23.0537 0.0000
# 6 0.0000 0.0000 0.0000 6.4081 0.0000 20.0907
#
#
#
# Elastic Compliance Matrix: (Units=1/GPa)
#
#
# Indices 1 2 3 4 5 6 
#
# 1 0.017218 0.000426 -0.002318 0.000000 -0.004860 0.000000
# 2 0.000426 0.009112 0.000521 0.000000 0.002916 0.000000
# 3 -0.002318 0.000521 0.011085 0.000000 -0.000615 0.000000
# 4 0.000000 0.000000 0.000000 0.032664 0.000000 -0.010419
# 5 -0.004860 0.002916 -0.000615 0.000000 0.045961 0.000000
# 6 0.000000 0.000000 0.000000 -0.010419 0.000000 0.053097
#
#
# Mechanical properties :
#
#
# Convention : Reuss Voigt Hill
#
# Bulk Modulus (GPa) = 28.84260 30.00106 29.42183
# Shear Modulus (GPa) = 27.25702 33.01922 30.13812
#
# Velocity S-wave (km/s) = 3.56977 3.92902 3.75370
# Velocity P-wave (km/s) = 5.52047 5.88295 5.70459
#
# Compressibility (1/GPa) = 0.03467093
#
# Stress axis : x y z
#
# Youngs Moduli (GPa) = 58.08013 109.74327 90.20837
#
# Poissons Ratio (x) = -0.04670 0.20912
# Poissons Ratio (y) = -0.02471 -0.04696
# Poissons Ratio (z) = 0.13464 -0.05712
#
# Static dielectric constant tensor:
#      x y z
#    x 1.321620 0.000000 0.167320 
#    y 0.000000 1.839360 0.000000 
#    z 0.167320 0.000000 1.717060 
# 
# From -- ./inp_files/62463.got.cif
#   From: 2010.05.17/outbox.cif.g08.bks.cpg/sg14_32_cif.got.tgz:62463.got - 2010.06.03 17:49:19.
