data_PCOD9241142
_publ_section_title
;
Structure prediction by ZEFSAII (Michael W. Deem and Ramdas Pophale) SiO2 
 PCOD9241142
Probable space group: P 21/C
;
_chemical_formula_sum "Si O2"
_cell_formula_units_Z 32
_cell_length_a 13.549533
_cell_length_b 12.177855
_cell_length_c 16.542319
_cell_angle_alpha 90.000000
_cell_angle_beta 147.632449
_cell_angle_gamma 90.000000
_cell_volume 1461.262140
_symmetry_space_group_name_H-M "P 21/C"
_symmetry_group_IT_number 14
_symmetry_cell_setting 'monoclinic'
loop_
_space_group_symop_operation_xyz
x,y,z
-x,1/2+y,1/2-z
-x,-y,-z
x,1/2-y,1/2+z
loop_
_atom_site_type_symbol
_atom_site_label
_atom_site_fract_x
_atom_site_fract_y
_atom_site_fract_z
Si Si1 0.997708 0.715228 0.742423
Si Si2 0.330453 0.009276 0.773240
Si Si3 0.906578 0.786318 0.367712
Si Si4 0.581601 0.664835 0.087065
Si Si5 0.682664 0.290729 0.840298
Si Si6 0.328752 0.165840 0.537659
Si Si7 0.324536 0.874196 0.931609
Si Si8 0.291134 0.567758 0.986376
O O1 0.134612 0.821064 0.831298
O O2 0.923973 0.697030 0.782419
O O3 0.831091 0.743088 0.566946
O O4 0.117391 0.605476 0.812137
O O5 0.174399 0.101616 0.650453
O O6 0.336764 0.902329 0.723388
O O7 0.295875 0.960960 0.839645
O O8 0.531784 0.066662 0.908977
O O9 0.747452 0.696563 0.261782
O O10 0.109343 0.751736 0.535506
O O11 0.467298 0.570521 0.051018
O O12 0.651968 0.647348 0.045633
O O13 0.445203 0.770140 0.984513
O O14 0.518717 0.208088 0.706256
O O15 0.679049 0.331492 0.930371
O O16 0.269450 0.043582 0.521734
#
# Coordination Sequence:
#
# PCOD9241142 Si02
#       8
#     4   4   4   4   4   4   4   4
#     4   9  21  37  58  88 116 154 202 248 297 361
#     4  10  19  34  61  87 116 157 202 253 306 361
#     4   9  20  36  58  81 123 155 196 249 308 356
#     4   9  18  41  60  82 112 161 200 246 297 368
#     4  11  23  38  54  91 125 155 200 256 307 361
#     4  11  22  39  63  85 120 160 204 250 301 368
#     4   9  18  33  61  88 112 148 203 253 296 348
#     4  10  23  40  60  88 122 156 200 255 312 357
#
# _framework density 21.898878
#
# number of rings (size 3 to 8) (size 9 to 14) (size 15 to 20)
#    0.000    2.250    1.250    0.750    5.250    4.000 
#    2.250    1.875    0.000    0.000    0.000    0.000 
#    0.000    0.000    0.000    0.000    0.000    0.000 
#
# Total GULP energy -178445.602383 kJ/mol
# GULP energy per Si atom -5576.425074 kJ/mol
# Density = 2.184904 g / cm^3
# Si number density = 21.898878 Si / 1000 Ang^3
#
#
#
# Elastic Constant Matrix: (Units=GPa)
#
#
# Indices 1 2 3 4 5 6 
#
# 1 35.9267 -0.0604 -1.6706 0.0000 8.4540 0.0000
# 2 -0.0604 81.9557 49.7242 0.0000 9.6185 0.0000
# 3 -1.6706 49.7242 115.1894 0.0000 22.3503 0.0000
# 4 0.0000 0.0000 0.0000 13.1505 0.0000 1.6238
# 5 8.4540 9.6185 22.3503 0.0000 23.1408 0.0000
# 6 0.0000 0.0000 0.0000 1.6238 0.0000 28.0206
#
#
#
# Elastic Compliance Matrix: (Units=1/GPa)
#
#
# Indices 1 2 3 4 5 6 
#
# 1 0.031449 -0.000351 0.003456 0.000000 -0.014682 0.000000
# 2 -0.000351 0.016535 -0.007180 0.000000 0.000190 0.000000
# 3 0.003456 -0.007180 0.014148 0.000000 -0.011943 0.000000
# 4 0.000000 0.000000 0.000000 0.076591 0.000000 -0.004438
# 5 -0.014682 0.000190 -0.011943 0.000000 0.060034 0.000000
# 6 0.000000 0.000000 0.000000 -0.004438 0.000000 0.035945
#
#
# Mechanical properties :
#
#
# Convention : Reuss Voigt Hill
#
# Bulk Modulus (GPa) = 18.52392 36.56204 27.54298
# Shear Modulus (GPa) = 19.16839 25.20094 22.18467
#
# Velocity S-wave (km/s) = 2.96178 3.39601 3.18630
# Velocity P-wave (km/s) = 4.49148 5.66650 5.11286
#
# Compressibility (1/GPa) = 0.05398424
#
# Stress axis : x y z
#
# Youngs Moduli (GPa) = 31.79720 60.47674 70.68062
#
# Poissons Ratio (x) = 0.02121 -0.24429
# Poissons Ratio (y) = 0.01115 0.50747
# Poissons Ratio (z) = -0.10990 0.43421
#
# Static dielectric constant tensor:
#      x y z
#    x 1.860470 0.000000 0.007950 
#    y 0.000000 1.823880 0.000000 
#    z 0.007950 0.000000 1.852640 
# 
# From -- ./inp_files/59510.got.cif
#   From: 2010.05.17/outbox.cif.g08.bks.cpg/sg14_30_cif.got.tgz:59510.got - 2010.06.03 17:49:19.
