data_PCOD9241658
_publ_section_title
;
Structure prediction by ZEFSAII (Michael W. Deem and Ramdas Pophale) SiO2 
 PCOD9241658
Probable space group: P 21/C
;
_chemical_formula_sum "Si O2"
_cell_formula_units_Z 32
_cell_length_a 11.490322
_cell_length_b 8.688453
_cell_length_c 22.815058
_cell_angle_alpha 90.000000
_cell_angle_beta 36.767023
_cell_angle_gamma 90.000000
_cell_volume 1363.345201
_symmetry_space_group_name_H-M "P 21/C"
_symmetry_group_IT_number 14
_symmetry_cell_setting 'monoclinic'
loop_
_space_group_symop_operation_xyz
x,y,z
-x,1/2+y,1/2-z
-x,-y,-z
x,1/2-y,1/2+z
loop_
_atom_site_type_symbol
_atom_site_label
_atom_site_fract_x
_atom_site_fract_y
_atom_site_fract_z
Si Si1 0.412693 0.803939 0.293255
Si Si2 0.227868 0.619384 0.506079
Si Si3 0.753818 0.897677 0.612096
Si Si4 0.225289 0.977646 0.139006
Si Si5 0.089270 0.307328 0.158436
Si Si6 0.022983 0.565846 0.107759
Si Si7 0.005325 0.820512 0.927703
Si Si8 0.390904 0.007336 0.185283
O O1 0.612221 0.707971 0.209892
O O2 0.217296 0.699822 0.370453
O O3 0.376282 0.951248 0.350928
O O4 0.417258 0.888524 0.227086
O O5 0.268741 0.580427 0.557086
O O6 0.125081 0.779655 0.550746
O O7 0.084685 0.490214 0.537521
O O8 0.429036 0.621251 0.390090
O O9 0.846322 0.785984 0.526003
O O10 0.920475 0.971381 0.586692
O O11 0.204681 0.163377 0.138749
O O12 0.383264 0.930315 0.124089
O O13 0.032969 0.888343 0.240518
O O14 0.161834 0.453403 0.089667
O O15 0.973807 0.229583 0.149469
O O16 0.825144 0.578317 0.225310
#
# Coordination Sequence:
#
# PCOD9241658 Si02
#       8
#     4   4   4   4   4   4   4   4
#     4  11  23  42  64  97 138 174 226 277 329 402
#     4  11  23  38  68  98 126 177 228 267 335 411
#     4  11  24  41  66  94 135 183 216 273 341 384
#     4  10  19  36  68  91 128 172 216 281 338 389
#     4  10  20  39  63  95 127 173 225 265 341 393
#     4  10  23  41  60  92 138 171 217 279 325 395
#     4  11  22  42  66  96 132 177 222 276 333 403
#     4  10  20  43  62  93 136 167 220 275 334 395
#
# _framework density 23.471679000000002
#
# number of rings (size 3 to 8) (size 9 to 14) (size 15 to 20)
#    0.000    1.500    5.000    2.250    1.750    2.500 
#    0.000    0.625    0.000    0.000    0.000    0.000 
#    0.000    0.000    0.000    0.000    0.000    0.000 
#
# Total GULP energy -178331.503172 kJ/mol
# GULP energy per Si atom -5572.859474 kJ/mol
# Density = 2.341826 g / cm^3
# Si number density = 23.471679 Si / 1000 Ang^3
#
#
#
# Elastic Constant Matrix: (Units=GPa)
#
#
# Indices 1 2 3 4 5 6 
#
# 1 51.3365 -3.4766 16.1730 0.0000 22.3036 0.0000
# 2 -3.4766 99.2923 36.0404 0.0000 0.1398 0.0000
# 3 16.1730 36.0404 123.2489 0.0000 17.5127 0.0000
# 4 0.0000 0.0000 0.0000 42.6807 0.0000 9.8386
# 5 22.3036 0.1398 17.5127 0.0000 28.6529 0.0000
# 6 0.0000 0.0000 0.0000 9.8386 0.0000 30.4140
#
#
#
# Elastic Compliance Matrix: (Units=1/GPa)
#
#
# Indices 1 2 3 4 5 6 
#
# 1 0.029676 0.001486 -0.001145 0.000000 -0.022407 0.000000
# 2 0.001486 0.011463 -0.003696 0.000000 0.001046 0.000000
# 3 -0.001145 -0.003696 0.010092 0.000000 -0.005259 0.000000
# 4 0.000000 0.000000 0.000000 0.025318 0.000000 -0.008190
# 5 -0.022407 0.001046 -0.005259 0.000000 0.055552 0.000000
# 6 0.000000 0.000000 0.000000 -0.008190 0.000000 0.035529
#
#
# Mechanical properties :
#
#
# Convention : Reuss Voigt Hill
#
# Bulk Modulus (GPa) = 22.46074 41.26125 31.86099
# Shear Modulus (GPa) = 26.42999 35.35890 30.89444
#
# Velocity S-wave (km/s) = 3.35929 3.88551 3.63194
# Velocity P-wave (km/s) = 4.96352 6.14385 5.58495
#
# Compressibility (1/GPa) = 0.04452214
#
# Stress axis : x y z
#
# Youngs Moduli (GPa) = 33.69754 87.23504 99.08981
#
# Poissons Ratio (x) = -0.12964 0.11343
# Poissons Ratio (y) = -0.05008 0.36621
# Poissons Ratio (z) = 0.03858 0.32240
#
# Static dielectric constant tensor:
#      x y z
#    x 1.952580 0.000000 0.045790 
#    y 0.000000 1.963850 0.000000 
#    z 0.045790 0.000000 2.024190 
# 
# From -- ./inp_files/73081.got.cif
#   From: 2010.05.17/outbox.cif.g08.bks.cpg/sg14_37_cif.got.tgz:73081.got - 2010.06.03 17:49:19.
