data_PCOD9241468
_publ_section_title
;
Structure prediction by ZEFSAII (Michael W. Deem and Ramdas Pophale) SiO2 
 PCOD9241468
Probable space group: P 21/C
;
_chemical_formula_sum "Si O2"
_cell_formula_units_Z 32
_cell_length_a 23.048737
_cell_length_b 12.126183
_cell_length_c 21.183142
_cell_angle_alpha 90.000000
_cell_angle_beta 12.198068
_cell_angle_gamma 90.000000
_cell_volume 1250.962667
_symmetry_space_group_name_H-M "P 21/C"
_symmetry_group_IT_number 14
_symmetry_cell_setting 'monoclinic'
loop_
_space_group_symop_operation_xyz
x,y,z
-x,1/2+y,1/2-z
-x,-y,-z
x,1/2-y,1/2+z
loop_
_atom_site_type_symbol
_atom_site_label
_atom_site_fract_x
_atom_site_fract_y
_atom_site_fract_z
Si Si1 0.515804 0.477755 0.731352
Si Si2 0.255991 0.859657 0.266344
Si Si3 0.856479 0.588273 0.075921
Si Si4 0.904303 0.806528 0.964238
Si Si5 0.049695 0.903145 0.671946
Si Si6 0.620484 0.351906 0.785765
Si Si7 0.630407 0.068258 0.472282
Si Si8 0.808793 0.692520 0.864549
O O1 0.382024 0.356956 0.876687
O O2 0.356457 0.550038 0.849150
O O3 0.836138 0.497785 0.387954
O O4 0.435323 0.521961 0.887139
O O5 0.284872 0.737818 0.264024
O O6 0.054243 0.877123 0.422668
O O7 0.153042 0.956495 0.423938
O O8 0.554406 0.887034 0.922698
O O9 0.932971 0.675971 0.941138
O O10 0.999098 0.850530 0.795526
O O11 0.588500 0.837595 0.308367
O O12 0.076387 0.874292 0.834008
O O13 0.953561 0.804522 0.730075
O O14 0.449574 0.462036 0.984576
O O15 0.920953 0.383834 0.436764
O O16 0.405533 0.295481 0.965276
#
# Coordination Sequence:
#
# PCOD9241468 Si02
#       8
#     4   4   4   4   4   4   4   4
#     4   9  18  34  54  73 112 154 186 216 292 350
#     4  10  22  40  62  82 116 155 196 236 300 351
#     4  10  21  40  62  83 114 158 190 241 300 350
#     4  10  19  36  58  84 113 148 196 232 292 353
#     4  10  20  35  54  83 112 151 190 236 287 341
#     4  11  21  38  60  85 114 154 200 237 294 358
#     4   9  18  33  57  80 110 151 180 231 289 351
#     4  11  21  36  58  84 116 155 193 239 294 343
#
# _framework density 25.580300999999999
#
# number of rings (size 3 to 8) (size 9 to 14) (size 15 to 20)
#    0.000    2.000    0.000    6.000    0.000    0.000 
#    4.500    3.750    0.000    0.000    0.000    0.000 
#    0.000    0.000    0.000    0.000    0.000    0.000 
#
# Total GULP energy -178896.143176 kJ/mol
# GULP energy per Si atom -5590.504474 kJ/mol
# Density = 2.552208 g / cm^3
# Si number density = 25.580301 Si / 1000 Ang^3
#
#
#
# Elastic Constant Matrix: (Units=GPa)
#
#
# Indices 1 2 3 4 5 6 
#
# 1 56.8363 46.6613 38.2298 0.0000 -21.2713 0.0000
# 2 46.6613 125.9594 9.6620 0.0000 -5.5166 0.0000
# 3 38.2298 9.6620 142.3802 0.0000 -36.9547 0.0000
# 4 0.0000 0.0000 0.0000 38.7041 0.0000 -5.3074
# 5 -21.2713 -5.5166 -36.9547 0.0000 34.0401 0.0000
# 6 0.0000 0.0000 0.0000 -5.3074 0.0000 42.5496
#
#
#
# Elastic Compliance Matrix: (Units=1/GPa)
#
#
# Indices 1 2 3 4 5 6 
#
# 1 0.037412 -0.012778 -0.005079 0.000000 0.015794 0.000000
# 2 -0.012778 0.012368 0.001447 0.000000 -0.004409 0.000000
# 3 -0.005079 0.001447 0.010479 0.000000 0.008437 0.000000
# 4 0.000000 0.000000 0.000000 0.026287 0.000000 0.003279
# 5 0.015794 -0.004409 0.008437 0.000000 0.047691 0.000000
# 6 0.000000 0.000000 0.000000 0.003279 0.000000 0.023911
#
#
# Mechanical properties :
#
#
# Convention : Reuss Voigt Hill
#
# Bulk Modulus (GPa) = 36.44328 57.14246 46.79287
# Shear Modulus (GPa) = 24.98585 38.43362 31.70974
#
# Velocity S-wave (km/s) = 3.12871 3.88038 3.52464
# Velocity P-wave (km/s) = 5.22774 6.51639 5.90731
#
# Compressibility (1/GPa) = 0.02743990
#
# Stress axis : x y z
#
# Youngs Moduli (GPa) = 26.72953 80.85086 95.43183
#
# Poissons Ratio (x) = 1.03310 0.48469
# Poissons Ratio (y) = 0.34154 -0.13811
# Poissons Ratio (z) = 0.13576 -0.11700
#
# Static dielectric constant tensor:
#      x y z
#    x 2.110940 0.000000 0.043970 
#    y 0.000000 2.103050 0.000000 
#    z 0.043970 0.000000 1.937240 
# 
# From -- ./inp_files/78327.got.cif
#   From: 2010.05.17/outbox.cif.g08.bks.cpg/sg14_40_cif.got.tgz:78327.got - 2010.06.03 17:49:19.
