data_PCOD9241131
_publ_section_title
;
Structure prediction by ZEFSAII (Michael W. Deem and Ramdas Pophale) SiO2 
 PCOD9241131
Probable space group: P 21/C
;
_chemical_formula_sum "Si O2"
_cell_formula_units_Z 28
_cell_length_a 11.471728
_cell_length_b 7.709614
_cell_length_c 16.770764
_cell_angle_alpha 90.000000
_cell_angle_beta 136.785647
_cell_angle_gamma 90.000000
_cell_volume 1015.625243
_symmetry_space_group_name_H-M "P 21/C"
_symmetry_group_IT_number 14
_symmetry_cell_setting 'monoclinic'
loop_
_space_group_symop_operation_xyz
x,y,z
-x,1/2+y,1/2-z
-x,-y,-z
x,1/2-y,1/2+z
loop_
_atom_site_type_symbol
_atom_site_label
_atom_site_fract_x
_atom_site_fract_y
_atom_site_fract_z
Si Si1 0.545544 0.982963 0.916762
Si Si2 0.753276 0.840338 0.143345
Si Si3 0.174845 0.314722 0.666393
Si Si4 0.914240 0.179709 0.430325
Si Si5 0.396632 0.026637 0.687506
Si Si6 0.253962 0.685643 0.789588
Si Si7 0.669333 0.006340 0.530583
O O1 0.422649 0.810405 0.866133
O O2 0.428563 0.130181 0.899867
O O3 0.554965 0.014618 0.827221
O O4 0.719380 0.970334 0.052914
O O5 0.865208 0.812095 0.277631
O O6 0.769440 0.665072 0.103024
O O7 0.302895 0.201633 0.673487
O O8 0.244370 0.497004 0.737678
O O9 0.005241 0.321751 0.529188
O O10 0.903735 0.218346 0.331567
O O11 0.717683 0.141678 0.348658
O O12 0.000000 0.000000 0.500000
O O13 0.386486 0.007796 0.587976
O O14 0.229298 0.654261 0.871324
O O15 0.500000 0.000000 0.500000
#
# Coordination Sequence:
#
# PCOD9241131 Si02
#       7
#     4   4   4   4   4   4   4
#     4   9  17  36  55  83 117 157 195 241 296 360
#     4   9  18  34  56  81 119 153 190 237 303 355
#     4   9  18  34  60  86 116 156 194 243 295 355
#     4   9  18  37  61  85 115 154 196 244 291 351
#     4   9  20  37  57  85 117 154 202 239 296 359
#     4  10  19  34  60  87 118 155 197 243 306 353
#     4  11  21  38  55  85 121 156 195 252 300 349
#
# _framework density 27.569226
#
# number of rings (size 3 to 8) (size 9 to 14) (size 15 to 20)
#    0.000    2.571    1.429    1.286    0.000    0.000 
#    7.714    8.571    0.000    0.000    0.000    0.000 
#    0.000    0.000    0.000    0.000    0.000    0.000 
#
# Total GULP energy -155896.591164 kJ/mol
# GULP energy per Si atom -5567.735399 kJ/mol
# Density = 2.750648 g / cm^3
# Si number density = 27.569226 Si / 1000 Ang^3
#
#
#
# Elastic Constant Matrix: (Units=GPa)
#
#
# Indices 1 2 3 4 5 6 
#
# 1 66.2457 25.6853 36.6587 0.0000 -31.6193 0.0000
# 2 25.6853 169.1965 72.0457 0.0000 -10.6137 0.0000
# 3 36.6587 72.0457 241.7615 0.0000 -57.5479 0.0000
# 4 0.0000 0.0000 0.0000 52.6786 0.0000 -4.7579
# 5 -31.6193 -10.6137 -57.5479 0.0000 46.4195 0.0000
# 6 0.0000 0.0000 0.0000 -4.7579 0.0000 11.7457
#
#
#
# Elastic Compliance Matrix: (Units=1/GPa)
#
#
# Indices 1 2 3 4 5 6 
#
# 1 0.023743 -0.003135 0.001437 0.000000 0.017238 0.000000
# 2 -0.003135 0.007244 -0.002550 0.000000 -0.003640 0.000000
# 3 0.001437 -0.002550 0.006770 0.000000 0.008790 0.000000
# 4 0.000000 0.000000 0.000000 0.019704 0.000000 0.007982
# 5 0.017238 -0.003640 0.008790 0.000000 0.043349 0.000000
# 6 0.000000 0.000000 0.000000 0.007982 0.000000 0.088371
#
#
# Mechanical properties :
#
#
# Convention : Reuss Voigt Hill
#
# Bulk Modulus (GPa) = 34.17357 82.88700 58.53029
# Shear Modulus (GPa) = 24.10447 45.02302 34.56375
#
# Velocity S-wave (km/s) = 2.96011 4.04553 3.54461
# Velocity P-wave (km/s) = 4.90973 7.20778 6.16675
#
# Compressibility (1/GPa) = 0.02926238
#
# Stress axis : x y z
#
# Youngs Moduli (GPa) = 42.11700 138.05334 147.70081
#
# Poissons Ratio (x) = 0.43281 -0.21230
# Poissons Ratio (y) = 0.13204 0.37660
# Poissons Ratio (z) = -0.06054 0.35200
#
# Static dielectric constant tensor:
#      x y z
#    x 2.296080 0.000000 0.025030 
#    y 0.000000 2.352950 0.000000 
#    z 0.025030 0.000000 2.311370 
# 
# From -- ./inp_files/46548.got.cif
#   From: 2010.05.17/outbox.cif.g08.bks.cpg/sg14_24_cif.got.tgz:46548.got - 2010.06.03 17:49:19.
