data_PCOD9241820
_publ_section_title
;
Structure prediction by ZEFSAII (Michael W. Deem and Ramdas Pophale) SiO2 
 PCOD9241820
Probable space group: P 21/C
;
_chemical_formula_sum "Si O2"
_cell_formula_units_Z 24
_cell_length_a 8.042844
_cell_length_b 14.262123
_cell_length_c 8.645069
_cell_angle_alpha 90.000000
_cell_angle_beta 78.801674
_cell_angle_gamma 90.000000
_cell_volume 972.778476
_symmetry_space_group_name_H-M "P 21/C"
_symmetry_group_IT_number 14
_symmetry_cell_setting 'monoclinic'
loop_
_space_group_symop_operation_xyz
x,y,z
-x,1/2+y,1/2-z
-x,-y,-z
x,1/2-y,1/2+z
loop_
_atom_site_type_symbol
_atom_site_label
_atom_site_fract_x
_atom_site_fract_y
_atom_site_fract_z
Si Si1 0.325943 0.485782 0.715493
Si Si2 0.495174 0.356653 0.491537
Si Si3 0.007122 0.072413 0.860710
Si Si4 0.838266 0.939448 0.469394
Si Si5 0.312431 0.711049 0.248205
Si Si6 0.066835 0.785292 0.532565
O O1 0.325692 0.390530 0.610558
O O2 0.467460 0.557538 0.630796
O O3 0.157528 0.541610 0.704396
O O4 0.322082 0.466325 0.898435
O O5 0.545861 0.264537 0.382636
O O6 0.612425 0.351707 0.626943
O O7 0.981088 0.178984 0.917225
O O8 0.164079 0.060852 0.714712
O O9 0.000000 0.000000 0.000000
O O10 0.897880 0.837049 0.513817
O O11 0.000000 0.000000 0.500000
O O12 0.199367 0.783759 0.367591
O O13 0.173480 0.669278 0.154929
#
# Coordination Sequence:
#
# PCOD9241820 Si02
#       6
#     4   4   4   4   4   4
#     4  10  21  41  61  89 131 165 205 267 322 367
#     4  10  21  40  63  87 125 170 210 261 310 381
#     4  11  23  40  64  94 123 172 212 262 322 378
#     4  10  22  37  61  95 130 159 203 264 322 371
#     4  10  19  37  64  90 113 166 220 243 314 384
#     4  11  20  39  64  92 123 164 210 265 309 389
#
# _framework density 24.671600000000002
#
# number of rings (size 3 to 8) (size 9 to 14) (size 15 to 20)
#    0.000    1.667    5.000    1.000    4.667    0.000 
#    6.000    1.667    0.000   18.000    0.000    0.000 
#    0.000    0.000    0.000    0.000    0.000    0.000 
#
# Total GULP energy -133830.692858 kJ/mol
# GULP energy per Si atom -5576.278869 kJ/mol
# Density = 2.461545 g / cm^3
# Si number density = 24.671600 Si / 1000 Ang^3
#
#
#
# Elastic Constant Matrix: (Units=GPa)
#
#
# Indices 1 2 3 4 5 6 
#
# 1 14.6496 13.9145 23.6753 0.0000 2.6935 0.0000
# 2 13.9145 95.4271 61.8074 0.0000 2.5527 0.0000
# 3 23.6753 61.8074 193.2529 0.0000 -16.9875 0.0000
# 4 0.0000 0.0000 0.0000 36.8512 0.0000 -0.8219
# 5 2.6935 2.5527 -16.9875 0.0000 34.8508 0.0000
# 6 0.0000 0.0000 0.0000 -0.8219 0.0000 21.2362
#
#
#
# Elastic Compliance Matrix: (Units=1/GPa)
#
#
# Indices 1 2 3 4 5 6 
#
# 1 0.093465 -0.006590 -0.010380 0.000000 -0.011800 0.000000
# 2 -0.006590 0.014024 -0.003890 0.000000 -0.002414 0.000000
# 3 -0.010380 -0.003890 0.008135 0.000000 0.005052 0.000000
# 4 0.000000 0.000000 0.000000 0.027160 0.000000 0.001051
# 5 -0.011800 -0.002414 0.005052 0.000000 0.032245 0.000000
# 6 0.000000 0.000000 0.000000 0.001051 0.000000 0.047130
#
#
# Mechanical properties :
#
#
# Convention : Reuss Voigt Hill
#
# Bulk Modulus (GPa) = 13.53108 55.79154 34.66131
# Shear Modulus (GPa) = 17.33023 32.18315 24.75669
#
# Velocity S-wave (km/s) = 2.65323 3.61565 3.17116
# Velocity P-wave (km/s) = 3.85779 6.33193 5.24289
#
# Compressibility (1/GPa) = 0.07390391
#
# Stress axis : x y z
#
# Youngs Moduli (GPa) = 10.69920 71.30459 122.93239
#
# Poissons Ratio (x) = 0.46987 1.27605
# Poissons Ratio (y) = 0.07050 0.47824
# Poissons Ratio (z) = 0.11106 0.27740
#
# Static dielectric constant tensor:
#      x y z
#    x 2.051410 0.000000 -0.013590 
#    y 0.000000 2.079020 0.000000 
#    z -0.013590 0.000000 2.048710 
# 
# From -- ./inp_files/8432.got.cif
#   From: 2010.05.17/outbox.cif.g08.bks.cpg/sg14_5_cif.got.tgz:8432.got - 2010.06.03 17:49:19.
