data_PCOD9241297
_publ_section_title
;
Structure prediction by ZEFSAII (Michael W. Deem and Ramdas Pophale) SiO2 
 PCOD9241297
Probable space group: P 21/C
;
_chemical_formula_sum "Si O2"
_cell_formula_units_Z 24
_cell_length_a 17.324031
_cell_length_b 8.197727
_cell_length_c 23.736843
_cell_angle_alpha 90.000000
_cell_angle_beta 17.697890
_cell_angle_gamma 90.000000
_cell_volume 1024.792776
_symmetry_space_group_name_H-M "P 21/C"
_symmetry_group_IT_number 14
_symmetry_cell_setting 'monoclinic'
loop_
_space_group_symop_operation_xyz
x,y,z
-x,1/2+y,1/2-z
-x,-y,-z
x,1/2-y,1/2+z
loop_
_atom_site_type_symbol
_atom_site_label
_atom_site_fract_x
_atom_site_fract_y
_atom_site_fract_z
Si Si1 0.971623 0.348665 0.564409
Si Si2 0.439129 0.133458 0.493373
Si Si3 0.678399 0.994182 0.537991
Si Si4 0.375173 0.160234 0.229663
Si Si5 0.876216 0.645095 0.210341
Si Si6 0.297216 0.929293 0.899301
O O1 0.696209 0.330857 0.780877
O O2 0.000000 0.500000 0.500000
O O3 0.098404 0.193701 0.448506
O O4 0.151805 0.403558 0.489842
O O5 0.307014 0.283182 0.614972
O O6 0.500000 0.000000 0.500000
O O7 0.263210 0.074000 0.564311
O O8 0.530366 0.166194 0.625928
O O9 0.936645 0.013434 0.393394
O O10 0.484171 0.904471 0.715920
O O11 0.306574 0.106854 0.214853
O O12 0.539669 0.054321 0.157645
O O13 0.080105 0.790094 0.052925
#
# Coordination Sequence:
#
# PCOD9241297 Si02
#       6
#     4   4   4   4   4   4
#     4  11  17  36  59  84 109 151 201 237 274 351
#     4  12  19  36  60  84 115 155 190 248 285 342
#     4  10  21  37  56  85 118 151 197 240 285 352
#     4  10  19  35  59  85 111 148 198 241 285 344
#     4  11  21  36  60  88 115 153 194 239 300 340
#     4  10  19  36  59  84 111 151 193 244 282 344
#
# _framework density 23.419370000000001
#
# number of rings (size 3 to 8) (size 9 to 14) (size 15 to 20)
#    0.000    1.333    8.333    0.000    0.000    0.667 
#    3.000    1.667    0.000    5.000    0.000    0.000 
#    0.000    0.000    0.000    0.000    0.000    0.000 
#
# Total GULP energy -134100.840209 kJ/mol
# GULP energy per Si atom -5587.535009 kJ/mol
# Density = 2.336607 g / cm^3
# Si number density = 23.419370 Si / 1000 Ang^3
#
#
#
# Elastic Constant Matrix: (Units=GPa)
#
#
# Indices 1 2 3 4 5 6 
#
# 1 198.9660 21.5423 57.3000 0.0000 -14.0034 0.0000
# 2 21.5423 25.0037 18.0617 0.0000 1.6722 0.0000
# 3 57.3000 18.0617 100.2498 0.0000 4.7116 0.0000
# 4 0.0000 0.0000 0.0000 19.9574 0.0000 -7.8510
# 5 -14.0034 1.6722 4.7116 0.0000 33.4243 0.0000
# 6 0.0000 0.0000 0.0000 -7.8510 0.0000 20.6890
#
#
#
# Elastic Compliance Matrix: (Units=1/GPa)
#
#
# Indices 1 2 3 4 5 6 
#
# 1 0.006597 -0.003532 -0.003294 0.000000 0.003405 0.000000
# 2 -0.003532 0.047912 -0.006474 0.000000 -0.002964 0.000000
# 3 -0.003294 -0.006474 0.013161 0.000000 -0.002911 0.000000
# 4 0.000000 0.000000 0.000000 0.058899 0.000000 0.022351
# 5 0.003405 -0.002964 -0.002911 0.000000 0.031903 0.000000
# 6 0.000000 0.000000 0.000000 0.022351 0.000000 0.056816
#
#
# Mechanical properties :
#
#
# Convention : Reuss Voigt Hill
#
# Bulk Modulus (GPa) = 24.34897 57.55861 40.95379
# Shear Modulus (GPa) = 19.56344 29.96851 24.76597
#
# Velocity S-wave (km/s) = 2.89338 3.58110 3.25545
# Velocity P-wave (km/s) = 4.64561 6.45985 5.62634
#
# Compressibility (1/GPa) = 0.04106950
#
# Stress axis : x y z
#
# Youngs Moduli (GPa) = 151.59147 20.87174 75.98053
#
# Poissons Ratio (x) = 0.07371 0.25030
# Poissons Ratio (y) = 0.53535 0.49192
# Poissons Ratio (z) = 0.49938 0.13513
#
# Static dielectric constant tensor:
#      x y z
#    x 1.940530 0.000000 -0.014840 
#    y 0.000000 1.993130 0.000000 
#    z -0.014840 0.000000 1.897280 
# 
# From -- ./inp_files/24176.got.cif
#   From: 2010.05.17/outbox.cif.g08.bks.cpg/sg14_13_cif.got.tgz:24176.got - 2010.06.03 17:49:19.
