data_PCOD9241770
_publ_section_title
;
Structure prediction by ZEFSAII (Michael W. Deem and Ramdas Pophale) SiO2 
 PCOD9241770
Probable space group: P 21/C
;
_chemical_formula_sum "Si O2"
_cell_formula_units_Z 32
_cell_length_a 19.686110
_cell_length_b 13.821827
_cell_length_c 8.747431
_cell_angle_alpha 90.000000
_cell_angle_beta 150.409081
_cell_angle_gamma 90.000000
_cell_volume 1175.331929
_symmetry_space_group_name_H-M "P 21/C"
_symmetry_group_IT_number 14
_symmetry_cell_setting 'monoclinic'
loop_
_space_group_symop_operation_xyz
x,y,z
-x,1/2+y,1/2-z
-x,-y,-z
x,1/2-y,1/2+z
loop_
_atom_site_type_symbol
_atom_site_label
_atom_site_fract_x
_atom_site_fract_y
_atom_site_fract_z
Si Si1 0.406000 0.607676 0.709438
Si Si2 0.608524 0.247478 0.594857
Si Si3 0.688572 0.699019 0.884495
Si Si4 0.771052 0.540376 0.831812
Si Si5 0.930434 0.659409 0.738542
Si Si6 0.700191 0.551813 0.176529
Si Si7 0.214275 0.901292 0.375989
Si Si8 0.020118 0.827466 0.725458
O O1 0.355059 0.639367 0.777810
O O2 0.395701 0.703829 0.579697
O O3 0.310815 0.527906 0.442824
O O4 0.563274 0.569959 0.005423
O O5 0.454565 0.251465 0.359739
O O6 0.709646 0.318886 0.882004
O O7 0.671778 0.616707 0.722898
O O8 0.810878 0.768964 0.071728
O O9 0.719433 0.644930 0.102704
O O10 0.840316 0.475202 0.101192
O O11 0.884534 0.606939 0.978115
O O12 0.849145 0.559064 0.550571
O O13 0.992580 0.714682 0.713409
O O14 0.046683 0.658617 0.097557
O O15 0.681032 0.466798 0.017348
O O16 0.115020 0.860628 0.051666
#
# Coordination Sequence:
#
# PCOD9241770 Si02
#       8
#     4   4   4   4   4   4   4   4
#     4  10  20  37  61  91 117 157 194 251 303 358
#     4  10  20  35  60  87 121 148 199 248 303 350
#     4   9  17  35  62  87 112 150 197 244 296 356
#     4   9  20  38  61  85 117 156 201 237 298 361
#     4  11  21  38  62  89 113 158 198 250 292 349
#     4  10  19  37  62  85 117 151 199 245 301 350
#     4  10  22  40  59  88 118 164 195 246 295 356
#     4  11  24  40  62  88 121 157 208 240 289 360
#
# _framework density 27.226351999999999
#
# number of rings (size 3 to 8) (size 9 to 14) (size 15 to 20)
#    0.000    2.000    2.500    1.125    0.000    5.500 
#    4.500    0.625    0.000    0.000    0.000    0.000 
#    0.000    0.000    0.000    0.000    0.000    0.000 
#
# Total GULP energy -179151.165590 kJ/mol
# GULP energy per Si atom -5598.473925 kJ/mol
# Density = 2.716438 g / cm^3
# Si number density = 27.226352 Si / 1000 Ang^3
#
#
#
# Elastic Constant Matrix: (Units=GPa)
#
#
# Indices 1 2 3 4 5 6 
#
# 1 48.0522 33.5373 5.9050 0.0000 -8.5564 0.0000
# 2 33.5373 58.8309 10.0272 0.0000 -9.1101 0.0000
# 3 5.9050 10.0272 108.0010 0.0000 -19.5755 0.0000
# 4 0.0000 0.0000 0.0000 49.5929 0.0000 -14.3483
# 5 -8.5564 -9.1101 -19.5755 0.0000 38.9448 0.0000
# 6 0.0000 0.0000 0.0000 -14.3483 0.0000 46.0733
#
#
#
# Elastic Compliance Matrix: (Units=1/GPa)
#
#
# Indices 1 2 3 4 5 6 
#
# 1 0.034951 -0.019488 0.000510 0.000000 0.003377 0.000000
# 2 -0.019488 0.028598 -0.001269 0.000000 0.001770 0.000000
# 3 0.000510 -0.001269 0.010249 0.000000 0.004967 0.000000
# 4 0.000000 0.000000 0.000000 0.022161 0.000000 0.006901
# 5 0.003377 0.001770 0.004967 0.000000 0.029330 0.000000
# 6 0.000000 0.000000 0.000000 0.006901 0.000000 0.023854
#
#
# Mechanical properties :
#
#
# Convention : Reuss Voigt Hill
#
# Bulk Modulus (GPa) = 30.02564 34.86923 32.44743
# Shear Modulus (GPa) = 24.90818 37.94984 31.42901
#
# Velocity S-wave (km/s) = 3.02794 3.73750 3.40127
# Velocity P-wave (km/s) = 4.82459 5.60894 5.23148
#
# Compressibility (1/GPa) = 0.03330487
#
# Stress axis : x y z
#
# Youngs Moduli (GPa) = 28.61170 34.96778 97.56692
#
# Poissons Ratio (x) = 0.68146 -0.04980
# Poissons Ratio (y) = 0.55759 0.12378
# Poissons Ratio (z) = -0.01460 0.04436
#
# Static dielectric constant tensor:
#      x y z
#    x 2.075120 0.000000 -0.019310 
#    y 0.000000 2.144240 0.000000 
#    z -0.019310 0.000000 2.158510 
# 
# From -- ./inp_files/19548.got.cif
#   From: 2010.05.17/outbox.cif.g08.bks.cpg/sg14_10_cif.got.tgz:19548.got - 2010.06.03 17:49:19.
