data_PCOD9241049
_publ_section_title
;
Structure prediction by ZEFSAII (Michael W. Deem and Ramdas Pophale) SiO2 
 PCOD9241049
Probable space group: P 21/C
;
_chemical_formula_sum "Si O2"
_cell_formula_units_Z 28
_cell_length_a 14.852911
_cell_length_b 10.226142
_cell_length_c 27.116277
_cell_angle_alpha 90.000000
_cell_angle_beta 162.582919
_cell_angle_gamma 90.000000
_cell_volume 1232.811915
_symmetry_space_group_name_H-M "P 21/C"
_symmetry_group_IT_number 14
_symmetry_cell_setting 'monoclinic'
loop_
_space_group_symop_operation_xyz
x,y,z
-x,1/2+y,1/2-z
-x,-y,-z
x,1/2-y,1/2+z
loop_
_atom_site_type_symbol
_atom_site_label
_atom_site_fract_x
_atom_site_fract_y
_atom_site_fract_z
Si Si1 0.671793 0.983382 0.745273
Si Si2 0.821300 0.682326 0.814922
Si Si3 0.278989 0.920129 0.624794
Si Si4 0.252222 0.436665 0.433109
Si Si5 0.270966 0.156637 0.838822
Si Si6 0.614424 0.944024 0.610881
Si Si7 0.640021 0.940208 0.904872
O O1 0.691438 0.826210 0.752000
O O2 0.478305 0.010016 0.692578
O O3 0.529172 0.017394 0.617158
O O4 0.014109 0.032340 0.928368
O O5 0.931463 0.658385 0.816167
O O6 0.566610 0.571723 0.694047
O O7 0.105421 0.680467 0.999470
O O8 0.477236 0.870595 0.773999
O O9 0.000000 0.000000 0.500000
O O10 0.532012 0.527390 0.565480
O O11 0.165176 0.349430 0.340257
O O12 0.337555 0.370881 0.529853
O O13 0.975485 0.534467 0.298869
O O14 0.454805 0.290410 0.927795
O O15 0.500000 0.000000 0.500000
#
# Coordination Sequence:
#
# PCOD9241049 Si02
#       7
#     4   4   4   4   4   4   4
#     4  10  19  34  56  82 113 148 186 240 285 336
#     4   9  18  32  57  84 104 141 197 240 275 332
#     4  10  20  33  56  82 108 142 187 235 278 336
#     4   9  19  35  56  79 117 159 185 234 294 342
#     4   9  19  35  58  83 114 152 190 238 292 339
#     4  10  22  33  57  89 116 146 197 241 284 347
#     4   9  18  34  52  79 114 150 186 230 289 340
#
# _framework density 22.712306000000002
#
# number of rings (size 3 to 8) (size 9 to 14) (size 15 to 20)
#    0.000    2.571    0.000    1.286    4.000    2.286 
#    0.000    0.000   15.714    0.000    0.000    0.000 
#    0.000    0.000    0.000    0.000    0.000    0.000 
#
# Total GULP energy -155975.013174 kJ/mol
# GULP energy per Si atom -5570.536185 kJ/mol
# Density = 2.266061 g / cm^3
# Si number density = 22.712306 Si / 1000 Ang^3
#
#
#
# Elastic Constant Matrix: (Units=GPa)
#
#
# Indices 1 2 3 4 5 6 
#
# 1 172.7432 8.9731 74.1862 0.0000 -29.2306 0.0000
# 2 8.9731 19.1048 5.1994 0.0000 -12.2329 0.0000
# 3 74.1862 5.1994 96.8809 0.0000 -27.9979 0.0000
# 4 0.0000 0.0000 0.0000 15.6670 0.0000 -0.5528
# 5 -29.2306 -12.2329 -27.9979 0.0000 51.6760 0.0000
# 6 0.0000 0.0000 0.0000 -0.5528 0.0000 7.6618
#
#
#
# Elastic Compliance Matrix: (Units=1/GPa)
#
#
# Indices 1 2 3 4 5 6 
#
# 1 0.008775 -0.001666 -0.006295 0.000000 0.001158 0.000000
# 2 -0.001666 0.062106 0.002276 0.000000 0.014992 0.000000
# 3 -0.006295 0.002276 0.016773 0.000000 0.006065 0.000000
# 4 0.000000 0.000000 0.000000 0.063991 0.000000 0.004617
# 5 0.001158 0.014992 0.006065 0.000000 0.026842 0.000000
# 6 0.000000 0.000000 0.000000 0.004617 0.000000 0.130850
#
#
# Mechanical properties :
#
#
# Convention : Reuss Voigt Hill
#
# Bulk Modulus (GPa) = 13.10924 51.71625 32.41274
# Shear Modulus (GPa) = 14.44515 28.35898 21.40206
#
# Velocity S-wave (km/s) = 2.52465 3.53741 3.07304
# Velocity P-wave (km/s) = 3.77927 6.28522 5.18589
#
# Compressibility (1/GPa) = 0.07628207
#
# Stress axis : x y z
#
# Youngs Moduli (GPa) = 113.95892 16.10151 59.61853
#
# Poissons Ratio (x) = 0.02683 0.37532
# Poissons Ratio (y) = 0.18991 -0.13567
# Poissons Ratio (z) = 0.71741 -0.03664
#
# Static dielectric constant tensor:
#      x y z
#    x 1.995750 0.000000 -0.029280 
#    y 0.000000 1.805640 0.000000 
#    z -0.029280 0.000000 1.877010 
# 
# From -- ./inp_files/77568.got.cif
#   From: 2010.05.17/outbox.cif.g08.bks.cpg/sg14_39_cif.got.tgz:77568.got - 2010.06.03 17:49:19.
