data_PCOD9241650
_publ_section_title
;
Structure prediction by ZEFSAII (Michael W. Deem and Ramdas Pophale) SiO2 
 PCOD9241650
Probable space group: P 21/C
;
_chemical_formula_sum "Si O2"
_cell_formula_units_Z 28
_cell_length_a 7.488305
_cell_length_b 16.881220
_cell_length_c 15.336488
_cell_angle_alpha 90.000000
_cell_angle_beta 37.988501
_cell_angle_gamma 90.000000
_cell_volume 1193.283591
_symmetry_space_group_name_H-M "P 21/C"
_symmetry_group_IT_number 14
_symmetry_cell_setting 'monoclinic'
loop_
_space_group_symop_operation_xyz
x,y,z
-x,1/2+y,1/2-z
-x,-y,-z
x,1/2-y,1/2+z
loop_
_atom_site_type_symbol
_atom_site_label
_atom_site_fract_x
_atom_site_fract_y
_atom_site_fract_z
Si Si1 0.783340 0.594876 0.180123
Si Si2 0.596888 0.256950 0.629154
Si Si3 0.585219 0.101808 0.523447
Si Si4 0.314014 0.492142 0.286525
Si Si5 0.939165 0.877034 0.983136
Si Si6 0.765479 0.846347 0.489812
Si Si7 0.393082 0.800306 0.189447
O O1 0.619482 0.668262 0.289651
O O2 0.576694 0.519278 0.248865
O O3 0.847954 0.620882 0.053923
O O4 0.081694 0.577803 0.112212
O O5 0.597246 0.195691 0.549545
O O6 0.516523 0.204180 0.743578
O O7 0.899704 0.297923 0.544185
O O8 0.438592 0.052321 0.656525
O O9 0.394177 0.092783 0.511486
O O10 0.099212 0.433151 0.418761
O O11 0.147852 0.575505 0.337344
O O12 0.623190 0.863008 0.063746
O O13 0.515582 0.780644 0.602594
O O14 0.051450 0.816918 0.326252
#
# Coordination Sequence:
#
# PCOD9241650 Si02
#       7
#     4   4   4   4   4   4   4
#     4  10  22  42  60  91 130 173 205 263 320 383
#     4  10  19  36  66  91 123 163 213 262 322 365
#     4  12  23  38  64  95 127 163 219 273 307 383
#     4  10  22  37  64  95 129 171 221 251 324 387
#     4  10  19  38  67  92 127 175 209 264 319 388
#     4  11  25  36  66  95 127 166 219 261 329 369
#     4  11  19  41  60  95 127 167 207 271 316 380
#
# _framework density 23.464663999999999
#
# number of rings (size 3 to 8) (size 9 to 14) (size 15 to 20)
#    0.000    1.429    4.286    1.286    2.000    0.571 
#    0.000    0.714    0.000    0.000    0.000    0.000 
#    0.000    0.000    0.000    0.000    0.000    0.000 
#
# Total GULP energy -156376.154825 kJ/mol
# GULP energy per Si atom -5584.862672 kJ/mol
# Density = 2.341126 g / cm^3
# Si number density = 23.464664 Si / 1000 Ang^3
#
#
#
# Elastic Constant Matrix: (Units=GPa)
#
#
# Indices 1 2 3 4 5 6 
#
# 1 58.5194 21.4545 25.2874 0.0000 -21.6110 0.0000
# 2 21.4545 86.0412 30.3263 0.0000 -2.0727 0.0000
# 3 25.2874 30.3263 110.4917 0.0000 -39.3795 0.0000
# 4 0.0000 0.0000 0.0000 51.4857 0.0000 0.7727
# 5 -21.6110 -2.0727 -39.3795 0.0000 25.6668 0.0000
# 6 0.0000 0.0000 0.0000 0.7727 0.0000 20.8427
#
#
#
# Elastic Compliance Matrix: (Units=1/GPa)
#
#
# Indices 1 2 3 4 5 6 
#
# 1 0.032249 -0.010866 0.010959 0.000000 0.043090 0.000000
# 2 -0.010866 0.017715 -0.011311 0.000000 -0.025073 0.000000
# 3 0.010959 -0.011311 0.027825 0.000000 0.051005 0.000000
# 4 0.000000 0.000000 0.000000 0.019434 0.000000 -0.000720
# 5 0.043090 -0.025073 0.051005 0.000000 0.151471 0.000000
# 6 0.000000 0.000000 0.000000 -0.000720 0.000000 0.048005
#
#
# Mechanical properties :
#
#
# Convention : Reuss Voigt Hill
#
# Bulk Modulus (GPa) = 18.06598 45.46539 31.76568
# Shear Modulus (GPa) = 14.81101 31.46465 23.13783
#
# Velocity S-wave (km/s) = 2.51510 3.66585 3.14358
# Velocity P-wave (km/s) = 4.01874 6.11033 5.17138
#
# Compressibility (1/GPa) = 0.05535266
#
# Stress axis : x y z
#
# Youngs Moduli (GPa) = 31.00832 56.45070 35.93878
#
# Poissons Ratio (x) = 0.61340 -0.39385
# Poissons Ratio (y) = 0.33694 0.40651
# Poissons Ratio (z) = -0.33982 0.63853
#
# Static dielectric constant tensor:
#      x y z
#    x 1.871370 0.000000 -0.015410 
#    y 0.000000 1.980970 0.000000 
#    z -0.015410 0.000000 1.906760 
# 
# From -- ./inp_files/56201.got.cif
#   From: 2010.05.17/outbox.cif.g08.bks.cpg/sg14_29_cif.got.tgz:56201.got - 2010.06.03 17:49:19.
