data_PCOD9241871
_publ_section_title
;
Structure prediction by ZEFSAII (Michael W. Deem and Ramdas Pophale) SiO2 
 PCOD9241871
Probable space group: P 21/C
;
_chemical_formula_sum "Si O2"
_cell_formula_units_Z 32
_cell_length_a 17.215663
_cell_length_b 11.623911
_cell_length_c 24.658001
_cell_angle_alpha 90.000000
_cell_angle_beta 17.137390
_cell_angle_gamma 90.000000
_cell_volume 1453.988474
_symmetry_space_group_name_H-M "P 21/C"
_symmetry_group_IT_number 14
_symmetry_cell_setting 'monoclinic'
loop_
_space_group_symop_operation_xyz
x,y,z
-x,1/2+y,1/2-z
-x,-y,-z
x,1/2-y,1/2+z
loop_
_atom_site_type_symbol
_atom_site_label
_atom_site_fract_x
_atom_site_fract_y
_atom_site_fract_z
Si Si1 0.194891 0.363811 0.367443
Si Si2 0.803732 0.479437 0.810188
Si Si3 0.053474 0.241656 0.669543
Si Si4 0.514530 0.399928 0.535614
Si Si5 0.700903 0.979800 0.502651
Si Si6 0.485202 0.641899 0.344513
Si Si7 0.024450 0.190581 0.311280
Si Si8 0.171280 0.962999 0.971590
O O1 0.279891 0.232619 0.311546
O O2 0.164179 0.413033 0.448274
O O3 0.934075 0.381503 0.505884
O O4 0.422908 0.451167 0.191081
O O5 0.946279 0.355816 0.712042
O O6 0.811760 0.516762 0.867210
O O7 0.962892 0.547498 0.659031
O O8 0.500000 0.500000 0.000000
O O9 0.277152 0.155086 0.497357
O O10 0.122780 0.284060 0.684322
O O11 0.790504 0.164498 0.845902
O O12 0.500000 0.500000 0.500000
O O13 0.504785 0.430561 0.606281
O O14 0.277683 0.309843 0.680950
O O15 0.901200 0.062953 0.400556
O O16 0.446809 0.566706 0.316228
O O17 0.230783 0.728006 0.513262
#
# Coordination Sequence:
#
# PCOD9241871 Si02
#       8
#     4   4   4   4   4   4   4   4
#     4  10  23  42  66  90 121 172 214 254 311 386
#     4  11  22  36  59  91 122 153 205 265 314 371
#     4  10  22  32  55  87 123 164 192 256 319 363
#     4  11  20  34  57  93 129 162 206 258 317 381
#     4  10  19  38  55  87 120 157 205 252 312 371
#     4  10  22  37  63  89 123 173 208 262 318 372
#     4   9  19  32  53  83 126 157 203 247 306 383
#     4  11  23  41  65  90 123 164 217 258 306 392
#
# _framework density 22.008427000000001
#
# number of rings (size 3 to 8) (size 9 to 14) (size 15 to 20)
#    0.000    1.750    2.500    3.000    5.250    1.000 
#    0.000    0.000    5.500    3.750    0.000    0.000 
#    0.000    0.000    0.000    0.000    0.000    0.000 
#
# Total GULP energy -178338.561135 kJ/mol
# GULP energy per Si atom -5573.080035 kJ/mol
# Density = 2.195833 g / cm^3
# Si number density = 22.008427 Si / 1000 Ang^3
#
#
#
# Elastic Constant Matrix: (Units=GPa)
#
#
# Indices 1 2 3 4 5 6 
#
# 1 113.7465 23.4016 13.8447 0.0000 -16.4810 0.0000
# 2 23.4016 57.3633 -5.8064 0.0000 -7.0669 0.0000
# 3 13.8447 -5.8064 28.3268 0.0000 -2.0142 0.0000
# 4 0.0000 0.0000 0.0000 25.7656 0.0000 -7.3978
# 5 -16.4810 -7.0669 -2.0142 0.0000 31.4733 0.0000
# 6 0.0000 0.0000 0.0000 -7.3978 0.0000 15.6220
#
#
#
# Elastic Compliance Matrix: (Units=1/GPa)
#
#
# Indices 1 2 3 4 5 6 
#
# 1 0.011114 -0.004606 -0.006064 0.000000 0.004398 0.000000
# 2 -0.004606 0.020296 0.006594 0.000000 0.002567 0.000000
# 3 -0.006064 0.006594 0.039678 0.000000 0.000845 0.000000
# 4 0.000000 0.000000 0.000000 0.044919 0.000000 0.021271
# 5 0.004398 0.002567 0.000845 0.000000 0.034706 0.000000
# 6 0.000000 0.000000 0.000000 0.021271 0.000000 0.074085
#
#
# Mechanical properties :
#
#
# Convention : Reuss Voigt Hill
#
# Bulk Modulus (GPa) = 15.88919 29.14626 22.51773
# Shear Modulus (GPa) = 19.69063 25.77197 22.73130
#
# Velocity S-wave (km/s) = 2.99438 3.42571 3.21728
# Velocity P-wave (km/s) = 4.38067 5.37766 4.90457
#
# Compressibility (1/GPa) = 0.06293586
#
# Stress axis : x y z
#
# Youngs Moduli (GPa) = 89.97384 49.27194 25.20318
#
# Poissons Ratio (x) = 0.22695 0.15282
# Poissons Ratio (y) = 0.41443 -0.16619
# Poissons Ratio (z) = 0.54556 -0.32490
#
# Static dielectric constant tensor:
#      x y z
#    x 1.969650 0.000000 -0.145030 
#    y 0.000000 2.018200 0.000000 
#    z -0.145030 0.000000 2.004650 
# 
# From -- ./inp_files/77815.got.cif
#   From: 2010.05.17/outbox.cif.g08.bks.cpg/sg14_39_cif.got.tgz:77815.got - 2010.06.03 17:49:19.
