data_PCOD9241279
_publ_section_title
;
Structure prediction by ZEFSAII (Michael W. Deem and Ramdas Pophale) SiO2 
 PCOD9241279
Probable space group: P 21/C
;
_chemical_formula_sum "Si O2"
_cell_formula_units_Z 28
_cell_length_a 14.557133
_cell_length_b 11.972626
_cell_length_c 18.384770
_cell_angle_alpha 90.000000
_cell_angle_beta 23.455493
_cell_angle_gamma 90.000000
_cell_volume 1275.400126
_symmetry_space_group_name_H-M "P 21/C"
_symmetry_group_IT_number 14
_symmetry_cell_setting 'monoclinic'
loop_
_space_group_symop_operation_xyz
x,y,z
-x,1/2+y,1/2-z
-x,-y,-z
x,1/2-y,1/2+z
loop_
_atom_site_type_symbol
_atom_site_label
_atom_site_fract_x
_atom_site_fract_y
_atom_site_fract_z
Si Si1 0.168397 0.638998 0.899509
Si Si2 0.456293 0.163637 0.375074
Si Si3 0.174404 0.019539 0.261201
Si Si4 0.297315 0.281632 0.840648
Si Si5 0.243922 0.056841 0.829248
Si Si6 0.565410 0.869227 0.451844
Si Si7 0.600521 0.338296 0.487152
O O1 0.356892 0.735916 0.769781
O O2 0.243270 0.546391 0.785940
O O3 0.070453 0.577924 0.043124
O O4 0.937566 0.687166 0.029533
O O5 0.303254 0.164816 0.415127
O O6 0.341795 0.169964 0.537888
O O7 0.583478 0.045060 0.287177
O O8 0.371770 0.113611 0.112246
O O9 0.207360 0.930227 0.172321
O O10 0.290096 0.148305 0.856667
O O11 0.516119 0.319011 0.631521
O O12 0.269916 0.131076 0.737115
O O13 0.000000 0.000000 0.000000
O O14 0.360868 0.783248 0.577826
O O15 0.500000 0.000000 0.500000
#
# Coordination Sequence:
#
# PCOD9241279 Si02
#       7
#     4   4   4   4   4   4   4
#     4  10  19  35  58  88 117 165 201 255 323 374
#     4  11  21  38  63  88 123 165 216 264 312 385
#     4   9  18  31  59  83 117 153 192 250 320 382
#     4  10  22  36  61  89 120 159 218 261 314 382
#     4  10  20  39  65  88 124 174 211 256 323 383
#     4   9  19  35  62  85 114 167 210 250 315 377
#     4   9  17  35  55  86 118 158 193 255 319 382
#
# _framework density 21.953894999999999
#
# number of rings (size 3 to 8) (size 9 to 14) (size 15 to 20)
#    0.000    2.286    2.857    0.000    0.000    3.429 
#    0.000    1.429    0.000    3.429    0.000    0.000 
#    0.000    0.000    0.000    0.000    0.000    0.000 
#
# Total GULP energy -156037.449908 kJ/mol
# GULP energy per Si atom -5572.766068 kJ/mol
# Density = 2.190393 g / cm^3
# Si number density = 21.953895 Si / 1000 Ang^3
#
#
#
# Elastic Constant Matrix: (Units=GPa)
#
#
# Indices 1 2 3 4 5 6 
#
# 1 59.0057 18.7850 16.7599 0.0000 14.4202 0.0000
# 2 18.7850 132.3767 27.6908 0.0000 4.5718 0.0000
# 3 16.7599 27.6908 57.4309 0.0000 7.2405 0.0000
# 4 0.0000 0.0000 0.0000 48.9883 0.0000 4.6216
# 5 14.4202 4.5718 7.2405 0.0000 17.3323 0.0000
# 6 0.0000 0.0000 0.0000 4.6216 0.0000 27.1690
#
#
#
# Elastic Compliance Matrix: (Units=1/GPa)
#
#
# Indices 1 2 3 4 5 6 
#
# 1 0.022693 -0.001887 -0.003584 0.000000 -0.016885 0.000000
# 2 -0.001887 0.008564 -0.003685 0.000000 0.000851 0.000000
# 3 -0.003584 -0.003685 0.020834 0.000000 -0.004750 0.000000
# 4 0.000000 0.000000 0.000000 0.020746 0.000000 -0.003529
# 5 -0.016885 0.000851 -0.004750 0.000000 0.073504 0.000000
# 6 0.000000 0.000000 0.000000 -0.003529 0.000000 0.037407
#
#
# Mechanical properties :
#
#
# Convention : Reuss Voigt Hill
#
# Bulk Modulus (GPa) = 29.60583 41.69832 35.65207
# Shear Modulus (GPa) = 23.43910 31.06975 27.25443
#
# Velocity S-wave (km/s) = 3.27104 3.76603 3.52723
# Velocity P-wave (km/s) = 5.27077 6.15999 5.73265
#
# Compressibility (1/GPa) = 0.03377713
#
# Stress axis : x y z
#
# Youngs Moduli (GPa) = 44.06695 116.77356 47.99890
#
# Poissons Ratio (x) = 0.22041 0.17201
# Poissons Ratio (y) = 0.08317 0.17690
# Poissons Ratio (z) = 0.15792 0.43037
#
# Static dielectric constant tensor:
#      x y z
#    x 1.790360 0.000000 0.042700 
#    y 0.000000 -21.809220 0.000000 
#    z 0.042700 0.000000 1.865970 
# 
# From -- ./inp_files/59262.got.cif
#   From: 2010.05.17/outbox.cif.g08.bks.cpg/sg14_30_cif.got.tgz:59262.got - 2010.06.03 17:49:19.
