data_PCOD9241625
_publ_section_title
;
Structure prediction by ZEFSAII (Michael W. Deem and Ramdas Pophale) SiO2 
 PCOD9241625
Probable space group: P 21/C
;
_chemical_formula_sum "Si O2"
_cell_formula_units_Z 32
_cell_length_a 21.746842
_cell_length_b 13.700305
_cell_length_c 8.289546
_cell_angle_alpha 90.000000
_cell_angle_beta 148.134330
_cell_angle_gamma 90.000000
_cell_volume 1303.866600
_symmetry_space_group_name_H-M "P 21/C"
_symmetry_group_IT_number 14
_symmetry_cell_setting 'monoclinic'
loop_
_space_group_symop_operation_xyz
x,y,z
-x,1/2+y,1/2-z
-x,-y,-z
x,1/2-y,1/2+z
loop_
_atom_site_type_symbol
_atom_site_label
_atom_site_fract_x
_atom_site_fract_y
_atom_site_fract_z
Si Si1 0.168364 0.449027 0.934580
Si Si2 0.291298 0.873460 0.845837
Si Si3 0.543338 0.959503 0.336615
Si Si4 0.312145 0.323581 0.665034
Si Si5 0.037307 0.824530 0.869847
Si Si6 0.199423 0.802703 0.962149
Si Si7 0.157345 0.176521 0.117151
Si Si8 0.418154 0.130919 0.933706
O O1 0.192788 0.557900 0.043919
O O2 0.295097 0.398154 0.244374
O O3 0.059791 0.399364 0.782194
O O4 0.150834 0.421032 0.708538
O O5 0.263954 0.865994 0.973201
O O6 0.283007 0.765586 0.753556
O O7 0.414626 0.918979 0.079359
O O8 0.622274 0.926251 0.663353
O O9 0.523201 0.073546 0.253174
O O10 0.585138 0.909822 0.259199
O O11 0.250542 0.255973 0.393893
O O12 0.202307 0.338807 0.538714
O O13 0.416407 0.247210 0.942582
O O14 0.963592 0.731782 0.643146
O O15 0.117293 0.861451 0.902223
O O16 0.119641 0.774412 0.185261
#
# Coordination Sequence:
#
# PCOD9241625 Si02
#       8
#     4   4   4   4   4   4   4   4
#     4  10  19  36  64  87 111 145 191 241 293 337
#     4  10  24  40  59  79 119 155 201 231 275 343
#     4  10  20  36  59  81 119 158 185 230 275 341
#     4  11  19  33  59  89 115 149 189 229 293 350
#     4  11  19  38  63  82 118 145 185 249 294 326
#     4  10  23  40  57  85 111 157 198 232 282 350
#     4  11  19  34  61  91 115 142 185 241 300 339
#     4   9  19  35  57  87 114 145 196 224 280 347
#
# _framework density 24.542387999999999
#
# number of rings (size 3 to 8) (size 9 to 14) (size 15 to 20)
#    0.000    1.750    6.250    0.000    1.750    1.000 
#    0.000    0.625    8.250    0.000    0.000    0.000 
#    0.000    0.000    0.000    0.000    0.000    0.000 
#
# Total GULP energy -178615.654821 kJ/mol
# GULP energy per Si atom -5581.739213 kJ/mol
# Density = 2.448653 g / cm^3
# Si number density = 24.542388 Si / 1000 Ang^3
#
#
#
# Elastic Constant Matrix: (Units=GPa)
#
#
# Indices 1 2 3 4 5 6 
#
# 1 136.0233 38.6790 5.8377 0.0000 21.3459 0.0000
# 2 38.6790 73.3951 5.1364 0.0000 1.5774 0.0000
# 3 5.8377 5.1364 44.0811 0.0000 3.3454 0.0000
# 4 0.0000 0.0000 0.0000 11.1410 0.0000 -21.1742
# 5 21.3459 1.5774 3.3454 0.0000 10.9723 0.0000
# 6 0.0000 0.0000 0.0000 -21.1742 0.0000 2.6574
#
#
#
# Elastic Compliance Matrix: (Units=1/GPa)
#
#
# Indices 1 2 3 4 5 6 
#
# 1 0.012993 -0.006380 0.000892 0.000000 -0.024632 0.000000
# 2 -0.006380 0.016895 -0.001926 0.000000 0.010571 0.000000
# 3 0.000892 -0.001926 0.023445 0.000000 -0.008607 0.000000
# 4 0.000000 0.000000 0.000000 -0.006346 0.000000 -0.050567
# 5 -0.024632 0.010571 -0.008607 0.000000 0.140163 0.000000
# 6 0.000000 0.000000 0.000000 -0.050567 0.000000 -0.026606
#
#
# Mechanical properties :
#
#
# Convention : Reuss Voigt Hill
#
# Bulk Modulus (GPa) = 25.97091 39.20065 32.58578
# Shear Modulus (GPa) = 26.56656 18.54391 22.55523
#
# Velocity S-wave (km/s) = 3.29367 2.75178 3.03484
# Velocity P-wave (km/s) = 5.00693 5.10917 5.05831
#
# Compressibility (1/GPa) = 0.03850461
#
# Stress axis : x y z
#
# Youngs Moduli (GPa) = 76.96371 59.18935 42.65318
#
# Poissons Ratio (x) = 0.37765 -0.03805
# Poissons Ratio (y) = 0.49106 0.08215
# Poissons Ratio (z) = -0.06866 0.11399
#
# Static dielectric constant tensor:
#      x y z
#    x 1.947640 0.000000 -0.062860 
#    y 0.000000 1.948350 0.000000 
#    z -0.062860 0.000000 2.025840 
# 
# From -- ./inp_files/19074.got.cif
#   From: 2010.05.17/outbox.cif.g08.bks.cpg/sg14_10_cif.got.tgz:19074.got - 2010.06.03 17:49:19.
