data_PCOD9241065
_publ_section_title
;
Structure prediction by ZEFSAII (Michael W. Deem and Ramdas Pophale) SiO2 
 PCOD9241065
Probable space group: P 21/C
;
_chemical_formula_sum "Si O2"
_cell_formula_units_Z 32
_cell_length_a 29.172374
_cell_length_b 9.564736
_cell_length_c 9.749070
_cell_angle_alpha 90.000000
_cell_angle_beta 31.708888
_cell_angle_gamma 90.000000
_cell_volume 1429.770401
_symmetry_space_group_name_H-M "P 21/C"
_symmetry_group_IT_number 14
_symmetry_cell_setting 'monoclinic'
loop_
_space_group_symop_operation_xyz
x,y,z
-x,1/2+y,1/2-z
-x,-y,-z
x,1/2-y,1/2+z
loop_
_atom_site_type_symbol
_atom_site_label
_atom_site_fract_x
_atom_site_fract_y
_atom_site_fract_z
Si Si1 0.873309 0.117342 0.197313
Si Si2 0.431019 0.591122 0.477325
Si Si3 0.999290 0.101822 0.256272
Si Si4 0.412607 0.582494 0.971715
Si Si5 0.839547 0.953467 0.538812
Si Si6 0.030135 0.225913 0.422561
Si Si7 0.289905 0.839820 0.559929
Si Si8 0.659477 0.485628 0.566723
O O1 0.820937 0.061291 0.461752
O O2 0.808069 0.141128 0.240186
O O3 0.936366 0.240154 0.087925
O O4 0.942568 0.000071 0.984567
O O5 0.519075 0.508883 0.287987
O O6 0.445239 0.757223 0.410631
O O7 0.355979 0.590294 0.782666
O O8 0.395648 0.511855 0.431787
O O9 0.043928 0.090829 0.292445
O O10 0.903212 0.036846 0.480147
O O11 0.014368 0.244373 0.123461
O O12 0.320251 0.602481 0.129175
O O13 0.397471 0.500222 0.152038
O O14 0.893779 0.827051 0.331805
O O15 0.746025 0.919209 0.840929
O O16 0.308281 0.675072 0.506554
#
# Coordination Sequence:
#
# PCOD9241065 Si02
#       8
#     4   4   4   4   4   4   4   4
#     4   9  17  33  54  73 102 142 175 209 261 315
#     4  10  20  38  58  77 110 140 174 217 274 330
#     4   9  18  33  51  73 104 140 176 212 258 311
#     4  10  22  36  56  85 106 136 176 227 270 318
#     4   9  17  33  54  73 102 142 175 209 261 315
#     4   9  18  33  51  73 104 140 176 212 258 311
#     4  10  19  34  57  80 104 135 178 220 261 312
#     4  10  19  34  57  80 104 135 178 220 261 312
#
# _framework density 22.381215999999998
#
# number of rings (size 3 to 8) (size 9 to 14) (size 15 to 20)
#    0.000    2.500    1.250    3.000    0.000    0.000 
#    4.500    3.750    0.000    0.000    0.000    0.000 
#    0.000    0.000    0.000    0.000    0.000    0.000 
#
# Total GULP energy -178289.231892 kJ/mol
# GULP energy per Si atom -5571.538497 kJ/mol
# Density = 2.233028 g / cm^3
# Si number density = 22.381216 Si / 1000 Ang^3
#
#
#
# Elastic Constant Matrix: (Units=GPa)
#
#
# Indices 1 2 3 4 5 6 
#
# 1 71.2044 1.7230 5.8969 0.0000 -7.9347 0.0000
# 2 1.7230 8.4145 0.8900 0.0000 -5.1853 0.0000
# 3 5.8969 0.8900 76.9230 0.0000 -7.4517 0.0000
# 4 0.0000 0.0000 0.0000 16.0682 0.0000 1.1396
# 5 -7.9347 -5.1853 -7.4517 0.0000 34.4143 0.0000
# 6 0.0000 0.0000 0.0000 1.1396 0.0000 22.3289
#
#
#
# Elastic Compliance Matrix: (Units=1/GPa)
#
#
# Indices 1 2 3 4 5 6 
#
# 1 0.014471 -0.001024 -0.000806 0.000000 0.003008 0.000000
# 2 -0.001024 0.131091 0.000462 0.000000 0.019616 0.000000
# 3 -0.000806 0.000462 0.013325 0.000000 0.002769 0.000000
# 4 0.000000 0.000000 0.000000 0.062461 0.000000 -0.003188
# 5 0.003008 0.019616 0.002769 0.000000 0.033306 0.000000
# 6 0.000000 0.000000 0.000000 -0.003188 0.000000 0.044948
#
#
# Mechanical properties :
#
#
# Convention : Reuss Voigt Hill
#
# Bulk Modulus (GPa) = 6.40413 19.28464 12.84438
# Shear Modulus (GPa) = 14.10882 24.43109 19.26995
#
# Velocity S-wave (km/s) = 2.51347 3.30750 2.93744
# Velocity P-wave (km/s) = 3.36021 4.81884 4.15405
#
# Compressibility (1/GPa) = 0.15614936
#
# Stress axis : x y z
#
# Youngs Moduli (GPa) = 69.10480 7.62828 75.04864
#
# Poissons Ratio (x) = 0.00781 0.06050
# Poissons Ratio (y) = 0.07080 -0.03467
# Poissons Ratio (z) = 0.05571 -0.00352
#
# Static dielectric constant tensor:
#      x y z
#    x 1.901710 0.000000 0.134400 
#    y 0.000000 2.202810 0.000000 
#    z 0.134400 0.000000 2.036500 
# 
# From -- ./inp_files/19995.got.cif
#   From: 2010.05.17/outbox.cif.g08.bks.cpg/sg14_10_cif.got.tgz:19995.got - 2010.06.03 17:49:19.
