data_PCOD9241086
_publ_section_title
;
Structure prediction by ZEFSAII (Michael W. Deem and Ramdas Pophale) SiO2 
 PCOD9241086
Probable space group: P 21/C
;
_chemical_formula_sum "Si O2"
_cell_formula_units_Z 28
_cell_length_a 8.880178
_cell_length_b 5.538907
_cell_length_c 27.039625
_cell_angle_alpha 90.000000
_cell_angle_beta 123.340454
_cell_angle_gamma 90.000000
_cell_volume 1111.094565
_symmetry_space_group_name_H-M "P 21/C"
_symmetry_group_IT_number 14
_symmetry_cell_setting 'monoclinic'
loop_
_space_group_symop_operation_xyz
x,y,z
-x,1/2+y,1/2-z
-x,-y,-z
x,1/2-y,1/2+z
loop_
_atom_site_type_symbol
_atom_site_label
_atom_site_fract_x
_atom_site_fract_y
_atom_site_fract_z
Si Si1 0.686762 0.953612 0.905717
Si Si2 0.377737 0.873438 0.358738
Si Si3 0.295597 0.457872 0.943679
Si Si4 0.712178 0.460092 0.519806
Si Si5 0.780014 0.718691 0.827323
Si Si6 0.532687 0.331836 0.802572
Si Si7 0.033677 0.618195 0.284773
O O1 0.572872 0.728978 0.906935
O O2 0.739417 0.081346 0.965964
O O3 0.813032 0.837748 0.886623
O O4 0.565324 0.122671 0.848657
O O5 0.308204 0.058950 0.386863
O O6 0.243487 0.649539 0.334390
O O7 0.406060 0.987392 0.310815
O O8 0.500000 0.500000 0.000000
O O9 0.207575 0.219303 0.950113
O O10 0.213833 0.718728 0.941430
O O11 0.500000 0.500000 0.500000
O O12 0.732704 0.436286 0.827021
O O13 0.583273 0.781855 0.767075
O O14 0.918108 0.807339 0.811566
O O15 0.998317 0.350060 0.257812
#
# Coordination Sequence:
#
# PCOD9241086 Si02
#       7
#     4   4   4   4   4   4   4
#     4  11  22  36  64  93 124 164 210 261 324 364
#     4  11  23  38  66  92 124 171 208 261 319 376
#     4  10  19  35  59  93 123 151 209 263 312 353
#     4  10  19  34  57  92 126 149 202 268 309 359
#     4  11  24  38  59  89 127 163 212 261 310 379
#     4  11  21  38  60  89 121 163 212 260 311 372
#     4  12  28  45  63  90 132 172 211 254 314 383
#
# _framework density 25.200375000000001
#
# number of rings (size 3 to 8) (size 9 to 14) (size 15 to 20)
#    0.000    1.143    5.714    2.571    6.000    0.000 
#    0.000    0.000    0.000    1.714    0.000    0.000 
#    0.000    0.000    0.000    0.000    0.000    0.000 
#
# Total GULP energy -156275.033927 kJ/mol
# GULP energy per Si atom -5581.251212 kJ/mol
# Density = 2.514302 g / cm^3
# Si number density = 25.200375 Si / 1000 Ang^3
#
#
#
# Elastic Constant Matrix: (Units=GPa)
#
#
# Indices 1 2 3 4 5 6 
#
# 1 86.1110 20.9954 31.5382 0.0000 -30.9752 0.0000
# 2 20.9954 118.5358 36.5267 0.0000 -18.7776 0.0000
# 3 31.5382 36.5267 119.2476 0.0000 -46.8427 0.0000
# 4 0.0000 0.0000 0.0000 33.0781 0.0000 -13.4007
# 5 -30.9752 -18.7776 -46.8427 0.0000 37.4321 0.0000
# 6 0.0000 0.0000 0.0000 -13.4007 0.0000 15.4186
#
#
#
# Elastic Compliance Matrix: (Units=1/GPa)
#
#
# Indices 1 2 3 4 5 6 
#
# 1 0.016904 -0.001114 0.002254 0.000000 0.016250 0.000000
# 2 -0.001114 0.009479 -0.002170 0.000000 0.001118 0.000000
# 3 0.002254 -0.002170 0.017229 0.000000 0.022337 0.000000
# 4 0.000000 0.000000 0.000000 0.046661 0.000000 0.040554
# 5 0.016250 0.001118 0.022337 0.000000 0.068675 0.000000
# 6 0.000000 0.000000 0.000000 0.040554 0.000000 0.100104
#
#
# Mechanical properties :
#
#
# Convention : Reuss Voigt Hill
#
# Bulk Modulus (GPa) = 24.06650 55.77943 39.92296
# Shear Modulus (GPa) = 18.18424 32.84137 25.51281
#
# Velocity S-wave (km/s) = 2.68915 3.61392 3.18527
# Velocity P-wave (km/s) = 4.38324 6.29256 5.42260
#
# Compressibility (1/GPa) = 0.04155154
#
# Stress axis : x y z
#
# Youngs Moduli (GPa) = 59.15601 105.49244 58.04263
#
# Poissons Ratio (x) = 0.11757 -0.13081
# Poissons Ratio (y) = 0.06593 0.12594
# Poissons Ratio (z) = -0.13332 0.22890
#
# Static dielectric constant tensor:
#      x y z
#    x 2.088620 0.000000 0.036470 
#    y 0.000000 2.180810 0.000000 
#    z 0.036470 0.000000 2.048950 
# 
# From -- ./inp_files/76021.got.cif
#   From: 2010.05.17/outbox.cif.g08.bks.cpg/sg14_39_cif.got.tgz:76021.got - 2010.06.03 17:49:19.
