data_PCOD9241477
_publ_section_title
;
Structure prediction by ZEFSAII (Michael W. Deem and Ramdas Pophale) SiO2 
 PCOD9241477
Probable space group: P 21/C
;
_chemical_formula_sum "Si O2"
_cell_formula_units_Z 32
_cell_length_a 10.126006
_cell_length_b 8.066001
_cell_length_c 20.383711
_cell_angle_alpha 90.000000
_cell_angle_beta 56.314268
_cell_angle_gamma 90.000000
_cell_volume 1385.323465
_symmetry_space_group_name_H-M "P 21/C"
_symmetry_group_IT_number 14
_symmetry_cell_setting 'monoclinic'
loop_
_space_group_symop_operation_xyz
x,y,z
-x,1/2+y,1/2-z
-x,-y,-z
x,1/2-y,1/2+z
loop_
_atom_site_type_symbol
_atom_site_label
_atom_site_fract_x
_atom_site_fract_y
_atom_site_fract_z
Si Si1 0.679838 0.107185 0.531961
Si Si2 0.470808 0.434234 0.730488
Si Si3 0.253698 0.978826 0.934069
Si Si4 0.014256 0.162022 0.085210
Si Si5 0.155142 0.004232 0.385670
Si Si6 0.618340 0.918977 0.308637
Si Si7 0.989021 0.525856 0.721387
Si Si8 0.926536 0.149638 0.365196
O O1 0.716878 0.300627 0.539342
O O2 0.770974 0.000825 0.562592
O O3 0.495369 0.074442 0.596563
O O4 0.762881 0.082248 0.439480
O O5 0.581210 0.523802 0.646412
O O6 0.304814 0.514792 0.796375
O O7 0.432169 0.251312 0.714360
O O8 0.571174 0.436969 0.770304
O O9 0.123849 0.945343 0.912774
O O10 0.176990 0.107009 0.005625
O O11 0.960847 0.348683 0.088670
O O12 0.016590 0.118973 0.161104
O O13 0.049741 0.160475 0.392361
O O14 0.804204 0.921825 0.269578
O O15 0.012305 0.466002 0.788501
O O16 0.092784 0.677472 0.666422
#
# Coordination Sequence:
#
# PCOD9241477 Si02
#       8
#     4   4   4   4   4   4   4   4
#     4   9  20  38  63  92 122 155 205 265 310 358
#     4  10  19  36  61  93 127 156 197 253 317 366
#     4   9  17  33  62  88 123 154 194 253 311 366
#     4  10  19  36  58  92 117 157 207 246 307 366
#     4  10  21  37  62  93 126 154 208 260 307 368
#     4  10  21  38  62  94 123 162 199 258 317 365
#     4  12  24  40  63  84 129 169 209 252 306 376
#     4  12  24  42  59  87 124 172 208 253 305 369
#
# _framework density 23.099298999999998
#
# number of rings (size 3 to 8) (size 9 to 14) (size 15 to 20)
#    0.000    1.750    3.750    1.875    0.000    0.500 
#    4.500    0.000    0.000    6.000    0.000    0.000 
#    0.000    0.000    0.000    0.000    0.000    0.000 
#
# Total GULP energy -178897.664310 kJ/mol
# GULP energy per Si atom -5590.552010 kJ/mol
# Density = 2.304672 g / cm^3
# Si number density = 23.099299 Si / 1000 Ang^3
#
#
#
# Elastic Constant Matrix: (Units=GPa)
#
#
# Indices 1 2 3 4 5 6 
#
# 1 44.1820 3.9407 22.4192 0.0000 -7.4578 0.0000
# 2 3.9407 44.7899 17.6476 0.0000 -1.3878 0.0000
# 3 22.4192 17.6476 173.9204 0.0000 -27.0918 0.0000
# 4 0.0000 0.0000 0.0000 35.4375 0.0000 1.6709
# 5 -7.4578 -1.3878 -27.0918 0.0000 32.8289 0.0000
# 6 0.0000 0.0000 0.0000 1.6709 0.0000 17.0908
#
#
#
# Elastic Compliance Matrix: (Units=1/GPa)
#
#
# Indices 1 2 3 4 5 6 
#
# 1 0.024593 -0.001062 -0.002523 0.000000 0.003459 0.000000
# 2 -0.001062 0.023337 -0.002427 0.000000 -0.001258 0.000000
# 3 -0.002523 -0.002427 0.007133 0.000000 0.005211 0.000000
# 4 0.000000 0.000000 0.000000 0.028349 0.000000 -0.002772
# 5 0.003459 -0.001258 0.005211 0.000000 0.035494 0.000000
# 6 0.000000 0.000000 0.000000 -0.002772 0.000000 0.058782
#
#
# Mechanical properties :
#
#
# Convention : Reuss Voigt Hill
#
# Bulk Modulus (GPa) = 23.23550 38.98969 31.11259
# Shear Modulus (GPa) = 24.50269 31.66377 28.08323
#
# Velocity S-wave (km/s) = 3.26046 3.70640 3.49056
# Velocity P-wave (km/s) = 4.92493 5.93569 5.45377
#
# Compressibility (1/GPa) = 0.04303759
#
# Stress axis : x y z
#
# Youngs Moduli (GPa) = 40.66227 42.84998 140.19415
#
# Poissons Ratio (x) = 0.04552 0.35378
# Poissons Ratio (y) = 0.04319 0.34025
# Poissons Ratio (z) = 0.10261 0.10400
#
# Static dielectric constant tensor:
#      x y z
#    x 1.837930 0.000000 0.005390 
#    y 0.000000 1.906230 0.000000 
#    z 0.005390 0.000000 1.887530 
# 
# From -- ./inp_files/67016.got.cif
#   From: 2010.05.17/outbox.cif.g08.bks.cpg/sg14_34_cif.got.tgz:67016.got - 2010.06.03 17:49:19.
