data_PCOD9241220
_publ_section_title
;
Structure prediction by ZEFSAII (Michael W. Deem and Ramdas Pophale) SiO2 
 PCOD9241220
Probable space group: P 21/C
;
_chemical_formula_sum "Si O2"
_cell_formula_units_Z 32
_cell_length_a 7.688232
_cell_length_b 18.081085
_cell_length_c 14.352571
_cell_angle_alpha 90.000000
_cell_angle_beta 141.393208
_cell_angle_gamma 90.000000
_cell_volume 1244.932881
_symmetry_space_group_name_H-M "P 21/C"
_symmetry_group_IT_number 14
_symmetry_cell_setting 'monoclinic'
loop_
_space_group_symop_operation_xyz
x,y,z
-x,1/2+y,1/2-z
-x,-y,-z
x,1/2-y,1/2+z
loop_
_atom_site_type_symbol
_atom_site_label
_atom_site_fract_x
_atom_site_fract_y
_atom_site_fract_z
Si Si1 0.458756 0.894806 0.163447
Si Si2 0.826846 0.960550 0.571858
Si Si3 0.066974 0.254071 0.252495
Si Si4 0.739494 0.097261 0.121756
Si Si5 0.904177 0.092612 0.502173
Si Si6 0.662555 0.143686 0.689118
Si Si7 0.884017 0.255134 0.477208
Si Si8 0.376825 0.291859 0.551382
O O1 0.785042 0.903214 0.321866
O O2 0.311319 0.905379 0.204207
O O3 0.352078 0.812551 0.098097
O O4 0.368494 0.928623 0.025414
O O5 0.037221 0.939273 0.575676
O O6 0.582144 0.900886 0.465964
O O7 0.027069 0.959382 0.744265
O O8 0.724571 0.040142 0.493276
O O9 0.904072 0.176832 0.201612
O O10 0.900808 0.328568 0.217443
O O11 0.333584 0.259055 0.429324
O O12 0.087610 0.250610 0.151459
O O13 0.483970 0.124468 0.081657
O O14 0.777844 0.172015 0.426885
O O15 0.549010 0.225778 0.672242
O O16 0.078811 0.284767 0.476217
#
# Coordination Sequence:
#
# PCOD9241220 Si02
#       8
#     4   4   4   4   4   4   4   4
#     4  10  20  35  55  86 116 148 193 247 294 337
#     4  10  20  38  58  83 118 152 202 231 287 364
#     4  10  20  34  55  88 117 150 193 247 297 341
#     4  10  21  34  56  89 114 149 192 249 292 343
#     4  10  21  36  59  84 112 161 192 233 294 356
#     4  10  19  35  56  81 116 157 188 245 288 344
#     4  11  20  34  57  88 116 145 196 245 294 343
#     4  11  19  32  58  84 117 147 193 239 299 334
#
# _framework density 25.704197000000001
#
# number of rings (size 3 to 8) (size 9 to 14) (size 15 to 20)
#    0.000    1.750    5.000    0.750    1.750    0.500 
#    0.000    0.625    0.000    0.750    3.250    0.000 
#    0.000    0.000    0.000    0.000    0.000    0.000 
#
# Total GULP energy -178344.037689 kJ/mol
# GULP energy per Si atom -5573.251178 kJ/mol
# Density = 2.564569 g / cm^3
# Si number density = 25.704197 Si / 1000 Ang^3
#
#
#
# Elastic Constant Matrix: (Units=GPa)
#
#
# Indices 1 2 3 4 5 6 
#
# 1 62.4127 13.6800 27.2269 0.0000 -19.6986 0.0000
# 2 13.6800 56.5135 -13.4538 0.0000 0.1768 0.0000
# 3 27.2269 -13.4538 127.2875 0.0000 -28.1238 0.0000
# 4 0.0000 0.0000 0.0000 23.9293 0.0000 3.0905
# 5 -19.6986 0.1768 -28.1238 0.0000 30.7841 0.0000
# 6 0.0000 0.0000 0.0000 3.0905 0.0000 23.2517
#
#
#
# Elastic Compliance Matrix: (Units=1/GPa)
#
#
# Indices 1 2 3 4 5 6 
#
# 1 0.022291 -0.006105 -0.002824 0.000000 0.011719 0.000000
# 2 -0.006105 0.019929 0.003162 0.000000 -0.001132 0.000000
# 3 -0.002824 0.003162 0.010513 0.000000 0.007780 0.000000
# 4 0.000000 0.000000 0.000000 0.042520 0.000000 -0.005651
# 5 0.011719 -0.001132 0.007780 0.000000 0.047097 0.000000
# 6 0.000000 0.000000 0.000000 -0.005651 0.000000 0.043759
#
#
# Mechanical properties :
#
#
# Convention : Reuss Voigt Hill
#
# Bulk Modulus (GPa) = 24.27193 33.45776 28.86484
# Shear Modulus (GPa) = 23.65453 30.17708 26.91580
#
# Velocity S-wave (km/s) = 3.03687 3.43011 3.23946
# Velocity P-wave (km/s) = 4.66477 5.36024 5.02455
#
# Compressibility (1/GPa) = 0.04119986
#
# Stress axis : x y z
#
# Youngs Moduli (GPa) = 44.86074 50.17811 95.11671
#
# Poissons Ratio (x) = 0.30633 0.26862
# Poissons Ratio (y) = 0.27387 -0.30077
# Poissons Ratio (z) = 0.12669 -0.15867
#
# Static dielectric constant tensor:
#      x y z
#    x 2.090400 0.000000 -0.033160 
#    y 0.000000 2.115480 0.000000 
#    z -0.033160 0.000000 2.091020 
# 
# From -- ./inp_files/42014.got.cif
#   From: 2010.05.17/outbox.cif.g08.bks.cpg/sg14_22_cif.got.tgz:42014.got - 2010.06.03 17:49:19.
