data_PCOD9241606
_publ_section_title
;
Structure prediction by ZEFSAII (Michael W. Deem and Ramdas Pophale) SiO2 
 PCOD9241606
Probable space group: P 21/C
;
_chemical_formula_sum "Si O2"
_cell_formula_units_Z 18
_cell_length_a 19.510842
_cell_length_b 4.872647
_cell_length_c 12.576110
_cell_angle_alpha 90.000000
_cell_angle_beta 148.570178
_cell_angle_gamma 90.000000
_cell_volume 623.452182
_symmetry_space_group_name_H-M "P 21/C"
_symmetry_group_IT_number 14
_symmetry_cell_setting 'monoclinic'
loop_
_space_group_symop_operation_xyz
x,y,z
-x,1/2+y,1/2-z
-x,-y,-z
x,1/2-y,1/2+z
loop_
_atom_site_type_symbol
_atom_site_label
_atom_site_fract_x
_atom_site_fract_y
_atom_site_fract_z
Si Si1 0.491372 0.949641 0.311616
Si Si2 0.787346 0.235189 0.046695
Si Si3 0.000000 0.500000 0.500000
Si Si4 0.767547 0.780986 0.686492
Si Si5 0.067319 0.495999 0.932130
O O1 0.490792 0.263860 0.272995
O O2 0.631597 0.881203 0.551722
O O3 0.361746 0.841071 0.194262
O O4 0.760174 0.991753 0.110768
O O5 0.930105 0.092552 0.200764
O O6 0.811501 0.479847 0.983551
O O7 0.164605 0.529749 0.791466
O O8 0.043626 0.751771 0.478938
O O9 0.895577 0.757570 0.935111
#
# Coordination Sequence:
#
# PCOD9241606 Si02
#       5
#     4   4   2   4   4
#     4  10  22  40  66  95 135 178 223 277 335 394
#     4  10  19  36  62  94 129 176 228 272 339 395
#     4   6  14  34  58  86 126 168 208 268 316 382
#     4   8  17  38  62  88 134 176 219 279 332 389
#     4   9  18  35  62  90 131 173 225 279 326 405
#
# _framework density 28.871500999999999
#
# number of rings (size 3 to 8) (size 9 to 14) (size 15 to 20)
#    1.333    1.778    0.000    0.000    0.000    4.444 
#    0.000    8.889    0.000   24.000    0.000    0.000 
#    0.000    0.000    0.000    0.000    0.000    0.000 
#
# Total GULP energy -100303.467828 kJ/mol
# GULP energy per Si atom -5572.414879 kJ/mol
# Density = 2.880579 g / cm^3
# Si number density = 28.871501 Si / 1000 Ang^3
#
#
#
# Elastic Constant Matrix: (Units=GPa)
#
#
# Indices 1 2 3 4 5 6 
#
# 1 123.1609 37.2775 58.3892 0.0000 -11.7770 0.0000
# 2 37.2775 200.6251 25.2741 0.0000 -11.9682 0.0000
# 3 58.3892 25.2741 214.5844 0.0000 35.8554 0.0000
# 4 0.0000 0.0000 0.0000 48.0342 0.0000 6.1543
# 5 -11.7770 -11.9682 35.8554 0.0000 31.5894 0.0000
# 6 0.0000 0.0000 0.0000 6.1543 0.0000 35.3095
#
#
#
# Elastic Compliance Matrix: (Units=1/GPa)
#
#
# Indices 1 2 3 4 5 6 
#
# 1 0.011408 -0.001021 -0.004479 0.000000 0.008950 0.000000
# 2 -0.001021 0.005427 -0.000791 0.000000 0.002574 0.000000
# 3 -0.004479 -0.000791 0.007776 0.000000 -0.010796 0.000000
# 4 0.000000 0.000000 0.000000 0.021294 0.000000 -0.003711
# 5 0.008950 0.002574 -0.010796 0.000000 0.048222 0.000000
# 6 0.000000 0.000000 0.000000 -0.003711 0.000000 0.028968
#
#
# Mechanical properties :
#
#
# Convention : Reuss Voigt Hill
#
# Bulk Modulus (GPa) = 83.14438 86.69466 84.91952
# Shear Modulus (GPa) = 35.79365 50.81527 43.30446
#
# Velocity S-wave (km/s) = 3.52484 4.19985 3.87706
# Velocity P-wave (km/s) = 6.73992 7.32197 7.03697
#
# Compressibility (1/GPa) = 0.01202727
#
# Stress axis : x y z
#
# Youngs Moduli (GPa) = 87.65656 184.24898 128.59738
#
# Poissons Ratio (x) = 0.18820 0.57605
# Poissons Ratio (y) = 0.08954 0.10177
# Poissons Ratio (z) = 0.39265 0.14581
#
# Static dielectric constant tensor:
#      x y z
#    x 2.779470 0.000000 -0.584230 
#    y 0.000000 2.415920 0.000000 
#    z -0.584230 0.000000 3.188130 
# 
# From -- ./inp_files/60860.got.cif
#   From: 2010.05.17/outbox.cif.g08.bks.cpg/sg14_31_cif.got.tgz:60860.got - 2010.06.03 17:49:19.
