data_PCOD9241565
_publ_section_title
;
Structure prediction by ZEFSAII (Michael W. Deem and Ramdas Pophale) SiO2 
 PCOD9241565
Probable space group: P 21/C
;
_chemical_formula_sum "Si O2"
_cell_formula_units_Z 28
_cell_length_a 5.669514
_cell_length_b 11.099727
_cell_length_c 18.879811
_cell_angle_alpha 90.000000
_cell_angle_beta 114.725768
_cell_angle_gamma 90.000000
_cell_volume 1079.182075
_symmetry_space_group_name_H-M "P 21/C"
_symmetry_group_IT_number 14
_symmetry_cell_setting 'monoclinic'
loop_
_space_group_symop_operation_xyz
x,y,z
-x,1/2+y,1/2-z
-x,-y,-z
x,1/2-y,1/2+z
loop_
_atom_site_type_symbol
_atom_site_label
_atom_site_fract_x
_atom_site_fract_y
_atom_site_fract_z
Si Si1 0.650841 0.088142 0.836873
Si Si2 0.537270 0.676673 0.540015
Si Si3 0.935886 0.110550 0.230379
Si Si4 0.631692 0.865572 0.903184
Si Si5 0.015361 0.826399 0.608102
Si Si6 0.107761 0.123005 0.714619
Si Si7 0.958429 0.328911 0.046131
O O1 0.489471 0.106564 0.890903
O O2 0.850101 0.195748 0.868037
O O3 0.419404 0.098568 0.751408
O O4 0.768966 0.956305 0.865510
O O5 0.660433 0.604812 0.489896
O O6 0.710960 0.796059 0.574287
O O7 0.257405 0.724203 0.480778
O O8 0.664568 0.132340 0.157776
O O9 0.885071 0.112612 0.308912
O O10 0.091041 0.234023 0.233497
O O11 0.015710 0.967573 0.240731
O O12 0.761451 0.735337 0.915836
O O13 0.073380 0.880722 0.537762
O O14 0.952586 0.106075 0.620910
#
# Coordination Sequence:
#
# PCOD9241565 Si02
#       7
#     4   4   4   4   4   4   4
#     4  10  21  36  62  94 126 168 214 262 317 375
#     4  10  19  36  61  90 136 162 210 260 318 378
#     4  11  23  43  68  94 129 169 215 264 317 376
#     4  10  21  36  62  94 126 168 214 262 317 375
#     4  10  22  39  63  91 130 166 211 259 320 378
#     4  11  23  43  68  94 129 169 215 264 317 376
#     4  10  22  39  63  91 130 166 211 259 320 378
#
# _framework density 25.945577
#
# number of rings (size 3 to 8) (size 9 to 14) (size 15 to 20)
#    0.000    1.714    2.857    1.286    0.000    8.000 
#    0.000    2.143    0.000    0.000    0.000    0.000 
#    0.000    0.000    0.000    0.000    0.000    0.000 
#
# Total GULP energy -156261.794287 kJ/mol
# GULP energy per Si atom -5580.778367 kJ/mol
# Density = 2.588652 g / cm^3
# Si number density = 25.945577 Si / 1000 Ang^3
#
#
#
# Elastic Constant Matrix: (Units=GPa)
#
#
# Indices 1 2 3 4 5 6 
#
# 1 10.4827 0.9408 4.7282 0.0000 13.0963 0.0000
# 2 0.9408 57.6108 8.6730 0.0000 3.1660 0.0000
# 3 4.7282 8.6730 157.9819 0.0000 0.2456 0.0000
# 4 0.0000 0.0000 0.0000 47.1453 0.0000 -7.7092
# 5 13.0963 3.1660 0.2456 0.0000 45.3782 0.0000
# 6 0.0000 0.0000 0.0000 -7.7092 0.0000 23.3371
#
#
#
# Elastic Compliance Matrix: (Units=1/GPa)
#
#
# Indices 1 2 3 4 5 6 
#
# 1 0.152327 0.000611 -0.004524 0.000000 -0.043980 0.000000
# 2 0.000611 0.017572 -0.000981 0.000000 -0.001397 0.000000
# 3 -0.004524 -0.000981 0.006517 0.000000 0.001339 0.000000
# 4 0.000000 0.000000 0.000000 0.022422 0.000000 0.007407
# 5 -0.043980 -0.001397 0.001339 0.000000 0.034820 0.000000
# 6 0.000000 0.000000 0.000000 0.007407 0.000000 0.045297
#
#
# Mechanical properties :
#
#
# Convention : Reuss Voigt Hill
#
# Bulk Modulus (GPa) = 6.00142 28.30660 17.15401
# Shear Modulus (GPa) = 14.52279 37.28769 25.90524
#
# Velocity S-wave (km/s) = 2.36845 3.79509 3.16325
# Velocity P-wave (km/s) = 3.13010 5.48974 4.46849
#
# Compressibility (1/GPa) = 0.16662716
#
# Stress axis : x y z
#
# Youngs Moduli (GPa) = 6.56484 56.90775 153.44479
#
# Poissons Ratio (x) = -0.03474 0.69420
# Poissons Ratio (y) = -0.00401 0.15050
# Poissons Ratio (z) = 0.02970 0.05581
#
# Static dielectric constant tensor:
#      x y z
#    x 2.078100 0.000000 -0.102700 
#    y 0.000000 2.274010 0.000000 
#    z -0.102700 0.000000 2.009780 
# 
# From -- ./inp_files/63599.got.cif
#   From: 2010.05.17/outbox.cif.g08.bks.cpg/sg14_32_cif.got.tgz:63599.got - 2010.06.03 17:49:19.
