data_PCOD9241644
_publ_section_title
;
Structure prediction by ZEFSAII (Michael W. Deem and Ramdas Pophale) SiO2 
 PCOD9241644
Probable space group: P 21/C
;
_chemical_formula_sum "Si O2"
_cell_formula_units_Z 26
_cell_length_a 7.446678
_cell_length_b 5.779317
_cell_length_c 23.015846
_cell_angle_alpha 90.000000
_cell_angle_beta 94.863206
_cell_angle_gamma 90.000000
_cell_volume 986.960402
_symmetry_space_group_name_H-M "P 21/C"
_symmetry_group_IT_number 14
_symmetry_cell_setting 'monoclinic'
loop_
_space_group_symop_operation_xyz
x,y,z
-x,1/2+y,1/2-z
-x,-y,-z
x,1/2-y,1/2+z
loop_
_atom_site_type_symbol
_atom_site_label
_atom_site_fract_x
_atom_site_fract_y
_atom_site_fract_z
Si Si1 0.652502 0.204852 0.024797
Si Si2 0.872945 0.884242 0.117377
Si Si3 0.588922 0.999025 0.620253
Si Si4 0.000000 0.000000 0.500000
Si Si5 0.214638 0.075097 0.072742
Si Si6 0.627495 0.124545 0.819469
Si Si7 0.278036 0.870050 0.784027
O O1 0.737494 0.042051 0.076858
O O2 0.527191 0.375113 0.059661
O O3 0.810689 0.376456 0.009247
O O4 0.641598 0.034859 0.968632
O O5 0.871522 0.996929 0.181702
O O6 0.055816 0.887125 0.085616
O O7 0.776352 0.639153 0.115473
O O8 0.441507 0.818685 0.637852
O O9 0.643528 0.171534 0.672546
O O10 0.110350 0.211241 0.541945
O O11 0.300389 0.087656 0.139586
O O12 0.761444 0.247957 0.778097
O O13 0.445760 0.046469 0.781228
#
# Coordination Sequence:
#
# PCOD9241644 Si02
#       7
#     4   4   4   2   4   4   4
#     4  10  19  36  65  94 131 175 210 269 337 406
#     4   9  20  39  63  92 129 174 216 268 342 396
#     4  10  20  39  66  89 130 180 212 275 344 392
#     4  10  20  40  62  90 142 168 202 280 338 404
#     4  11  23  39  65 103 131 170 226 276 344 417
#     4  11  23  41  64  92 129 176 230 279 339 414
#     4  10  21  42  63  84 127 179 223 277 338 398
#
# _framework density 26.343512
#
# number of rings (size 3 to 8) (size 9 to 14) (size 15 to 20)
#    0.000    1.846    1.538    3.692    0.000    1.846 
#    2.769   10.769    0.000   11.077    0.000    0.000 
#    0.000    0.000    0.000    0.000    0.000    0.000 
#
# Total GULP energy -144874.104084 kJ/mol
# GULP energy per Si atom -5572.080926 kJ/mol
# Density = 2.628355 g / cm^3
# Si number density = 26.343512 Si / 1000 Ang^3
#
#
#
# Elastic Constant Matrix: (Units=GPa)
#
#
# Indices 1 2 3 4 5 6 
#
# 1 78.9728 24.2143 30.9707 0.0000 -3.0209 0.0000
# 2 24.2143 115.2838 69.8202 0.0000 -16.2054 0.0000
# 3 30.9707 69.8202 136.0161 0.0000 -15.2873 0.0000
# 4 0.0000 0.0000 0.0000 56.4333 0.0000 -6.7643
# 5 -3.0209 -16.2054 -15.2873 0.0000 29.7636 0.0000
# 6 0.0000 0.0000 0.0000 -6.7643 0.0000 33.7056
#
#
#
# Elastic Compliance Matrix: (Units=1/GPa)
#
#
# Indices 1 2 3 4 5 6 
#
# 1 0.014088 -0.001548 -0.002491 0.000000 -0.000692 0.000000
# 2 -0.001548 0.013165 -0.005962 0.000000 0.003949 0.000000
# 3 -0.002491 -0.005962 0.011235 0.000000 0.002272 0.000000
# 4 0.000000 0.000000 0.000000 0.018157 0.000000 0.003644
# 5 -0.000692 0.003949 0.002272 0.000000 0.036845 0.000000
# 6 0.000000 0.000000 0.000000 0.003644 0.000000 0.030400
#
#
# Mechanical properties :
#
#
# Convention : Reuss Voigt Hill
#
# Bulk Modulus (GPa) = 54.09296 64.47590 59.28443
# Shear Modulus (GPa) = 33.32181 37.66501 35.49341
#
# Velocity S-wave (km/s) = 3.56040 3.78532 3.67458
# Velocity P-wave (km/s) = 6.12210 6.60554 6.36841
#
# Compressibility (1/GPa) = 0.01848669
#
# Stress axis : x y z
#
# Youngs Moduli (GPa) = 70.98460 75.95892 89.00823
#
# Poissons Ratio (x) = 0.11755 0.22173
# Poissons Ratio (y) = 0.10985 0.53064
# Poissons Ratio (z) = 0.17683 0.45285
#
# Static dielectric constant tensor:
#      x y z
#    x 2.078290 0.000000 -0.006870 
#    y 0.000000 1.803550 0.000000 
#    z -0.006870 0.000000 1.858480 
# 
# From -- ./inp_files/71648.got.cif
#   From: 2010.05.17/outbox.cif.g08.bks.cpg/sg14_36_cif.got.tgz:71648.got - 2010.06.03 17:49:19.
