data_PCOD9241748
_publ_section_title
;
Structure prediction by ZEFSAII (Michael W. Deem and Ramdas Pophale) SiO2 
 PCOD9241748
Probable space group: P 21/C
;
_chemical_formula_sum "Si O2"
_cell_formula_units_Z 32
_cell_length_a 12.146345
_cell_length_b 28.408976
_cell_length_c 5.269714
_cell_angle_alpha 90.000000
_cell_angle_beta 119.525163
_cell_angle_gamma 90.000000
_cell_volume 1582.257079
_symmetry_space_group_name_H-M "P 21/C"
_symmetry_group_IT_number 14
_symmetry_cell_setting 'monoclinic'
loop_
_space_group_symop_operation_xyz
x,y,z
-x,1/2+y,1/2-z
-x,-y,-z
x,1/2-y,1/2+z
loop_
_atom_site_type_symbol
_atom_site_label
_atom_site_fract_x
_atom_site_fract_y
_atom_site_fract_z
Si Si1 0.026216 0.126434 0.609356
Si Si2 0.809456 0.885092 0.701352
Si Si3 0.132882 0.779098 0.484405
Si Si4 0.612277 0.165904 0.213270
Si Si5 0.463229 0.352477 0.019256
Si Si6 0.230736 0.575336 0.200010
Si Si7 0.333818 0.480574 0.076780
Si Si8 0.574715 0.447579 0.217644
O O1 0.953745 0.175360 0.571688
O O2 0.915796 0.087191 0.465597
O O3 0.104524 0.129440 0.438430
O O4 0.114088 0.115106 0.949443
O O5 0.685990 0.852300 0.599264
O O6 0.758234 0.937221 0.573699
O O7 0.108643 0.758119 0.179691
O O8 0.278858 0.795149 0.676936
O O9 0.517848 0.174915 0.340032
O O10 0.692349 0.117316 0.350723
O O11 0.536230 0.160276 0.862667
O O12 0.495907 0.407203 0.986444
O O13 0.295739 0.576810 0.548607
O O14 0.267948 0.523141 0.150202
O O15 0.377563 0.505988 0.867277
O O16 0.470886 0.459662 0.319847
#
# Coordination Sequence:
#
# PCOD9241748 Si02
#       8
#     4   4   4   4   4   4   4   4
#     4  11  26  43  61  88 125 162 213 249 297 367
#     4  11  25  40  58  87 127 178 213 238 279 356
#     4  11  23  43  73  97 117 146 190 253 313 374
#     4  10  20  36  64  96 116 145 188 252 319 364
#     4  10  19  37  61  86 125 162 192 245 301 347
#     4  10  21  34  58  81 123 158 208 263 307 338
#     4  10  20  34  56  82 121 167 216 260 294 354
#     4   9  19  33  54  85 116 159 217 257 305 351
#
# _framework density 20.224274000000001
#
# number of rings (size 3 to 8) (size 9 to 14) (size 15 to 20)
#    0.000    1.750    1.250    2.625    3.500    3.000 
#    0.000    0.000    0.000   15.000    0.000    0.000 
#    0.000    0.000    0.000    0.000    0.000    0.000 
#
# Total GULP energy -178396.500087 kJ/mol
# GULP energy per Si atom -5574.890628 kJ/mol
# Density = 2.017824 g / cm^3
# Si number density = 20.224274 Si / 1000 Ang^3
#
#
#
# Elastic Constant Matrix: (Units=GPa)
#
#
# Indices 1 2 3 4 5 6 
#
# 1 125.1519 7.9705 37.8970 0.0000 -1.9937 0.0000
# 2 7.9705 25.1659 -12.9540 0.0000 2.8677 0.0000
# 3 37.8970 -12.9540 74.8155 0.0000 9.6454 0.0000
# 4 0.0000 0.0000 0.0000 20.9722 0.0000 2.5612
# 5 -1.9937 2.8677 9.6454 0.0000 35.0093 0.0000
# 6 0.0000 0.0000 0.0000 2.5612 0.0000 20.8446
#
#
#
# Elastic Compliance Matrix: (Units=1/GPa)
#
#
# Indices 1 2 3 4 5 6 
#
# 1 0.010656 -0.007381 -0.007083 0.000000 0.003163 0.000000
# 2 -0.007381 0.049930 0.013443 0.000000 -0.008214 0.000000
# 3 -0.007083 0.013443 0.020193 0.000000 -0.007068 0.000000
# 4 0.000000 0.000000 0.000000 0.048409 0.000000 -0.005948
# 5 0.003163 -0.008214 -0.007068 0.000000 0.031364 0.000000
# 6 0.000000 0.000000 0.000000 -0.005948 0.000000 0.048705
#
#
# Mechanical properties :
#
#
# Convention : Reuss Voigt Hill
#
# Bulk Modulus (GPa) = 12.70079 32.32892 22.51486
# Shear Modulus (GPa) = 21.04869 28.17988 24.61428
#
# Velocity S-wave (km/s) = 3.22959 3.73684 3.49243
# Velocity P-wave (km/s) = 4.49451 5.88545 5.23637
#
# Compressibility (1/GPa) = 0.07873524
#
# Stress axis : x y z
#
# Youngs Moduli (GPa) = 93.84674 20.02809 49.52203
#
# Poissons Ratio (x) = 0.14783 0.35078
# Poissons Ratio (y) = 0.69272 -0.66573
# Poissons Ratio (z) = 0.66475 -0.26924
#
# Static dielectric constant tensor:
#      x y z
#    x 1.727010 0.000000 -0.020390 
#    y 0.000000 1.771860 0.000000 
#    z -0.020390 0.000000 1.749970 
# 
# From -- ./inp_files/3317.got.cif
#   From: 2010.05.17/outbox.cif.g08.bks.cpg/sg14_2_cif.got.tgz:3317.got - 2010.06.03 17:49:19.
