data_PCOD9241365
_publ_section_title
;
Structure prediction by ZEFSAII (Michael W. Deem and Ramdas Pophale) SiO2 
 PCOD9241365
Probable space group: P 21/C
;
_chemical_formula_sum "Si O2"
_cell_formula_units_Z 32
_cell_length_a 13.716479
_cell_length_b 12.787539
_cell_length_c 14.101536
_cell_angle_alpha 90.000000
_cell_angle_beta 149.133711
_cell_angle_gamma 90.000000
_cell_volume 1268.948901
_symmetry_space_group_name_H-M "P 21/C"
_symmetry_group_IT_number 14
_symmetry_cell_setting 'monoclinic'
loop_
_space_group_symop_operation_xyz
x,y,z
-x,1/2+y,1/2-z
-x,-y,-z
x,1/2-y,1/2+z
loop_
_atom_site_type_symbol
_atom_site_label
_atom_site_fract_x
_atom_site_fract_y
_atom_site_fract_z
Si Si1 0.760003 0.461595 0.384484
Si Si2 0.541686 0.889900 0.135893
Si Si3 0.242938 0.917823 0.331966
Si Si4 0.624182 0.262904 0.767279
Si Si5 0.322501 0.413014 0.453134
Si Si6 0.548312 0.669536 0.197017
Si Si7 0.021915 0.461858 0.778346
Si Si8 0.859644 0.305612 0.782196
O O1 0.803828 0.465303 0.308923
O O2 0.620592 0.361843 0.272215
O O3 0.688153 0.578419 0.346270
O O4 0.914728 0.426130 0.591739
O O5 0.631335 0.786170 0.256179
O O6 0.468944 0.998879 0.118629
O O7 0.666758 0.923703 0.151401
O O8 0.338017 0.846259 0.929016
O O9 0.455131 0.872594 0.521749
O O10 0.112658 0.813895 0.226036
O O11 0.215526 0.996626 0.396099
O O12 0.422558 0.304192 0.559187
O O13 0.622476 0.312103 0.870327
O O14 0.796492 0.298200 0.840941
O O15 0.109681 0.440181 0.301545
O O16 0.009406 0.382111 0.855582
#
# Coordination Sequence:
#
# PCOD9241365 Si02
#       8
#     4   4   4   4   4   4   4   4
#     4  11  22  38  60  87 115 155 196 237 293 349
#     4   8  16  31  57  81 112 141 190 232 290 330
#     4  10  22  38  56  80 120 156 190 231 290 355
#     4  10  19  35  62  85 115 148 198 235 288 349
#     4   9  16  32  57  86 104 143 190 243 274 336
#     4  11  21  37  58  87 119 152 190 242 293 339
#     4  11  20  39  60  85 114 153 199 236 290 349
#     4   8  18  36  58  80 110 157 188 229 289 349
#
# _framework density 25.217721000000001
#
# number of rings (size 3 to 8) (size 9 to 14) (size 15 to 20)
#    0.000    2.250    1.250    4.500    0.000    0.000 
#    4.500    0.625    0.000    0.000    0.000    0.000 
#    0.000    0.000    0.000    0.000    0.000    0.000 
#
# Total GULP energy -178342.989721 kJ/mol
# GULP energy per Si atom -5573.218429 kJ/mol
# Density = 2.516032 g / cm^3
# Si number density = 25.217721 Si / 1000 Ang^3
#
#
#
# Elastic Constant Matrix: (Units=GPa)
#
#
# Indices 1 2 3 4 5 6 
#
# 1 114.0784 46.2725 8.0548 0.0000 -26.2455 0.0000
# 2 46.2725 141.7146 20.6786 0.0000 3.2959 0.0000
# 3 8.0548 20.6786 49.7684 0.0000 -7.4908 0.0000
# 4 0.0000 0.0000 0.0000 18.5401 0.0000 -9.5760
# 5 -26.2455 3.2959 -7.4908 0.0000 20.3311 0.0000
# 6 0.0000 0.0000 0.0000 -9.5760 0.0000 42.4017
#
#
#
# Elastic Compliance Matrix: (Units=1/GPa)
#
#
# Indices 1 2 3 4 5 6 
#
# 1 0.016648 -0.006518 0.003607 0.000000 0.023877 0.000000
# 2 -0.006518 0.010186 -0.004968 0.000000 -0.011895 0.000000
# 3 0.003607 -0.004968 0.023710 0.000000 0.014198 0.000000
# 4 0.000000 0.000000 0.000000 0.061059 0.000000 0.013790
# 5 0.023877 -0.011895 0.014198 0.000000 0.087168 0.000000
# 6 0.000000 0.000000 0.000000 0.013790 0.000000 0.026698
#
#
# Mechanical properties :
#
#
# Convention : Reuss Voigt Hill
#
# Bulk Modulus (GPa) = 28.74523 50.61922 39.68223
# Shear Modulus (GPa) = 19.77677 31.62496 25.70086
#
# Velocity S-wave (km/s) = 2.80347 3.54514 3.19589
# Velocity P-wave (km/s) = 4.68004 6.07238 5.42110
#
# Compressibility (1/GPa) = 0.03478839
#
# Stress axis : x y z
#
# Youngs Moduli (GPa) = 60.06709 98.17304 42.17571
#
# Poissons Ratio (x) = 0.63985 -0.15214
# Poissons Ratio (y) = 0.39149 0.20952
# Poissons Ratio (z) = -0.21668 0.48771
#
# Static dielectric constant tensor:
#      x y z
#    x 2.098340 0.000000 -0.023710 
#    y 0.000000 2.051940 0.000000 
#    z -0.023710 0.000000 2.032960 
# 
# From -- ./inp_files/47164.got.cif
#   From: 2010.05.17/outbox.cif.g08.bks.cpg/sg14_24_cif.got.tgz:47164.got - 2010.06.03 17:49:19.
