data_PCOD9241561
_publ_section_title
;
Structure prediction by ZEFSAII (Michael W. Deem and Ramdas Pophale) SiO2 
 PCOD9241561
Probable space group: P 21/C
;
_chemical_formula_sum "Si O2"
_cell_formula_units_Z 32
_cell_length_a 10.336136
_cell_length_b 15.170036
_cell_length_c 13.846521
_cell_angle_alpha 90.000000
_cell_angle_beta 142.589538
_cell_angle_gamma 90.000000
_cell_volume 1319.005811
_symmetry_space_group_name_H-M "P 21/C"
_symmetry_group_IT_number 14
_symmetry_cell_setting 'monoclinic'
loop_
_space_group_symop_operation_xyz
x,y,z
-x,1/2+y,1/2-z
-x,-y,-z
x,1/2-y,1/2+z
loop_
_atom_site_type_symbol
_atom_site_label
_atom_site_fract_x
_atom_site_fract_y
_atom_site_fract_z
Si Si1 0.263448 0.012875 0.726212
Si Si2 0.992549 0.173207 0.570797
Si Si3 0.083685 0.984546 0.825783
Si Si4 0.374730 0.858359 0.085217
Si Si5 0.673161 0.281820 0.248685
Si Si6 0.603845 0.623126 0.386815
Si Si7 0.640504 0.808104 0.699540
Si Si8 0.730721 0.392764 0.100548
O O1 0.103557 0.086531 0.588382
O O2 0.157370 0.973555 0.758887
O O3 0.461822 0.076672 0.871119
O O4 0.392293 0.938038 0.745619
O O5 0.166942 0.243490 0.712642
O O6 0.850074 0.226062 0.410839
O O7 0.864373 0.135709 0.585400
O O8 0.841389 0.014553 0.689872
O O9 0.225239 0.065423 0.953978
O O10 0.147166 0.896955 0.921613
O O11 0.401212 0.855127 0.216814
O O12 0.445232 0.762053 0.095989
O O13 0.482765 0.212546 0.114582
O O14 0.766989 0.327246 0.211237
O O15 0.690107 0.651819 0.334033
O O16 0.520886 0.883028 0.568118
#
# Coordination Sequence:
#
# PCOD9241561 Si02
#       8
#     4   4   4   4   4   4   4   4
#     4   9  20  34  63  91 118 154 207 252 302 358
#     4  10  21  41  56  90 122 158 197 255 299 359
#     4  10  21  36  63  89 119 160 209 247 301 359
#     4   9  18  37  56  85 114 159 198 243 293 364
#     4  11  23  35  62  88 119 164 201 245 309 357
#     4  10  19  36  61  88 115 157 196 253 306 352
#     4  10  21  39  61  83 126 152 200 256 298 352
#     4  11  23  38  57  94 117 158 205 244 303 364
#
# _framework density 24.260697
#
# number of rings (size 3 to 8) (size 9 to 14) (size 15 to 20)
#    0.000    2.000    2.500    2.250    7.000    1.000 
#    0.000    0.000    0.000    3.750    0.000    0.000 
#    0.000    0.000    0.000    0.000    0.000    0.000 
#
# Total GULP energy -178669.249915 kJ/mol
# GULP energy per Si atom -5583.414060 kJ/mol
# Density = 2.420548 g / cm^3
# Si number density = 24.260697 Si / 1000 Ang^3
#
#
#
# Elastic Constant Matrix: (Units=GPa)
#
#
# Indices 1 2 3 4 5 6 
#
# 1 57.2310 55.4306 31.4964 0.0000 -7.5525 0.0000
# 2 55.4306 55.6860 22.0675 0.0000 8.3727 0.0000
# 3 31.4964 22.0675 68.0792 0.0000 -1.8307 0.0000
# 4 0.0000 0.0000 0.0000 33.8772 0.0000 27.4840
# 5 -7.5525 8.3727 -1.8307 0.0000 24.6924 0.0000
# 6 0.0000 0.0000 0.0000 27.4840 0.0000 28.8351
#
#
#
# Elastic Compliance Matrix: (Units=1/GPa)
#
#
# Indices 1 2 3 4 5 6 
#
# 1 -0.107037 0.112688 0.011107 0.000000 -0.070125 0.000000
# 2 0.112688 -0.096549 -0.019070 0.000000 0.065791 0.000000
# 3 0.011107 -0.019070 0.016029 0.000000 0.011052 0.000000
# 4 0.000000 0.000000 0.000000 0.130190 0.000000 -0.124089
# 5 -0.070125 0.065791 0.011052 0.000000 -0.002440 0.000000
# 6 0.000000 0.000000 0.000000 -0.124089 0.000000 0.152955
#
#
# Mechanical properties :
#
#
# Convention : Reuss Voigt Hill
#
# Bulk Modulus (GPa) = 45.67397 44.33168 45.00282
# Shear Modulus (GPa) = -45.86951 22.28106 -11.79422
#
# Velocity S-wave (km/s) = -4.35293 3.03380 -2.20726
# Velocity P-wave (km/s) = 2.52918 5.53034 3.47763
#
# Compressibility (1/GPa) = 0.02189431
#
# Stress axis : x y z
#
# Youngs Moduli (GPa) = -9.34257 -10.35747 62.38808
#
# Poissons Ratio (x) = 1.16717 -0.69294
# Poissons Ratio (y) = 1.05280 1.18972
# Poissons Ratio (z) = 0.10377 -0.19751
#
# Static dielectric constant tensor:
#      x y z
#    x 1.912580 0.000000 0.028590 
#    y 0.000000 1.957090 0.000000 
#    z 0.028590 0.000000 2.039700 
# 
# From -- ./inp_files/45131.got.cif
#   From: 2010.05.17/outbox.cif.g08.bks.cpg/sg14_23_cif.got.tgz:45131.got - 2010.06.03 17:49:19.
