data_PCOD9241062
_publ_section_title
;
Structure prediction by ZEFSAII (Michael W. Deem and Ramdas Pophale) SiO2 
 PCOD9241062
Probable space group: P 21/C
;
_chemical_formula_sum "Si O2"
_cell_formula_units_Z 24
_cell_length_a 11.610549
_cell_length_b 17.805047
_cell_length_c 5.477819
_cell_angle_alpha 90.000000
_cell_angle_beta 108.233283
_cell_angle_gamma 90.000000
_cell_volume 1075.551870
_symmetry_space_group_name_H-M "P 21/C"
_symmetry_group_IT_number 14
_symmetry_cell_setting 'monoclinic'
loop_
_space_group_symop_operation_xyz
x,y,z
-x,1/2+y,1/2-z
-x,-y,-z
x,1/2-y,1/2+z
loop_
_atom_site_type_symbol
_atom_site_label
_atom_site_fract_x
_atom_site_fract_y
_atom_site_fract_z
Si Si1 0.487826 0.069929 0.732653
Si Si2 0.044790 0.960484 0.779997
Si Si3 0.447910 0.725066 0.604168
Si Si4 0.328183 0.169888 0.274489
Si Si5 0.692883 0.520999 0.500915
Si Si6 0.063146 0.206213 0.263448
O O1 0.537444 0.137271 0.939374
O O2 0.420023 0.118327 0.487751
O O3 0.603771 0.019842 0.747909
O O4 0.388227 0.023171 0.811215
O O5 0.997979 0.875242 0.755210
O O6 0.188411 0.972792 0.884046
O O7 0.000000 0.000000 0.500000
O O8 0.000000 0.000000 0.000000
O O9 0.387095 0.762786 0.328266
O O10 0.580860 0.763585 0.743925
O O11 0.209880 0.196056 0.342765
O O12 0.280253 0.108513 0.044876
O O13 0.032221 0.253659 0.485642
#
# Coordination Sequence:
#
# PCOD9241062 Si02
#       6
#     4   4   4   4   4   4
#     4  10  22  39  61 101 139 170 225 279 356 425
#     4  12  26  48  73 104 141 191 247 298 364 424
#     4  10  19  34  56  87 126 162 208 264 328 394
#     4  11  21  37  67  98 131 173 230 288 347 407
#     4  11  23  41  66  98 135 185 224 294 347 427
#     4  12  26  44  72 104 141 184 243 308 357 419
#
# _framework density 22.314126999999999
#
# number of rings (size 3 to 8) (size 9 to 14) (size 15 to 20)
#    0.000    1.000    3.333    4.500    2.333    0.000 
#    0.000    3.333    0.000    0.000    0.000    0.000 
#    0.000    0.000    0.000    0.000    0.000    0.000 
#
# Total GULP energy -133985.004113 kJ/mol
# GULP energy per Si atom -5582.708505 kJ/mol
# Density = 2.226334 g / cm^3
# Si number density = 22.314127 Si / 1000 Ang^3
#
#
#
# Elastic Constant Matrix: (Units=GPa)
#
#
# Indices 1 2 3 4 5 6 
#
# 1 65.2260 38.2310 35.1605 0.0000 -0.5969 0.0000
# 2 38.2310 160.1717 44.1891 0.0000 -16.8417 0.0000
# 3 35.1605 44.1891 122.8905 0.0000 -27.5827 0.0000
# 4 0.0000 0.0000 0.0000 45.7242 0.0000 -8.5341
# 5 -0.5969 -16.8417 -27.5827 0.0000 23.9910 0.0000
# 6 0.0000 0.0000 0.0000 -8.5341 0.0000 41.6130
#
#
#
# Elastic Compliance Matrix: (Units=1/GPa)
#
#
# Indices 1 2 3 4 5 6 
#
# 1 0.021519 -0.004320 -0.006960 0.000000 -0.010499 0.000000
# 2 -0.004320 0.007930 -0.000526 0.000000 0.004855 0.000000
# 3 -0.006960 -0.000526 0.013742 0.000000 0.015257 0.000000
# 4 0.000000 0.000000 0.000000 0.022741 0.000000 0.004664
# 5 -0.010499 0.004855 0.015257 0.000000 0.062371 0.000000
# 6 0.000000 0.000000 0.000000 0.004664 0.000000 0.024987
#
#
# Mechanical properties :
#
#
# Convention : Reuss Voigt Hill
#
# Bulk Modulus (GPa) = 51.07369 64.82768 57.95069
# Shear Modulus (GPa) = 27.25853 37.64617 32.45235
#
# Velocity S-wave (km/s) = 3.49890 4.11189 3.81772
# Velocity P-wave (km/s) = 6.26588 7.18741 6.74241
#
# Compressibility (1/GPa) = 0.01957955
#
# Stress axis : x y z
#
# Youngs Moduli (GPa) = 46.46993 126.10340 72.76832
#
# Poissons Ratio (x) = 0.54479 0.50647
# Poissons Ratio (y) = 0.20076 0.03826
# Poissons Ratio (z) = 0.32343 0.06630
#
# Static dielectric constant tensor:
#      x y z
#    x 1.817650 0.000000 -0.038910 
#    y 0.000000 1.989290 0.000000 
#    z -0.038910 0.000000 2.027770 
# 
# From -- ./inp_files/2710.got.cif
#   From: 2010.05.17/outbox.cif.g08.bks.cpg/sg14_2_cif.got.tgz:2710.got - 2010.06.03 17:49:19.
