data_PCOD9241952
_publ_section_title
;
Structure prediction by ZEFSAII (Michael W. Deem and Ramdas Pophale) SiO2 
 PCOD9241952
Probable space group: P 21/C
;
_chemical_formula_sum "Si O2"
_cell_formula_units_Z 28
_cell_length_a 10.214269
_cell_length_b 8.918920
_cell_length_c 19.525925
_cell_angle_alpha 90.000000
_cell_angle_beta 48.804639
_cell_angle_gamma 90.000000
_cell_volume 1338.503001
_symmetry_space_group_name_H-M "P 21/C"
_symmetry_group_IT_number 14
_symmetry_cell_setting 'monoclinic'
loop_
_space_group_symop_operation_xyz
x,y,z
-x,1/2+y,1/2-z
-x,-y,-z
x,1/2-y,1/2+z
loop_
_atom_site_type_symbol
_atom_site_label
_atom_site_fract_x
_atom_site_fract_y
_atom_site_fract_z
Si Si1 0.468084 0.611897 0.074754
Si Si2 0.993767 0.486281 0.388419
Si Si3 0.351000 0.121256 0.056647
Si Si4 0.111719 0.957654 0.645365
Si Si5 0.757999 0.980173 0.554371
Si Si6 0.167262 0.285058 0.225982
Si Si7 0.951372 0.243439 0.023638
O O1 0.262592 0.629258 0.137044
O O2 0.500000 0.500000 0.000000
O O3 0.587125 0.755388 0.019314
O O4 0.553379 0.544029 0.113336
O O5 0.833089 0.542990 0.396997
O O6 0.049697 0.629369 0.413052
O O7 0.147317 0.408563 0.292177
O O8 0.928263 0.359152 0.464280
O O9 0.337342 0.209771 0.133759
O O10 0.500000 0.000000 0.000000
O O11 0.946022 0.853619 0.709273
O O12 0.166233 0.981901 0.548029
O O13 0.092580 0.120331 0.686831
O O14 0.866357 0.836092 0.542517
O O15 0.808563 0.126355 0.579637
#
# Coordination Sequence:
#
# PCOD9241952 Si02
#       7
#     4   4   4   4   4   4   4
#     4  10  20  37  60  91 122 155 203 261 325 370
#     4  11  22  39  60  95 125 164 212 258 316 376
#     4  12  24  39  63  99 126 161 208 266 336 383
#     4  11  22  37  62  97 124 157 202 278 330 369
#     4  10  19  38  62  91 118 165 216 246 312 383
#     4  12  22  37  60  96 132 155 205 269 335 373
#     4  10  21  36  61  90 122 170 216 250 292 401
#
# _framework density 20.918893000000001
#
# number of rings (size 3 to 8) (size 9 to 14) (size 15 to 20)
#    0.000    1.143    7.143    0.857    2.000    0.000 
#    0.000    0.000    0.000    5.143   11.143    0.000 
#    0.000    0.000    0.000    0.000    0.000    0.000 
#
# Total GULP energy -156098.057395 kJ/mol
# GULP energy per Si atom -5574.930621 kJ/mol
# Density = 2.087128 g / cm^3
# Si number density = 20.918893 Si / 1000 Ang^3
#
#
#
# Elastic Constant Matrix: (Units=GPa)
#
#
# Indices 1 2 3 4 5 6 
#
# 1 52.9330 19.8233 -2.6993 0.0000 -0.0769 0.0000
# 2 19.8233 124.9838 27.2702 0.0000 1.8936 0.0000
# 3 -2.6993 27.2702 60.3985 0.0000 1.6692 0.0000
# 4 0.0000 0.0000 0.0000 42.2226 0.0000 3.2831
# 5 -0.0769 1.8936 1.6692 0.0000 15.8444 0.0000
# 6 0.0000 0.0000 0.0000 3.2831 0.0000 31.0717
#
#
#
# Elastic Compliance Matrix: (Units=1/GPa)
#
#
# Indices 1 2 3 4 5 6 
#
# 1 0.020458 -0.003824 0.002633 0.000000 0.000279 0.000000
# 2 -0.003824 0.009596 -0.004485 0.000000 -0.000693 0.000000
# 3 0.002633 -0.004485 0.018739 0.000000 -0.001425 0.000000
# 4 0.000000 0.000000 0.000000 0.023880 0.000000 -0.002523
# 5 0.000279 -0.000693 -0.001425 0.000000 0.063348 0.000000
# 6 0.000000 0.000000 0.000000 -0.002523 0.000000 0.032450
#
#
# Mechanical properties :
#
#
# Convention : Reuss Voigt Hill
#
# Bulk Modulus (GPa) = 26.70720 36.34487 31.52604
# Shear Modulus (GPa) = 26.00056 30.75579 28.37817
#
# Velocity S-wave (km/s) = 3.52933 3.83853 3.68718
# Velocity P-wave (km/s) = 5.42245 6.08750 5.76458
#
# Compressibility (1/GPa) = 0.03744308
#
# Stress axis : x y z
#
# Youngs Moduli (GPa) = 48.87967 104.20499 53.36582
#
# Poissons Ratio (x) = 0.39843 -0.14051
# Poissons Ratio (y) = 0.18689 0.23932
# Poissons Ratio (z) = -0.12870 0.46732
#
# Static dielectric constant tensor:
#      x y z
#    x 1.831170 0.000000 -0.014200 
#    y 0.000000 1.797910 0.000000 
#    z -0.014200 0.000000 1.787620 
# 
# From -- ./inp_files/66814.got.cif
#   From: 2010.05.17/outbox.cif.g08.bks.cpg/sg14_34_cif.got.tgz:66814.got - 2010.06.03 17:49:19.
