data_PCOD9241862
_publ_section_title
;
Structure prediction by ZEFSAII (Michael W. Deem and Ramdas Pophale) SiO2 
 PCOD9241862
Probable space group: P 21/C
;
_chemical_formula_sum "Si O2"
_cell_formula_units_Z 32
_cell_length_a 16.071882
_cell_length_b 16.413888
_cell_length_c 11.599000
_cell_angle_alpha 90.000000
_cell_angle_beta 151.602964
_cell_angle_gamma 90.000000
_cell_volume 1455.194844
_symmetry_space_group_name_H-M "P 21/C"
_symmetry_group_IT_number 14
_symmetry_cell_setting 'monoclinic'
loop_
_space_group_symop_operation_xyz
x,y,z
-x,1/2+y,1/2-z
-x,-y,-z
x,1/2-y,1/2+z
loop_
_atom_site_type_symbol
_atom_site_label
_atom_site_fract_x
_atom_site_fract_y
_atom_site_fract_z
Si Si1 0.563294 0.870200 0.506304
Si Si2 0.977714 0.510690 0.109355
Si Si3 0.546036 0.843053 0.843657
Si Si4 0.372028 0.577443 0.336626
Si Si5 0.903945 0.698074 0.072713
Si Si6 0.132547 0.238937 0.218401
Si Si7 0.342381 0.016238 0.169070
Si Si8 0.482906 0.775530 0.073698
O O1 0.721238 0.831723 0.624806
O O2 0.649545 0.933857 0.701945
O O3 0.468738 0.797394 0.461438
O O4 0.421703 0.926514 0.272072
O O5 0.148611 0.484066 0.384709
O O6 0.810401 0.455011 0.930361
O O7 0.944047 0.604175 0.099522
O O8 0.000000 0.500000 0.000000
O O9 0.455716 0.858009 0.852691
O O10 0.540578 0.928575 0.772065
O O11 0.457293 0.773021 0.661616
O O12 0.747163 0.818326 0.110830
O O13 0.500000 0.500000 0.500000
O O14 0.372815 0.640252 0.444355
O O15 0.954470 0.746565 0.014769
O O16 0.692100 0.706162 0.822332
O O17 0.965199 0.723856 0.277938
#
# Coordination Sequence:
#
# PCOD9241862 Si02
#       8
#     4   4   4   4   4   4   4   4
#     4   9  19  40  68  88 125 173 222 271 328 400
#     4  12  26  40  61  99 141 171 218 277 337 405
#     4  10  20  36  67  91 125 163 226 270 323 393
#     4  12  21  39  68  96 127 172 223 269 335 403
#     4  10  20  38  64  95 128 174 217 275 333 400
#     4  10  19  37  68  95 123 170 230 275 330 398
#     4  10  22  40  63  93 130 175 215 272 336 394
#     4   9  19  39  64  97 121 165 227 273 321 391
#
# _framework density 21.990182999999998
#
# number of rings (size 3 to 8) (size 9 to 14) (size 15 to 20)
#    0.000    1.750    3.750    2.250    1.750    2.000 
#    0.000    6.875    2.750    0.000    0.000    0.000 
#    0.000    0.000    0.000    0.000    0.000    0.000 
#
# Total GULP energy -178510.564896 kJ/mol
# GULP energy per Si atom -5578.455153 kJ/mol
# Density = 2.194013 g / cm^3
# Si number density = 21.990183 Si / 1000 Ang^3
#
#
#
# Elastic Constant Matrix: (Units=GPa)
#
#
# Indices 1 2 3 4 5 6 
#
# 1 59.7438 30.9416 15.7238 0.0000 -35.3707 0.0000
# 2 30.9416 140.8917 41.4114 0.0000 -8.8070 0.0000
# 3 15.7238 41.4114 92.6133 0.0000 -8.5441 0.0000
# 4 0.0000 0.0000 0.0000 21.8334 0.0000 -6.2624
# 5 -35.3707 -8.8070 -8.5441 0.0000 27.1235 0.0000
# 6 0.0000 0.0000 0.0000 -6.2624 0.0000 20.2285
#
#
#
# Elastic Compliance Matrix: (Units=1/GPa)
#
#
# Indices 1 2 3 4 5 6 
#
# 1 0.092028 -0.013254 0.001006 0.000000 0.116024 0.000000
# 2 -0.013254 0.010144 -0.003683 0.000000 -0.015150 0.000000
# 3 0.001006 -0.003683 0.012652 0.000000 0.004101 0.000000
# 4 0.000000 0.000000 0.000000 0.050265 0.000000 0.015561
# 5 0.116024 -0.015150 0.004101 0.000000 0.184543 0.000000
# 6 0.000000 0.000000 0.000000 0.015561 0.000000 0.054253
#
#
# Mechanical properties :
#
#
# Convention : Reuss Voigt Hill
#
# Bulk Modulus (GPa) = 12.05372 52.15583 32.10477
# Shear Modulus (GPa) = 10.78978 27.51522 19.15250
#
# Velocity S-wave (km/s) = 2.21750 3.54114 2.95440
# Velocity P-wave (km/s) = 3.47127 6.36308 5.12535
#
# Compressibility (1/GPa) = 0.08296194
#
# Stress axis : x y z
#
# Youngs Moduli (GPa) = 10.86622 98.58149 79.03807
#
# Poissons Ratio (x) = 1.30656 -0.07949
# Poissons Ratio (y) = 0.14402 0.29112
# Poissons Ratio (z) = -0.01093 0.36310
#
# Static dielectric constant tensor:
#      x y z
#    x 1.887920 0.000000 -0.046850 
#    y 0.000000 1.802460 0.000000 
#    z -0.046850 0.000000 1.779930 
# 
# From -- ./inp_files/34236.got.cif
#   From: 2010.05.17/outbox.cif.g08.bks.cpg/sg14_18_cif.got.tgz:34236.got - 2010.06.03 17:49:19.
