data_PCOD9241168
_publ_section_title
;
Structure prediction by ZEFSAII (Michael W. Deem and Ramdas Pophale) SiO2 
 PCOD9241168
Probable space group: P 21/C
;
_chemical_formula_sum "Si O2"
_cell_formula_units_Z 32
_cell_length_a 18.688199
_cell_length_b 9.030517
_cell_length_c 17.244729
_cell_angle_alpha 90.000000
_cell_angle_beta 149.442067
_cell_angle_gamma 90.000000
_cell_volume 1479.619130
_symmetry_space_group_name_H-M "P 21/C"
_symmetry_group_IT_number 14
_symmetry_cell_setting 'monoclinic'
loop_
_space_group_symop_operation_xyz
x,y,z
-x,1/2+y,1/2-z
-x,-y,-z
x,1/2-y,1/2+z
loop_
_atom_site_type_symbol
_atom_site_label
_atom_site_fract_x
_atom_site_fract_y
_atom_site_fract_z
Si Si1 0.549802 0.810484 0.474881
Si Si2 0.363830 0.730419 0.580242
Si Si3 0.783197 0.423445 0.938884
Si Si4 0.993559 0.877581 0.560692
Si Si5 0.225791 0.711308 0.715909
Si Si6 0.580933 0.963875 0.758211
Si Si7 0.491298 0.990080 0.086143
Si Si8 0.789035 0.881646 0.820379
O O1 0.500000 0.500000 0.500000
O O2 0.395340 0.805145 0.371999
O O3 0.533196 0.948737 0.401739
O O4 0.571327 0.652431 0.454236
O O5 0.246378 0.844085 0.505869
O O6 0.358778 0.588240 0.630153
O O7 0.403093 0.648908 0.535609
O O8 0.501625 0.829492 0.723017
O O9 0.911948 0.539797 0.054178
O O10 0.805891 0.293177 0.895876
O O11 0.644230 0.506228 0.772264
O O12 0.902119 0.743135 0.441611
O O13 0.149734 0.809215 0.710760
O O14 0.000000 0.000000 0.500000
O O15 0.164749 0.546012 0.660970
O O16 0.703712 0.904391 0.819626
O O17 0.674519 0.669217 0.150892
#
# Coordination Sequence:
#
# PCOD9241168 Si02
#       8
#     4   4   4   4   4   4   4   4
#     4  10  20  37  56  91 133 149 204 261 322 384
#     4  12  20  34  55  83 130 169 205 254 328 381
#     4  10  19  35  52  82 125 159 213 252 305 385
#     4  10  21  35  55  86 127 162 211 260 303 373
#     4   9  18  34  55  86 124 160 205 258 304 376
#     4  11  20  33  54  86 126 162 196 256 320 383
#     4  11  21  35  55  88 132 163 201 260 327 384
#     4  11  20  35  61  90 129 159 202 266 321 369
#
# _framework density 21.627185999999998
#
# number of rings (size 3 to 8) (size 9 to 14) (size 15 to 20)
#    0.000    1.500    5.000    4.125    0.000    1.000 
#    0.000    0.000    0.000    0.000    0.000   28.000 
#   60.000    0.000    0.000    0.000    0.000    0.000 
#
# Total GULP energy -178336.702426 kJ/mol
# GULP energy per Si atom -5573.021951 kJ/mol
# Density = 2.157796 g / cm^3
# Si number density = 21.627186 Si / 1000 Ang^3
#
#
#
# Elastic Constant Matrix: (Units=GPa)
#
#
# Indices 1 2 3 4 5 6 
#
# 1 99.7182 36.5459 14.3176 0.0000 -0.9315 0.0000
# 2 36.5459 117.0810 15.6592 0.0000 10.0379 0.0000
# 3 14.3176 15.6592 38.2612 0.0000 0.4701 0.0000
# 4 0.0000 0.0000 0.0000 14.2143 0.0000 8.6556
# 5 -0.9315 10.0379 0.4701 0.0000 20.1333 0.0000
# 6 0.0000 0.0000 0.0000 8.6556 0.0000 48.1384
#
#
#
# Elastic Compliance Matrix: (Units=1/GPa)
#
#
# Indices 1 2 3 4 5 6 
#
# 1 0.011753 -0.003467 -0.003008 0.000000 0.002343 0.000000
# 2 -0.003467 0.010470 -0.002922 0.000000 -0.005312 0.000000
# 3 -0.003008 -0.002922 0.028450 0.000000 0.000654 0.000000
# 4 0.000000 0.000000 0.000000 0.079002 0.000000 -0.014205
# 5 0.002343 -0.005312 0.000654 0.000000 0.052410 0.000000
# 6 0.000000 0.000000 0.000000 -0.014205 0.000000 0.023328
#
#
# Mechanical properties :
#
#
# Convention : Reuss Voigt Hill
#
# Bulk Modulus (GPa) = 31.36984 43.12287 37.24635
# Shear Modulus (GPa) = 21.29187 29.06639 25.17913
#
# Velocity S-wave (km/s) = 3.14107 3.67000 3.41579
# Velocity P-wave (km/s) = 5.26226 6.15963 5.72855
#
# Compressibility (1/GPa) = 0.03187776
#
# Stress axis : x y z
#
# Youngs Moduli (GPa) = 85.08723 95.51497 35.14990
#
# Poissons Ratio (x) = 0.33116 0.10572
# Poissons Ratio (y) = 0.29500 0.10272
# Poissons Ratio (z) = 0.25592 0.27912
#
# Static dielectric constant tensor:
#      x y z
#    x 1.885640 0.000000 -0.018670 
#    y 0.000000 1.803730 0.000000 
#    z -0.018670 0.000000 1.838740 
# 
# From -- ./inp_files/69795.got.cif
#   From: 2010.05.17/outbox.cif.g08.bks.cpg/sg14_35_cif.got.tgz:69795.got - 2010.06.03 17:49:19.
