data_PCOD9241774
_publ_section_title
;
Structure prediction by ZEFSAII (Michael W. Deem and Ramdas Pophale) SiO2 
 PCOD9241774
Probable space group: P 21/C
;
_chemical_formula_sum "Si O2"
_cell_formula_units_Z 28
_cell_length_a 7.617155
_cell_length_b 11.961084
_cell_length_c 15.593532
_cell_angle_alpha 90.000000
_cell_angle_beta 57.295345
_cell_angle_gamma 90.000000
_cell_volume 1195.487006
_symmetry_space_group_name_H-M "P 21/C"
_symmetry_group_IT_number 14
_symmetry_cell_setting 'monoclinic'
loop_
_space_group_symop_operation_xyz
x,y,z
-x,1/2+y,1/2-z
-x,-y,-z
x,1/2-y,1/2+z
loop_
_atom_site_type_symbol
_atom_site_label
_atom_site_fract_x
_atom_site_fract_y
_atom_site_fract_z
Si Si1 0.905141 0.679752 0.907906
Si Si2 0.030066 0.466685 0.802014
Si Si3 0.590557 0.779360 0.642088
Si Si4 0.343060 0.613450 0.617387
Si Si5 0.320133 0.565207 0.445831
Si Si6 0.215309 0.886975 0.797270
Si Si7 0.312356 0.264173 0.707594
O O1 0.936510 0.545369 0.899640
O O2 0.776919 0.701939 0.852359
O O3 0.099893 0.766444 0.846240
O O4 0.782125 0.708163 0.027641
O O5 0.887339 0.444737 0.756955
O O6 0.212896 0.546948 0.720274
O O7 0.133841 0.347557 0.792156
O O8 0.403815 0.734608 0.630958
O O9 0.465511 0.884810 0.714070
O O10 0.620939 0.705193 0.720783
O O11 0.223256 0.607912 0.559673
O O12 0.566340 0.549724 0.557311
O O13 0.187592 0.552820 0.395900
O O14 0.498067 0.659469 0.378907
#
# Coordination Sequence:
#
# PCOD9241774 Si02
#       7
#     4   4   4   4   4   4   4
#     4  11  22  40  63  90 118 162 203 244 302 356
#     4  10  22  39  59  85 126 159 195 254 293 353
#     4  11  22  40  62  87 121 162 200 242 303 361
#     4  10  19  37  62  87 118 159 194 254 309 340
#     4   9  19  36  59  88 120 151 199 254 302 355
#     4  10  23  41  58  92 123 153 206 248 296 363
#     4   9  21  39  58  88 124 153 205 252 289 357
#
# _framework density 23.421417000000002
#
# number of rings (size 3 to 8) (size 9 to 14) (size 15 to 20)
#    0.000    2.000    2.857    0.000    4.000    2.857 
#    0.000    0.000    0.000    0.000    0.000    0.000 
#    0.000    0.000    0.000    0.000    0.000    0.000 
#
# Total GULP energy -155931.804944 kJ/mol
# GULP energy per Si atom -5568.993034 kJ/mol
# Density = 2.336811 g / cm^3
# Si number density = 23.421417 Si / 1000 Ang^3
#
#
#
# Elastic Constant Matrix: (Units=GPa)
#
#
# Indices 1 2 3 4 5 6 
#
# 1 53.0302 -5.0756 13.9146 0.0000 16.6347 0.0000
# 2 -5.0756 34.6915 7.2702 0.0000 2.4607 0.0000
# 3 13.9146 7.2702 111.3744 0.0000 6.1766 0.0000
# 4 0.0000 0.0000 0.0000 23.2135 0.0000 2.6336
# 5 16.6347 2.4607 6.1766 0.0000 33.5634 0.0000
# 6 0.0000 0.0000 0.0000 2.6336 0.0000 15.1904
#
#
#
# Elastic Compliance Matrix: (Units=1/GPa)
#
#
# Indices 1 2 3 4 5 6 
#
# 1 0.023644 0.004832 -0.002627 0.000000 -0.011589 0.000000
# 2 0.004832 0.030322 -0.002351 0.000000 -0.004185 0.000000
# 3 -0.002627 -0.002351 0.009475 0.000000 -0.000270 0.000000
# 4 0.000000 0.000000 0.000000 0.043943 0.000000 -0.007618
# 5 -0.011589 -0.004185 -0.000270 0.000000 0.035895 0.000000
# 6 0.000000 0.000000 0.000000 -0.007618 0.000000 0.067152
#
#
# Mechanical properties :
#
#
# Convention : Reuss Voigt Hill
#
# Bulk Modulus (GPa) = 15.83534 25.70162 20.76848
# Shear Modulus (GPa) = 21.57290 26.59259 24.08274
#
# Velocity S-wave (km/s) = 3.03822 3.37322 3.21009
# Velocity P-wave (km/s) = 4.36846 5.11555 4.75669
#
# Compressibility (1/GPa) = 0.06314988
#
# Stress axis : x y z
#
# Youngs Moduli (GPa) = 42.29355 32.97946 105.53758
#
# Poissons Ratio (x) = -0.15935 0.27721
# Poissons Ratio (y) = -0.20435 0.24811
# Poissons Ratio (z) = 0.11109 0.07753
#
# Static dielectric constant tensor:
#      x y z
#    x 1.979520 0.000000 0.001780 
#    y 0.000000 2.043350 0.000000 
#    z 0.001780 0.000000 1.985150 
# 
# From -- ./inp_files/40214.got.cif
#   From: 2010.05.17/outbox.cif.g08.bks.cpg/sg14_21_cif.got.tgz:40214.got - 2010.06.03 17:49:19.
