data_PCOD9241111
_publ_section_title
;
Structure prediction by ZEFSAII (Michael W. Deem and Ramdas Pophale) SiO2 
 PCOD9241111
Probable space group: P 21/C
;
_chemical_formula_sum "Si O2"
_cell_formula_units_Z 32
_cell_length_a 9.088922
_cell_length_b 23.065600
_cell_length_c 14.823891
_cell_angle_alpha 90.000000
_cell_angle_beta 29.903630
_cell_angle_gamma 90.000000
_cell_volume 1549.321949
_symmetry_space_group_name_H-M "P 21/C"
_symmetry_group_IT_number 14
_symmetry_cell_setting 'monoclinic'
loop_
_space_group_symop_operation_xyz
x,y,z
-x,1/2+y,1/2-z
-x,-y,-z
x,1/2-y,1/2+z
loop_
_atom_site_type_symbol
_atom_site_label
_atom_site_fract_x
_atom_site_fract_y
_atom_site_fract_z
Si Si1 0.302163 0.789042 0.616347
Si Si2 0.589007 0.821033 0.734765
Si Si3 0.179299 0.251647 0.250201
Si Si4 0.367075 0.356606 0.282031
Si Si5 0.782306 0.067744 0.101007
Si Si6 0.120909 0.494594 0.275824
Si Si7 0.339124 0.586570 0.038700
Si Si8 0.774130 0.279308 0.168943
O O1 0.646702 0.775709 0.427508
O O2 0.278655 0.857848 0.633589
O O3 0.184110 0.749801 0.757622
O O4 0.138532 0.768905 0.612007
O O5 0.645369 0.805062 0.808882
O O6 0.467178 0.884218 0.779769
O O7 0.355610 0.774886 0.819307
O O8 0.912661 0.805747 0.525049
O O9 0.226887 0.303863 0.296501
O O10 0.527025 0.328342 0.282768
O O11 0.098268 0.399410 0.446735
O O12 0.617091 0.387549 0.085935
O O13 0.730183 0.028496 0.217356
O O14 0.838273 0.032056 0.977943
O O15 0.108536 0.538864 0.198136
O O16 0.339304 0.444042 0.124324
#
# Coordination Sequence:
#
# PCOD9241111 Si02
#       8
#     4   4   4   4   4   4   4   4
#     4  11  21  34  54  82 114 144 178 224 276 340
#     4  11  20  35  55  81 116 150 181 224 280 339
#     4  10  20  34  53  81 115 147 177 214 278 354
#     4   9  19  37  58  84 117 149 180 227 287 345
#     4  10  19  34  59  84 112 148 197 245 282 326
#     4   9  19  34  55  84 108 147 205 245 276 332
#     4   9  18  34  56  78 110 147 188 237 281 318
#     4  11  22  34  54  85 118 148 182 219 278 356
#
# _framework density 20.654197
#
# number of rings (size 3 to 8) (size 9 to 14) (size 15 to 20)
#    0.000    2.000    0.000    6.000    0.000    2.000 
#    0.000    1.250    0.000   15.000    0.000    0.000 
#    0.000    0.000    0.000    0.000    0.000    0.000 
#
# Total GULP energy -178144.415433 kJ/mol
# GULP energy per Si atom -5567.012982 kJ/mol
# Density = 2.060719 g / cm^3
# Si number density = 20.654197 Si / 1000 Ang^3
#
#
#
# Elastic Constant Matrix: (Units=GPa)
#
#
# Indices 1 2 3 4 5 6 
#
# 1 72.7367 30.0705 17.7471 0.0000 -7.3736 0.0000
# 2 30.0705 94.2062 26.4951 0.0000 -5.6920 0.0000
# 3 17.7471 26.4951 62.1349 0.0000 -18.2346 0.0000
# 4 0.0000 0.0000 0.0000 36.0046 0.0000 5.8142
# 5 -7.3736 -5.6920 -18.2346 0.0000 12.3575 0.0000
# 6 0.0000 0.0000 0.0000 5.8142 0.0000 20.1971
#
#
#
# Elastic Compliance Matrix: (Units=1/GPa)
#
#
# Indices 1 2 3 4 5 6 
#
# 1 0.016532 -0.004650 -0.000834 0.000000 0.006493 0.000000
# 2 -0.004650 0.013460 -0.006008 0.000000 -0.005440 0.000000
# 3 -0.000834 -0.006008 0.031635 0.000000 0.043415 0.000000
# 4 0.000000 0.000000 0.000000 0.029128 0.000000 -0.008385
# 5 0.006493 -0.005440 0.043415 0.000000 0.146354 0.000000
# 6 0.000000 0.000000 0.000000 -0.008385 0.000000 0.051926
#
#
# Mechanical properties :
#
#
# Convention : Reuss Voigt Hill
#
# Bulk Modulus (GPa) = 25.87734 41.96702 33.92218
# Shear Modulus (GPa) = 15.38931 24.02953 19.70942
#
# Velocity S-wave (km/s) = 2.73260 3.41460 3.09246
# Velocity P-wave (km/s) = 4.74470 5.99241 5.40468
#
# Compressibility (1/GPa) = 0.03864384
#
# Stress axis : x y z
#
# Youngs Moduli (GPa) = 60.48751 74.29203 31.61054
#
# Poissons Ratio (x) = 0.34548 0.02635
# Poissons Ratio (y) = 0.28129 0.18991
# Poissons Ratio (z) = 0.05043 0.44634
#
# Static dielectric constant tensor:
#      x y z
#    x 1.746450 0.000000 0.073590 
#    y 0.000000 1.802700 0.000000 
#    z 0.073590 0.000000 1.796290 
# 
# From -- ./inp_files/42227.got.cif
#   From: 2010.05.17/outbox.cif.g08.bks.cpg/sg14_22_cif.got.tgz:42227.got - 2010.06.03 17:49:19.
