data_PCOD9241515
_publ_section_title
;
Structure prediction by ZEFSAII (Michael W. Deem and Ramdas Pophale) SiO2 
 PCOD9241515
Probable space group: P 21/C
;
_chemical_formula_sum "Si O2"
_cell_formula_units_Z 24
_cell_length_a 26.102323
_cell_length_b 10.177269
_cell_length_c 8.798303
_cell_angle_alpha 90.000000
_cell_angle_beta 147.387332
_cell_angle_gamma 90.000000
_cell_volume 1259.689397
_symmetry_space_group_name_H-M "P 21/C"
_symmetry_group_IT_number 14
_symmetry_cell_setting 'monoclinic'
loop_
_space_group_symop_operation_xyz
x,y,z
-x,1/2+y,1/2-z
-x,-y,-z
x,1/2-y,1/2+z
loop_
_atom_site_type_symbol
_atom_site_label
_atom_site_fract_x
_atom_site_fract_y
_atom_site_fract_z
Si Si1 0.000539 0.368427 0.598921
Si Si2 0.455547 0.894520 0.688855
Si Si3 0.212465 0.694143 0.828409
Si Si4 0.927554 0.891306 0.386239
Si Si5 0.589926 0.116050 0.068865
Si Si6 0.750596 0.059668 0.902109
O O1 0.892470 0.336864 0.376851
O O2 0.000000 0.500000 0.500000
O O3 0.043336 0.247585 0.611675
O O4 0.058469 0.386980 0.898686
O O5 0.449272 0.748536 0.605846
O O6 0.444204 0.880924 0.841620
O O7 0.360874 0.968369 0.391575
O O8 0.546586 0.985374 0.885879
O O9 0.223523 0.647787 0.682254
O O10 0.295891 0.622839 0.133268
O O11 0.231103 0.848028 0.906080
O O12 0.000000 0.000000 0.500000
O O13 0.821560 0.937925 0.081251
#
# Coordination Sequence:
#
# PCOD9241515 Si02
#       6
#     4   4   4   4   4   4
#     4  12  25  39  59  86 118 154 195 237 289 340
#     4   9  19  38  58  86 112 150 187 238 283 342
#     4  10  19  36  60  83 112 152 191 232 285 342
#     4  12  23  40  60  84 117 152 194 240 279 341
#     4   9  19  36  60  82 115 145 189 234 287 336
#     4  10  21  37  61  84 116 151 195 234 287 341
#
# _framework density 19.052316000000001
#
# number of rings (size 3 to 8) (size 9 to 14) (size 15 to 20)
#    0.000    1.667    3.333    1.000    2.333    0.667 
#    3.000    1.667    0.000    0.000    0.000    0.000 
#    0.000    0.000    0.000    0.000    0.000    0.000 
#
# Total GULP energy -134002.854336 kJ/mol
# GULP energy per Si atom -5583.452264 kJ/mol
# Density = 1.900895 g / cm^3
# Si number density = 19.052316 Si / 1000 Ang^3
#
#
#
# Elastic Constant Matrix: (Units=GPa)
#
#
# Indices 1 2 3 4 5 6 
#
# 1 34.7036 16.5062 25.8273 0.0000 -11.5456 0.0000
# 2 16.5062 68.2411 31.3668 0.0000 -28.1379 0.0000
# 3 25.8273 31.3668 76.8721 0.0000 -14.3533 0.0000
# 4 0.0000 0.0000 0.0000 35.2891 0.0000 4.6794
# 5 -11.5456 -28.1379 -14.3533 0.0000 25.9722 0.0000
# 6 0.0000 0.0000 0.0000 4.6794 0.0000 33.0413
#
#
#
# Elastic Compliance Matrix: (Units=1/GPa)
#
#
# Indices 1 2 3 4 5 6 
#
# 1 0.041530 0.000564 -0.011844 0.000000 0.012527 0.000000
# 2 0.000564 0.029309 -0.006883 0.000000 0.028200 0.000000
# 3 -0.011844 -0.006883 0.019426 0.000000 -0.001987 0.000000
# 4 0.000000 0.000000 0.000000 0.028880 0.000000 -0.004090
# 5 0.012527 0.028200 -0.001987 0.000000 0.073524 0.000000
# 6 0.000000 0.000000 0.000000 -0.004090 0.000000 0.030844
#
#
# Mechanical properties :
#
#
# Convention : Reuss Voigt Hill
#
# Bulk Modulus (GPa) = 18.53997 36.35749 27.44873
# Shear Modulus (GPa) = 17.99734 25.93494 21.96614
#
# Velocity S-wave (km/s) = 3.07681 3.69351 3.39918
# Velocity P-wave (km/s) = 4.73018 6.10850 5.46298
#
# Compressibility (1/GPa) = 0.05393753
#
# Stress axis : x y z
#
# Youngs Moduli (GPa) = 24.07925 34.11920 51.47819
#
# Poissons Ratio (x) = -0.01925 0.60972
# Poissons Ratio (y) = -0.01359 0.35435
# Poissons Ratio (z) = 0.28520 0.23486
#
# Static dielectric constant tensor:
#      x y z
#    x 1.663510 0.000000 0.009620 
#    y 0.000000 1.632100 0.000000 
#    z 0.009620 0.000000 1.683650 
# 
# From -- ./inp_files/15059.got.cif
#   From: 2010.05.17/outbox.cif.g08.bks.cpg/sg14_8_cif.got.tgz:15059.got - 2010.06.03 17:49:19.
