data_PCOD9241463
_publ_section_title
;
Structure prediction by ZEFSAII (Michael W. Deem and Ramdas Pophale) SiO2 
 PCOD9241463
Probable space group: P 21/C
;
_chemical_formula_sum "Si O2"
_cell_formula_units_Z 24
_cell_length_a 20.011114
_cell_length_b 8.175622
_cell_length_c 17.880002
_cell_angle_alpha 90.000000
_cell_angle_beta 20.041692
_cell_angle_gamma 90.000000
_cell_volume 1002.486639
_symmetry_space_group_name_H-M "P 21/C"
_symmetry_group_IT_number 14
_symmetry_cell_setting 'monoclinic'
loop_
_space_group_symop_operation_xyz
x,y,z
-x,1/2+y,1/2-z
-x,-y,-z
x,1/2-y,1/2+z
loop_
_atom_site_type_symbol
_atom_site_label
_atom_site_fract_x
_atom_site_fract_y
_atom_site_fract_z
Si Si1 0.282943 0.681949 0.962387
Si Si2 0.935008 0.686304 0.498069
Si Si3 0.909137 0.649803 0.178424
Si Si4 0.031188 0.928527 0.144296
Si Si5 0.713415 0.967603 0.680887
Si Si6 0.662907 0.178456 0.943422
O O1 0.103191 0.566096 0.177698
O O2 0.403471 0.736650 0.908540
O O3 0.197499 0.850717 0.019708
O O4 0.361518 0.574178 0.810798
O O5 0.853809 0.756544 0.660793
O O6 0.884198 0.509532 0.520556
O O7 0.168826 0.698675 0.260818
O O8 0.858423 0.813952 0.515405
O O9 0.900932 0.776121 0.254641
O O10 0.781412 0.490969 0.327288
O O11 0.136023 0.586903 0.934069
O O12 0.521788 0.873786 0.911355
#
# Coordination Sequence:
#
# PCOD9241463 Si02
#       6
#     4   4   4   4   4   4
#     4  10  20  34  56  82 110 144 182 222 274 326
#     4  10  21  37  58  82 109 145 184 223 271 321
#     4  10  21  37  58  82 109 145 184 223 271 321
#     4  10  19  36  58  82 111 144 180 226 272 322
#     4  10  21  36  57  82 110 145 181 223 271 323
#     4  10  21  36  57  82 110 145 181 223 271 323
#
# _framework density 23.940469
#
# number of rings (size 3 to 8) (size 9 to 14) (size 15 to 20)
#    0.000    2.000    0.000    6.500    0.000    5.333 
#    0.000    6.667    0.000   10.000    0.000    0.000 
#    0.000    0.000    0.000    0.000    0.000    0.000 
#
# Total GULP energy -133759.943738 kJ/mol
# GULP energy per Si atom -5573.330989 kJ/mol
# Density = 2.388598 g / cm^3
# Si number density = 23.940469 Si / 1000 Ang^3
#
#
#
# Elastic Constant Matrix: (Units=GPa)
#
#
# Indices 1 2 3 4 5 6 
#
# 1 67.6459 11.0198 9.9606 0.0000 -10.8036 0.0000
# 2 11.0198 74.9447 2.9434 0.0000 -7.4775 0.0000
# 3 9.9606 2.9434 71.6027 0.0000 -23.6239 0.0000
# 4 0.0000 0.0000 0.0000 16.7430 0.0000 1.1059
# 5 -10.8036 -7.4775 -23.6239 0.0000 22.7118 0.0000
# 6 0.0000 0.0000 0.0000 1.1059 0.0000 51.3941
#
#
#
# Elastic Compliance Matrix: (Units=1/GPa)
#
#
# Indices 1 2 3 4 5 6 
#
# 1 0.016201 -0.001650 0.000270 0.000000 0.007444 0.000000
# 2 -0.001650 0.014060 0.001400 0.000000 0.005301 0.000000
# 3 0.000270 0.001400 0.021414 0.000000 0.022864 0.000000
# 4 0.000000 0.000000 0.000000 0.059811 0.000000 -0.001287
# 5 0.007444 0.005301 0.022864 0.000000 0.073099 0.000000
# 6 0.000000 0.000000 0.000000 -0.001287 0.000000 0.019485
#
#
# Mechanical properties :
#
#
# Convention : Reuss Voigt Hill
#
# Bulk Modulus (GPa) = 19.33628 29.11566 24.22597
# Shear Modulus (GPa) = 22.59709 30.85441 26.72575
#
# Velocity S-wave (km/s) = 3.07561 3.59388 3.34480
# Velocity P-wave (km/s) = 4.55048 5.42304 5.00581
#
# Compressibility (1/GPa) = 0.05171624
#
# Stress axis : x y z
#
# Youngs Moduli (GPa) = 61.72544 71.12550 46.69764
#
# Poissons Ratio (x) = 0.11736 -0.01262
# Poissons Ratio (y) = 0.10185 -0.06540
# Poissons Ratio (z) = -0.01668 -0.09961
#
# Static dielectric constant tensor:
#      x y z
#    x 2.023300 0.000000 0.066120 
#    y 0.000000 1.901370 0.000000 
#    z 0.066120 0.000000 1.969650 
# 
# From -- ./inp_files/69742.got.cif
#   From: 2010.05.17/outbox.cif.g08.bks.cpg/sg14_35_cif.got.tgz:69742.got - 2010.06.03 17:49:19.
