data_PCOD9241268
_publ_section_title
;
Structure prediction by ZEFSAII (Michael W. Deem and Ramdas Pophale) SiO2 
 PCOD9241268
Probable space group: P 21/C
;
_chemical_formula_sum "Si O2"
_cell_formula_units_Z 28
_cell_length_a 14.907178
_cell_length_b 11.226123
_cell_length_c 8.704750
_cell_angle_alpha 90.000000
_cell_angle_beta 124.369232
_cell_angle_gamma 90.000000
_cell_volume 1202.416213
_symmetry_space_group_name_H-M "P 21/C"
_symmetry_group_IT_number 14
_symmetry_cell_setting 'monoclinic'
loop_
_space_group_symop_operation_xyz
x,y,z
-x,1/2+y,1/2-z
-x,-y,-z
x,1/2-y,1/2+z
loop_
_atom_site_type_symbol
_atom_site_label
_atom_site_fract_x
_atom_site_fract_y
_atom_site_fract_z
Si Si1 0.111882 0.054913 0.683907
Si Si2 0.649105 0.701762 0.283743
Si Si3 0.194171 0.181511 0.319988
Si Si4 0.511584 0.625918 0.428785
Si Si5 0.133929 0.692581 0.752938
Si Si6 0.739256 0.375121 0.836730
Si Si7 0.030969 0.901574 0.858551
O O1 0.133446 0.195680 0.705270
O O2 0.217355 0.991888 0.711508
O O3 0.094304 0.010091 0.841158
O O4 0.000000 0.000000 0.500000
O O5 0.730072 0.636113 0.244745
O O6 0.725630 0.783671 0.464697
O O7 0.581349 0.624234 0.339648
O O8 0.569216 0.781403 0.100807
O O9 0.098084 0.097530 0.280905
O O10 0.500000 0.500000 0.500000
O O11 0.386903 0.653612 0.271445
O O12 0.208698 0.770098 0.713126
O O13 0.066352 0.785978 0.791235
O O14 0.061208 0.619039 0.564428
O O15 0.208101 0.624366 0.945042
#
# Coordination Sequence:
#
# PCOD9241268 Si02
#       7
#     4   4   4   4   4   4   4
#     4  11  22  37  63  95 130 177 218 261 338 414
#     4  10  23  41  66  95 128 176 227 280 340 396
#     4  11  21  41  62  90 133 172 213 275 333 392
#     4  11  23  43  67  94 128 173 227 279 333 399
#     4   9  18  33  55  86 120 159 204 259 327 389
#     4  10  19  35  58  84 121 162 206 267 324 386
#     4  10  20  36  60  90 128 167 210 261 321 404
#
# _framework density 23.286446000000002
#
# number of rings (size 3 to 8) (size 9 to 14) (size 15 to 20)
#    0.000    1.714    0.000    6.857    0.000    0.000 
#    0.000   15.000    0.000    3.429    0.000    0.000 
#    0.000    0.000    0.000    0.000    0.000    0.000 
#
# Total GULP energy -156739.947066 kJ/mol
# GULP energy per Si atom -5597.855252 kJ/mol
# Density = 2.323345 g / cm^3
# Si number density = 23.286446 Si / 1000 Ang^3
#
#
#
# Elastic Constant Matrix: (Units=GPa)
#
#
# Indices 1 2 3 4 5 6 
#
# 1 159.9767 10.7875 63.0799 0.0000 -0.7587 0.0000
# 2 10.7875 55.6482 17.5514 0.0000 3.7304 0.0000
# 3 63.0799 17.5514 139.1642 0.0000 2.1057 0.0000
# 4 0.0000 0.0000 0.0000 31.9683 0.0000 -2.1586
# 5 -0.7587 3.7304 2.1057 0.0000 47.4203 0.0000
# 6 0.0000 0.0000 0.0000 -2.1586 0.0000 29.2325
#
#
#
# Elastic Compliance Matrix: (Units=1/GPa)
#
#
# Indices 1 2 3 4 5 6 
#
# 1 0.007624 -0.000424 -0.003407 0.000000 0.000307 0.000000
# 2 -0.000424 0.018827 -0.002161 0.000000 -0.001392 0.000000
# 3 -0.003407 -0.002161 0.009007 0.000000 -0.000284 0.000000
# 4 0.000000 0.000000 0.000000 0.031438 0.000000 0.002321
# 5 0.000307 -0.001392 -0.000284 0.000000 0.021215 0.000000
# 6 0.000000 0.000000 0.000000 0.002321 0.000000 0.034380
#
#
# Mechanical properties :
#
#
# Convention : Reuss Voigt Hill
#
# Bulk Modulus (GPa) = 42.60049 59.73631 51.16840
# Shear Modulus (GPa) = 35.13688 39.28225 37.20956
#
# Velocity S-wave (km/s) = 3.88867 4.11166 4.00172
# Velocity P-wave (km/s) = 6.20453 6.94619 6.58581
#
# Compressibility (1/GPa) = 0.02347391
#
# Stress axis : x y z
#
# Youngs Moduli (GPa) = 131.15766 53.11466 111.02451
#
# Poissons Ratio (x) = 0.02252 0.37828
# Poissons Ratio (y) = 0.05560 0.23995
# Poissons Ratio (z) = 0.44687 0.11479
#
# Static dielectric constant tensor:
#      x y z
#    x 1.878910 0.000000 0.019900 
#    y 0.000000 1.915950 0.000000 
#    z 0.019900 0.000000 1.931780 
# 
# From -- ./inp_files/15889.got.cif
#   From: 2010.05.17/outbox.cif.g08.bks.cpg/sg14_8_cif.got.tgz:15889.got - 2010.06.03 17:49:19.
