data_PCOD9241027
_publ_section_title
;
Structure prediction by ZEFSAII (Michael W. Deem and Ramdas Pophale) SiO2 
 PCOD9241027
Probable space group: P 21/C
;
_chemical_formula_sum "Si O2"
_cell_formula_units_Z 24
_cell_length_a 9.334408
_cell_length_b 18.673796
_cell_length_c 16.544214
_cell_angle_alpha 90.000000
_cell_angle_beta 151.436522
_cell_angle_gamma 90.000000
_cell_volume 1378.838618
_symmetry_space_group_name_H-M "P 21/C"
_symmetry_group_IT_number 14
_symmetry_cell_setting 'monoclinic'
loop_
_space_group_symop_operation_xyz
x,y,z
-x,1/2+y,1/2-z
-x,-y,-z
x,1/2-y,1/2+z
loop_
_atom_site_type_symbol
_atom_site_label
_atom_site_fract_x
_atom_site_fract_y
_atom_site_fract_z
Si Si1 0.265812 0.296347 0.453951
Si Si2 0.648256 0.422453 0.565734
Si Si3 0.357828 0.075825 0.449432
Si Si4 0.626478 0.329768 0.214561
Si Si5 0.737617 0.170579 0.957002
Si Si6 0.344818 0.294374 0.835289
O O1 0.471893 0.363646 0.531707
O O2 0.442305 0.242014 0.600230
O O3 0.206676 0.251121 0.342102
O O4 0.955943 0.320491 0.339568
O O5 0.500000 0.500000 0.500000
O O6 0.638209 0.392133 0.469060
O O7 0.997889 0.425253 0.763559
O O8 0.461197 0.105456 0.587100
O O9 0.472411 0.134983 0.441485
O O10 0.500000 0.000000 0.500000
O O11 0.654492 0.341582 0.323523
O O12 0.581078 0.243247 0.910223
O O13 0.089565 0.182140 0.146656
#
# Coordination Sequence:
#
# PCOD9241027 Si02
#       6
#     4   4   4   4   4   4
#     4  10  19  34  56  78 107 142 177 211 261 321
#     4  10  21  38  56  76 105 146 182 213 260 324
#     4  10  20  36  56  78 106 144 181 214 263 324
#     4  11  20  34  55  83 107 134 173 225 264 304
#     4  10  20  34  54  81 107 132 174 223 264 304
#     4   9  18  34  54  76 104 140 173 208 259 321
#
# _framework density 17.405951999999999
#
# number of rings (size 3 to 8) (size 9 to 14) (size 15 to 20)
#    0.000    2.000    0.000    7.000    0.000    1.333 
#    0.000   10.000    0.000    0.000    0.000    0.000 
#    0.000    0.000    0.000    0.000    0.000    0.000 
#
# Total GULP energy -133973.436737 kJ/mol
# GULP energy per Si atom -5582.226531 kJ/mol
# Density = 1.736634 g / cm^3
# Si number density = 17.405952 Si / 1000 Ang^3
#
#
#
# Elastic Constant Matrix: (Units=GPa)
#
#
# Indices 1 2 3 4 5 6 
#
# 1 78.4988 47.0795 62.3577 0.0000 -13.0126 0.0000
# 2 47.0795 143.2601 57.6705 0.0000 -8.7710 0.0000
# 3 62.3577 57.6705 120.3144 0.0000 -24.6695 0.0000
# 4 0.0000 0.0000 0.0000 23.6905 0.0000 9.3003
# 5 -13.0126 -8.7710 -24.6695 0.0000 35.3428 0.0000
# 6 0.0000 0.0000 0.0000 9.3003 0.0000 14.7031
#
#
#
# Elastic Compliance Matrix: (Units=1/GPa)
#
#
# Indices 1 2 3 4 5 6 
#
# 1 0.022931 -0.003423 -0.010138 0.000000 0.000517 0.000000
# 2 -0.003423 0.009183 -0.002823 0.000000 -0.000952 0.000000
# 3 -0.010138 -0.002823 0.016350 0.000000 0.006979 0.000000
# 4 0.000000 0.000000 0.000000 0.056155 0.000000 -0.035520
# 5 0.000517 -0.000952 0.006979 0.000000 0.033120 0.000000
# 6 0.000000 0.000000 0.000000 -0.035520 0.000000 0.090481
#
#
# Mechanical properties :
#
#
# Convention : Reuss Voigt Hill
#
# Bulk Modulus (GPa) = 63.70854 75.14320 69.42587
# Shear Modulus (GPa) = 18.78135 26.41167 22.59651
#
# Velocity S-wave (km/s) = 3.28841 3.89960 3.60697
# Velocity P-wave (km/s) = 7.14837 7.97123 7.57099
#
# Compressibility (1/GPa) = 0.01569648
#
# Stress axis : x y z
#
# Youngs Moduli (GPa) = 43.60847 108.89313 61.16090
#
# Poissons Ratio (x) = 0.37274 0.62007
# Poissons Ratio (y) = 0.14927 0.17265
# Poissons Ratio (z) = 0.44212 0.30739
#
# Static dielectric constant tensor:
#      x y z
#    x 1.580680 0.000000 0.001250 
#    y 0.000000 1.575940 0.000000 
#    z 0.001250 0.000000 1.590560 
# 
# From -- ./inp_files/9040.got.cif
#   From: 2010.05.17/outbox.cif.g08.bks.cpg/sg14_5_cif.got.tgz:9040.got - 2010.06.03 17:49:19.
