data_PCOD9241197
_publ_section_title
;
Structure prediction by ZEFSAII (Michael W. Deem and Ramdas Pophale) SiO2 
 PCOD9241197
Probable space group: P 21/C
;
_chemical_formula_sum "Si O2"
_cell_formula_units_Z 28
_cell_length_a 5.569325
_cell_length_b 24.723382
_cell_length_c 10.277429
_cell_angle_alpha 90.000000
_cell_angle_beta 97.059696
_cell_angle_gamma 90.000000
_cell_volume 1404.396823
_symmetry_space_group_name_H-M "P 21/C"
_symmetry_group_IT_number 14
_symmetry_cell_setting 'monoclinic'
loop_
_space_group_symop_operation_xyz
x,y,z
-x,1/2+y,1/2-z
-x,-y,-z
x,1/2-y,1/2+z
loop_
_atom_site_type_symbol
_atom_site_label
_atom_site_fract_x
_atom_site_fract_y
_atom_site_fract_z
Si Si1 0.739448 0.059694 0.405336
Si Si2 0.185371 0.678980 0.569410
Si Si3 0.031175 0.209240 0.445636
Si Si4 0.396953 0.258042 0.802556
Si Si5 0.718373 0.564453 0.933508
Si Si6 0.073447 0.340836 0.199798
Si Si7 0.704168 0.155336 0.207025
O O1 0.526872 0.071002 0.498126
O O2 0.682855 0.099101 0.281390
O O3 0.022774 0.066611 0.469524
O O4 0.712272 0.995831 0.374292
O O5 0.404490 0.715123 0.638072
O O6 0.237868 0.648378 0.440180
O O7 0.005401 0.728181 0.523800
O O8 0.079997 0.645631 0.683294
O O9 0.311058 0.207227 0.422679
O O10 0.934010 0.173689 0.557402
O O11 0.901317 0.188374 0.306230
O O12 0.196933 0.217033 0.735816
O O13 0.482192 0.302648 0.705715
O O14 0.745159 0.611759 0.828941
#
# Coordination Sequence:
#
# PCOD9241197 Si02
#       7
#     4   4   4   4   4   4   4
#     4  10  22  41  66  95 118 157 212 271 307 356
#     4  10  22  34  49  84 122 160 193 245 306 382
#     4  10  19  35  55  80 112 158 206 249 296 360
#     4  10  21  33  55  83 120 164 203 249 303 375
#     4  10  22  41  67  93 120 155 215 266 311 357
#     4  11  21  36  58  85 121 161 204 255 309 368
#     4  11  21  36  58  84 122 157 209 251 314 362
#
# _framework density 19.937384000000002
#
# number of rings (size 3 to 8) (size 9 to 14) (size 15 to 20)
#    0.000    1.714    1.429    4.286    2.000    3.429 
#    0.000    0.714    0.000    0.857    0.000    0.000 
#    0.000    0.000    0.000    0.000    0.000    0.000 
#
# Total GULP energy -155899.608348 kJ/mol
# GULP energy per Si atom -5567.843155 kJ/mol
# Density = 1.989201 g / cm^3
# Si number density = 19.937384 Si / 1000 Ang^3
#
#
#
# Elastic Constant Matrix: (Units=GPa)
#
#
# Indices 1 2 3 4 5 6 
#
# 1 64.7778 5.4650 24.6601 0.0000 -12.0072 0.0000
# 2 5.4650 74.9299 26.5669 0.0000 -17.6705 0.0000
# 3 24.6601 26.5669 103.5091 0.0000 -32.3476 0.0000
# 4 0.0000 0.0000 0.0000 25.4726 0.0000 -6.5124
# 5 -12.0072 -17.6705 -32.3476 0.0000 28.0091 0.0000
# 6 0.0000 0.0000 0.0000 -6.5124 0.0000 22.5082
#
#
#
# Elastic Compliance Matrix: (Units=1/GPa)
#
#
# Indices 1 2 3 4 5 6 
#
# 1 0.017326 0.000854 -0.002906 0.000000 0.004610 0.000000
# 2 0.000854 0.015863 -0.001616 0.000000 0.008507 0.000000
# 3 -0.002906 -0.001616 0.015742 0.000000 0.015914 0.000000
# 4 0.000000 0.000000 0.000000 0.042394 0.000000 0.012266
# 5 0.004610 0.008507 0.015914 0.000000 0.061425 0.000000
# 6 0.000000 0.000000 0.000000 0.012266 0.000000 0.047977
#
#
# Mechanical properties :
#
#
# Convention : Reuss Voigt Hill
#
# Bulk Modulus (GPa) = 24.04251 39.62230 31.83241
# Shear Modulus (GPa) = 22.52975 27.63296 25.08136
#
# Velocity S-wave (km/s) = 3.36523 3.72692 3.55069
# Velocity P-wave (km/s) = 5.21391 6.19971 5.72806
#
# Compressibility (1/GPa) = 0.04159299
#
# Stress axis : x y z
#
# Youngs Moduli (GPa) = 57.71596 63.04065 63.52589
#
# Poissons Ratio (x) = -0.05383 0.18463
# Poissons Ratio (y) = -0.04928 0.10268
# Poissons Ratio (z) = 0.16775 0.10189
#
# Static dielectric constant tensor:
#      x y z
#    x 1.855490 0.000000 -0.001350 
#    y 0.000000 1.699380 0.000000 
#    z -0.001350 0.000000 1.789800 
# 
# From -- ./inp_files/6551.got.cif
#   From: 2010.05.17/outbox.cif.g08.bks.cpg/sg14_4_cif.got.tgz:6551.got - 2010.06.03 17:49:19.
