data_PCOD9241218
_publ_section_title
;
Structure prediction by ZEFSAII (Michael W. Deem and Ramdas Pophale) SiO2 
 PCOD9241218
Probable space group: P 21/C
;
_chemical_formula_sum "Si O2"
_cell_formula_units_Z 32
_cell_length_a 26.947350
_cell_length_b 8.874883
_cell_length_c 20.409697
_cell_angle_alpha 90.000000
_cell_angle_beta 158.306988
_cell_angle_gamma 90.000000
_cell_volume 1804.207584
_symmetry_space_group_name_H-M "P 21/C"
_symmetry_group_IT_number 14
_symmetry_cell_setting 'monoclinic'
loop_
_space_group_symop_operation_xyz
x,y,z
-x,1/2+y,1/2-z
-x,-y,-z
x,1/2-y,1/2+z
loop_
_atom_site_type_symbol
_atom_site_label
_atom_site_fract_x
_atom_site_fract_y
_atom_site_fract_z
Si Si1 0.054853 0.230445 0.203357
Si Si2 0.673376 0.280178 0.028914
Si Si3 0.182601 0.785066 0.992413
Si Si4 0.340710 0.002672 0.284931
Si Si5 0.754269 0.000712 0.044012
Si Si6 0.877014 0.405742 0.378040
Si Si7 0.270270 0.997125 0.516450
Si Si8 0.607319 0.787930 0.765356
O O1 0.149894 0.373199 0.308890
O O2 0.145961 0.082849 0.328714
O O3 0.960291 0.246054 0.150348
O O4 0.950529 0.207496 0.017309
O O5 0.689287 0.117996 0.014403
O O6 0.805034 0.322754 0.230328
O O7 0.654199 0.405756 0.948510
O O8 0.552481 0.283003 0.931929
O O9 0.286758 0.865281 0.171485
O O10 0.233414 0.630473 0.023593
O O11 0.166382 0.899546 0.911925
O O12 0.237278 0.995460 0.219579
O O13 0.500000 0.000000 0.500000
O O14 0.329617 0.151045 0.224811
O O15 0.646875 0.909863 0.869165
O O16 0.000000 0.500000 0.500000
O O17 0.343747 0.129395 0.646120
#
# Coordination Sequence:
#
# PCOD9241218 Si02
#       8
#     4   4   4   4   4   4   4   4
#     4  10  19  35  56  79 116 148 190 233 285 339
#     4  11  20  36  58  81 120 149 187 233 282 342
#     4   9  19  34  57  84 111 146 189 236 286 336
#     4  10  20  39  62  80 113 154 190 235 281 343
#     4   9  20  34  54  86 110 145 188 236 288 328
#     4  11  22  38  58  84 114 156 193 227 289 346
#     4  10  20  35  57  86 113 144 188 243 282 334
#     4  10  20  37  60  85 110 147 194 234 284 334
#
# _framework density 17.736319000000002
#
# number of rings (size 3 to 8) (size 9 to 14) (size 15 to 20)
#    0.000    2.000    2.500    1.500    0.000    1.500 
#    2.250    1.875    0.000    0.000    0.000    0.000 
#    0.000    0.000    0.000    0.000    0.000    0.000 
#
# Total GULP energy -178194.121659 kJ/mol
# GULP energy per Si atom -5568.566302 kJ/mol
# Density = 1.769595 g / cm^3
# Si number density = 17.736319 Si / 1000 Ang^3
#
#
#
# Elastic Constant Matrix: (Units=GPa)
#
#
# Indices 1 2 3 4 5 6 
#
# 1 63.2730 28.9999 -0.3854 0.0000 12.2137 0.0000
# 2 28.9999 97.1604 18.0166 0.0000 3.3291 0.0000
# 3 -0.3854 18.0166 55.6149 0.0000 4.4406 0.0000
# 4 0.0000 0.0000 0.0000 10.1077 0.0000 -4.4024
# 5 12.2137 3.3291 4.4406 0.0000 23.4278 0.0000
# 6 0.0000 0.0000 0.0000 -4.4024 0.0000 11.7452
#
#
#
# Elastic Compliance Matrix: (Units=1/GPa)
#
#
# Indices 1 2 3 4 5 6 
#
# 1 0.020791 -0.006413 0.003061 0.000000 -0.010508 0.000000
# 2 -0.006413 0.012947 -0.004426 0.000000 0.002342 0.000000
# 3 0.003061 -0.004426 0.019813 0.000000 -0.004722 0.000000
# 4 0.000000 0.000000 0.000000 0.118237 0.000000 0.044318
# 5 -0.010508 0.002342 -0.004722 0.000000 0.048724 0.000000
# 6 0.000000 0.000000 0.000000 0.044318 0.000000 0.101752
#
#
# Mechanical properties :
#
#
# Convention : Reuss Voigt Hill
#
# Bulk Modulus (GPa) = 26.31980 34.36783 30.34381
# Shear Modulus (GPa) = 14.26596 20.35062 17.30829
#
# Velocity S-wave (km/s) = 2.83916 3.39100 3.12728
# Velocity P-wave (km/s) = 5.06157 5.89500 5.49411
#
# Compressibility (1/GPa) = 0.03799421
#
# Stress axis : x y z
#
# Youngs Moduli (GPa) = 48.09824 77.23932 50.47256
#
# Poissons Ratio (x) = 0.49534 -0.15448
# Poissons Ratio (y) = 0.30845 0.22337
# Poissons Ratio (z) = -0.14721 0.34183
#
# Static dielectric constant tensor:
#      x y z
#    x 1.635750 0.000000 0.004250 
#    y 0.000000 1.603180 0.000000 
#    z 0.004250 0.000000 1.617670 
# 
# From -- ./inp_files/66867.got.cif
#   From: 2010.05.17/outbox.cif.g08.bks.cpg/sg14_34_cif.got.tgz:66867.got - 2010.06.03 17:49:19.
