data_PCOD9241418
_publ_section_title
;
Structure prediction by ZEFSAII (Michael W. Deem and Ramdas Pophale) SiO2 
 PCOD9241418
Probable space group: P 21/C
;
_chemical_formula_sum "Si O2"
_cell_formula_units_Z 16
_cell_length_a 17.173118
_cell_length_b 5.496065
_cell_length_c 20.160877
_cell_angle_alpha 90.000000
_cell_angle_beta 19.688767
_cell_angle_gamma 90.000000
_cell_volume 641.099156
_symmetry_space_group_name_H-M "P 21/C"
_symmetry_group_IT_number 14
_symmetry_cell_setting 'monoclinic'
loop_
_space_group_symop_operation_xyz
x,y,z
-x,1/2+y,1/2-z
-x,-y,-z
x,1/2-y,1/2+z
loop_
_atom_site_type_symbol
_atom_site_label
_atom_site_fract_x
_atom_site_fract_y
_atom_site_fract_z
Si Si1 0.532721 0.500000 0.816192
Si Si2 0.558973 0.500000 0.643489
Si Si3 0.991704 0.000000 0.427064
Si Si4 0.765465 0.500000 0.765028
O O1 0.632707 0.500000 0.660843
O O2 0.732274 0.500000 0.711090
O O3 0.387401 0.250940 0.936448
O O4 0.387400 0.749061 0.936448
O O5 0.117013 0.249688 0.306093
O O6 0.278038 0.500000 0.873786
O O7 0.117013 0.750312 0.306093
O O8 0.000000 0.000000 0.500000
O O9 0.500000 0.500000 0.000000
#
# Coordination Sequence:
#
# PCOD9241418 Si02
#       4
#     4   4   4   4
#     4  10  19  36  54  85 113 144 182 233 287 321
#     4  10  20  33  60  83 108 142 194 238 264 324
#     4  12  21  38  61  87 109 148 203 230 266 335
#     4  12  24  38  57  86 122 149 179 235 296 335
#
# _framework density 24.957136999999999
#
# number of rings (size 3 to 8) (size 9 to 14) (size 15 to 20)
#    0.000    1.000    5.000    3.000    0.000    0.000 
#    0.000    2.500    0.000    0.000    0.000    0.000 
#    0.000    0.000    0.000    0.000    0.000    0.000 
#
# Total GULP energy -89500.875886 kJ/mol
# GULP energy per Si atom -5593.804743 kJ/mol
# Density = 2.490033 g / cm^3
# Si number density = 24.957137 Si / 1000 Ang^3
#
#
#
# Elastic Constant Matrix: (Units=GPa)
#
#
# Indices 1 2 3 4 5 6 
#
# 1 84.7282 20.3220 25.8123 0.0000 -25.0707 0.0000
# 2 20.3220 287.7650 41.3224 0.0000 4.2559 0.0000
# 3 25.8123 41.3224 102.7423 0.0000 -1.0324 0.0000
# 4 0.0000 0.0000 0.0000 31.7949 0.0000 -23.0144
# 5 -25.0707 4.2559 -1.0324 0.0000 26.3218 0.0000
# 6 0.0000 0.0000 0.0000 -23.0144 0.0000 22.6975
#
#
#
# Elastic Compliance Matrix: (Units=1/GPa)
#
#
# Indices 1 2 3 4 5 6 
#
# 1 0.018489 -0.000981 -0.004074 0.000000 0.017609 0.000000
# 2 -0.000981 0.003751 -0.001278 0.000000 -0.001591 0.000000
# 3 -0.004074 -0.001278 0.011238 0.000000 -0.003232 0.000000
# 4 0.000000 0.000000 0.000000 0.118214 0.000000 0.119864
# 5 0.017609 -0.001591 -0.003232 0.000000 0.054894 0.000000
# 6 0.000000 0.000000 0.000000 0.119864 0.000000 0.165595
#
#
# Mechanical properties :
#
#
# Convention : Reuss Voigt Hill
#
# Bulk Modulus (GPa) = 48.04731 72.23875 60.14303
# Shear Modulus (GPa) = 12.76210 42.01477 27.38843
#
# Velocity S-wave (km/s) = 2.26378 4.10747 3.31633
# Velocity P-wave (km/s) = 5.11143 7.17656 6.23016
#
# Compressibility (1/GPa) = 0.02081282
#
# Stress axis : x y z
#
# Youngs Moduli (GPa) = 54.08536 266.56408 88.98267
#
# Poissons Ratio (x) = 0.26155 0.36247
# Poissons Ratio (y) = 0.05307 0.11375
# Poissons Ratio (z) = 0.22032 0.34075
#
# Static dielectric constant tensor:
#      x y z
#    x 2.037530 0.000000 0.016570 
#    y 0.000000 2.123730 0.000000 
#    z 0.016570 0.000000 1.957400 
# 
# From -- ./inp_files/67974.got.cif
#   From: 2010.05.17/outbox.cif.g08.bks.cpg/sg14_34_cif.got.tgz:67974.got - 2010.06.03 17:49:19.
