data_PCOD9241452
_publ_section_title
;
Structure prediction by ZEFSAII (Michael W. Deem and Ramdas Pophale) SiO2 
 PCOD9241452
Probable space group: P 21/C
;
_chemical_formula_sum "Si O2"
_cell_formula_units_Z 26
_cell_length_a 7.112915
_cell_length_b 25.108551
_cell_length_c 8.805453
_cell_angle_alpha 90.000000
_cell_angle_beta 128.919554
_cell_angle_gamma 90.000000
_cell_volume 1223.535687
_symmetry_space_group_name_H-M "P 21/C"
_symmetry_group_IT_number 14
_symmetry_cell_setting 'monoclinic'
loop_
_space_group_symop_operation_xyz
x,y,z
-x,1/2+y,1/2-z
-x,-y,-z
x,1/2-y,1/2+z
loop_
_atom_site_type_symbol
_atom_site_label
_atom_site_fract_x
_atom_site_fract_y
_atom_site_fract_z
Si Si1 0.995647 0.678246 0.089733
Si Si2 0.941412 0.060614 0.280688
Si Si3 0.760441 0.433725 0.213114
Si Si4 0.216670 0.753911 0.436420
Si Si5 0.000000 0.500000 0.500000
Si Si6 0.440095 0.678571 0.796494
Si Si7 0.372965 0.505418 0.147310
O O1 0.098750 0.622767 0.204742
O O2 0.024598 0.724650 0.230196
O O3 0.718434 0.667309 0.914761
O O4 0.116324 0.701249 0.998898
O O5 0.717104 0.028779 0.241291
O O6 0.990024 0.047595 0.131224
O O7 0.181216 0.039514 0.494287
O O8 0.029261 0.452980 0.376376
O O9 0.694348 0.375990 0.231488
O O10 0.643371 0.480621 0.267558
O O11 0.657382 0.448923 0.996978
O O12 0.331882 0.708144 0.597280
O O13 0.404757 0.781777 0.419889
#
# Coordination Sequence:
#
# PCOD9241452 Si02
#       7
#     4   4   4   4   2   4   4
#     4  11  21  40  63  86 117 160 195 250 304 355
#     4  10  19  36  57  82 114 152 190 238 291 347
#     4  10  19  36  57  83 114 154 189 239 296 348
#     4  10  24  38  60  91 118 149 206 253 295 356
#     4  10  22  34  54  84 122 144 190 244 278 350
#     4  11  21  40  63  86 119 159 196 249 303 357
#     4   9  19  34  57  82 111 152 194 226 284 367
#
# _framework density 21.249891999999999
#
# number of rings (size 3 to 8) (size 9 to 14) (size 15 to 20)
#    0.000    1.846    1.538    2.769    0.000    0.615 
#    0.000    0.000    6.769    0.000    0.000    0.000 
#    0.000    0.000    0.000    0.000    0.000    0.000 
#
# Total GULP energy -144792.074350 kJ/mol
# GULP energy per Si atom -5568.925937 kJ/mol
# Density = 2.120153 g / cm^3
# Si number density = 21.249892 Si / 1000 Ang^3
#
#
#
# Elastic Constant Matrix: (Units=GPa)
#
#
# Indices 1 2 3 4 5 6 
#
# 1 47.7561 8.6083 8.4223 0.0000 -4.9294 0.0000
# 2 8.6083 55.3320 -8.9552 0.0000 1.0385 0.0000
# 3 8.4223 -8.9552 43.2414 0.0000 -9.3371 0.0000
# 4 0.0000 0.0000 0.0000 45.0331 0.0000 -25.7025
# 5 -4.9294 1.0385 -9.3371 0.0000 15.4819 0.0000
# 6 0.0000 0.0000 0.0000 -25.7025 0.0000 63.7865
#
#
#
# Elastic Compliance Matrix: (Units=1/GPa)
#
#
# Indices 1 2 3 4 5 6 
#
# 1 0.023004 -0.004369 -0.004301 0.000000 0.005024 0.000000
# 2 -0.004369 0.019550 0.004963 0.000000 0.000290 0.000000
# 3 -0.004301 0.004963 0.028311 0.000000 0.015372 0.000000
# 4 0.000000 0.000000 0.000000 0.028838 0.000000 0.011620
# 5 0.005024 0.000290 0.015372 0.000000 0.075442 0.000000
# 6 0.000000 0.000000 0.000000 0.011620 0.000000 0.020360
#
#
# Mechanical properties :
#
#
# Convention : Reuss Voigt Hill
#
# Bulk Modulus (GPa) = 15.76038 18.05334 16.90686
# Shear Modulus (GPa) = 22.31443 34.07724 28.19584
#
# Velocity S-wave (km/s) = 3.24403 4.00890 3.64657
# Velocity P-wave (km/s) = 4.63298 5.47197 5.06986
#
# Compressibility (1/GPa) = 0.06345026
#
# Stress axis : x y z
#
# Youngs Moduli (GPa) = 43.46998 51.15038 35.32252
#
# Poissons Ratio (x) = 0.22349 0.15191
# Poissons Ratio (y) = 0.18993 -0.17529
# Poissons Ratio (z) = 0.18695 -0.25383
#
# Static dielectric constant tensor:
#      x y z
#    x 1.508160 0.000000 -0.371240 
#    y 0.000000 2.056370 0.000000 
#    z -0.371240 0.000000 1.246550 
# 
# From -- ./inp_files/10320.got.cif
#   From: 2010.05.17/outbox.cif.g08.bks.cpg/sg14_6_cif.got.tgz:10320.got - 2010.06.03 17:49:19.
