data_PCOD9241664
_publ_section_title
;
Structure prediction by ZEFSAII (Michael W. Deem and Ramdas Pophale) SiO2 
 PCOD9241664
Probable space group: P 21/C
;
_chemical_formula_sum "Si O2"
_cell_formula_units_Z 28
_cell_length_a 8.081474
_cell_length_b 17.153405
_cell_length_c 12.007475
_cell_angle_alpha 90.000000
_cell_angle_beta 55.979192
_cell_angle_gamma 90.000000
_cell_volume 1379.622917
_symmetry_space_group_name_H-M "P 21/C"
_symmetry_group_IT_number 14
_symmetry_cell_setting 'monoclinic'
loop_
_space_group_symop_operation_xyz
x,y,z
-x,1/2+y,1/2-z
-x,-y,-z
x,1/2-y,1/2+z
loop_
_atom_site_type_symbol
_atom_site_label
_atom_site_fract_x
_atom_site_fract_y
_atom_site_fract_z
Si Si1 0.925564 0.284113 0.274443
Si Si2 0.611916 0.351504 0.230150
Si Si3 0.728953 0.559360 0.523629
Si Si4 0.858677 0.389093 0.514045
Si Si5 0.511777 0.824557 0.703493
Si Si6 0.596844 0.317319 0.984489
Si Si7 0.302533 0.315903 0.649733
O O1 0.819799 0.334023 0.216374
O O2 0.916811 0.333552 0.390531
O O3 0.801688 0.205617 0.347979
O O4 0.142301 0.248973 0.174118
O O5 0.470125 0.418290 0.332559
O O6 0.497111 0.269790 0.298428
O O7 0.624910 0.359141 0.091637
O O8 0.758510 0.467408 0.503402
O O9 0.710995 0.606974 0.416898
O O10 0.932596 0.590061 0.505028
O O11 0.694001 0.353777 0.660611
O O12 0.526031 0.854974 0.571550
O O13 0.689541 0.839178 0.723529
O O14 0.504038 0.232589 0.049618
#
# Coordination Sequence:
#
# PCOD9241664 Si02
#       7
#     4   4   4   4   4   4   4
#     4  11  21  34  59  87 117 156 196 245 293 350
#     4  10  19  37  55  83 118 151 198 242 292 347
#     4  11  22  37  59  89 120 154 198 248 297 350
#     4  11  22  37  59  89 120 154 198 248 297 350
#     4  10  19  37  55  83 118 151 198 242 292 347
#     4  10  20  36  56  86 118 148 206 240 290 348
#     4  11  21  34  59  87 117 156 196 245 293 350
#
# _framework density 20.295400999999998
#
# number of rings (size 3 to 8) (size 9 to 14) (size 15 to 20)
#    0.000    1.429    5.714    3.429    0.000    2.286 
#    0.000    0.714    0.000    1.714    0.000    8.000 
#    0.000    0.000    0.000    0.000    0.000    0.000 
#
# Total GULP energy -156084.210014 kJ/mol
# GULP energy per Si atom -5574.436072 kJ/mol
# Density = 2.024921 g / cm^3
# Si number density = 20.295401 Si / 1000 Ang^3
#
#
#
# Elastic Constant Matrix: (Units=GPa)
#
#
# Indices 1 2 3 4 5 6 
#
# 1 66.4609 -11.6983 24.8798 0.0000 15.2681 0.0000
# 2 -11.6983 30.8690 3.8899 0.0000 0.2172 0.0000
# 3 24.8798 3.8899 71.1515 0.0000 28.2155 0.0000
# 4 0.0000 0.0000 0.0000 21.4281 0.0000 -4.4317
# 5 15.2681 0.2172 28.2155 0.0000 44.3486 0.0000
# 6 0.0000 0.0000 0.0000 -4.4317 0.0000 9.5850
#
#
#
# Elastic Compliance Matrix: (Units=1/GPa)
#
#
# Indices 1 2 3 4 5 6 
#
# 1 0.019421 0.008150 -0.006111 0.000000 -0.002838 0.000000
# 2 0.008150 0.036096 -0.004869 0.000000 0.000115 0.000000
# 3 -0.006111 -0.004869 0.020882 0.000000 -0.011158 0.000000
# 4 0.000000 0.000000 0.000000 0.051602 0.000000 0.023859
# 5 -0.002838 0.000115 -0.011158 0.000000 0.030624 0.000000
# 6 0.000000 0.000000 0.000000 0.023859 0.000000 0.115361
#
#
# Mechanical properties :
#
#
# Convention : Reuss Voigt Hill
#
# Bulk Modulus (GPa) = 14.13646 22.51379 18.32513
# Shear Modulus (GPa) = 16.48934 25.16633 20.82784
#
# Velocity S-wave (km/s) = 2.85347 3.52519 3.20696
# Velocity P-wave (km/s) = 4.22337 5.26179 4.77092
#
# Compressibility (1/GPa) = 0.07073908
#
# Stress axis : x y z
#
# Youngs Moduli (GPa) = 51.49173 27.70376 47.88723
#
# Poissons Ratio (x) = -0.22578 0.29264
# Poissons Ratio (y) = -0.41965 0.23315
# Poissons Ratio (z) = 0.31467 0.13488
#
# Static dielectric constant tensor:
#      x y z
#    x 1.826480 0.000000 0.048620 
#    y 0.000000 1.689690 0.000000 
#    z 0.048620 0.000000 1.745290 
# 
# From -- ./inp_files/25099.got.cif
#   From: 2010.05.17/outbox.cif.g08.bks.cpg/sg14_13_cif.got.tgz:25099.got - 2010.06.03 17:49:19.
