data_PCOD9241121
_publ_section_title
;
Structure prediction by ZEFSAII (Michael W. Deem and Ramdas Pophale) SiO2 
 PCOD9241121
Probable space group: P 21/C
;
_chemical_formula_sum "Si O2"
_cell_formula_units_Z 32
_cell_length_a 8.585489
_cell_length_b 11.513614
_cell_length_c 15.920634
_cell_angle_alpha 90.000000
_cell_angle_beta 90.014476
_cell_angle_gamma 90.000000
_cell_volume 1573.754722
_symmetry_space_group_name_H-M "P 21/C"
_symmetry_group_IT_number 14
_symmetry_cell_setting 'monoclinic'
loop_
_space_group_symop_operation_xyz
x,y,z
-x,1/2+y,1/2-z
-x,-y,-z
x,1/2-y,1/2+z
loop_
_atom_site_type_symbol
_atom_site_label
_atom_site_fract_x
_atom_site_fract_y
_atom_site_fract_z
Si Si1 0.244724 0.825690 0.667461
Si Si2 0.529441 0.526346 0.097014
Si Si3 0.045179 0.833487 0.055957
Si Si4 0.879278 0.446024 0.614926
Si Si5 0.551836 0.962417 0.095754
Si Si6 0.757901 0.766995 0.603696
Si Si7 0.674100 0.408374 0.249512
Si Si8 0.068069 0.392481 0.760236
O O1 0.388185 0.901904 0.638403
O O2 0.287128 0.727367 0.736700
O O3 0.180620 0.742758 0.594071
O O4 0.096163 0.904952 0.690766
O O5 0.674864 0.612218 0.091985
O O6 0.574118 0.427118 0.164500
O O7 0.500000 0.500000 0.000000
O O8 0.896840 0.752918 0.037866
O O9 0.962193 0.927481 0.117142
O O10 0.111940 0.903746 0.979582
O O11 0.695426 0.459041 0.631930
O O12 0.995607 0.367671 0.669056
O O13 0.632875 0.835204 0.093784
O O14 0.417715 0.953636 0.166541
O O15 0.500000 0.000000 0.000000
O O16 0.839815 0.787308 0.694998
O O17 0.823304 0.493885 0.241208
#
# Coordination Sequence:
#
# PCOD9241121 Si02
#       8
#     4   4   4   4   4   4   4   4
#     4  11  21  43  66  90 131 178 216 281 339 399
#     4  11  25  46  66  95 136 177 226 275 340 417
#     4   9  19  35  61  90 125 161 211 273 322 391
#     4  10  19  34  59  97 125 165 215 269 337 384
#     4  11  22  38  68 100 137 174 222 283 344 406
#     4   9  21  41  60  92 132 169 216 271 332 396
#     4  11  23  44  66  96 135 176 226 282 335 408
#     4  10  22  39  65  93 128 171 226 279 333 396
#
# _framework density 20.333535999999999
#
# number of rings (size 3 to 8) (size 9 to 14) (size 15 to 20)
#    0.000    1.750    2.500    1.500    3.500    1.000 
#    4.500    5.625    0.000    0.000    0.000    0.000 
#    0.000    0.000    0.000    0.000    0.000    0.000 
#
# Total GULP energy -178146.905050 kJ/mol
# GULP energy per Si atom -5567.090783 kJ/mol
# Density = 2.028726 g / cm^3
# Si number density = 20.333536 Si / 1000 Ang^3
#
#
#
# Elastic Constant Matrix: (Units=GPa)
#
#
# Indices 1 2 3 4 5 6 
#
# 1 93.3026 42.5169 38.2054 0.0000 6.1402 0.0000
# 2 42.5169 59.0790 32.8429 0.0000 0.5468 0.0000
# 3 38.2054 32.8429 83.5280 0.0000 15.2578 0.0000
# 4 0.0000 0.0000 0.0000 26.5671 0.0000 0.0047
# 5 6.1402 0.5468 15.2578 0.0000 32.3051 0.0000
# 6 0.0000 0.0000 0.0000 0.0047 0.0000 26.3558
#
#
#
# Elastic Compliance Matrix: (Units=1/GPa)
#
#
# Indices 1 2 3 4 5 6 
#
# 1 0.016877 -0.010218 -0.003445 0.000000 -0.001408 0.000000
# 2 -0.010218 0.028331 -0.007369 0.000000 0.004943 0.000000
# 3 -0.003445 -0.007369 0.017842 0.000000 -0.007647 0.000000
# 4 0.000000 0.000000 0.000000 0.037641 0.000000 -0.000007
# 5 -0.001408 0.004943 -0.007647 0.000000 0.034751 0.000000
# 6 0.000000 0.000000 0.000000 -0.000007 0.000000 0.037942
#
#
# Mechanical properties :
#
#
# Convention : Reuss Voigt Hill
#
# Bulk Modulus (GPa) = 47.64870 51.44888 49.54879
# Shear Modulus (GPa) = 22.47781 25.20189 23.83985
#
# Velocity S-wave (km/s) = 3.32845 3.52437 3.42781
# Velocity P-wave (km/s) = 6.18513 6.47448 6.33146
#
# Compressibility (1/GPa) = 0.02098693
#
# Stress axis : x y z
#
# Youngs Moduli (GPa) = 59.25161 35.29760 56.04773
#
# Poissons Ratio (x) = 0.36067 0.19307
# Poissons Ratio (y) = 0.60542 0.41300
# Poissons Ratio (z) = 0.20411 0.26010
#
# Static dielectric constant tensor:
#      x y z
#    x 1.774670 0.000000 -0.000400 
#    y 0.000000 1.763340 0.000000 
#    z -0.000400 0.000000 1.844960 
# 
# From -- ./inp_files/40314.got.cif
#   From: 2010.05.17/outbox.cif.g08.bks.cpg/sg14_21_cif.got.tgz:40314.got - 2010.06.03 17:49:19.
