data_PCOD9241605
_publ_section_title
;
Structure prediction by ZEFSAII (Michael W. Deem and Ramdas Pophale) SiO2 
 PCOD9241605
Probable space group: P 21/C
;
_chemical_formula_sum "Si O2"
_cell_formula_units_Z 32
_cell_length_a 13.436359
_cell_length_b 14.333888
_cell_length_c 18.651734
_cell_angle_alpha 90.000000
_cell_angle_beta 156.759777
_cell_angle_gamma 90.000000
_cell_volume 1417.449732
_symmetry_space_group_name_H-M "P 21/C"
_symmetry_group_IT_number 14
_symmetry_cell_setting 'monoclinic'
loop_
_space_group_symop_operation_xyz
x,y,z
-x,1/2+y,1/2-z
-x,-y,-z
x,1/2-y,1/2+z
loop_
_atom_site_type_symbol
_atom_site_label
_atom_site_fract_x
_atom_site_fract_y
_atom_site_fract_z
Si Si1 0.404114 0.330059 0.703866
Si Si2 0.428827 0.326250 0.099065
Si Si3 0.053985 0.767279 0.410380
Si Si4 0.868262 0.937870 0.354051
Si Si5 0.947159 0.104380 0.991679
Si Si6 0.617906 0.521232 0.430571
Si Si7 0.088291 0.934134 0.760137
Si Si8 0.526336 0.683442 0.484720
O O1 0.373133 0.252622 0.621651
O O2 0.408225 0.429264 0.663272
O O3 0.158231 0.336661 0.589243
O O4 0.659219 0.301608 0.916656
O O5 0.657477 0.384632 0.279971
O O6 0.537372 0.277072 0.099645
O O7 0.178973 0.384529 0.920251
O O8 0.044237 0.658699 0.425662
O O9 0.998627 0.837878 0.439901
O O10 0.809704 0.795066 0.201239
O O11 0.581587 0.938400 0.190837
O O12 0.889303 0.990145 0.290433
O O13 0.000000 0.000000 0.500000
O O14 0.000000 0.000000 0.000000
O O15 0.870392 0.484796 0.636141
O O16 0.538437 0.602226 0.433615
O O17 0.308686 0.856243 0.892675
#
# Coordination Sequence:
#
# PCOD9241605 Si02
#       8
#     4   4   4   4   4   4   4   4
#     4  10  23  42  63  88 125 168 209 255 319 380
#     4  10  24  41  64  86 124 174 208 249 323 376
#     4  11  22  41  67  95 123 165 213 262 314 382
#     4  11  20  34  65  99 124 151 208 264 314 361
#     4  11  27  46  60  89 131 170 214 262 313 383
#     4  10  19  36  62  94 127 154 202 268 316 370
#     4  11  21  37  64  95 128 160 209 267 316 374
#     4  10  20  39  61  97 128 155 206 264 313 379
#
# _framework density 22.575756999999999
#
# number of rings (size 3 to 8) (size 9 to 14) (size 15 to 20)
#    0.000    1.500    3.750    1.500    5.250    2.000 
#    2.250    3.750    0.000    0.000    0.000    0.000 
#    0.000    0.000    0.000    0.000    0.000    0.000 
#
# Total GULP energy -178329.381715 kJ/mol
# GULP energy per Si atom -5572.793179 kJ/mol
# Density = 2.252437 g / cm^3
# Si number density = 22.575757 Si / 1000 Ang^3
#
#
#
# Elastic Constant Matrix: (Units=GPa)
#
#
# Indices 1 2 3 4 5 6 
#
# 1 42.9870 27.9664 12.0444 0.0000 13.9632 0.0000
# 2 27.9664 99.0061 18.2146 0.0000 5.8400 0.0000
# 3 12.0444 18.2146 97.6104 0.0000 17.2033 0.0000
# 4 0.0000 0.0000 0.0000 8.7338 0.0000 1.6009
# 5 13.9632 5.8400 17.2033 0.0000 26.2169 0.0000
# 6 0.0000 0.0000 0.0000 1.6009 0.0000 13.3841
#
#
#
# Elastic Compliance Matrix: (Units=1/GPa)
#
#
# Indices 1 2 3 4 5 6 
#
# 1 0.034224 -0.008753 0.000316 0.000000 -0.016485 0.000000
# 2 -0.008753 0.012731 -0.001829 0.000000 0.003026 0.000000
# 3 0.000316 -0.001829 0.011879 0.000000 -0.007555 0.000000
# 4 0.000000 0.000000 0.000000 0.117065 0.000000 -0.014002
# 5 -0.016485 0.003026 -0.007555 0.000000 0.051207 0.000000
# 6 0.000000 0.000000 0.000000 -0.014002 0.000000 0.076390
#
#
# Mechanical properties :
#
#
# Convention : Reuss Voigt Hill
#
# Bulk Modulus (GPa) = 26.10894 39.56158 32.83526
# Shear Modulus (GPa) = 14.84586 21.75883 18.30235
#
# Velocity S-wave (km/s) = 2.56716 3.10790 2.85038
# Velocity P-wave (km/s) = 4.51411 5.51731 5.04073
#
# Compressibility (1/GPa) = 0.03830105
#
# Stress axis : x y z
#
# Youngs Moduli (GPa) = 29.21967 78.54960 84.18400
#
# Poissons Ratio (x) = 0.68754 -0.02658
# Poissons Ratio (y) = 0.25576 0.15397
# Poissons Ratio (z) = -0.00923 0.14366
#
# Static dielectric constant tensor:
#      x y z
#    x 1.882280 0.000000 -0.024270 
#    y 0.000000 1.878390 0.000000 
#    z -0.024270 0.000000 1.859640 
# 
# From -- ./inp_files/68659.got.cif
#   From: 2010.05.17/outbox.cif.g08.bks.cpg/sg14_35_cif.got.tgz:68659.got - 2010.06.03 17:49:19.
