data_PCOD9241087
_publ_section_title
;
Structure prediction by ZEFSAII (Michael W. Deem and Ramdas Pophale) SiO2 
 PCOD9241087
Probable space group: P 21/C
;
_chemical_formula_sum "Si O2"
_cell_formula_units_Z 30
_cell_length_a 9.204218
_cell_length_b 13.826174
_cell_length_c 10.035881
_cell_angle_alpha 90.000000
_cell_angle_beta 66.572200
_cell_angle_gamma 90.000000
_cell_volume 1171.870852
_symmetry_space_group_name_H-M "P 21/C"
_symmetry_group_IT_number 14
_symmetry_cell_setting 'monoclinic'
loop_
_space_group_symop_operation_xyz
x,y,z
-x,1/2+y,1/2-z
-x,-y,-z
x,1/2-y,1/2+z
loop_
_atom_site_type_symbol
_atom_site_label
_atom_site_fract_x
_atom_site_fract_y
_atom_site_fract_z
Si Si1 0.758021 0.740110 0.278736
Si Si2 0.792861 0.951154 0.647225
Si Si3 0.782588 0.153304 0.767224
Si Si4 0.412170 0.957481 0.769309
Si Si5 0.821791 0.547510 0.834158
Si Si6 0.152343 0.692554 0.459044
Si Si7 0.593621 0.847003 0.093549
Si Si8 0.000000 0.000000 0.000000
O O1 0.855499 0.649929 0.183349
O O2 0.827418 0.835817 0.322681
O O3 0.665637 0.784571 0.186559
O O4 0.650425 0.691068 0.431525
O O5 0.599318 0.940439 0.703654
O O6 0.847474 0.977348 0.478375
O O7 0.818570 0.040444 0.736662
O O8 0.858105 0.210663 0.618455
O O9 0.593750 0.159617 0.826812
O O10 0.827661 0.200069 0.890758
O O11 0.308425 0.864950 0.847176
O O12 0.348108 0.004383 0.655218
O O13 0.363954 0.039961 0.896458
O O14 0.931077 0.507031 0.677404
O O15 0.008617 0.619294 0.488486
#
# Coordination Sequence:
#
# PCOD9241087 Si02
#       8
#     4   4   4   4   4   4   4   2
#     4  11  20  35  60  97 138 173 215 257 329 393
#     4  11  21  38  63 104 135 167 217 264 327 407
#     4  11  24  38  67 102 135 172 217 267 332 392
#     4   9  20  36  63  93 139 175 206 262 330 387
#     4  10  22  41  66  91 123 177 218 274 323 386
#     4  11  24  45  66  95 128 180 217 274 325 384
#     4  10  19  34  58 100 142 175 204 259 327 403
#     4  10  26  52  68  80 126 170 228 270 336 372
#
# _framework density 25.600092
#
# number of rings (size 3 to 8) (size 9 to 14) (size 15 to 20)
#    0.000    1.600    1.333    3.600    3.733    2.133 
#    2.400    0.667    0.000    0.000    0.000    0.000 
#    0.000    0.000    0.000    0.000    0.000    0.000 
#
# Total GULP energy -167630.899348 kJ/mol
# GULP energy per Si atom -5587.696645 kJ/mol
# Density = 2.554182 g / cm^3
# Si number density = 25.600092 Si / 1000 Ang^3
#
#
#
# Elastic Constant Matrix: (Units=GPa)
#
#
# Indices 1 2 3 4 5 6 
#
# 1 75.4794 18.4146 32.4009 0.0000 5.3526 0.0000
# 2 18.4146 93.0476 26.0669 0.0000 22.8423 0.0000
# 3 32.4009 26.0669 155.2364 0.0000 2.7203 0.0000
# 4 0.0000 0.0000 0.0000 40.5443 0.0000 1.6651
# 5 5.3526 22.8423 2.7203 0.0000 34.4895 0.0000
# 6 0.0000 0.0000 0.0000 1.6651 0.0000 25.2100
#
#
#
# Elastic Compliance Matrix: (Units=1/GPa)
#
#
# Indices 1 2 3 4 5 6 
#
# 1 0.014984 -0.001994 -0.002779 0.000000 -0.000786 0.000000
# 2 -0.001994 0.013757 -0.001742 0.000000 -0.008664 0.000000
# 3 -0.002779 -0.001742 0.007297 0.000000 0.001009 0.000000
# 4 0.000000 0.000000 0.000000 0.024731 0.000000 -0.001633
# 5 -0.000786 -0.008664 0.001009 0.000000 0.034775 0.000000
# 6 0.000000 0.000000 0.000000 -0.001633 0.000000 0.039775
#
#
# Mechanical properties :
#
#
# Convention : Reuss Voigt Hill
#
# Bulk Modulus (GPa) = 43.46413 53.05871 48.26142
# Shear Modulus (GPa) = 32.04780 36.50750 34.27765
#
# Velocity S-wave (km/s) = 3.54201 3.78043 3.66316
# Velocity P-wave (km/s) = 5.80885 6.31082 6.06503
#
# Compressibility (1/GPa) = 0.02300748
#
# Stress axis : x y z
#
# Youngs Moduli (GPa) = 66.73928 72.69125 137.05018
#
# Poissons Ratio (x) = 0.14495 0.38083
# Poissons Ratio (y) = 0.13308 0.23874
# Poissons Ratio (z) = 0.18545 0.12663
#
# Static dielectric constant tensor:
#      x y z
#    x 2.144250 0.000000 -0.021900 
#    y 0.000000 1.869400 0.000000 
#    z -0.021900 0.000000 1.892620 
# 
# From -- ./inp_files/13304.got.cif
#   From: 2010.05.17/outbox.cif.g08.bks.cpg/sg14_7_cif.got.tgz:13304.got - 2010.06.03 17:49:19.
