data_PCOD9241682
_publ_section_title
;
Structure prediction by ZEFSAII (Michael W. Deem and Ramdas Pophale) SiO2 
 PCOD9241682
Probable space group: P 21/C
;
_chemical_formula_sum "Si O2"
_cell_formula_units_Z 32
_cell_length_a 17.586944
_cell_length_b 5.387634
_cell_length_c 22.867006
_cell_angle_alpha 90.000000
_cell_angle_beta 125.949964
_cell_angle_gamma 90.000000
_cell_volume 1754.004552
_symmetry_space_group_name_H-M "P 21/C"
_symmetry_group_IT_number 14
_symmetry_cell_setting 'monoclinic'
loop_
_space_group_symop_operation_xyz
x,y,z
-x,1/2+y,1/2-z
-x,-y,-z
x,1/2-y,1/2+z
loop_
_atom_site_type_symbol
_atom_site_label
_atom_site_fract_x
_atom_site_fract_y
_atom_site_fract_z
Si Si1 0.707547 0.187995 0.020529
Si Si2 0.617178 0.818254 0.533998
Si Si3 0.409935 0.916872 0.139574
Si Si4 0.586831 0.859233 0.742760
Si Si5 0.097873 0.750673 0.839615
Si Si6 0.448711 0.756111 0.874788
Si Si7 0.110152 0.250819 0.267415
Si Si8 0.312608 0.148043 0.814907
O O1 0.661555 0.426943 0.030904
O O2 0.818893 0.222829 0.076535
O O3 0.673900 0.925013 0.034327
O O4 0.670024 0.192006 0.937313
O O5 0.512338 0.804833 0.459987
O O6 0.628736 0.800797 0.609213
O O7 0.480069 0.730778 0.204364
O O8 0.372594 0.082165 0.175567
O O9 0.481052 0.048239 0.126081
O O10 0.654264 0.679267 0.736670
O O11 0.571942 0.068640 0.686888
O O12 0.113768 0.498881 0.808736
O O13 0.989497 0.750827 0.811160
O O14 0.107303 0.998482 0.804646
O O15 0.348652 0.872837 0.846812
O O16 0.205406 0.278163 0.274092
#
# Coordination Sequence:
#
# PCOD9241682 Si02
#       8
#     4   4   4   4   4   4   4   4
#     4  11  20  36  61  82 111 152 188 238 277 328
#     4  11  22  36  54  85 120 147 183 226 287 352
#     4  10  21  37  55  77 108 149 208 233 264 329
#     4  11  21  36  55  74 111 155 196 232 275 320
#     4  10  19  37  58  84 110 152 182 230 288 333
#     4  10  22  35  53  78 112 157 183 235 278 330
#     4  10  21  35  58  83 118 143 185 231 281 355
#     4  11  23  34  53  85 115 151 182 233 291 345
#
# _framework density 18.243964999999999
#
# number of rings (size 3 to 8) (size 9 to 14) (size 15 to 20)
#    0.000    1.500    5.000    0.375    3.500    0.500 
#    0.000    0.000    0.000    0.750    0.000    0.875 
#    0.000    0.000    0.000    0.000    0.000    0.000 
#
# Total GULP energy -178314.001289 kJ/mol
# GULP energy per Si atom -5572.312540 kJ/mol
# Density = 1.820244 g / cm^3
# Si number density = 18.243965 Si / 1000 Ang^3
#
#
#
# Elastic Constant Matrix: (Units=GPa)
#
#
# Indices 1 2 3 4 5 6 
#
# 1 72.2525 12.4868 33.4388 0.0000 7.0402 0.0000
# 2 12.4868 83.0920 14.6048 0.0000 0.4167 0.0000
# 3 33.4388 14.6048 53.4025 0.0000 -13.4655 0.0000
# 4 0.0000 0.0000 0.0000 24.6383 0.0000 1.7045
# 5 7.0402 0.4167 -13.4655 0.0000 33.8560 0.0000
# 6 0.0000 0.0000 0.0000 1.7045 0.0000 22.2403
#
#
#
# Elastic Compliance Matrix: (Units=1/GPa)
#
#
# Indices 1 2 3 4 5 6 
#
# 1 0.023023 -0.000369 -0.017251 0.000000 -0.011644 0.000000
# 2 -0.000369 0.012737 -0.003637 0.000000 -0.001527 0.000000
# 3 -0.017251 -0.003637 0.034943 0.000000 0.017530 0.000000
# 4 0.000000 0.000000 0.000000 0.040804 0.000000 -0.003127
# 5 -0.011644 -0.001527 0.017530 0.000000 0.038949 0.000000
# 6 0.000000 0.000000 0.000000 -0.003127 0.000000 0.045203
#
#
# Mechanical properties :
#
#
# Convention : Reuss Voigt Hill
#
# Bulk Modulus (GPa) = 35.47670 36.64532 36.06101
# Shear Modulus (GPa) = 20.19638 26.02803 23.11220
#
# Velocity S-wave (km/s) = 3.33080 3.78122 3.56313
# Velocity P-wave (km/s) = 5.85493 6.26046 6.06109
#
# Compressibility (1/GPa) = 0.02818751
#
# Stress axis : x y z
#
# Youngs Moduli (GPa) = 43.43553 78.50960 28.61835
#
# Poissons Ratio (x) = 0.02899 0.49370
# Poissons Ratio (y) = 0.01604 0.10409
# Poissons Ratio (z) = 0.74931 0.28556
#
# Static dielectric constant tensor:
#      x y z
#    x 1.638510 0.000000 0.004850 
#    y 0.000000 1.774930 0.000000 
#    z 0.004850 0.000000 1.643540 
# 
# From -- ./inp_files/68954.got.cif
#   From: 2010.05.17/outbox.cif.g08.bks.cpg/sg14_35_cif.got.tgz:68954.got - 2010.06.03 17:49:19.
