data_PCOD9241120
_publ_section_title
;
Structure prediction by ZEFSAII (Michael W. Deem and Ramdas Pophale) SiO2 
 PCOD9241120
Probable space group: P 21/C
;
_chemical_formula_sum "Si O2"
_cell_formula_units_Z 32
_cell_length_a 13.535906
_cell_length_b 16.351794
_cell_length_c 11.060830
_cell_angle_alpha 90.000000
_cell_angle_beta 36.288383
_cell_angle_gamma 90.000000
_cell_volume 1448.945101
_symmetry_space_group_name_H-M "P 21/C"
_symmetry_group_IT_number 14
_symmetry_cell_setting 'monoclinic'
loop_
_space_group_symop_operation_xyz
x,y,z
-x,1/2+y,1/2-z
-x,-y,-z
x,1/2-y,1/2+z
loop_
_atom_site_type_symbol
_atom_site_label
_atom_site_fract_x
_atom_site_fract_y
_atom_site_fract_z
Si Si1 0.452966 0.722671 0.598113
Si Si2 0.929301 0.616909 0.780172
Si Si3 0.742656 0.028394 0.396632
Si Si4 0.411794 0.182697 0.301162
Si Si5 0.203138 0.573908 0.891648
Si Si6 0.138936 0.020069 0.219047
Si Si7 0.600459 0.480692 0.716769
Si Si8 0.184540 0.640398 0.347228
O O1 0.551552 0.705363 0.375145
O O2 0.541484 0.752170 0.636820
O O3 0.330534 0.796751 0.686678
O O4 0.326388 0.648251 0.747790
O O5 0.834599 0.556366 0.779504
O O6 0.042754 0.559249 0.754605
O O7 0.049736 0.669658 0.575900
O O8 0.784425 0.663838 0.991478
O O9 0.738417 0.030229 0.545774
O O10 0.857154 0.104015 0.242010
O O11 0.545000 0.028794 0.571612
O O12 0.519114 0.100093 0.231122
O O13 0.003814 0.586518 0.111592
O O14 0.211740 0.511755 0.772404
O O15 0.293389 0.036679 0.978981
O O16 0.734604 0.442386 0.676573
#
# Coordination Sequence:
#
# PCOD9241120 Si02
#       8
#     4   4   4   4   4   4   4   4
#     4  11  22  40  60  82 125 158 202 240 303 370
#     4   9  20  39  60  82 114 157 199 250 301 351
#     4  10  19  34  59  91 116 146 207 252 294 345
#     4  10  21  40  60  84 116 162 201 246 301 362
#     4  10  20  35  56  87 120 155 194 251 296 351
#     4   9  18  37  58  86 118 152 204 243 304 352
#     4   9  18  35  60  85 116 158 194 249 305 353
#     4  10  20  36  60  84 119 161 192 241 306 367
#
# _framework density 22.085032999999999
#
# number of rings (size 3 to 8) (size 9 to 14) (size 15 to 20)
#    0.000    2.250    1.250    1.500    0.000    0.500 
#    6.750    1.250    0.000    0.000    0.000    0.000 
#    0.000    0.000    0.000    0.000    0.000    0.000 
#
# Total GULP energy -178193.190100 kJ/mol
# GULP energy per Si atom -5568.537191 kJ/mol
# Density = 2.203477 g / cm^3
# Si number density = 22.085033 Si / 1000 Ang^3
#
#
#
# Elastic Constant Matrix: (Units=GPa)
#
#
# Indices 1 2 3 4 5 6 
#
# 1 43.5960 9.0393 25.1202 0.0000 3.7741 0.0000
# 2 9.0393 28.4890 17.2428 0.0000 12.3666 0.0000
# 3 25.1202 17.2428 136.0988 0.0000 21.4790 0.0000
# 4 0.0000 0.0000 0.0000 36.4489 0.0000 3.2085
# 5 3.7741 12.3666 21.4790 0.0000 11.7954 0.0000
# 6 0.0000 0.0000 0.0000 3.2085 0.0000 12.2725
#
#
#
# Elastic Compliance Matrix: (Units=1/GPa)
#
#
# Indices 1 2 3 4 5 6 
#
# 1 0.027373 -0.010914 -0.005744 0.000000 0.013144 0.000000
# 2 -0.010914 0.069984 0.005861 0.000000 -0.080553 0.000000
# 3 -0.005744 0.005861 0.011710 0.000000 -0.025631 0.000000
# 4 0.000000 0.000000 0.000000 0.028082 0.000000 -0.007342
# 5 0.013144 -0.080553 -0.025631 0.000000 0.211700 0.000000
# 6 0.000000 0.000000 0.000000 -0.007342 0.000000 0.083403
#
#
# Mechanical properties :
#
#
# Convention : Reuss Voigt Hill
#
# Bulk Modulus (GPa) = 11.43222 34.55426 22.99324
# Shear Modulus (GPa) = 10.35191 22.55546 16.45368
#
# Velocity S-wave (km/s) = 2.16736 3.19925 2.73246
# Velocity P-wave (km/s) = 3.38393 5.41543 4.51541
#
# Compressibility (1/GPa) = 0.08747210
#
# Stress axis : x y z
#
# Youngs Moduli (GPa) = 36.53278 14.28905 85.39500
#
# Poissons Ratio (x) = 0.15595 0.49050
# Poissons Ratio (y) = 0.39873 -0.50048
# Poissons Ratio (z) = 0.20984 -0.08375
#
# Static dielectric constant tensor:
#      x y z
#    x 1.974750 0.000000 0.022960 
#    y 0.000000 1.870910 0.000000 
#    z 0.022960 0.000000 1.928720 
# 
# From -- ./inp_files/33033.got.cif
#   From: 2010.05.17/outbox.cif.g08.bks.cpg/sg14_17_cif.got.tgz:33033.got - 2010.06.03 17:49:19.
