data_PCOD9241740
_publ_section_title
;
Structure prediction by ZEFSAII (Michael W. Deem and Ramdas Pophale) SiO2 
 PCOD9241740
Probable space group: P 21/C
;
_chemical_formula_sum "Si O2"
_cell_formula_units_Z 24
_cell_length_a 9.375696
_cell_length_b 15.024795
_cell_length_c 18.720794
_cell_angle_alpha 90.000000
_cell_angle_beta 148.173387
_cell_angle_gamma 90.000000
_cell_volume 1390.707188
_symmetry_space_group_name_H-M "P 21/C"
_symmetry_group_IT_number 14
_symmetry_cell_setting 'monoclinic'
loop_
_space_group_symop_operation_xyz
x,y,z
-x,1/2+y,1/2-z
-x,-y,-z
x,1/2-y,1/2+z
loop_
_atom_site_type_symbol
_atom_site_label
_atom_site_fract_x
_atom_site_fract_y
_atom_site_fract_z
Si Si1 0.823685 0.854084 0.857033
Si Si2 0.186368 0.651046 0.649416
Si Si3 0.908085 0.503380 0.619833
Si Si4 0.213510 0.860223 0.650653
Si Si5 0.287737 0.499178 0.303086
Si Si6 0.788237 0.855043 0.347654
O O1 0.514497 0.871303 0.747024
O O2 0.841958 0.748286 0.851419
O O3 0.931273 0.917122 0.840376
O O4 0.009496 0.873721 0.004797
O O5 0.160245 0.757161 0.648418
O O6 0.498089 0.635228 0.762626
O O7 0.073462 0.590054 0.664478
O O8 0.609398 0.504523 0.456510
O O9 0.860446 0.501218 0.684042
O O10 0.008833 0.883953 0.499879
O O11 0.198200 0.919913 0.714329
O O12 0.222185 0.412599 0.228167
#
# Coordination Sequence:
#
# PCOD9241740 Si02
#       6
#     4   4   4   4   4   4
#     4  10  19  37  61  84 108 150 193 228 272 333
#     4  10  19  37  61  84 108 150 193 228 272 333
#     4  11  22  36  60  82 116 154 185 224 277 345
#     4  10  21  36  60  86 112 142 189 240 277 319
#     4  11  22  37  56  87 116 149 186 228 281 335
#     4  10  21  36  60  86 112 142 189 240 277 319
#
# _framework density 17.257407000000001
#
# number of rings (size 3 to 8) (size 9 to 14) (size 15 to 20)
#    0.000    1.667    3.333    2.000    0.000    1.333 
#    0.000    3.333    0.000    0.000    0.000    0.000 
#    0.000    0.000    0.000    0.000    0.000    0.000 
#
# Total GULP energy -133977.837995 kJ/mol
# GULP energy per Si atom -5582.409916 kJ/mol
# Density = 1.721813 g / cm^3
# Si number density = 17.257407 Si / 1000 Ang^3
#
#
#
# Elastic Constant Matrix: (Units=GPa)
#
#
# Indices 1 2 3 4 5 6 
#
# 1 91.2593 44.3999 -9.6177 0.0000 -5.1625 0.0000
# 2 44.3999 52.4437 -17.9041 0.0000 -0.8678 0.0000
# 3 -9.6177 -17.9041 36.3432 0.0000 5.5343 0.0000
# 4 0.0000 0.0000 0.0000 10.2906 0.0000 4.4651
# 5 -5.1625 -0.8678 5.5343 0.0000 25.7939 0.0000
# 6 0.0000 0.0000 0.0000 4.4651 0.0000 -9.5787
#
#
#
# Elastic Compliance Matrix: (Units=1/GPa)
#
#
# Indices 1 2 3 4 5 6 
#
# 1 0.019422 -0.017838 -0.004288 0.000000 0.004207 0.000000
# 2 -0.017838 0.039379 0.015528 0.000000 -0.005577 0.000000
# 3 -0.004288 0.015528 0.035233 0.000000 -0.007895 0.000000
# 4 0.000000 0.000000 0.000000 0.080828 0.000000 0.037677
# 5 0.004207 -0.005577 -0.007895 0.000000 0.041117 0.000000
# 6 0.000000 0.000000 0.000000 0.037677 0.000000 -0.086835
#
#
# Mechanical properties :
#
#
# Convention : Reuss Voigt Hill
#
# Bulk Modulus (GPa) = 12.37038 23.75584 18.06311
# Shear Modulus (GPa) = 29.53575 16.17902 22.85738
#
# Velocity S-wave (km/s) = 4.14149 3.06520 3.64331
# Velocity P-wave (km/s) = 5.48206 5.13057 5.30923
#
# Compressibility (1/GPa) = 0.08083825
#
# Stress axis : x y z
#
# Youngs Moduli (GPa) = 51.48697 25.39426 28.38269
#
# Poissons Ratio (x) = 0.45298 0.12172
# Poissons Ratio (y) = 0.91842 -0.44074
# Poissons Ratio (z) = 0.22080 -0.39433
#
# Static dielectric constant tensor:
#      x y z
#    x 1.539600 0.000000 0.013220 
#    y 0.000000 1.607610 0.000000 
#    z 0.013220 0.000000 1.574410 
# 
# From -- ./inp_files/16122.got.cif
#   From: 2010.05.17/outbox.cif.g08.bks.cpg/sg14_9_cif.got.tgz:16122.got - 2010.06.03 17:49:19.
