data_PCOD9241772
_publ_section_title
;
Structure prediction by ZEFSAII (Michael W. Deem and Ramdas Pophale) SiO2 
 PCOD9241772
Probable space group: P 21/C
;
_chemical_formula_sum "Si O2"
_cell_formula_units_Z 24
_cell_length_a 14.500421
_cell_length_b 10.724956
_cell_length_c 14.549074
_cell_angle_alpha 90.000000
_cell_angle_beta 27.539804
_cell_angle_gamma 90.000000
_cell_volume 1046.155325
_symmetry_space_group_name_H-M "P 21/C"
_symmetry_group_IT_number 14
_symmetry_cell_setting 'monoclinic'
loop_
_space_group_symop_operation_xyz
x,y,z
-x,1/2+y,1/2-z
-x,-y,-z
x,1/2-y,1/2+z
loop_
_atom_site_type_symbol
_atom_site_label
_atom_site_fract_x
_atom_site_fract_y
_atom_site_fract_z
Si Si1 0.791926 0.956809 0.077132
Si Si2 0.794515 0.151567 0.225426
Si Si3 0.949069 0.179758 0.836810
Si Si4 0.377311 0.876596 0.419700
Si Si5 0.837835 0.925373 0.512355
Si Si6 0.043301 0.338901 0.914154
O O1 0.613703 0.869542 0.203968
O O2 0.709372 0.060660 0.222069
O O3 0.976553 0.890764 0.961589
O O4 0.887238 0.038559 0.911993
O O5 0.682235 0.129671 0.419924
O O6 0.838748 0.289421 0.145827
O O7 0.082415 0.234814 0.801784
O O8 0.059094 0.177105 0.643114
O O9 0.752922 0.264909 0.007028
O O10 0.316774 0.001313 0.416212
O O11 0.793191 0.865810 0.651662
O O12 0.993654 0.033968 0.404751
#
# Coordination Sequence:
#
# PCOD9241772 Si02
#       6
#     4   4   4   4   4   4
#     4  10  22  36  58  90 123 156 205 257 299 364
#     4  10  19  38  60  87 122 160 201 252 310 360
#     4  10  20  38  59  90 124 163 208 250 304 369
#     4  11  21  36  63  88 119 166 205 250 305 367
#     4  10  19  37  62  86 124 168 201 254 311 357
#     4   9  20  35  62  89 121 165 204 250 312 363
#
# _framework density 22.941144999999999
#
# number of rings (size 3 to 8) (size 9 to 14) (size 15 to 20)
#    0.000    2.000    3.333    0.500    0.000    1.333 
#    0.000    0.000    7.333    6.000    0.000    0.000 
#    0.000    0.000    0.000    0.000    0.000    0.000 
#
# Total GULP energy -133901.571829 kJ/mol
# GULP energy per Si atom -5579.232160 kJ/mol
# Density = 2.288893 g / cm^3
# Si number density = 22.941145 Si / 1000 Ang^3
#
#
#
# Elastic Constant Matrix: (Units=GPa)
#
#
# Indices 1 2 3 4 5 6 
#
# 1 111.6563 22.1220 45.2278 0.0000 27.3812 0.0000
# 2 22.1220 69.3966 23.1228 0.0000 -3.1616 0.0000
# 3 45.2278 23.1228 40.8418 0.0000 7.7751 0.0000
# 4 0.0000 0.0000 0.0000 25.1768 0.0000 5.3452
# 5 27.3812 -3.1616 7.7751 0.0000 40.1747 0.0000
# 6 0.0000 0.0000 0.0000 5.3452 0.0000 43.0941
#
#
#
# Elastic Compliance Matrix: (Units=1/GPa)
#
#
# Indices 1 2 3 4 5 6 
#
# 1 0.019060 -0.000064 -0.019308 0.000000 -0.009259 0.000000
# 2 -0.000064 0.018239 -0.010940 0.000000 0.003596 0.000000
# 3 -0.019308 -0.010940 0.051620 0.000000 0.002308 0.000000
# 4 0.000000 0.000000 0.000000 0.040793 0.000000 -0.005060
# 5 -0.009259 0.003596 0.002308 0.000000 0.031038 0.000000
# 6 0.000000 0.000000 0.000000 -0.005060 0.000000 0.023833
#
#
# Mechanical properties :
#
#
# Convention : Reuss Voigt Hill
#
# Bulk Modulus (GPa) = 35.34094 44.75998 40.05046
# Shear Modulus (GPa) = 19.63552 30.45060 25.04306
#
# Velocity S-wave (km/s) = 2.92877 3.64721 3.30755
# Velocity P-wave (km/s) = 5.18415 6.10650 5.66413
#
# Compressibility (1/GPa) = 0.02829580
#
# Stress axis : x y z
#
# Youngs Moduli (GPa) = 52.46487 54.82645 19.37215
#
# Poissons Ratio (x) = 0.00353 0.37404
# Poissons Ratio (y) = 0.00338 0.21192
# Poissons Ratio (z) = 1.01300 0.59978
#
# Static dielectric constant tensor:
#      x y z
#    x 1.900680 0.000000 0.024510 
#    y 0.000000 1.969260 0.000000 
#    z 0.024510 0.000000 1.810080 
# 
# From -- ./inp_files/39274.got.cif
#   From: 2010.05.17/outbox.cif.g08.bks.cpg/sg14_20_cif.got.tgz:39274.got - 2010.06.03 17:49:19.
