data_PCOD9241278
_publ_section_title
;
Structure prediction by ZEFSAII (Michael W. Deem and Ramdas Pophale) SiO2 
 PCOD9241278
Probable space group: P 21/C
;
_chemical_formula_sum "Si O2"
_cell_formula_units_Z 30
_cell_length_a 9.670783
_cell_length_b 5.106636
_cell_length_c 35.690730
_cell_angle_alpha 90.000000
_cell_angle_beta 129.753216
_cell_angle_gamma 90.000000
_cell_volume 1355.091751
_symmetry_space_group_name_H-M "P 21/C"
_symmetry_group_IT_number 14
_symmetry_cell_setting 'monoclinic'
loop_
_space_group_symop_operation_xyz
x,y,z
-x,1/2+y,1/2-z
-x,-y,-z
x,1/2-y,1/2+z
loop_
_atom_site_type_symbol
_atom_site_label
_atom_site_fract_x
_atom_site_fract_y
_atom_site_fract_z
Si Si1 0.405331 0.242196 0.645054
Si Si2 0.118154 0.563030 0.646269
Si Si3 0.410194 0.968865 0.251946
Si Si4 0.086308 0.910294 0.576733
Si Si5 0.000000 0.500000 0.500000
Si Si6 0.713583 0.527001 0.560723
Si Si7 0.711977 0.455395 0.008677
Si Si8 0.571224 0.642549 0.430096
O O1 0.265358 0.412871 0.645737
O O2 0.542119 0.110395 0.697595
O O3 0.488629 0.378905 0.623530
O O4 0.276122 0.035242 0.601607
O O5 0.206780 0.562468 0.702345
O O6 0.099698 0.846718 0.623159
O O7 0.916953 0.456258 0.608838
O O8 0.520462 0.759823 0.245367
O O9 0.045258 0.651775 0.546898
O O10 0.923063 0.093166 0.533753
O O11 0.223125 0.457748 0.531953
O O12 0.722189 0.804401 0.540475
O O13 0.579039 0.506460 0.571934
O O14 0.657385 0.300317 0.521767
O O15 0.594049 0.571460 0.954649
#
# Coordination Sequence:
#
# PCOD9241278 Si02
#       8
#     4   4   4   4   2   4   4   4
#     4  11  21  37  61  91 125 156 211 262 316 366
#     4  10  20  39  61  87 125 159 213 254 316 374
#     4  10  21  37  64  94 122 157 208 266 316 372
#     4  10  19  35  58  87 121 163 203 252 308 367
#     4  10  22  36  54  88 128 156 200 254 310 356
#     4  11  23  42  63  90 125 172 212 249 310 381
#     4  10  23  40  61  88 127 169 213 247 303 377
#     4  11  24  38  61  93 129 167 208 263 312 373
#
# _framework density 22.138724
#
# number of rings (size 3 to 8) (size 9 to 14) (size 15 to 20)
#    0.000    1.600    4.000    0.800    0.000    6.400 
#    0.000    0.000    0.000   11.200    0.000    0.000 
#    0.000    0.000    0.000    0.000    0.000    0.000 
#
# Total GULP energy -167159.729921 kJ/mol
# GULP energy per Si atom -5571.990997 kJ/mol
# Density = 2.208834 g / cm^3
# Si number density = 22.138724 Si / 1000 Ang^3
#
#
#
# Elastic Constant Matrix: (Units=GPa)
#
#
# Indices 1 2 3 4 5 6 
#
# 1 96.8238 3.1686 32.7251 0.0000 -14.9488 0.0000
# 2 3.1686 78.5076 10.0201 0.0000 -4.7662 0.0000
# 3 32.7251 10.0201 145.4905 0.0000 -1.0919 0.0000
# 4 0.0000 0.0000 0.0000 23.2232 0.0000 7.3458
# 5 -14.9488 -4.7662 -1.0919 0.0000 30.7979 0.0000
# 6 0.0000 0.0000 0.0000 7.3458 0.0000 11.3483
#
#
#
# Elastic Compliance Matrix: (Units=1/GPa)
#
#
# Indices 1 2 3 4 5 6 
#
# 1 0.012133 0.000209 -0.002700 0.000000 0.005826 0.000000
# 2 0.000209 0.012973 -0.000925 0.000000 0.002076 0.000000
# 3 -0.002700 -0.000925 0.007535 0.000000 -0.001186 0.000000
# 4 0.000000 0.000000 0.000000 0.054147 0.000000 -0.035049
# 5 0.005826 0.002076 -0.001186 0.000000 0.035577 0.000000
# 6 0.000000 0.000000 0.000000 -0.035049 0.000000 0.110806
#
#
# Mechanical properties :
#
#
# Convention : Reuss Voigt Hill
#
# Bulk Modulus (GPa) = 38.74504 45.84996 42.29750
# Shear Modulus (GPa) = 20.11207 31.40108 25.75658
#
# Velocity S-wave (km/s) = 3.01733 3.77022 3.41459
# Velocity P-wave (km/s) = 5.44776 6.30143 5.89008
#
# Compressibility (1/GPa) = 0.02580976
#
# Stress axis : x y z
#
# Youngs Moduli (GPa) = 82.41878 77.08152 132.70792
#
# Poissons Ratio (x) = -0.01608 0.35828
# Poissons Ratio (y) = -0.01719 0.12273
# Poissons Ratio (z) = 0.22251 0.07129
#
# Static dielectric constant tensor:
#      x y z
#    x 2.008880 0.000000 -0.068000 
#    y 0.000000 2.040790 0.000000 
#    z -0.068000 0.000000 1.940180 
# 
# From -- ./inp_files/79303.got.cif
#   From: 2010.05.17/outbox.cif.g08.bks.cpg/sg14_40_cif.got.tgz:79303.got - 2010.06.03 17:49:19.
