data_PCOD9241858
_publ_section_title
;
Structure prediction by ZEFSAII (Michael W. Deem and Ramdas Pophale) SiO2 
 PCOD9241858
Probable space group: P 21/C
;
_chemical_formula_sum "Si O2"
_cell_formula_units_Z 28
_cell_length_a 9.481818
_cell_length_b 14.286540
_cell_length_c 10.508235
_cell_angle_alpha 90.000000
_cell_angle_beta 53.929259
_cell_angle_gamma 90.000000
_cell_volume 1150.577863
_symmetry_space_group_name_H-M "P 21/C"
_symmetry_group_IT_number 14
_symmetry_cell_setting 'monoclinic'
loop_
_space_group_symop_operation_xyz
x,y,z
-x,1/2+y,1/2-z
-x,-y,-z
x,1/2-y,1/2+z
loop_
_atom_site_type_symbol
_atom_site_label
_atom_site_fract_x
_atom_site_fract_y
_atom_site_fract_z
Si Si1 0.174148 0.665305 0.184731
Si Si2 0.606859 0.395117 0.605956
Si Si3 0.256506 0.306913 0.924975
Si Si4 0.523192 0.293592 0.401849
Si Si5 0.472775 0.075839 0.706006
Si Si6 0.064309 0.730641 0.500630
Si Si7 0.769097 0.532490 0.888786
O O1 0.371925 0.699867 0.110745
O O2 0.083206 0.731189 0.337476
O O3 0.128624 0.555966 0.224677
O O4 0.127464 0.692857 0.067359
O O5 0.436304 0.347646 0.766002
O O6 0.576956 0.370594 0.475225
O O7 0.599537 0.501994 0.652181
O O8 0.798316 0.353075 0.539817
O O9 0.323677 0.236728 0.998551
O O10 0.159871 0.393324 0.046982
O O11 0.142788 0.248576 0.886466
O O12 0.547167 0.337775 0.248041
O O13 0.323288 0.084976 0.679001
O O14 0.625373 0.024751 0.546800
#
# Coordination Sequence:
#
# PCOD9241858 Si02
#       7
#     4   4   4   4   4   4   4
#     4  11  22  43  67  98 136 180 220 282 342 409
#     4  10  22  43  61  98 133 175 221 281 341 402
#     4  11  25  40  67  99 128 178 232 279 333 414
#     4  11  22  36  69  95 133 172 221 273 339 400
#     4  10  19  37  66  99 131 176 216 274 339 418
#     4  11  24  41  68  96 135 177 232 281 341 403
#     4  10  21  39  66  96 139 176 226 272 345 407
#
# _framework density 24.335598999999998
#
# number of rings (size 3 to 8) (size 9 to 14) (size 15 to 20)
#    0.000    1.429    2.857    3.000    6.000    0.571 
#    0.000    0.714    6.286    0.000    0.000    0.000 
#    0.000    0.000    0.000    0.000    0.000    0.000 
#
# Total GULP energy -155895.450891 kJ/mol
# GULP energy per Si atom -5567.694675 kJ/mol
# Density = 2.428021 g / cm^3
# Si number density = 24.335599 Si / 1000 Ang^3
#
#
#
# Elastic Constant Matrix: (Units=GPa)
#
#
# Indices 1 2 3 4 5 6 
#
# 1 102.2356 52.9570 20.1988 0.0000 -0.0348 0.0000
# 2 52.9570 101.4300 42.0618 0.0000 10.8097 0.0000
# 3 20.1988 42.0618 54.4811 0.0000 29.9055 0.0000
# 4 0.0000 0.0000 0.0000 38.2816 0.0000 7.6290
# 5 -0.0348 10.8097 29.9055 0.0000 21.4410 0.0000
# 6 0.0000 0.0000 0.0000 7.6290 0.0000 12.9245
#
#
#
# Elastic Compliance Matrix: (Units=1/GPa)
#
#
# Indices 1 2 3 4 5 6 
#
# 1 0.014822 -0.003876 -0.015311 0.000000 0.023334 0.000000
# 2 -0.003876 0.026684 -0.050243 0.000000 0.056619 0.000000
# 3 -0.015311 -0.050243 0.208766 0.000000 -0.265877 0.000000
# 4 0.000000 0.000000 0.000000 0.029605 0.000000 -0.017475
# 5 0.023334 0.056619 -0.265877 0.000000 0.388972 0.000000
# 6 0.000000 0.000000 0.000000 -0.017475 0.000000 0.087687
#
#
# Mechanical properties :
#
#
# Convention : Reuss Voigt Hill
#
# Bulk Modulus (GPa) = 8.97580 54.28690 31.63135
# Shear Modulus (GPa) = 5.36173 24.05803 14.70988
#
# Velocity S-wave (km/s) = 1.48594 3.14760 2.46124
# Velocity P-wave (km/s) = 2.57689 5.96372 4.59382
#
# Compressibility (1/GPa) = 0.11141071
#
# Stress axis : x y z
#
# Youngs Moduli (GPa) = 67.46685 37.47564 4.79005
#
# Poissons Ratio (x) = 0.14526 0.07334
# Poissons Ratio (y) = 0.26151 0.24067
# Poissons Ratio (z) = 1.03299 1.88290
#
# Static dielectric constant tensor:
#      x y z
#    x 1.953540 0.000000 -0.076100 
#    y 0.000000 1.956360 0.000000 
#    z -0.076100 0.000000 2.083930 
# 
# From -- ./inp_files/25125.got.cif
#   From: 2010.05.17/outbox.cif.g08.bks.cpg/sg14_13_cif.got.tgz:25125.got - 2010.06.03 17:49:19.
