data_PCOD9241261
_publ_section_title
;
Structure prediction by ZEFSAII (Michael W. Deem and Ramdas Pophale) SiO2 
 PCOD9241261
Probable space group: P 21/C
;
_chemical_formula_sum "Si O2"
_cell_formula_units_Z 28
_cell_length_a 13.654421
_cell_length_b 8.780180
_cell_length_c 18.705490
_cell_angle_alpha 90.000000
_cell_angle_beta 42.973070
_cell_angle_gamma 90.000000
_cell_volume 1528.657272
_symmetry_space_group_name_H-M "P 21/C"
_symmetry_group_IT_number 14
_symmetry_cell_setting 'monoclinic'
loop_
_space_group_symop_operation_xyz
x,y,z
-x,1/2+y,1/2-z
-x,-y,-z
x,1/2-y,1/2+z
loop_
_atom_site_type_symbol
_atom_site_label
_atom_site_fract_x
_atom_site_fract_y
_atom_site_fract_z
Si Si1 0.311168 0.014837 0.875006
Si Si2 0.027602 0.472655 0.869890
Si Si3 0.272012 0.542320 0.629948
Si Si4 0.831977 0.673672 0.067726
Si Si5 0.562719 0.528340 0.131494
Si Si6 0.757418 0.256815 0.991218
Si Si7 0.452612 0.333909 0.438047
O O1 0.197295 0.146924 0.918687
O O2 0.414303 0.985592 0.753058
O O3 0.408741 0.082340 0.887684
O O4 0.243548 0.860522 0.941909
O O5 0.127774 0.513074 0.750294
O O6 0.121249 0.388559 0.880535
O O7 0.897189 0.362318 0.918268
O O8 0.953831 0.618920 0.946877
O O9 0.249960 0.659535 0.576858
O O10 0.338360 0.390562 0.558152
O O11 0.393258 0.609543 0.617678
O O12 0.684972 0.591570 0.120626
O O13 0.551827 0.655228 0.075783
O O14 0.619999 0.367145 0.072815
#
# Coordination Sequence:
#
# PCOD9241261 Si02
#       7
#     4   4   4   4   4   4   4
#     4  10  19  35  58  83 110 137 176 232 279 318
#     4  10  21  38  56  76 110 149 183 225 272 321
#     4  10  21  38  56  76 110 149 183 225 272 321
#     4   9  20  36  57  80 104 142 188 221 270 334
#     4  10  19  35  58  83 110 137 176 232 279 318
#     4  10  22  34  52  84 112 142 184 220 268 338
#     4   9  20  36  57  80 104 142 188 221 270 334
#
# _framework density 18.316728999999999
#
# number of rings (size 3 to 8) (size 9 to 14) (size 15 to 20)
#    0.000    2.286    0.000    2.571    0.000   10.286 
#    0.000    1.429    0.000    0.000    0.000    0.000 
#    0.000    0.000    0.000    0.000    0.000    0.000 
#
# Total GULP energy -156316.632913 kJ/mol
# GULP energy per Si atom -5582.736890 kJ/mol
# Density = 1.827504 g / cm^3
# Si number density = 18.316729 Si / 1000 Ang^3
#
#
#
# Elastic Constant Matrix: (Units=GPa)
#
#
# Indices 1 2 3 4 5 6 
#
# 1 32.3654 -15.1930 -10.9901 0.0000 4.0174 0.0000
# 2 -15.1930 53.4298 -2.6340 0.0000 7.1184 0.0000
# 3 -10.9901 -2.6340 50.5835 0.0000 4.1482 0.0000
# 4 0.0000 0.0000 0.0000 16.0828 0.0000 -0.9029
# 5 4.0174 7.1184 4.1482 0.0000 14.2439 0.0000
# 6 0.0000 0.0000 0.0000 -0.9029 0.0000 13.6173
#
#
#
# Elastic Compliance Matrix: (Units=1/GPa)
#
#
# Indices 1 2 3 4 5 6 
#
# 1 0.046692 0.017345 0.013153 0.000000 -0.025668 0.000000
# 2 0.017345 0.026677 0.006815 0.000000 -0.020208 0.000000
# 3 0.013153 0.006815 0.024142 0.000000 -0.014146 0.000000
# 4 0.000000 0.000000 0.000000 0.062411 0.000000 0.004138
# 5 -0.025668 -0.020208 -0.014146 0.000000 0.091664 0.000000
# 6 0.000000 0.000000 0.000000 0.004138 0.000000 0.073710
#
#
# Mechanical properties :
#
#
# Convention : Reuss Voigt Hill
#
# Bulk Modulus (GPa) = 5.80939 8.74938 7.27938
# Shear Modulus (GPa) = 16.23122 19.80185 18.01653
#
# Velocity S-wave (km/s) = 2.98004 3.29155 3.13966
# Velocity P-wave (km/s) = 3.87549 4.38552 4.13837
#
# Compressibility (1/GPa) = 0.17213525
#
# Stress axis : x y z
#
# Youngs Moduli (GPa) = 21.41716 37.48603 41.42177
#
# Poissons Ratio (x) = -0.65020 -0.54481
# Poissons Ratio (y) = -0.37148 -0.28228
# Poissons Ratio (z) = -0.28169 -0.25546
#
# Static dielectric constant tensor:
#      x y z
#    x 1.616380 0.000000 -0.000700 
#    y 0.000000 1.636180 0.000000 
#    z -0.000700 0.000000 1.602580 
# 
# From -- ./inp_files/43326.got.cif
#   From: 2010.05.17/outbox.cif.g08.bks.cpg/sg14_22_cif.got.tgz:43326.got - 2010.06.03 17:49:19.
