data_PCOD9241510
_publ_section_title
;
Structure prediction by ZEFSAII (Michael W. Deem and Ramdas Pophale) SiO2 
 PCOD9241510
Probable space group: P 21/C
;
_chemical_formula_sum "Si O2"
_cell_formula_units_Z 32
_cell_length_a 5.267142
_cell_length_b 10.100813
_cell_length_c 27.789023
_cell_angle_alpha 90.000000
_cell_angle_beta 76.699539
_cell_angle_gamma 90.000000
_cell_volume 1438.786924
_symmetry_space_group_name_H-M "P 21/C"
_symmetry_group_IT_number 14
_symmetry_cell_setting 'monoclinic'
loop_
_space_group_symop_operation_xyz
x,y,z
-x,1/2+y,1/2-z
-x,-y,-z
x,1/2-y,1/2+z
loop_
_atom_site_type_symbol
_atom_site_label
_atom_site_fract_x
_atom_site_fract_y
_atom_site_fract_z
Si Si1 0.863419 0.359828 0.224967
Si Si2 0.817296 0.614898 0.988661
Si Si3 0.132066 0.384453 0.464301
Si Si4 0.723971 0.164786 0.903004
Si Si5 0.558942 0.864634 0.181356
Si Si6 0.189311 0.563063 0.271229
Si Si7 0.377393 0.541849 0.082500
Si Si8 0.644255 0.570617 0.170439
O O1 0.577054 0.345788 0.260769
O O2 0.846724 0.461219 0.180951
O O3 0.015382 0.445821 0.257351
O O4 0.946169 0.206744 0.215698
O O5 0.764939 0.583570 0.934928
O O6 0.927835 0.753705 0.001353
O O7 0.558027 0.594566 0.031277
O O8 0.000000 0.500000 0.000000
O O9 0.445964 0.378138 0.440989
O O10 0.000000 0.500000 0.500000
O O11 0.970858 0.388064 0.421393
O O12 0.655526 0.126584 0.851398
O O13 0.775540 0.323463 0.900144
O O14 0.703203 0.003522 0.183493
O O15 0.712832 0.727303 0.164414
O O16 0.411003 0.575910 0.220053
O O17 0.540956 0.520108 0.123598
#
# Coordination Sequence:
#
# PCOD9241510 Si02
#       8
#     4   4   4   4   4   4   4   4
#     4  10  20  35  57  82 116 148 189 239 293 353
#     4  10  19  36  60  81 114 150 195 247 298 347
#     4  11  23  40  60  88 121 157 196 246 300 356
#     4  10  21  39  64  88 115 157 206 241 292 360
#     4   9  20  37  59  80 111 150 196 241 286 345
#     4  10  20  35  56  81 114 150 187 239 293 346
#     4   9  19  36  59  85 111 150 200 249 290 352
#     4   9  19  37  55  82 107 149 194 237 291 348
#
# _framework density 22.240960999999999
#
# number of rings (size 3 to 8) (size 9 to 14) (size 15 to 20)
#    0.000    2.250    1.250    1.125    1.750    2.000 
#    9.000    1.250    0.000    0.000    0.000    0.000 
#    0.000    0.000    0.000    0.000    0.000    0.000 
#
# Total GULP energy -178226.192315 kJ/mol
# GULP energy per Si atom -5569.568510 kJ/mol
# Density = 2.219034 g / cm^3
# Si number density = 22.240961 Si / 1000 Ang^3
#
#
#
# Elastic Constant Matrix: (Units=GPa)
#
#
# Indices 1 2 3 4 5 6 
#
# 1 51.0166 28.1131 12.3833 0.0000 -5.2034 0.0000
# 2 28.1131 154.4442 40.0978 0.0000 14.8419 0.0000
# 3 12.3833 40.0978 100.6169 0.0000 20.1024 0.0000
# 4 0.0000 0.0000 0.0000 34.6741 0.0000 6.4428
# 5 -5.2034 14.8419 20.1024 0.0000 31.7942 0.0000
# 6 0.0000 0.0000 0.0000 6.4428 0.0000 22.8015
#
#
#
# Elastic Compliance Matrix: (Units=1/GPa)
#
#
# Indices 1 2 3 4 5 6 
#
# 1 0.023377 -0.004284 -0.002671 0.000000 0.007515 0.000000
# 2 -0.004284 0.008096 -0.002065 0.000000 -0.003175 0.000000
# 3 -0.002671 -0.002065 0.012573 0.000000 -0.007423 0.000000
# 4 0.000000 0.000000 0.000000 0.030438 0.000000 -0.008601
# 5 0.007515 -0.003175 -0.007423 0.000000 0.038857 0.000000
# 6 0.000000 0.000000 0.000000 -0.008601 0.000000 0.046287
#
#
# Mechanical properties :
#
#
# Convention : Reuss Voigt Hill
#
# Bulk Modulus (GPa) = 38.45220 51.91844 45.18532
# Shear Modulus (GPa) = 26.83311 32.88622 29.85967
#
# Velocity S-wave (km/s) = 3.47720 3.84947 3.66806
# Velocity P-wave (km/s) = 5.78340 6.56903 6.18869
#
# Compressibility (1/GPa) = 0.02600632
#
# Stress axis : x y z
#
# Youngs Moduli (GPa) = 42.77721 123.52113 79.53329
#
# Poissons Ratio (x) = 0.52915 0.21245
# Poissons Ratio (y) = 0.18325 0.16422
# Poissons Ratio (z) = 0.11427 0.25505
#
# Static dielectric constant tensor:
#      x y z
#    x 1.899680 0.000000 -0.014620 
#    y 0.000000 1.896210 0.000000 
#    z -0.014620 0.000000 1.899060 
# 
# From -- ./inp_files/78829.got.cif
#   From: 2010.05.17/outbox.cif.g08.bks.cpg/sg14_40_cif.got.tgz:78829.got - 2010.06.03 17:49:19.
