data_PCOD9241216
_publ_section_title
;
Structure prediction by ZEFSAII (Michael W. Deem and Ramdas Pophale) SiO2 
 PCOD9241216
Probable space group: P 21/C
;
_chemical_formula_sum "Si O2"
_cell_formula_units_Z 20
_cell_length_a 13.309007
_cell_length_b 5.224704
_cell_length_c 18.249039
_cell_angle_alpha 90.000000
_cell_angle_beta 133.968829
_cell_angle_gamma 90.000000
_cell_volume 913.291625
_symmetry_space_group_name_H-M "P 21/C"
_symmetry_group_IT_number 14
_symmetry_cell_setting 'monoclinic'
loop_
_space_group_symop_operation_xyz
x,y,z
-x,1/2+y,1/2-z
-x,-y,-z
x,1/2-y,1/2+z
loop_
_atom_site_type_symbol
_atom_site_label
_atom_site_fract_x
_atom_site_fract_y
_atom_site_fract_z
Si Si1 0.809799 0.234395 0.617468
Si Si2 0.645397 0.770402 0.039648
Si Si3 0.653894 0.120111 0.168927
Si Si4 0.837123 0.275249 0.375359
Si Si5 0.992569 0.772577 0.401938
O O1 0.716272 0.473541 0.543467
O O2 0.787392 0.262979 0.693041
O O3 0.961191 0.249033 0.658836
O O4 0.737155 0.967433 0.563312
O O5 0.645868 0.836795 0.127856
O O6 0.487310 0.751666 0.932133
O O7 0.687570 0.180819 0.269528
O O8 0.869531 0.271637 0.478202
O O9 0.883609 0.555407 0.371270
O O10 0.937834 0.052916 0.394051
#
# Coordination Sequence:
#
# PCOD9241216 Si02
#       5
#     4   4   4   4   4
#     4  10  19  35  56  78 112 135 177 229 266 314
#     4   9  20  34  56  82 107 137 175 225 274 317
#     4   9  21  34  59  78 110 139 182 217 276 321
#     4  10  22  37  56  76 110 149 179 220 271 327
#     4  10  22  38  53  79 111 144 183 221 269 319
#
# _framework density 21.898812
#
# number of rings (size 3 to 8) (size 9 to 14) (size 15 to 20)
#    1.200    1.200    0.000    1.800    2.800    1.600 
#    0.000    2.000    0.000    0.000    0.000    0.000 
#    0.000    0.000    0.000    0.000    0.000    0.000 
#
# Total GULP energy -111344.171932 kJ/mol
# GULP energy per Si atom -5567.208597 kJ/mol
# Density = 2.184897 g / cm^3
# Si number density = 21.898812 Si / 1000 Ang^3
#
#
#
# Elastic Constant Matrix: (Units=GPa)
#
#
# Indices 1 2 3 4 5 6 
#
# 1 24.4141 13.4421 -19.6064 0.0000 -2.9699 0.0000
# 2 13.4421 107.1648 9.5892 0.0000 0.9742 0.0000
# 3 -19.6064 9.5892 106.0523 0.0000 10.8880 0.0000
# 4 0.0000 0.0000 0.0000 19.8867 0.0000 2.8310
# 5 -2.9699 0.9742 10.8880 0.0000 9.6414 0.0000
# 6 0.0000 0.0000 0.0000 2.8310 0.0000 21.1738
#
#
#
# Elastic Compliance Matrix: (Units=1/GPa)
#
#
# Indices 1 2 3 4 5 6 
#
# 1 0.054041 -0.007735 0.010068 0.000000 0.006058 0.000000
# 2 -0.007735 0.010515 -0.002293 0.000000 -0.000856 0.000000
# 3 0.010068 -0.002293 0.012619 0.000000 -0.010917 0.000000
# 4 0.000000 0.000000 0.000000 0.051260 0.000000 -0.006854
# 5 0.006058 -0.000856 -0.010917 0.000000 0.118001 0.000000
# 6 0.000000 0.000000 0.000000 -0.006854 0.000000 0.048144
#
#
# Mechanical properties :
#
#
# Convention : Reuss Voigt Hill
#
# Bulk Modulus (GPa) = 12.94394 27.16455 20.05424
# Shear Modulus (GPa) = 15.61279 25.75415 20.68347
#
# Velocity S-wave (km/s) = 2.67301 3.43308 3.07661
# Velocity P-wave (km/s) = 3.93068 5.30530 4.66886
#
# Compressibility (1/GPa) = 0.07725622
#
# Stress axis : x y z
#
# Youngs Moduli (GPa) = 18.50444 95.10637 79.24668
#
# Poissons Ratio (x) = 0.73561 -0.79788
# Poissons Ratio (y) = 0.14312 0.18170
# Poissons Ratio (z) = -0.18631 0.21806
#
# Static dielectric constant tensor:
#      x y z
#    x 1.797030 0.000000 0.007370 
#    y 0.000000 1.809900 0.000000 
#    z 0.007370 0.000000 1.857620 
# 
# From -- ./inp_files/58371.got.cif
#   From: 2010.05.17/outbox.cif.g08.bks.cpg/sg14_30_cif.got.tgz:58371.got - 2010.06.03 17:49:19.
