data_PCOD9241076
_publ_section_title
;
Structure prediction by ZEFSAII (Michael W. Deem and Ramdas Pophale) SiO2 
 PCOD9241076
Probable space group: P 21/C
;
_chemical_formula_sum "Si O2"
_cell_formula_units_Z 24
_cell_length_a 14.203400
_cell_length_b 11.578792
_cell_length_c 12.904151
_cell_angle_alpha 90.000000
_cell_angle_beta 150.745203
_cell_angle_gamma 90.000000
_cell_volume 1037.103906
_symmetry_space_group_name_H-M "P 21/C"
_symmetry_group_IT_number 14
_symmetry_cell_setting 'monoclinic'
loop_
_space_group_symop_operation_xyz
x,y,z
-x,1/2+y,1/2-z
-x,-y,-z
x,1/2-y,1/2+z
loop_
_atom_site_type_symbol
_atom_site_label
_atom_site_fract_x
_atom_site_fract_y
_atom_site_fract_z
Si Si1 0.495796 0.917757 0.093645
Si Si2 0.329767 0.396785 0.586197
Si Si3 0.984519 0.003338 0.838094
Si Si4 0.890328 0.013079 0.503082
Si Si5 0.997181 0.252295 0.167415
Si Si6 0.704307 0.303666 0.059419
O O1 0.718602 0.920233 0.339036
O O2 0.397751 0.797002 0.974668
O O3 0.382988 0.987873 0.073720
O O4 0.500000 0.000000 0.000000
O O5 0.530258 0.345620 0.818272
O O6 0.189601 0.433543 0.546170
O O7 0.205936 0.307676 0.396311
O O8 0.967197 0.000485 0.694708
O O9 0.809536 0.084038 0.707477
O O10 0.982316 0.870564 0.867256
O O11 0.870986 0.153090 0.484413
O O12 0.000000 0.000000 0.500000
O O13 0.875021 0.244204 0.156634
#
# Coordination Sequence:
#
# PCOD9241076 Si02
#       6
#     4   4   4   4   4   4
#     4  12  21  36  61  89 122 155 202 249 299 356
#     4  10  19  34  57  87 116 155 196 248 290 350
#     4  10  20  37  60  88 121 159 199 244 301 363
#     4  10  21  37  56  92 121 153 204 256 302 350
#     4  10  20  34  59  88 121 154 197 251 296 359
#     4  10  21  36  55  91 119 157 204 245 296 360
#
# _framework density 23.141366000000001
#
# number of rings (size 3 to 8) (size 9 to 14) (size 15 to 20)
#    0.000    2.000    5.000    3.000    0.000    0.000 
#    0.000    0.000    0.000    5.000    0.000    0.000 
#    0.000    0.000    0.000    0.000    0.000    0.000 
#
# Total GULP energy -133713.760520 kJ/mol
# GULP energy per Si atom -5571.406688 kJ/mol
# Density = 2.308870 g / cm^3
# Si number density = 23.141366 Si / 1000 Ang^3
#
#
#
# Elastic Constant Matrix: (Units=GPa)
#
#
# Indices 1 2 3 4 5 6 
#
# 1 40.9246 10.4694 5.3435 0.0000 5.5438 0.0000
# 2 10.4694 142.0019 5.6756 0.0000 18.5569 0.0000
# 3 5.3435 5.6756 68.6601 0.0000 26.3174 0.0000
# 4 0.0000 0.0000 0.0000 34.8837 0.0000 19.8144
# 5 5.5438 18.5569 26.3174 0.0000 36.5224 0.0000
# 6 0.0000 0.0000 0.0000 19.8144 0.0000 31.8932
#
#
#
# Elastic Compliance Matrix: (Units=1/GPa)
#
#
# Indices 1 2 3 4 5 6 
#
# 1 0.025268 -0.001512 -0.000920 0.000000 -0.002404 0.000000
# 2 -0.001512 0.007702 0.001234 0.000000 -0.004573 0.000000
# 3 -0.000920 0.001234 0.020338 0.000000 -0.015143 0.000000
# 4 0.000000 0.000000 0.000000 0.044300 0.000000 -0.027522
# 5 -0.002404 -0.004573 -0.015143 0.000000 0.040980 0.000000
# 6 0.000000 0.000000 0.000000 -0.027522 0.000000 0.048454
#
#
# Mechanical properties :
#
#
# Convention : Reuss Voigt Hill
#
# Bulk Modulus (GPa) = 19.64184 32.72930 26.18557
# Shear Modulus (GPa) = 24.22383 35.99974 30.11178
#
# Velocity S-wave (km/s) = 3.23890 3.94844 3.61114
# Velocity P-wave (km/s) = 4.74273 5.91277 5.35977
#
# Compressibility (1/GPa) = 0.05091173
#
# Stress axis : x y z
#
# Youngs Moduli (GPa) = 39.57613 129.83818 49.16841
#
# Poissons Ratio (x) = 0.19631 0.04523
# Poissons Ratio (y) = 0.05984 -0.06066
# Poissons Ratio (z) = 0.03641 -0.16019
#
# Static dielectric constant tensor:
#      x y z
#    x 1.954050 0.000000 0.197400 
#    y 0.000000 1.949520 0.000000 
#    z 0.197400 0.000000 2.896010 
# 
# From -- ./inp_files/47029.got.cif
#   From: 2010.05.17/outbox.cif.g08.bks.cpg/sg14_24_cif.got.tgz:47029.got - 2010.06.03 17:49:19.
