data_PCOD9241347
_publ_section_title
;
Structure prediction by ZEFSAII (Michael W. Deem and Ramdas Pophale) SiO2 
 PCOD9241347
Probable space group: P 21/C
;
_chemical_formula_sum "Si O2"
_cell_formula_units_Z 28
_cell_length_a 5.021974
_cell_length_b 17.780849
_cell_length_c 17.603812
_cell_angle_alpha 90.000000
_cell_angle_beta 124.663706
_cell_angle_gamma 90.000000
_cell_volume 1292.920885
_symmetry_space_group_name_H-M "P 21/C"
_symmetry_group_IT_number 14
_symmetry_cell_setting 'monoclinic'
loop_
_space_group_symop_operation_xyz
x,y,z
-x,1/2+y,1/2-z
-x,-y,-z
x,1/2-y,1/2+z
loop_
_atom_site_type_symbol
_atom_site_label
_atom_site_fract_x
_atom_site_fract_y
_atom_site_fract_z
Si Si1 0.036438 0.353857 0.113545
Si Si2 0.277278 0.616809 0.234961
Si Si3 0.639974 0.480894 0.346849
Si Si4 0.243053 0.566083 0.064851
Si Si5 0.691172 0.061477 0.686071
Si Si6 0.994844 0.815530 0.834054
Si Si7 0.725915 0.430789 0.512162
O O1 0.956401 0.403868 0.174314
O O2 0.019995 0.268681 0.137614
O O3 0.383525 0.380803 0.137428
O O4 0.773402 0.375073 0.006251
O O5 0.331306 0.534430 0.282220
O O6 0.145406 0.603364 0.128901
O O7 0.089692 0.670537 0.261978
O O8 0.636745 0.650354 0.283845
O O9 0.762715 0.450662 0.286240
O O10 0.621195 0.417165 0.408152
O O11 0.909811 0.537725 0.423041
O O12 0.569810 0.519229 0.134196
O O13 0.000000 0.500000 0.000000
O O14 0.257996 0.861338 0.927697
O O15 0.500000 0.500000 0.500000
#
# Coordination Sequence:
#
# PCOD9241347 Si02
#       7
#     4   4   4   4   4   4   4
#     4  11  23  41  58  89 125 161 197 252 307 366
#     4  10  21  39  63  88 118 159 198 249 304 353
#     4   9  20  35  59  91 112 151 203 254 290 349
#     4   9  21  40  69  93 116 158 213 261 297 355
#     4  10  22  39  65  87 120 154 211 257 301 352
#     4  11  23  40  58  85 131 164 191 245 311 367
#     4  10  19  35  61  87 119 155 206 245 291 354
#
# _framework density 21.656390999999999
#
# number of rings (size 3 to 8) (size 9 to 14) (size 15 to 20)
#    0.000    2.000    1.429    1.286    2.000    9.143 
#    5.143    0.000    0.000    0.000    0.000    0.000 
#    0.000    0.000    0.000    0.000    0.000    0.000 
#
# Total GULP energy -156369.643833 kJ/mol
# GULP energy per Si atom -5584.630137 kJ/mol
# Density = 2.160710 g / cm^3
# Si number density = 21.656391 Si / 1000 Ang^3
#
#
#
# Elastic Constant Matrix: (Units=GPa)
#
#
# Indices 1 2 3 4 5 6 
#
# 1 74.5476 20.8401 12.0550 0.0000 -5.4439 0.0000
# 2 20.8401 109.7093 60.5275 0.0000 -11.8356 0.0000
# 3 12.0550 60.5275 153.2176 0.0000 -23.8078 0.0000
# 4 0.0000 0.0000 0.0000 33.8321 0.0000 -8.6328
# 5 -5.4439 -11.8356 -23.8078 0.0000 23.5499 0.0000
# 6 0.0000 0.0000 0.0000 -8.6328 0.0000 21.2341
#
#
#
# Elastic Compliance Matrix: (Units=1/GPa)
#
#
# Indices 1 2 3 4 5 6 
#
# 1 0.014266 -0.002610 0.000258 0.000000 0.002247 0.000000
# 2 -0.002610 0.012173 -0.004445 0.000000 0.001021 0.000000
# 3 0.000258 -0.004445 0.009401 0.000000 0.007330 0.000000
# 4 0.000000 0.000000 0.000000 0.032979 0.000000 0.013408
# 5 0.002247 0.001021 0.007330 0.000000 0.050906 0.000000
# 6 0.000000 0.000000 0.000000 0.013408 0.000000 0.052545
#
#
# Mechanical properties :
#
#
# Convention : Reuss Voigt Hill
#
# Bulk Modulus (GPa) = 44.95071 58.25774 51.60423
# Shear Modulus (GPa) = 25.86921 31.99336 28.93128
#
# Velocity S-wave (km/s) = 3.45995 3.84776 3.65899
# Velocity P-wave (km/s) = 6.06325 6.83372 6.45998
#
# Compressibility (1/GPa) = 0.02224659
#
# Stress axis : x y z
#
# Youngs Moduli (GPa) = 70.09565 82.14776 106.36838
#
# Poissons Ratio (x) = 0.21438 -0.02740
# Poissons Ratio (y) = 0.18293 0.47280
# Poissons Ratio (z) = -0.01806 0.36514
#
# Static dielectric constant tensor:
#      x y z
#    x 1.862390 0.000000 0.011730 
#    y 0.000000 1.790370 0.000000 
#    z 0.011730 0.000000 1.848000 
# 
# From -- ./inp_files/37914.got.cif
#   From: 2010.05.17/outbox.cif.g08.bks.cpg/sg14_19_cif.got.tgz:37914.got - 2010.06.03 17:49:19.
