data_PCOD9241743
_publ_section_title
;
Structure prediction by ZEFSAII (Michael W. Deem and Ramdas Pophale) SiO2 
 PCOD9241743
Probable space group: P 21/C
;
_chemical_formula_sum "Si O2"
_cell_formula_units_Z 32
_cell_length_a 22.398634
_cell_length_b 9.397240
_cell_length_c 14.183003
_cell_angle_alpha 90.000000
_cell_angle_beta 150.434251
_cell_angle_gamma 90.000000
_cell_volume 1473.019705
_symmetry_space_group_name_H-M "P 21/C"
_symmetry_group_IT_number 14
_symmetry_cell_setting 'monoclinic'
loop_
_space_group_symop_operation_xyz
x,y,z
-x,1/2+y,1/2-z
-x,-y,-z
x,1/2-y,1/2+z
loop_
_atom_site_type_symbol
_atom_site_label
_atom_site_fract_x
_atom_site_fract_y
_atom_site_fract_z
Si Si1 0.050276 0.338326 0.578958
Si Si2 0.662831 0.327213 0.963384
Si Si3 0.537129 0.998484 0.443835
Si Si4 0.396027 0.228760 0.051226
Si Si5 0.264768 0.388374 0.020198
Si Si6 0.896974 0.689849 0.043223
Si Si7 0.280719 0.987421 0.976518
Si Si8 0.021998 0.387693 0.181083
O O1 0.095724 0.279535 0.541972
O O2 0.977869 0.208383 0.531134
O O3 0.000000 0.500000 0.500000
O O4 0.158786 0.347080 0.802361
O O5 0.623227 0.384889 0.012119
O O6 0.534473 0.313662 0.735194
O O7 0.727849 0.444527 0.988916
O O8 0.730714 0.178335 0.061046
O O9 0.616047 0.855814 0.537665
O O10 0.407849 0.996973 0.210103
O O11 0.500000 0.000000 0.500000
O O12 0.377752 0.307498 0.128239
O O13 0.311060 0.092272 0.931112
O O14 0.229046 0.335231 0.073883
O O15 0.976601 0.782055 0.227281
O O16 0.946244 0.530779 0.093306
O O17 0.159851 0.051326 0.856439
#
# Coordination Sequence:
#
# PCOD9241743 Si02
#       8
#     4   4   4   4   4   4   4   4
#     4  11  24  43  64  90 126 167 215 271 316 371
#     4   9  20  35  63  87 118 160 198 252 299 383
#     4   9  19  36  61  90 121 157 209 252 305 376
#     4   9  17  39  60  83 120 156 200 245 310 365
#     4  10  21  42  64  89 122 166 204 255 331 367
#     4  11  23  41  65  90 123 166 213 260 316 386
#     4  10  19  37  61  84 121 166 200 245 317 367
#     4  11  24  41  63  91 125 166 210 262 321 374
#
# _framework density 21.724083
#
# number of rings (size 3 to 8) (size 9 to 14) (size 15 to 20)
#    0.000    2.000    2.500    2.625    3.500    2.000 
#    0.000    3.125    0.000    0.000    0.000    0.000 
#    0.000    0.000    0.000    0.000    0.000    0.000 
#
# Total GULP energy -178309.443223 kJ/mol
# GULP energy per Si atom -5572.170101 kJ/mol
# Density = 2.167464 g / cm^3
# Si number density = 21.724083 Si / 1000 Ang^3
#
#
#
# Elastic Constant Matrix: (Units=GPa)
#
#
# Indices 1 2 3 4 5 6 
#
# 1 126.2121 70.0640 15.5034 0.0000 -15.8234 0.0000
# 2 70.0640 193.6197 12.2287 0.0000 -5.8827 0.0000
# 3 15.5034 12.2287 38.4441 0.0000 -2.6790 0.0000
# 4 0.0000 0.0000 0.0000 25.7812 0.0000 17.4418
# 5 -15.8234 -5.8827 -2.6790 0.0000 22.4707 0.0000
# 6 0.0000 0.0000 0.0000 17.4418 0.0000 34.8210
#
#
#
# Elastic Compliance Matrix: (Units=1/GPa)
#
#
# Indices 1 2 3 4 5 6 
#
# 1 0.011117 -0.003643 -0.002869 0.000000 0.006533 0.000000
# 2 -0.003643 0.006496 -0.000663 0.000000 -0.000944 0.000000
# 3 -0.002869 -0.000663 0.027455 0.000000 0.001079 0.000000
# 4 0.000000 0.000000 0.000000 0.058669 0.000000 -0.029387
# 5 0.006533 -0.000944 0.001079 0.000000 0.048984 0.000000
# 6 0.000000 0.000000 0.000000 -0.029387 0.000000 0.043438
#
#
# Mechanical properties :
#
#
# Convention : Reuss Voigt Hill
#
# Bulk Modulus (GPa) = 32.55450 61.54091 47.04770
# Shear Modulus (GPa) = 22.65006 33.97991 28.31498
#
# Velocity S-wave (km/s) = 3.23247 3.95923 3.61417
# Velocity P-wave (km/s) = 5.38050 7.02073 6.25462
#
# Compressibility (1/GPa) = 0.03071772
#
# Stress axis : x y z
#
# Youngs Moduli (GPa) = 89.95210 153.93391 36.42336
#
# Poissons Ratio (x) = 0.56081 0.10450
# Poissons Ratio (y) = 0.32771 0.02415
# Poissons Ratio (z) = 0.25808 0.10206
#
# Static dielectric constant tensor:
#      x y z
#    x 1.827600 0.000000 0.020130 
#    y 0.000000 1.905830 0.000000 
#    z 0.020130 0.000000 1.832560 
# 
# From -- ./inp_files/51400.got.cif
#   From: 2010.05.17/outbox.cif.g08.bks.cpg/sg14_26_cif.got.tgz:51400.got - 2010.06.03 17:49:19.
