data_PCOD9241200
_publ_section_title
;
Structure prediction by ZEFSAII (Michael W. Deem and Ramdas Pophale) SiO2 
 PCOD9241200
Probable space group: P 21/C
;
_chemical_formula_sum "Si O2"
_cell_formula_units_Z 28
_cell_length_a 5.083446
_cell_length_b 19.745736
_cell_length_c 10.384371
_cell_angle_alpha 90.000000
_cell_angle_beta 88.603352
_cell_angle_gamma 90.000000
_cell_volume 1042.035935
_symmetry_space_group_name_H-M "P 21/C"
_symmetry_group_IT_number 14
_symmetry_cell_setting 'monoclinic'
loop_
_space_group_symop_operation_xyz
x,y,z
-x,1/2+y,1/2-z
-x,-y,-z
x,1/2-y,1/2+z
loop_
_atom_site_type_symbol
_atom_site_label
_atom_site_fract_x
_atom_site_fract_y
_atom_site_fract_z
Si Si1 0.346971 0.588419 0.990920
Si Si2 0.848504 0.672182 0.900091
Si Si3 0.642679 0.166615 0.269541
Si Si4 0.862114 0.746853 0.150771
Si Si5 0.719150 0.951275 0.136215
Si Si6 0.797799 0.490687 0.224402
Si Si7 0.026779 0.910145 0.907604
O O1 0.617779 0.621905 0.945019
O O2 0.281139 0.517291 0.922871
O O3 0.124279 0.638380 0.934946
O O4 0.330750 0.597913 0.144486
O O5 0.827048 0.691305 0.750454
O O6 0.817610 0.737477 0.997784
O O7 0.353012 0.195044 0.285836
O O8 0.840804 0.221452 0.328273
O O9 0.776994 0.149157 0.132794
O O10 0.428894 0.951165 0.194512
O O11 0.926321 0.954793 0.250158
O O12 0.830679 0.900489 0.028208
O O13 0.779064 0.025338 0.069993
O O14 0.844971 0.562948 0.291118
#
# Coordination Sequence:
#
# PCOD9241200 Si02
#       7
#     4   4   4   4   4   4   4
#     4  10  21  38  60  82 115 149 185 239 284 339
#     4  10  21  42  60  82 117 144 190 242 293 335
#     4  10  22  37  60  83 116 151 187 229 292 338
#     4  10  22  41  60  86 111 151 188 241 292 345
#     4   9  20  34  53  77 120 151 182 238 269 316
#     4  10  19  35  55  82 112 150 189 223 284 328
#     4   9  21  35  56  79 122 149 191 230 279 328
#
# _framework density 26.870474999999999
#
# number of rings (size 3 to 8) (size 9 to 14) (size 15 to 20)
#    0.857    1.429    0.000    2.143    2.000    0.571 
#    7.714    0.714    0.000    0.000    0.000    0.000 
#    0.000    0.000    0.000    0.000    0.000    0.000 
#
# Total GULP energy -156547.159091 kJ/mol
# GULP energy per Si atom -5590.969968 kJ/mol
# Density = 2.680932 g / cm^3
# Si number density = 26.870475 Si / 1000 Ang^3
#
#
#
# Elastic Constant Matrix: (Units=GPa)
#
#
# Indices 1 2 3 4 5 6 
#
# 1 122.7109 16.5113 35.5042 0.0000 -17.4430 0.0000
# 2 16.5113 50.0367 39.6958 0.0000 -1.8180 0.0000
# 3 35.5042 39.6958 105.3319 0.0000 -6.5812 0.0000
# 4 0.0000 0.0000 0.0000 56.1571 0.0000 -4.9034
# 5 -17.4430 -1.8180 -6.5812 0.0000 45.0973 0.0000
# 6 0.0000 0.0000 0.0000 -4.9034 0.0000 29.5747
#
#
#
# Elastic Compliance Matrix: (Units=1/GPa)
#
#
# Indices 1 2 3 4 5 6 
#
# 1 0.009503 -0.000910 -0.002657 0.000000 0.003251 0.000000
# 2 -0.000910 0.028604 -0.010519 0.000000 -0.000734 0.000000
# 3 -0.002657 -0.010519 0.014394 0.000000 0.000649 0.000000
# 4 0.000000 0.000000 0.000000 0.018069 0.000000 0.002996
# 5 0.003251 -0.000734 0.000649 0.000000 0.023497 0.000000
# 6 0.000000 0.000000 0.000000 0.002996 0.000000 0.034309
#
#
# Mechanical properties :
#
#
# Convention : Reuss Voigt Hill
#
# Bulk Modulus (GPa) = 41.10287 51.27802 46.19044
# Shear Modulus (GPa) = 30.36621 38.59038 34.47829
#
# Velocity S-wave (km/s) = 3.36534 3.79379 3.58597
# Velocity P-wave (km/s) = 5.51639 6.18993 5.86284
#
# Compressibility (1/GPa) = 0.02432920
#
# Stress axis : x y z
#
# Youngs Moduli (GPa) = 105.23505 34.96026 69.47246
#
# Poissons Ratio (x) = 0.03180 0.18459
# Poissons Ratio (y) = 0.09572 0.73078
# Poissons Ratio (z) = 0.27962 0.36775
#
# Static dielectric constant tensor:
#      x y z
#    x 2.003590 0.000000 0.031490 
#    y 0.000000 2.242030 0.000000 
#    z 0.031490 0.000000 2.150190 
# 
# From -- ./inp_files/21985.got.cif
#   From: 2010.05.17/outbox.cif.g08.bks.cpg/sg14_11_cif.got.tgz:21985.got - 2010.06.03 17:49:19.
