data_PCOD9241266
_publ_section_title
;
Structure prediction by ZEFSAII (Michael W. Deem and Ramdas Pophale) SiO2 
 PCOD9241266
Probable space group: P 21/C
;
_chemical_formula_sum "Si O2"
_cell_formula_units_Z 28
_cell_length_a 9.320157
_cell_length_b 6.911912
_cell_length_c 20.798612
_cell_angle_alpha 90.000000
_cell_angle_beta 129.826663
_cell_angle_gamma 90.000000
_cell_volume 1028.984508
_symmetry_space_group_name_H-M "P 21/C"
_symmetry_group_IT_number 14
_symmetry_cell_setting 'monoclinic'
loop_
_space_group_symop_operation_xyz
x,y,z
-x,1/2+y,1/2-z
-x,-y,-z
x,1/2-y,1/2+z
loop_
_atom_site_type_symbol
_atom_site_label
_atom_site_fract_x
_atom_site_fract_y
_atom_site_fract_z
Si Si1 0.591689 0.224990 0.950867
Si Si2 0.269878 0.359286 0.682456
Si Si3 0.880098 0.095314 0.127191
Si Si4 0.671741 0.198981 0.340420
Si Si5 0.240342 0.183568 0.425483
Si Si6 0.456678 0.273593 0.605855
Si Si7 0.835687 0.098626 0.261073
O O1 0.717346 0.307453 0.928768
O O2 0.389879 0.306825 0.911192
O O3 0.545120 0.000706 0.916779
O O4 0.712837 0.225468 0.051415
O O5 0.266213 0.588565 0.664659
O O6 0.448115 0.318636 0.777811
O O7 0.322603 0.262525 0.629409
O O8 0.078050 0.319283 0.663893
O O9 0.873627 0.028184 0.199099
O O10 0.841318 0.895869 0.079383
O O11 0.736709 0.056687 0.301936
O O12 0.366585 0.143127 0.524435
O O13 0.049026 0.093470 0.347168
O O14 0.672015 0.243473 0.690489
#
# Coordination Sequence:
#
# PCOD9241266 Si02
#       7
#     4   4   4   4   4   4   4
#     4  10  19  35  58  84 117 147 202 257 294 341
#     4  10  21  37  59  89 122 157 198 250 304 360
#     4  11  20  35  58  88 118 151 203 251 300 351
#     4  10  22  37  59  88 120 157 202 246 300 362
#     4  11  19  33  59  85 117 149 197 251 304 349
#     4   9  19  34  54  87 114 144 192 258 293 348
#     4  11  20  34  56  85 119 151 190 249 299 356
#
# _framework density 27.211290999999999
#
# number of rings (size 3 to 8) (size 9 to 14) (size 15 to 20)
#    0.000    1.714    4.286    1.714    2.000    1.714 
#    0.000    0.000    0.000    6.000    0.000    0.000 
#    0.000    0.000    0.000    0.000    0.000    0.000 
#
# Total GULP energy -156127.118019 kJ/mol
# GULP energy per Si atom -5575.968501 kJ/mol
# Density = 2.714936 g / cm^3
# Si number density = 27.211291 Si / 1000 Ang^3
#
#
#
# Elastic Constant Matrix: (Units=GPa)
#
#
# Indices 1 2 3 4 5 6 
#
# 1 129.3200 31.5030 62.8993 0.0000 23.6653 0.0000
# 2 31.5030 63.2799 25.8134 0.0000 2.9437 0.0000
# 3 62.8993 25.8134 139.2840 0.0000 0.0153 0.0000
# 4 0.0000 0.0000 0.0000 23.6279 0.0000 2.8137
# 5 23.6653 2.9437 0.0153 0.0000 62.3746 0.0000
# 6 0.0000 0.0000 0.0000 2.8137 0.0000 38.0931
#
#
#
# Elastic Compliance Matrix: (Units=1/GPa)
#
#
# Indices 1 2 3 4 5 6 
#
# 1 0.011637 -0.003735 -0.004563 0.000000 -0.004238 0.000000
# 2 -0.003735 0.018335 -0.001711 0.000000 0.000552 0.000000
# 3 -0.004563 -0.001711 0.009557 0.000000 0.001809 0.000000
# 4 0.000000 0.000000 0.000000 0.042698 0.000000 -0.003154
# 5 -0.004238 0.000552 0.001809 0.000000 0.017614 0.000000
# 6 0.000000 0.000000 0.000000 -0.003154 0.000000 0.026484
#
#
# Mechanical properties :
#
#
# Convention : Reuss Voigt Hill
#
# Bulk Modulus (GPa) = 51.25329 63.59057 57.42193
# Shear Modulus (GPa) = 32.71242 38.93032 35.82137
#
# Velocity S-wave (km/s) = 3.47098 3.78652 3.63218
# Velocity P-wave (km/s) = 5.91099 6.52203 6.22402
#
# Compressibility (1/GPa) = 0.01951094
#
# Stress axis : x y z
#
# Youngs Moduli (GPa) = 85.93009 54.54149 104.63579
#
# Poissons Ratio (x) = 0.20372 0.47741
# Poissons Ratio (y) = 0.32096 0.17906
# Poissons Ratio (z) = 0.39207 0.09333
#
# Static dielectric constant tensor:
#      x y z
#    x 2.052510 0.000000 -0.038240 
#    y 0.000000 2.357210 0.000000 
#    z -0.038240 0.000000 2.155300 
# 
# From -- ./inp_files/39673.got.cif
#   From: 2010.05.17/outbox.cif.g08.bks.cpg/sg14_20_cif.got.tgz:39673.got - 2010.06.03 17:49:19.
