data_PCOD9241500
_publ_section_title
;
Structure prediction by ZEFSAII (Michael W. Deem and Ramdas Pophale) SiO2 
 PCOD9241500
Probable space group: P 21/C
;
_chemical_formula_sum "Si O2"
_cell_formula_units_Z 28
_cell_length_a 7.164339
_cell_length_b 18.404254
_cell_length_c 10.729685
_cell_angle_alpha 90.000000
_cell_angle_beta 62.951432
_cell_angle_gamma 90.000000
_cell_volume 1260.011269
_symmetry_space_group_name_H-M "P 21/C"
_symmetry_group_IT_number 14
_symmetry_cell_setting 'monoclinic'
loop_
_space_group_symop_operation_xyz
x,y,z
-x,1/2+y,1/2-z
-x,-y,-z
x,1/2-y,1/2+z
loop_
_atom_site_type_symbol
_atom_site_label
_atom_site_fract_x
_atom_site_fract_y
_atom_site_fract_z
Si Si1 0.062965 0.890510 0.011790
Si Si2 0.879308 0.698974 0.341708
Si Si3 0.749565 0.299364 0.233088
Si Si4 0.747588 0.508096 0.722636
Si Si5 0.396644 0.734581 0.473142
Si Si6 0.027680 0.923413 0.634548
Si Si7 0.722653 0.453822 0.187466
O O1 0.920997 0.855616 0.944553
O O2 0.224927 0.828268 0.000419
O O3 0.195866 0.956585 0.912067
O O4 0.904240 0.923495 0.161233
O O5 0.011564 0.771365 0.332585
O O6 0.977684 0.657569 0.193100
O O7 0.637407 0.711941 0.390072
O O8 0.653543 0.289250 0.124379
O O9 0.634671 0.248492 0.370510
O O10 0.714870 0.383452 0.277037
O O11 0.803742 0.460831 0.826003
O O12 0.508105 0.531043 0.792504
O O13 0.115049 0.930069 0.469669
O O14 0.819776 0.972755 0.713470
#
# Coordination Sequence:
#
# PCOD9241500 Si02
#       7
#     4   4   4   4   4   4   4
#     4   9  20  36  60  89 114 155 209 251 306 380
#     4  10  22  42  62  85 124 163 207 262 308 364
#     4  11  25  40  61  93 123 160 214 256 307 379
#     4  10  19  36  59  86 121 154 196 258 311 364
#     4  11  23  41  62  86 121 164 205 255 314 367
#     4  10  22  38  60  89 122 163 209 253 309 379
#     4  11  22  37  59  90 125 163 207 258 316 371
#
# _framework density 22.222024000000001
#
# number of rings (size 3 to 8) (size 9 to 14) (size 15 to 20)
#    0.000    1.714    0.000    3.857    0.000    5.714 
#    0.000   10.000    0.000    0.000    0.000    0.000 
#    0.000    0.000    0.000    0.000    0.000    0.000 
#
# Total GULP energy -156446.926718 kJ/mol
# GULP energy per Si atom -5587.390240 kJ/mol
# Density = 2.217145 g / cm^3
# Si number density = 22.222024 Si / 1000 Ang^3
#
#
#
# Elastic Constant Matrix: (Units=GPa)
#
#
# Indices 1 2 3 4 5 6 
#
# 1 109.9399 23.0771 3.3720 0.0000 -24.7828 0.0000
# 2 23.0771 40.9021 -13.2673 0.0000 -16.8662 0.0000
# 3 3.3720 -13.2673 29.8741 0.0000 7.3363 0.0000
# 4 0.0000 0.0000 0.0000 17.0944 0.0000 2.4932
# 5 -24.7828 -16.8662 7.3363 0.0000 32.2797 0.0000
# 6 0.0000 0.0000 0.0000 2.4932 0.0000 29.0232
#
#
#
# Elastic Compliance Matrix: (Units=1/GPa)
#
#
# Indices 1 2 3 4 5 6 
#
# 1 0.012185 -0.005533 -0.005740 0.000000 0.007768 0.000000
# 2 -0.005533 0.037074 0.014166 0.000000 0.011903 0.000000
# 3 -0.005740 0.014166 0.042023 0.000000 -0.006556 0.000000
# 4 0.000000 0.000000 0.000000 0.059241 0.000000 -0.005089
# 5 0.007768 0.011903 -0.006556 0.000000 0.044653 0.000000
# 6 0.000000 0.000000 0.000000 -0.005089 0.000000 0.034892
#
#
# Mechanical properties :
#
#
# Convention : Reuss Voigt Hill
#
# Bulk Modulus (GPa) = 10.30216 23.00884 16.65550
# Shear Modulus (GPa) = 19.48268 26.84842 23.16555
#
# Velocity S-wave (km/s) = 2.96417 3.47967 3.23222
# Velocity P-wave (km/s) = 4.04489 5.14983 4.63044
#
# Compressibility (1/GPa) = 0.09706707
#
# Stress axis : x y z
#
# Youngs Moduli (GPa) = 82.07133 26.97305 23.79643
#
# Poissons Ratio (x) = 0.14925 0.13660
# Poissons Ratio (y) = 0.45412 -0.33711
# Poissons Ratio (z) = 0.47112 -0.38211
#
# Static dielectric constant tensor:
#      x y z
#    x 1.787110 0.000000 0.057200 
#    y 0.000000 1.847610 0.000000 
#    z 0.057200 0.000000 1.875170 
# 
# From -- ./inp_files/21701.got.cif
#   From: 2010.05.17/outbox.cif.g08.bks.cpg/sg14_11_cif.got.tgz:21701.got - 2010.06.03 17:49:19.
