data_PCOD9241108
_publ_section_title
;
Structure prediction by ZEFSAII (Michael W. Deem and Ramdas Pophale) SiO2 
 PCOD9241108
Probable space group: P 21/C
;
_chemical_formula_sum "Si O2"
_cell_formula_units_Z 24
_cell_length_a 11.136899
_cell_length_b 9.307148
_cell_length_c 9.837945
_cell_angle_alpha 90.000000
_cell_angle_beta 53.524929
_cell_angle_gamma 90.000000
_cell_volume 819.980968
_symmetry_space_group_name_H-M "P 21/C"
_symmetry_group_IT_number 14
_symmetry_cell_setting 'monoclinic'
loop_
_space_group_symop_operation_xyz
x,y,z
-x,1/2+y,1/2-z
-x,-y,-z
x,1/2-y,1/2+z
loop_
_atom_site_type_symbol
_atom_site_label
_atom_site_fract_x
_atom_site_fract_y
_atom_site_fract_z
Si Si1 0.351933 0.090808 0.136230
Si Si2 0.805546 0.889621 0.013732
Si Si3 0.299312 0.837314 0.623870
Si Si4 0.428700 0.649804 0.297358
Si Si5 0.902460 0.595264 0.737415
Si Si6 0.083724 0.625407 0.860897
O O1 0.409530 0.154724 0.239450
O O2 0.231960 0.965805 0.232796
O O3 0.270483 0.178194 0.070820
O O4 0.500000 0.000000 0.000000
O O5 0.664618 0.999775 0.141408
O O6 0.859974 0.827940 0.124265
O O7 0.948239 0.993171 0.882798
O O8 0.334172 0.756395 0.460161
O O9 0.439765 0.821841 0.628855
O O10 0.233261 0.991171 0.632177
O O11 0.172489 0.775668 0.814323
O O12 0.966988 0.676724 0.824168
O O13 0.000000 0.500000 0.000000
#
# Coordination Sequence:
#
# PCOD9241108 Si02
#       6
#     4   4   4   4   4   4
#     4   9  16  35  59  73 102 154 192 219 282 347
#     4   8  15  31  56  77 102 149 190 228 277 343
#     4  11  20  34  59  87 113 155 201 240 288 359
#     4  10  19  34  59  82 110 155 201 236 285 359
#     4   9  17  31  54  85 112 144 192 236 283 342
#     4  11  21  36  58  87 124 152 184 249 305 338
#
# _framework density 29.268972000000002
#
# number of rings (size 3 to 8) (size 9 to 14) (size 15 to 20)
#    0.000    2.333    5.000    1.000    0.000    0.000 
#    0.000    3.333    7.333    4.000    0.000    0.000 
#    0.000    0.000    0.000    0.000    0.000    0.000 
#
# Total GULP energy -133834.101864 kJ/mol
# GULP energy per Si atom -5576.420911 kJ/mol
# Density = 2.920235 g / cm^3
# Si number density = 29.268972 Si / 1000 Ang^3
#
#
#
# Elastic Constant Matrix: (Units=GPa)
#
#
# Indices 1 2 3 4 5 6 
#
# 1 301.9077 19.8884 55.3188 0.0000 30.5674 0.0000
# 2 19.8884 46.9727 1.9156 0.0000 3.6042 0.0000
# 3 55.3188 1.9156 64.8597 0.0000 10.0390 0.0000
# 4 0.0000 0.0000 0.0000 38.6386 0.0000 9.9105
# 5 30.5674 3.6042 10.0390 0.0000 74.6114 0.0000
# 6 0.0000 0.0000 0.0000 9.9105 0.0000 52.6794
#
#
#
# Elastic Compliance Matrix: (Units=1/GPa)
#
#
# Indices 1 2 3 4 5 6 
#
# 1 0.004137 -0.001527 -0.003301 0.000000 -0.001177 0.000000
# 2 -0.001527 0.021946 0.000737 0.000000 -0.000534 0.000000
# 3 -0.003301 0.000737 0.018391 0.000000 -0.001158 0.000000
# 4 0.000000 0.000000 0.000000 0.027193 0.000000 -0.005116
# 5 -0.001177 -0.000534 -0.001158 0.000000 0.014066 0.000000
# 6 0.000000 0.000000 0.000000 -0.005116 0.000000 0.019945
#
#
# Mechanical properties :
#
#
# Convention : Reuss Voigt Hill
#
# Bulk Modulus (GPa) = 27.55461 63.10953 45.33207
# Shear Modulus (GPa) = 39.69571 55.62703 47.66137
#
# Velocity S-wave (km/s) = 3.68671 4.36425 4.03971
# Velocity P-wave (km/s) = 5.24949 6.85597 6.10580
#
# Compressibility (1/GPa) = 0.03629156
#
# Stress axis : x y z
#
# Youngs Moduli (GPa) = 241.72952 45.56580 54.37502
#
# Poissons Ratio (x) = 0.06956 0.17950
# Poissons Ratio (y) = 0.36903 -0.04005
# Poissons Ratio (z) = 0.79797 -0.03356
#
# Static dielectric constant tensor:
#      x y z
#    x 2.395880 0.000000 0.146160 
#    y 0.000000 1.841970 0.000000 
#    z 0.146160 0.000000 2.609870 
# 
# From -- ./inp_files/28531.got.cif
#   From: 2010.05.17/outbox.cif.g08.bks.cpg/sg14_15_cif.got.tgz:28531.got - 2010.06.03 17:49:19.
