data_PCOD9241060
_publ_section_title
;
Structure prediction by ZEFSAII (Michael W. Deem and Ramdas Pophale) SiO2 
 PCOD9241060
Probable space group: P 21/C
;
_chemical_formula_sum "Si O2"
_cell_formula_units_Z 28
_cell_length_a 14.177554
_cell_length_b 13.089394
_cell_length_c 7.973092
_cell_angle_alpha 90.000000
_cell_angle_beta 79.776389
_cell_angle_gamma 90.000000
_cell_volume 1456.118800
_symmetry_space_group_name_H-M "P 21/C"
_symmetry_group_IT_number 14
_symmetry_cell_setting 'monoclinic'
loop_
_space_group_symop_operation_xyz
x,y,z
-x,1/2+y,1/2-z
-x,-y,-z
x,1/2-y,1/2+z
loop_
_atom_site_type_symbol
_atom_site_label
_atom_site_fract_x
_atom_site_fract_y
_atom_site_fract_z
Si Si1 0.752884 0.013000 0.030727
Si Si2 0.930373 0.006387 0.181943
Si Si3 0.528741 0.694048 0.106729
Si Si4 0.657074 0.665044 0.776675
Si Si5 0.104403 0.106546 0.248303
Si Si6 0.443717 0.603214 0.458960
Si Si7 0.145529 0.315270 0.100821
O O1 0.829259 0.050938 0.147352
O O2 0.670282 0.087147 0.992149
O O3 0.693230 0.920957 0.137391
O O4 0.819952 0.970458 0.860681
O O5 0.996298 0.064794 0.294316
O O6 0.907406 0.895789 0.263208
O O7 0.000000 0.000000 0.000000
O O8 0.616423 0.738616 0.189285
O O9 0.468119 0.627840 0.256469
O O10 0.572397 0.635368 0.932888
O O11 0.476935 0.796927 0.053725
O O12 0.748196 0.694071 0.859164
O O13 0.100042 0.204172 0.127667
O O14 0.142038 0.142739 0.415139
O O15 0.500000 0.500000 0.500000
#
# Coordination Sequence:
#
# PCOD9241060 Si02
#       7
#     4   4   4   4   4   4   4
#     4  10  21  38  58  85 116 160 192 248 295 352
#     4   9  20  39  57  84 117 147 195 240 293 354
#     4  10  22  38  57  88 122 156 200 249 301 363
#     4  10  19  34  56  86 116 150 201 253 299 338
#     4  11  21  36  59  86 119 150 198 241 302 355
#     4  11  23  41  62  86 124 158 199 249 308 356
#     4  11  21  33  60  88 116 148 194 252 299 339
#
# _framework density 19.229201
#
# number of rings (size 3 to 8) (size 9 to 14) (size 15 to 20)
#    0.000    1.714    1.429    4.714    4.000    0.571 
#    0.000    4.286    0.000    0.000    0.000    0.000 
#    0.000    0.000    0.000    0.000    0.000    0.000 
#
# Total GULP energy -156191.688035 kJ/mol
# GULP energy per Si atom -5578.274573 kJ/mol
# Density = 1.918543 g / cm^3
# Si number density = 19.229201 Si / 1000 Ang^3
#
#
#
# Elastic Constant Matrix: (Units=GPa)
#
#
# Indices 1 2 3 4 5 6 
#
# 1 125.9865 36.4713 15.5592 0.0000 -2.4820 0.0000
# 2 36.4713 46.9823 13.2956 0.0000 -11.0587 0.0000
# 3 15.5592 13.2956 86.4318 0.0000 -7.3945 0.0000
# 4 0.0000 0.0000 0.0000 34.7105 0.0000 -4.1847
# 5 -2.4820 -11.0587 -7.3945 0.0000 26.4509 0.0000
# 6 0.0000 0.0000 0.0000 -4.1847 0.0000 12.1329
#
#
#
# Elastic Compliance Matrix: (Units=1/GPa)
#
#
# Indices 1 2 3 4 5 6 
#
# 1 0.010458 -0.008553 -0.000808 0.000000 -0.002821 0.000000
# 2 -0.008553 0.031312 -0.002280 0.000000 0.011651 0.000000
# 3 -0.000808 -0.002280 0.012271 0.000000 0.002401 0.000000
# 4 0.000000 0.000000 0.000000 0.030060 0.000000 0.010368
# 5 -0.002821 0.011651 0.002401 0.000000 0.043084 0.000000
# 6 0.000000 0.000000 0.000000 0.010368 0.000000 0.085997
#
#
# Mechanical properties :
#
#
# Convention : Reuss Voigt Hill
#
# Bulk Modulus (GPa) = 32.51178 43.33919 37.92548
# Shear Modulus (GPa) = 20.26615 27.59716 23.93166
#
# Velocity S-wave (km/s) = 3.24994 3.79247 3.53164
# Velocity P-wave (km/s) = 5.57019 6.46253 6.03288
#
# Compressibility (1/GPa) = 0.03075808
#
# Stress axis : x y z
#
# Youngs Moduli (GPa) = 95.62386 31.93666 81.48971
#
# Poissons Ratio (x) = 0.27316 0.06586
# Poissons Ratio (y) = 0.81789 0.18581
# Poissons Ratio (z) = 0.07728 0.07282
#
# Static dielectric constant tensor:
#      x y z
#    x 1.701900 0.000000 0.016780 
#    y 0.000000 1.682970 0.000000 
#    z 0.016780 0.000000 1.717880 
# 
# From -- ./inp_files/15510.got.cif
#   From: 2010.05.17/outbox.cif.g08.bks.cpg/sg14_8_cif.got.tgz:15510.got - 2010.06.03 17:49:19.
