data_PCOD9241758
_publ_section_title
;
Structure prediction by ZEFSAII (Michael W. Deem and Ramdas Pophale) SiO2 
 PCOD9241758
Probable space group: P 21/C
;
_chemical_formula_sum "Si O2"
_cell_formula_units_Z 30
_cell_length_a 9.455123
_cell_length_b 8.474735
_cell_length_c 25.580738
_cell_angle_alpha 90.000000
_cell_angle_beta 45.379676
_cell_angle_gamma 90.000000
_cell_volume 1458.983193
_symmetry_space_group_name_H-M "P 21/C"
_symmetry_group_IT_number 14
_symmetry_cell_setting 'monoclinic'
loop_
_space_group_symop_operation_xyz
x,y,z
-x,1/2+y,1/2-z
-x,-y,-z
x,1/2-y,1/2+z
loop_
_atom_site_type_symbol
_atom_site_label
_atom_site_fract_x
_atom_site_fract_y
_atom_site_fract_z
Si Si1 0.337934 0.685773 0.431106
Si Si2 0.029620 0.391549 0.695220
Si Si3 0.000000 0.000000 0.000000
Si Si4 0.217441 0.451708 0.333242
Si Si5 0.407320 0.346763 0.730974
Si Si6 0.662150 0.135571 0.458470
Si Si7 0.008750 0.981149 0.311583
Si Si8 0.555834 0.060587 0.928428
O O1 0.503911 0.729688 0.345632
O O2 0.345168 0.780211 0.483075
O O3 0.379445 0.497706 0.435803
O O4 0.121631 0.670702 0.463001
O O5 0.914471 0.483083 0.679912
O O6 0.024554 0.205370 0.685656
O O7 0.946185 0.434672 0.773672
O O8 0.251534 0.462208 0.637826
O O9 0.084354 0.052491 0.919657
O O10 0.404421 0.567201 0.292958
O O11 0.307214 0.283933 0.293104
O O12 0.237770 0.474513 0.761758
O O13 0.607865 0.259178 0.426142
O O14 0.500000 0.000000 0.500000
O O15 0.873659 0.057908 0.391377
O O16 0.500000 0.000000 0.000000
#
# Coordination Sequence:
#
# PCOD9241758 Si02
#       8
#     4   4   2   4   4   4   4   4
#     4  10  21  40  64  94 127 179 225 272 336 403
#     4  12  24  40  66  99 129 176 222 277 337 399
#     4  10  22  42  68  88 128 180 224 270 336 406
#     4  11  24  43  68  94 132 175 227 275 338 404
#     4  11  23  43  66  94 135 175 227 279 333 411
#     4  11  24  39  64 100 135 170 217 281 339 401
#     4  12  24  40  66  96 135 171 222 277 337 398
#     4  10  19  37  61  89 129 165 214 268 327 391
#
# _framework density 20.562266000000001
#
# number of rings (size 3 to 8) (size 9 to 14) (size 15 to 20)
#    0.000    1.067    1.333    7.200    1.867    0.000 
#    0.000    1.333    0.000    5.600    0.000    0.000 
#    0.000    0.000    0.000    0.000    0.000    0.000 
#
# Total GULP energy -167071.520632 kJ/mol
# GULP energy per Si atom -5569.050688 kJ/mol
# Density = 2.051547 g / cm^3
# Si number density = 20.562266 Si / 1000 Ang^3
#
#
#
# Elastic Constant Matrix: (Units=GPa)
#
#
# Indices 1 2 3 4 5 6 
#
# 1 23.7522 -9.9190 1.0739 0.0000 13.0310 0.0000
# 2 -9.9190 93.4231 21.5482 0.0000 0.3217 0.0000
# 3 1.0739 21.5482 118.3943 0.0000 10.6853 0.0000
# 4 0.0000 0.0000 0.0000 31.1275 0.0000 -1.2257
# 5 13.0310 0.3217 10.6853 0.0000 20.5254 0.0000
# 6 0.0000 0.0000 0.0000 -1.2257 0.0000 24.8233
#
#
#
# Elastic Compliance Matrix: (Units=1/GPa)
#
#
# Indices 1 2 3 4 5 6 
#
# 1 0.070050 0.007087 0.002202 0.000000 -0.045730 0.000000
# 2 0.007087 0.011907 -0.001898 0.000000 -0.003698 0.000000
# 3 0.002202 -0.001898 0.009334 0.000000 -0.006227 0.000000
# 4 0.000000 0.000000 0.000000 0.032189 0.000000 0.001589
# 5 -0.045730 -0.003698 -0.006227 0.000000 0.081052 0.000000
# 6 0.000000 0.000000 0.000000 0.001589 0.000000 0.040363
#
#
# Mechanical properties :
#
#
# Convention : Reuss Voigt Hill
#
# Bulk Modulus (GPa) = 9.42749 28.99732 19.21241
# Shear Modulus (GPa) = 18.83456 30.15301 24.49379
#
# Velocity S-wave (km/s) = 3.02979 3.83355 3.45512
# Velocity P-wave (km/s) = 4.10297 5.80755 5.02802
#
# Compressibility (1/GPa) = 0.10607281
#
# Stress axis : x y z
#
# Youngs Moduli (GPa) = 14.27558 83.98524 107.13778
#
# Poissons Ratio (x) = -0.59520 -0.23591
# Poissons Ratio (y) = -0.10117 0.20331
# Poissons Ratio (z) = -0.03143 0.15937
#
# Static dielectric constant tensor:
#      x y z
#    x 1.827810 0.000000 -0.047460 
#    y 0.000000 1.723140 0.000000 
#    z -0.047460 0.000000 1.805430 
# 
# From -- ./inp_files/76489.got.cif
#   From: 2010.05.17/outbox.cif.g08.bks.cpg/sg14_39_cif.got.tgz:76489.got - 2010.06.03 17:49:19.
