data_PCOD9241591
_publ_section_title
;
Structure prediction by ZEFSAII (Michael W. Deem and Ramdas Pophale) SiO2 
 PCOD9241591
Probable space group: P 21/C
;
_chemical_formula_sum "Si O2"
_cell_formula_units_Z 28
_cell_length_a 16.163845
_cell_length_b 9.088126
_cell_length_c 9.722862
_cell_angle_alpha 90.000000
_cell_angle_beta 58.894713
_cell_angle_gamma 90.000000
_cell_volume 1222.920460
_symmetry_space_group_name_H-M "P 21/C"
_symmetry_group_IT_number 14
_symmetry_cell_setting 'monoclinic'
loop_
_space_group_symop_operation_xyz
x,y,z
-x,1/2+y,1/2-z
-x,-y,-z
x,1/2-y,1/2+z
loop_
_atom_site_type_symbol
_atom_site_label
_atom_site_fract_x
_atom_site_fract_y
_atom_site_fract_z
Si Si1 0.501462 0.801129 0.646079
Si Si2 0.700740 0.172942 0.603330
Si Si3 0.989267 0.745888 0.005112
Si Si4 0.413540 0.120981 0.710518
Si Si5 0.136187 0.509028 0.915050
Si Si6 0.039524 0.502429 0.294014
Si Si7 0.243500 0.929813 0.749864
O O1 0.587561 0.734929 0.663377
O O2 0.527739 0.803047 0.463701
O O3 0.468649 0.968833 0.704503
O O4 0.247901 0.817314 0.874744
O O5 0.590289 0.200098 0.737744
O O6 0.754173 0.042172 0.641024
O O7 0.715395 0.145955 0.427439
O O8 0.081870 0.644562 0.888469
O O9 0.008151 0.851128 0.118581
O O10 0.896872 0.645036 0.117966
O O11 0.974832 0.859530 0.892876
O O12 0.313115 0.063557 0.733672
O O13 0.077521 0.507416 0.108954
O O14 0.137243 0.519570 0.300616
#
# Coordination Sequence:
#
# PCOD9241591 Si02
#       7
#     4   4   4   4   4   4   4
#     4  10  20  39  64  90 120 164 200 253 303 368
#     4  10  19  36  62  87 120 154 203 245 302 359
#     4  10  20  36  57  85 115 155 197 243 301 370
#     4  10  22  40  63  90 124 159 206 249 308 363
#     4  10  20  35  58  85 116 154 199 248 294 361
#     4  10  20  37  58  83 119 155 193 251 304 359
#     4  10  21  40  60  90 120 159 201 254 303 363
#
# _framework density 22.89601
#
# number of rings (size 3 to 8) (size 9 to 14) (size 15 to 20)
#    0.000    2.000    1.429    3.429    0.000    0.571 
#    7.714    4.286    0.000    0.000    0.000    0.000 
#    0.000    0.000    0.000    0.000    0.000    0.000 
#
# Total GULP energy -156286.245174 kJ/mol
# GULP energy per Si atom -5581.651613 kJ/mol
# Density = 2.284390 g / cm^3
# Si number density = 22.896010 Si / 1000 Ang^3
#
#
#
# Elastic Constant Matrix: (Units=GPa)
#
#
# Indices 1 2 3 4 5 6 
#
# 1 94.3283 31.5264 23.2220 0.0000 7.5209 0.0000
# 2 31.5264 90.1967 30.8585 0.0000 6.3250 0.0000
# 3 23.2220 30.8585 59.9175 0.0000 2.5059 0.0000
# 4 0.0000 0.0000 0.0000 16.5878 0.0000 -5.0410
# 5 7.5209 6.3250 2.5059 0.0000 29.4632 0.0000
# 6 0.0000 0.0000 0.0000 -5.0410 0.0000 31.2012
#
#
#
# Elastic Compliance Matrix: (Units=1/GPa)
#
#
# Indices 1 2 3 4 5 6 
#
# 1 0.012621 -0.003169 -0.003164 0.000000 -0.002272 0.000000
# 2 -0.003169 0.014412 -0.006120 0.000000 -0.001764 0.000000
# 3 -0.003164 -0.006120 0.021054 0.000000 0.000331 0.000000
# 4 0.000000 0.000000 0.000000 0.063398 0.000000 0.010243
# 5 -0.002272 -0.001764 0.000331 0.000000 0.034871 0.000000
# 6 0.000000 0.000000 0.000000 0.010243 0.000000 0.033705
#
#
# Mechanical properties :
#
#
# Convention : Reuss Voigt Hill
#
# Bulk Modulus (GPa) = 43.14179 46.18404 44.66292
# Shear Modulus (GPa) = 23.50779 26.03949 24.77364
#
# Velocity S-wave (km/s) = 3.20772 3.37604 3.29296
# Velocity P-wave (km/s) = 5.70988 5.95079 5.83158
#
# Compressibility (1/GPa) = 0.02317938
#
# Stress axis : x y z
#
# Youngs Moduli (GPa) = 79.23522 69.38480 47.49655
#
# Poissons Ratio (x) = 0.21991 0.15028
# Poissons Ratio (y) = 0.25113 0.29070
# Poissons Ratio (z) = 0.25070 0.42467
#
# Static dielectric constant tensor:
#      x y z
#    x 1.919530 0.000000 0.021590 
#    y 0.000000 1.906580 0.000000 
#    z 0.021590 0.000000 1.849420 
# 
# From -- ./inp_files/15386.got.cif
#   From: 2010.05.17/outbox.cif.g08.bks.cpg/sg14_8_cif.got.tgz:15386.got - 2010.06.03 17:49:19.
