data_PCOD9241056
_publ_section_title
;
Structure prediction by ZEFSAII (Michael W. Deem and Ramdas Pophale) SiO2 
 PCOD9241056
Probable space group: P 21/C
;
_chemical_formula_sum "Si O2"
_cell_formula_units_Z 28
_cell_length_a 10.994581
_cell_length_b 8.440780
_cell_length_c 22.964426
_cell_angle_alpha 90.000000
_cell_angle_beta 38.681024
_cell_angle_gamma 90.000000
_cell_volume 1331.943679
_symmetry_space_group_name_H-M "P 21/C"
_symmetry_group_IT_number 14
_symmetry_cell_setting 'monoclinic'
loop_
_space_group_symop_operation_xyz
x,y,z
-x,1/2+y,1/2-z
-x,-y,-z
x,1/2-y,1/2+z
loop_
_atom_site_type_symbol
_atom_site_label
_atom_site_fract_x
_atom_site_fract_y
_atom_site_fract_z
Si Si1 0.416997 0.815249 0.085618
Si Si2 0.577547 0.826062 0.633925
Si Si3 0.410262 0.545647 0.764860
Si Si4 0.031590 0.057479 0.553774
Si Si5 0.909727 0.123002 0.353374
Si Si6 0.636734 0.856698 0.828917
Si Si7 0.640250 0.631434 0.919593
O O1 0.423624 0.700238 0.139789
O O2 0.234177 0.761082 0.114632
O O3 0.415834 0.989691 0.112565
O O4 0.607695 0.778045 0.975583
O O5 0.552557 0.678468 0.687009
O O6 0.786130 0.826607 0.523446
O O7 0.555014 0.978711 0.683667
O O8 0.424283 0.400576 0.713409
O O9 0.185329 0.608176 0.844812
O O10 0.096412 0.923097 0.575834
O O11 0.000000 0.000000 0.500000
O O12 0.130538 0.159704 0.256307
O O13 0.844321 0.958179 0.346441
O O14 0.567254 0.696470 0.885427
O O15 0.500000 0.500000 0.000000
#
# Coordination Sequence:
#
# PCOD9241056 Si02
#       7
#     4   4   4   4   4   4   4
#     4  10  20  34  56  82 112 151 190 239 295 344
#     4  10  19  37  58  82 117 152 195 243 291 348
#     4   9  21  36  59  86 111 158 199 238 293 344
#     4   9  18  36  59  78 114 155 190 237 294 348
#     4  10  19  34  56  84 108 148 195 231 290 344
#     4  10  20  36  54  82 120 146 190 243 286 345
#     4  10  20  33  54  83 111 147 185 227 285 349
#
# _framework density 21.021909000000001
#
# number of rings (size 3 to 8) (size 9 to 14) (size 15 to 20)
#    0.000    2.286    1.429    1.286    0.000    2.286 
#    2.571    2.143    0.000    0.000    0.000    0.000 
#    0.000    0.000    0.000    0.000    0.000    0.000 
#
# Total GULP energy -155955.853394 kJ/mol
# GULP energy per Si atom -5569.851907 kJ/mol
# Density = 2.097406 g / cm^3
# Si number density = 21.021909 Si / 1000 Ang^3
#
#
#
# Elastic Constant Matrix: (Units=GPa)
#
#
# Indices 1 2 3 4 5 6 
#
# 1 81.1729 27.3081 5.9811 0.0000 20.9039 0.0000
# 2 27.3081 51.0960 30.1050 0.0000 11.8443 0.0000
# 3 5.9811 30.1050 64.0188 0.0000 12.0346 0.0000
# 4 0.0000 0.0000 0.0000 106.2601 0.0000 15.8287
# 5 20.9039 11.8443 12.0346 0.0000 29.5996 0.0000
# 6 0.0000 0.0000 0.0000 15.8287 0.0000 27.2569
#
#
#
# Elastic Compliance Matrix: (Units=1/GPa)
#
#
# Indices 1 2 3 4 5 6 
#
# 1 0.018174 -0.010238 0.005153 0.000000 -0.010833 0.000000
# 2 -0.010238 0.033905 -0.014938 0.000000 -0.000263 0.000000
# 3 0.005153 -0.014938 0.023522 0.000000 -0.007225 0.000000
# 4 0.000000 0.000000 0.000000 0.010302 0.000000 -0.005983
# 5 -0.010833 -0.000263 -0.007225 0.000000 0.044478 0.000000
# 6 0.000000 0.000000 0.000000 -0.005983 0.000000 0.040162
#
#
# Mechanical properties :
#
#
# Convention : Reuss Voigt Hill
#
# Bulk Modulus (GPa) = 28.12551 35.89733 32.01142
# Shear Modulus (GPa) = 22.47811 41.48289 31.98050
#
# Velocity S-wave (km/s) = 3.27352 4.44702 3.90461
# Velocity P-wave (km/s) = 5.26271 6.59403 5.96562
#
# Compressibility (1/GPa) = 0.03555492
#
# Stress axis : x y z
#
# Youngs Moduli (GPa) = 55.02485 29.49458 42.51396
#
# Poissons Ratio (x) = 0.30195 -0.21907
# Poissons Ratio (y) = 0.56332 0.63506
# Poissons Ratio (z) = -0.28353 0.44058
#
# Static dielectric constant tensor:
#      x y z
#    x 1.801310 0.000000 -0.011620 
#    y 0.000000 1.809420 0.000000 
#    z -0.011620 0.000000 1.825520 
# 
# From -- ./inp_files/72961.got.cif
#   From: 2010.05.17/outbox.cif.g08.bks.cpg/sg14_37_cif.got.tgz:72961.got - 2010.06.03 17:49:19.
