data_PCOD9241421
_publ_section_title
;
Structure prediction by ZEFSAII (Michael W. Deem and Ramdas Pophale) SiO2 
 PCOD9241421
Probable space group: P 21/C
;
_chemical_formula_sum "Si O2"
_cell_formula_units_Z 28
_cell_length_a 14.278244
_cell_length_b 8.336036
_cell_length_c 15.293722
_cell_angle_alpha 90.000000
_cell_angle_beta 122.382811
_cell_angle_gamma 90.000000
_cell_volume 1537.238962
_symmetry_space_group_name_H-M "P 21/C"
_symmetry_group_IT_number 14
_symmetry_cell_setting 'monoclinic'
loop_
_space_group_symop_operation_xyz
x,y,z
-x,1/2+y,1/2-z
-x,-y,-z
x,1/2-y,1/2+z
loop_
_atom_site_type_symbol
_atom_site_label
_atom_site_fract_x
_atom_site_fract_y
_atom_site_fract_z
Si Si1 0.870320 0.194689 0.066850
Si Si2 0.717836 0.999998 0.858918
Si Si3 0.234823 0.504490 0.326133
Si Si4 0.129680 0.194688 0.196527
Si Si5 0.234827 0.004488 0.408692
Si Si6 0.373561 0.200115 0.030520
Si Si7 0.626440 0.299884 0.156956
O O1 0.832393 0.375578 0.068922
O O2 0.999999 0.185885 0.111838
O O3 0.842356 0.090813 0.140042
O O4 0.796243 0.118888 0.953345
O O5 0.644507 0.098201 0.753486
O O6 0.796248 0.881110 0.842906
O O7 0.644503 0.901794 0.891014
O O8 0.167608 0.375577 0.236528
O O9 0.327768 0.406410 0.427213
O O10 0.295660 0.642844 0.302434
O O11 0.157651 0.090809 0.297684
O O12 0.327772 0.906403 0.400563
O O13 0.295663 0.142844 0.493228
O O14 0.500000 0.249998 0.081173
#
# Coordination Sequence:
#
# PCOD9241421 Si02
#       7
#     4   4   4   4   4   4   4
#     4  10  19  36  55  77 107 139 172 220 263 305
#     4  10  23  34  50  80 110 140 177 208 260 324
#     4   9  20  35  57  81 100 134 186 215 253 317
#     4  10  19  36  55  77 107 139 172 220 263 305
#     4   9  20  35  57  81 100 134 186 215 253 317
#     4  10  20  37  56  78 107 139 172 219 262 304
#     4  10  20  37  56  78 107 139 172 219 262 304
#
# _framework density 18.214476000000001
#
# number of rings (size 3 to 8) (size 9 to 14) (size 15 to 20)
#    0.000    2.286    0.000    2.143    0.000    3.429 
#    0.000    8.571    0.000    0.000    0.000    0.000 
#    0.000    0.000    0.000    0.000    0.000    0.000 
#
# Total GULP energy -156343.685687 kJ/mol
# GULP energy per Si atom -5583.703060 kJ/mol
# Density = 1.817302 g / cm^3
# Si number density = 18.214476 Si / 1000 Ang^3
#
#
#
# Elastic Constant Matrix: (Units=GPa)
#
#
# Indices 1 2 3 4 5 6 
#
# 1 33.2461 1.2165 9.5386 0.0000 16.3686 0.0000
# 2 1.2165 83.9515 2.9891 0.0000 -2.1680 0.0000
# 3 9.5386 2.9891 19.0039 0.0000 1.0052 0.0000
# 4 0.0000 0.0000 0.0000 16.7110 0.0000 -2.2704
# 5 16.3686 -2.1680 1.0052 0.0000 23.8985 0.0000
# 6 0.0000 0.0000 0.0000 -2.2704 0.0000 14.8545
#
#
#
# Elastic Compliance Matrix: (Units=1/GPa)
#
#
# Indices 1 2 3 4 5 6 
#
# 1 0.055913 -0.000849 -0.025959 0.000000 -0.037281 0.000000
# 2 -0.000849 0.012024 -0.001557 0.000000 0.001738 0.000000
# 3 -0.025959 -0.001557 0.065107 0.000000 0.014900 0.000000
# 4 0.000000 0.000000 0.000000 0.061110 0.000000 0.009340
# 5 -0.037281 0.001738 0.014900 0.000000 0.066909 0.000000
# 6 0.000000 0.000000 0.000000 0.009340 0.000000 0.068747
#
#
# Mechanical properties :
#
#
# Convention : Reuss Voigt Hill
#
# Bulk Modulus (GPa) = 13.10366 18.18778 15.64572
# Shear Modulus (GPa) = 12.13656 19.25662 15.69659
#
# Velocity S-wave (km/s) = 2.58411 3.25501 2.93877
# Velocity P-wave (km/s) = 4.01412 4.91262 4.48592
#
# Compressibility (1/GPa) = 0.07631455
#
# Stress axis : x y z
#
# Youngs Moduli (GPa) = 17.88499 83.16522 15.35932
#
# Poissons Ratio (x) = 0.07058 0.39871
# Poissons Ratio (y) = 0.01518 0.02392
# Poissons Ratio (z) = 0.46427 0.12951
#
# Static dielectric constant tensor:
#      x y z
#    x 1.587330 0.000000 -0.010060 
#    y 0.000000 1.624870 0.000000 
#    z -0.010060 0.000000 1.595570 
# 
# From -- ./inp_files/43603.got.cif
#   From: 2010.05.17/outbox.cif.g08.bks.cpg/sg14_22_cif.got.tgz:43603.got - 2010.06.03 17:49:19.
