data_PCOD9241251
_publ_section_title
;
Structure prediction by ZEFSAII (Michael W. Deem and Ramdas Pophale) SiO2 
 PCOD9241251
Probable space group: P 21/C
;
_chemical_formula_sum "Si O2"
_cell_formula_units_Z 28
_cell_length_a 18.177096
_cell_length_b 14.510311
_cell_length_c 5.477451
_cell_angle_alpha 90.000000
_cell_angle_beta 52.943868
_cell_angle_gamma 90.000000
_cell_volume 1152.941828
_symmetry_space_group_name_H-M "P 21/C"
_symmetry_group_IT_number 14
_symmetry_cell_setting 'monoclinic'
loop_
_space_group_symop_operation_xyz
x,y,z
-x,1/2+y,1/2-z
-x,-y,-z
x,1/2-y,1/2+z
loop_
_atom_site_type_symbol
_atom_site_label
_atom_site_fract_x
_atom_site_fract_y
_atom_site_fract_z
Si Si1 0.450378 0.744396 0.849285
Si Si2 0.530550 0.046862 0.688904
Si Si3 0.913625 0.800241 0.422397
Si Si4 0.117191 0.780390 0.515378
Si Si5 0.735407 0.003166 0.278862
Si Si6 0.849756 0.487241 0.050168
Si Si7 0.353094 0.302723 0.043667
O O1 0.397095 0.750000 0.705836
O O2 0.507390 0.649611 0.735265
O O3 0.535274 0.815900 0.679522
O O4 0.500000 0.000000 0.500000
O O5 0.640588 0.059615 0.468787
O O6 0.500000 0.000000 0.000000
O O7 0.879478 0.749979 0.740653
O O8 0.023083 0.779532 0.203499
O O9 0.895814 0.910478 0.458115
O O10 0.166063 0.750045 0.167609
O O11 0.094507 0.890021 0.560896
O O12 0.698830 0.898701 0.352306
O O13 0.791395 0.017987 0.416119
O O14 0.791147 0.017901 0.917746
O O15 0.330290 0.249945 0.339192
#
# Coordination Sequence:
#
# PCOD9241251 Si02
#       7
#     4   4   4   4   4   4   4
#     4  10  20  36  58  86 114 154 216 274 316 379
#     4  12  23  42  66  92 125 174 234 279 334 411
#     4  10  23  42  71 107 139 183 233 281 340 424
#     4  10  23  45  74 102 136 184 233 283 341 421
#     4  12  26  41  65  98 140 182 220 291 366 408
#     4  12  26  45  67 105 148 181 229 294 359 420
#     4  10  19  35  57  86 122 166 213 270 338 397
#
# _framework density 24.285702000000001
#
# number of rings (size 3 to 8) (size 9 to 14) (size 15 to 20)
#    0.000    1.143    0.000    7.714    0.000    8.000 
#    0.000    4.286    0.000    0.000    0.000    0.000 
#    0.000    0.000    0.000    0.000    0.000    0.000 
#
# Total GULP energy -156467.507875 kJ/mol
# GULP energy per Si atom -5588.125281 kJ/mol
# Density = 2.423043 g / cm^3
# Si number density = 24.285702 Si / 1000 Ang^3
#
#
#
# Elastic Constant Matrix: (Units=GPa)
#
#
# Indices 1 2 3 4 5 6 
#
# 1 103.0657 33.5649 85.4557 0.0000 28.3181 0.0000
# 2 33.5649 160.1096 46.7439 0.0000 20.1027 0.0000
# 3 85.4557 46.7439 165.2763 0.0000 64.2280 0.0000
# 4 0.0000 0.0000 0.0000 32.8266 0.0000 0.7173
# 5 28.3181 20.1027 64.2280 0.0000 70.1481 0.0000
# 6 0.0000 0.0000 0.0000 0.7173 0.0000 32.4380
#
#
#
# Elastic Compliance Matrix: (Units=1/GPa)
#
#
# Indices 1 2 3 4 5 6 
#
# 1 0.017324 -0.001134 -0.009384 0.000000 0.001924 0.000000
# 2 -0.001134 0.006886 -0.001199 0.000000 -0.000418 0.000000
# 3 -0.009384 -0.001199 0.014958 0.000000 -0.009564 0.000000
# 4 0.000000 0.000000 0.000000 0.030478 0.000000 -0.000674
# 5 0.001924 -0.000418 -0.009564 0.000000 0.022356 0.000000
# 6 0.000000 0.000000 0.000000 -0.000674 0.000000 0.030843
#
#
# Mechanical properties :
#
#
# Convention : Reuss Voigt Hill
#
# Bulk Modulus (GPa) = 63.55396 84.44229 73.99813
# Shear Modulus (GPa) = 32.99823 44.59501 38.79662
#
# Velocity S-wave (km/s) = 3.69012 4.28982 4.00122
# Velocity P-wave (km/s) = 6.66199 7.70601 7.20294
#
# Compressibility (1/GPa) = 0.01573466
#
# Stress axis : x y z
#
# Youngs Moduli (GPa) = 57.72323 145.22499 66.85217
#
# Poissons Ratio (x) = 0.16462 0.62736
# Poissons Ratio (y) = 0.06543 0.08015
# Poissons Ratio (z) = 0.54169 0.17412
#
# Static dielectric constant tensor:
#      x y z
#    x 1.967230 0.000000 0.061290 
#    y 0.000000 2.184280 0.000000 
#    z 0.061290 0.000000 2.009420 
# 
# From -- ./inp_files/4128.got.cif
#   From: 2010.05.17/outbox.cif.g08.bks.cpg/sg14_3_cif.got.tgz:4128.got - 2010.06.03 17:49:19.
