data_PCOD9241624
_publ_section_title
;
Structure prediction by ZEFSAII (Michael W. Deem and Ramdas Pophale) SiO2 
 PCOD9241624
Probable space group: P 21/C
;
_chemical_formula_sum "Si O2"
_cell_formula_units_Z 32
_cell_length_a 9.663262
_cell_length_b 19.783166
_cell_length_c 14.203411
_cell_angle_alpha 90.000000
_cell_angle_beta 147.964599
_cell_angle_gamma 90.000000
_cell_volume 1440.293639
_symmetry_space_group_name_H-M "P 21/C"
_symmetry_group_IT_number 14
_symmetry_cell_setting 'monoclinic'
loop_
_space_group_symop_operation_xyz
x,y,z
-x,1/2+y,1/2-z
-x,-y,-z
x,1/2-y,1/2+z
loop_
_atom_site_type_symbol
_atom_site_label
_atom_site_fract_x
_atom_site_fract_y
_atom_site_fract_z
Si Si1 0.386271 0.076753 0.928184
Si Si2 0.267416 0.635070 0.238550
Si Si3 0.300925 0.484290 0.195492
Si Si4 0.862657 0.724561 0.049510
Si Si5 0.604965 0.969032 0.708719
Si Si6 0.570559 0.815821 0.738597
Si Si7 0.172280 0.560622 0.807014
Si Si8 0.604793 0.295278 0.075657
O O1 0.116697 0.079686 0.829197
O O2 0.320903 0.076894 0.779666
O O3 0.570944 0.137067 0.069905
O O4 0.500000 0.000000 0.000000
O O5 0.358624 0.559819 0.267218
O O6 0.352935 0.676829 0.195904
O O7 0.965465 0.649453 0.083016
O O8 0.516304 0.480127 0.238985
O O9 0.000000 0.500000 0.000000
O O10 0.636956 0.724224 0.996995
O O11 0.128943 0.756976 0.243669
O O12 0.774397 0.766077 0.906549
O O13 0.671707 0.892982 0.780002
O O14 0.339099 0.963244 0.493391
O O15 0.820113 0.002290 0.766302
O O16 0.466415 0.791941 0.576725
O O17 0.326960 0.626460 0.863022
#
# Coordination Sequence:
#
# PCOD9241624 Si02
#       8
#     4   4   4   4   4   4   4   4
#     4  10  21  38  63  96 137 177 220 278 350 418
#     4  10  23  42  65  91 136 178 223 285 342 411
#     4  10  19  36  63  99 130 174 219 271 346 421
#     4  12  25  48  68  99 139 182 244 295 348 421
#     4   9  20  38  68 102 137 177 221 289 358 427
#     4  10  23  47  70 100 138 187 235 296 355 424
#     4  10  20  39  66 100 141 177 227 292 356 427
#     4  11  27  43  73 100 136 188 241 297 363 419
#
# _framework density 22.217690999999999
#
# number of rings (size 3 to 8) (size 9 to 14) (size 15 to 20)
#    0.000    1.750    2.500    0.750    3.500    3.000 
#    2.250   12.500    0.000    0.000    0.000    0.000 
#    0.000    0.000    0.000    0.000    0.000    0.000 
#
# Total GULP energy -178339.979059 kJ/mol
# GULP energy per Si atom -5573.124346 kJ/mol
# Density = 2.216712 g / cm^3
# Si number density = 22.217691 Si / 1000 Ang^3
#
#
#
# Elastic Constant Matrix: (Units=GPa)
#
#
# Indices 1 2 3 4 5 6 
#
# 1 89.1276 34.6576 37.5931 0.0000 0.7333 0.0000
# 2 34.6576 43.1422 27.3431 0.0000 -2.7639 0.0000
# 3 37.5931 27.3431 77.4854 0.0000 2.5901 0.0000
# 4 0.0000 0.0000 0.0000 45.1507 0.0000 -6.9034
# 5 0.7333 -2.7639 2.5901 0.0000 28.9779 0.0000
# 6 0.0000 0.0000 0.0000 -6.9034 0.0000 30.7452
#
#
#
# Elastic Compliance Matrix: (Units=1/GPa)
#
#
# Indices 1 2 3 4 5 6 
#
# 1 0.017510 -0.011307 -0.004468 0.000000 -0.001122 0.000000
# 2 -0.011307 0.037581 -0.007929 0.000000 0.004579 0.000000
# 3 -0.004468 -0.007929 0.017946 0.000000 -0.002247 0.000000
# 4 0.000000 0.000000 0.000000 0.022935 0.000000 0.005150
# 5 -0.001122 0.004579 -0.002247 0.000000 0.035175 0.000000
# 6 0.000000 0.000000 0.000000 0.005150 0.000000 0.033682
#
#
# Mechanical properties :
#
#
# Convention : Reuss Voigt Hill
#
# Bulk Modulus (GPa) = 39.01637 45.43810 42.22724
# Shear Modulus (GPa) = 22.64689 28.31886 25.48288
#
# Velocity S-wave (km/s) = 3.19614 3.57404 3.39036
# Velocity P-wave (km/s) = 5.58744 6.12596 5.86289
#
# Compressibility (1/GPa) = 0.02563026
#
# Stress axis : x y z
#
# Youngs Moduli (GPa) = 57.10921 26.60922 55.72129
#
# Poissons Ratio (x) = 0.30086 0.24896
# Poissons Ratio (y) = 0.64572 0.44182
# Poissons Ratio (z) = 0.25516 0.21099
#
# Static dielectric constant tensor:
#      x y z
#    x 1.952620 0.000000 -0.191070 
#    y 0.000000 1.912660 0.000000 
#    z -0.191070 0.000000 1.902040 
# 
# From -- ./inp_files/42203.got.cif
#   From: 2010.05.17/outbox.cif.g08.bks.cpg/sg14_22_cif.got.tgz:42203.got - 2010.06.03 17:49:19.
