data_PCOD9241267
_publ_section_title
;
Structure prediction by ZEFSAII (Michael W. Deem and Ramdas Pophale) SiO2 
 PCOD9241267
Probable space group: P 21/C
;
_chemical_formula_sum "Si O2"
_cell_formula_units_Z 32
_cell_length_a 11.879386
_cell_length_b 8.005880
_cell_length_c 18.912101
_cell_angle_alpha 90.000000
_cell_angle_beta 43.672144
_cell_angle_gamma 90.000000
_cell_volume 1242.012387
_symmetry_space_group_name_H-M "P 21/C"
_symmetry_group_IT_number 14
_symmetry_cell_setting 'monoclinic'
loop_
_space_group_symop_operation_xyz
x,y,z
-x,1/2+y,1/2-z
-x,-y,-z
x,1/2-y,1/2+z
loop_
_atom_site_type_symbol
_atom_site_label
_atom_site_fract_x
_atom_site_fract_y
_atom_site_fract_z
Si Si1 0.651485 0.443226 0.262283
Si Si2 0.048520 0.332209 0.398189
Si Si3 0.499872 0.528918 0.103406
Si Si4 0.777900 0.232230 0.313095
Si Si5 0.341144 0.980866 0.833104
Si Si6 0.236495 0.886161 0.431498
Si Si7 0.715451 0.728277 0.336714
Si Si8 0.090314 0.471503 0.651339
O O1 0.783875 0.312019 0.231801
O O2 0.464880 0.410730 0.324474
O O3 0.730515 0.499978 0.152219
O O4 0.635126 0.570541 0.334325
O O5 0.174943 0.422631 0.391842
O O6 0.144446 0.270947 0.284588
O O7 0.944260 0.179605 0.474840
O O8 0.926236 0.472825 0.421559
O O9 0.412795 0.681926 0.102589
O O10 0.422959 0.533048 0.217816
O O11 0.684993 0.477390 0.036027
O O12 0.412403 0.374907 0.105017
O O13 0.834777 0.369391 0.342453
O O14 0.908118 0.083444 0.258499
O O15 0.326390 0.792722 0.871362
O O16 0.794908 0.678931 0.374945
#
# Coordination Sequence:
#
# PCOD9241267 Si02
#       8
#     4   4   4   4   4   4   4   4
#     4  10  21  35  61  86 114 159 203 233 288 363
#     4  11  22  35  58  91 122 154 187 258 307 335
#     4  10  19  35  58  87 113 157 205 232 290 351
#     4  11  19  36  62  88 106 154 207 243 278 340
#     4  10  19  35  58  84 120 158 196 235 286 368
#     4  11  21  35  56  90 128 149 192 248 306 351
#     4  10  20  37  59  82 114 154 206 241 282 355
#     4  11  20  36  61  84 115 149 205 242 287 350
#
# _framework density 25.764638999999999
#
# number of rings (size 3 to 8) (size 9 to 14) (size 15 to 20)
#    0.000    1.500    6.250    0.375    0.000    0.500 
#    0.000    1.250    0.000    0.000    0.000    0.000 
#    0.000    0.000    0.000    0.000    0.000    0.000 
#
# Total GULP energy -178670.114789 kJ/mol
# GULP energy per Si atom -5583.441087 kJ/mol
# Density = 2.570600 g / cm^3
# Si number density = 25.764639 Si / 1000 Ang^3
#
#
#
# Elastic Constant Matrix: (Units=GPa)
#
#
# Indices 1 2 3 4 5 6 
#
# 1 201.1391 48.3216 24.6284 0.0000 -14.1431 0.0000
# 2 48.3216 66.6492 -11.2164 0.0000 -10.4232 0.0000
# 3 24.6284 -11.2164 35.0579 0.0000 3.0002 0.0000
# 4 0.0000 0.0000 0.0000 15.4082 0.0000 -0.0800
# 5 -14.1431 -10.4232 3.0002 0.0000 17.4772 0.0000
# 6 0.0000 0.0000 0.0000 -0.0800 0.0000 49.2230
#
#
#
# Elastic Compliance Matrix: (Units=1/GPa)
#
#
# Indices 1 2 3 4 5 6 
#
# 1 0.007699 -0.006290 -0.007747 0.000000 0.003809 0.000000
# 2 -0.006290 0.022422 0.011046 0.000000 0.006386 0.000000
# 3 -0.007747 0.011046 0.038032 0.000000 -0.006210 0.000000
# 4 0.000000 0.000000 0.000000 0.064901 0.000000 0.000105
# 5 0.003809 0.006386 -0.006210 0.000000 0.065174 0.000000
# 6 0.000000 0.000000 0.000000 0.000105 0.000000 0.020316
#
#
# Mechanical properties :
#
#
# Convention : Reuss Voigt Hill
#
# Bulk Modulus (GPa) = 16.08469 47.36816 31.72642
# Shear Modulus (GPa) = 20.38730 32.49586 26.44158
#
# Velocity S-wave (km/s) = 2.81604 3.55527 3.20703
# Velocity P-wave (km/s) = 4.10243 5.93954 5.10432
#
# Compressibility (1/GPa) = 0.06217094
#
# Stress axis : x y z
#
# Youngs Moduli (GPa) = 129.88226 44.59903 26.29347
#
# Poissons Ratio (x) = 0.28054 0.20370
# Poissons Ratio (y) = 0.81698 -0.29044
# Poissons Ratio (z) = 1.00623 -0.49265
#
# Static dielectric constant tensor:
#      x y z
#    x 2.021910 0.000000 -0.023050 
#    y 0.000000 2.179300 0.000000 
#    z -0.023050 0.000000 2.080840 
# 
# From -- ./inp_files/67030.got.cif
#   From: 2010.05.17/outbox.cif.g08.bks.cpg/sg14_34_cif.got.tgz:67030.got - 2010.06.03 17:49:19.
