data_PCOD9241122
_publ_section_title
;
Structure prediction by ZEFSAII (Michael W. Deem and Ramdas Pophale) SiO2 
 PCOD9241122
Probable space group: P 21/C
;
_chemical_formula_sum "Si O2"
_cell_formula_units_Z 28
_cell_length_a 9.386470
_cell_length_b 19.203503
_cell_length_c 16.799070
_cell_angle_alpha 90.000000
_cell_angle_beta 30.564542
_cell_angle_gamma 90.000000
_cell_volume 1539.807145
_symmetry_space_group_name_H-M "P 21/C"
_symmetry_group_IT_number 14
_symmetry_cell_setting 'monoclinic'
loop_
_space_group_symop_operation_xyz
x,y,z
-x,1/2+y,1/2-z
-x,-y,-z
x,1/2-y,1/2+z
loop_
_atom_site_type_symbol
_atom_site_label
_atom_site_fract_x
_atom_site_fract_y
_atom_site_fract_z
Si Si1 0.912528 0.188021 0.742416
Si Si2 0.353528 0.224607 0.931928
Si Si3 0.141160 0.287731 0.307746
Si Si4 0.446144 0.040728 0.260046
Si Si5 0.582028 0.196047 0.166416
Si Si6 0.594652 0.893761 0.206874
Si Si7 0.941416 0.064432 0.617497
O O1 0.099730 0.234964 0.593360
O O2 0.020211 0.199051 0.779198
O O3 0.592418 0.209952 0.882059
O O4 0.946720 0.108958 0.694592
O O5 0.487279 0.270226 0.795751
O O6 0.275302 0.151123 0.927986
O O7 0.348518 0.222722 0.216596
O O8 0.315726 0.353958 0.257236
O O9 0.881079 0.277666 0.492779
O O10 0.583612 0.112796 0.170667
O O11 0.242765 0.053478 0.433586
O O12 0.230768 0.008036 0.297983
O O13 0.651320 0.975942 0.178617
O O14 0.259397 0.892354 0.347968
#
# Coordination Sequence:
#
# PCOD9241122 Si02
#       7
#     4   4   4   4   4   4   4
#     4  11  20  37  55  84 115 147 183 239 291 334
#     4  10  19  34  60  80 106 148 197 224 274 337
#     4  11  24  35  55  87 120 142 185 246 291 327
#     4   9  17  35  63  84 108 148 203 225 279 338
#     4  11  22  37  61  86 107 156 195 236 276 340
#     4   8  18  34  57  83 109 144 187 238 268 333
#     4   8  17  34  61  81 107 154 188 226 275 354
#
# _framework density 18.184094999999999
#
# number of rings (size 3 to 8) (size 9 to 14) (size 15 to 20)
#    0.857    1.429    1.429    2.571    4.000    0.571 
#    0.000    1.429    3.143    0.000    0.000    0.000 
#    0.000    0.000    0.000    0.000    0.000    0.000 
#
# Total GULP energy -155928.274532 kJ/mol
# GULP energy per Si atom -5568.866948 kJ/mol
# Density = 1.814271 g / cm^3
# Si number density = 18.184095 Si / 1000 Ang^3
#
#
#
# Elastic Constant Matrix: (Units=GPa)
#
#
# Indices 1 2 3 4 5 6 
#
# 1 83.5291 0.2701 -15.1784 0.0000 -5.3609 0.0000
# 2 0.2701 86.0643 -2.2201 0.0000 -2.1290 0.0000
# 3 -15.1784 -2.2201 43.2223 0.0000 -4.0475 0.0000
# 4 0.0000 0.0000 0.0000 22.7164 0.0000 -5.6775
# 5 -5.3609 -2.1290 -4.0475 0.0000 11.8018 0.0000
# 6 0.0000 0.0000 0.0000 -5.6775 0.0000 18.5034
#
#
#
# Elastic Compliance Matrix: (Units=1/GPa)
#
#
# Indices 1 2 3 4 5 6 
#
# 1 0.013490 0.000299 0.005508 0.000000 0.008071 0.000000
# 2 0.000299 0.011706 0.000947 0.000000 0.002573 0.000000
# 3 0.005508 0.000947 0.026211 0.000000 0.011662 0.000000
# 4 0.000000 0.000000 0.000000 0.047677 0.000000 0.014629
# 5 0.008071 0.002573 0.011662 0.000000 0.092863 0.000000
# 6 0.000000 0.000000 0.000000 0.014629 0.000000 0.058533
#
#
# Mechanical properties :
#
#
# Convention : Reuss Voigt Hill
#
# Bulk Modulus (GPa) = 15.40409 19.83989 17.62199
# Shear Modulus (GPa) = 19.33417 25.93392 22.63404
#
# Velocity S-wave (km/s) = 3.26428 3.78059 3.53188
# Velocity P-wave (km/s) = 4.76413 5.47644 5.13266
#
# Compressibility (1/GPa) = 0.06491782
#
# Stress axis : x y z
#
# Youngs Moduli (GPa) = 74.12984 85.42367 38.15139
#
# Poissons Ratio (x) = -0.02558 -0.21015
# Poissons Ratio (y) = -0.02219 -0.03614
# Poissons Ratio (z) = -0.40834 -0.08093
#
# Static dielectric constant tensor:
#      x y z
#    x 1.623360 0.000000 -0.022570 
#    y 0.000000 1.655220 0.000000 
#    z -0.022570 0.000000 1.621560 
# 
# From -- ./inp_files/56194.got.cif
#   From: 2010.05.17/outbox.cif.g08.bks.cpg/sg14_29_cif.got.tgz:56194.got - 2010.06.03 17:49:19.
