data_PCOD9241700
_publ_section_title
;
Structure prediction by ZEFSAII (Michael W. Deem and Ramdas Pophale) SiO2 
 PCOD9241700
Probable space group: P 21/C
;
_chemical_formula_sum "Si O2"
_cell_formula_units_Z 24
_cell_length_a 8.611614
_cell_length_b 14.708880
_cell_length_c 14.318130
_cell_angle_alpha 90.000000
_cell_angle_beta 141.751325
_cell_angle_gamma 90.000000
_cell_volume 1122.778998
_symmetry_space_group_name_H-M "P 21/C"
_symmetry_group_IT_number 14
_symmetry_cell_setting 'monoclinic'
loop_
_space_group_symop_operation_xyz
x,y,z
-x,1/2+y,1/2-z
-x,-y,-z
x,1/2-y,1/2+z
loop_
_atom_site_type_symbol
_atom_site_label
_atom_site_fract_x
_atom_site_fract_y
_atom_site_fract_z
Si Si1 0.277866 0.615788 0.149830
Si Si2 0.935948 0.433692 0.301848
Si Si3 0.635642 0.633832 0.989771
Si Si4 0.940412 0.769208 0.013860
Si Si5 0.221905 0.364629 0.733669
Si Si6 0.045763 0.475159 0.154688
O O1 0.526324 0.620157 0.207361
O O2 0.190019 0.710551 0.152236
O O3 0.274348 0.535507 0.224275
O O4 0.049972 0.590969 0.971345
O O5 0.920198 0.538814 0.325503
O O6 0.077851 0.429766 0.269749
O O7 0.053175 0.365873 0.431718
O O8 0.649343 0.399693 0.150486
O O9 0.718904 0.708790 0.953883
O O10 0.703017 0.665266 0.126666
O O11 0.815276 0.546571 0.058245
O O12 0.925586 0.791363 0.897230
#
# Coordination Sequence:
#
# PCOD9241700 Si02
#       6
#     4   4   4   4   4   4
#     4  10  19  37  59  85 109 149 198 231 272 344
#     4  11  20  40  58  83 117 156 188 237 288 346
#     4  10  20  38  59  82 110 157 198 226 280 351
#     4  11  25  34  56  92 123 140 191 250 292 324
#     4  11  21  39  61  84 115 158 189 235 291 342
#     4   9  18  35  62  80 103 151 199 230 266 345
#
# _framework density 21.375533999999998
#
# number of rings (size 3 to 8) (size 9 to 14) (size 15 to 20)
#    0.000    1.667    3.333    2.500    2.333    0.000 
#    0.000    0.833    0.000    0.000    0.000    0.000 
#    0.000    0.000    0.000    0.000    0.000    0.000 
#
# Total GULP energy -134057.416326 kJ/mol
# GULP energy per Si atom -5585.725680 kJ/mol
# Density = 2.132688 g / cm^3
# Si number density = 21.375534 Si / 1000 Ang^3
#
#
#
# Elastic Constant Matrix: (Units=GPa)
#
#
# Indices 1 2 3 4 5 6 
#
# 1 84.1711 7.3754 -1.6877 0.0000 -15.8533 0.0000
# 2 7.3754 75.1994 13.8025 0.0000 -13.0930 0.0000
# 3 -1.6877 13.8025 30.4114 0.0000 -17.8007 0.0000
# 4 0.0000 0.0000 0.0000 14.7344 0.0000 -10.4643
# 5 -15.8533 -13.0930 -17.8007 0.0000 26.8155 0.0000
# 6 0.0000 0.0000 0.0000 -10.4643 0.0000 31.2990
#
#
#
# Elastic Compliance Matrix: (Units=1/GPa)
#
#
# Indices 1 2 3 4 5 6 
#
# 1 0.015005 -0.000666 0.010037 0.000000 0.015208 0.000000
# 2 -0.000666 0.014866 -0.004524 0.000000 0.003862 0.000000
# 3 0.010037 -0.004524 0.061613 0.000000 0.044625 0.000000
# 4 0.000000 0.000000 0.000000 0.089001 0.000000 0.029756
# 5 0.015208 0.003862 0.044625 0.000000 0.077792 0.000000
# 6 0.000000 0.000000 0.000000 0.029756 0.000000 0.041898
#
#
# Mechanical properties :
#
#
# Convention : Reuss Voigt Hill
#
# Bulk Modulus (GPa) = 9.88355 25.41803 17.65079
# Shear Modulus (GPa) = 15.42228 25.92257 20.67242
#
# Velocity S-wave (km/s) = 2.68897 3.48619 3.11321
# Velocity P-wave (km/s) = 3.77817 5.30299 4.60414
#
# Compressibility (1/GPa) = 0.10117823
#
# Stress axis : x y z
#
# Youngs Moduli (GPa) = 66.64635 67.26772 16.23033
#
# Poissons Ratio (x) = 0.04480 -0.16290
# Poissons Ratio (y) = 0.04438 0.07342
# Poissons Ratio (z) = -0.66891 0.30429
#
# Static dielectric constant tensor:
#      x y z
#    x 1.768660 0.000000 -0.028340 
#    y 0.000000 1.803160 0.000000 
#    z -0.028340 0.000000 1.780960 
# 
# From -- ./inp_files/34323.got.cif
#   From: 2010.05.17/outbox.cif.g08.bks.cpg/sg14_18_cif.got.tgz:34323.got - 2010.06.03 17:49:19.
