data_PCOD9241677
_publ_section_title
;
Structure prediction by ZEFSAII (Michael W. Deem and Ramdas Pophale) SiO2 
 PCOD9241677
Probable space group: P 21/C
;
_chemical_formula_sum "Si O2"
_cell_formula_units_Z 32
_cell_length_a 22.449921
_cell_length_b 13.638582
_cell_length_c 8.945752
_cell_angle_alpha 90.000000
_cell_angle_beta 32.800147
_cell_angle_gamma 90.000000
_cell_volume 1483.774959
_symmetry_space_group_name_H-M "P 21/C"
_symmetry_group_IT_number 14
_symmetry_cell_setting 'monoclinic'
loop_
_space_group_symop_operation_xyz
x,y,z
-x,1/2+y,1/2-z
-x,-y,-z
x,1/2-y,1/2+z
loop_
_atom_site_type_symbol
_atom_site_label
_atom_site_fract_x
_atom_site_fract_y
_atom_site_fract_z
Si Si1 0.216401 0.909930 0.060823
Si Si2 0.574553 0.859606 0.345449
Si Si3 0.614073 0.053096 0.066121
Si Si4 0.179924 0.367136 0.577286
Si Si5 0.897535 0.198541 0.171583
Si Si6 0.336177 0.871485 0.315641
Si Si7 0.595758 0.307061 0.011314
Si Si8 0.948073 0.737805 0.410226
O O1 0.142788 0.811992 0.214415
O O2 0.167599 0.014798 0.117568
O O3 0.266327 0.918512 0.121521
O O4 0.326735 0.890275 0.728905
O O5 0.484175 0.877263 0.665743
O O6 0.517563 0.793204 0.339258
O O7 0.589982 0.955373 0.209997
O O8 0.692019 0.839453 0.169111
O O9 0.618717 0.038998 0.877520
O O10 0.132702 0.326391 0.521604
O O11 0.115191 0.310837 0.845370
O O12 0.791167 0.131229 0.370204
O O13 0.971366 0.172013 0.157919
O O14 0.974457 0.201851 0.865499
O O15 0.403595 0.835605 0.317091
O O16 0.341286 0.790559 0.171721
#
# Coordination Sequence:
#
# PCOD9241677 Si02
#       8
#     4   4   4   4   4   4   4   4
#     4   9  18  37  63  82 107 148 188 234 292 336
#     4   9  19  37  55  78 118 152 183 227 272 335
#     4   9  18  34  59  87 110 144 186 230 287 340
#     4  10  22  40  57  79 113 153 192 226 273 343
#     4  10  19  37  58  81 110 136 183 251 286 316
#     4  11  20  34  58  88 116 141 188 243 291 335
#     4  10  20  33  57  90 114 147 188 227 287 344
#     4  10  22  35  55  80 106 147 190 224 278 333
#
# _framework density 21.566614000000001
#
# number of rings (size 3 to 8) (size 9 to 14) (size 15 to 20)
#    0.000    2.250    0.000    5.250    0.000    4.500 
#    0.000    6.250    0.000    9.750    0.000    0.000 
#    0.000    0.000    0.000    0.000    0.000    0.000 
#
# Total GULP energy -178366.255531 kJ/mol
# GULP energy per Si atom -5573.945485 kJ/mol
# Density = 2.151753 g / cm^3
# Si number density = 21.566614 Si / 1000 Ang^3
#
#
#
# Elastic Constant Matrix: (Units=GPa)
#
#
# Indices 1 2 3 4 5 6 
#
# 1 59.5810 -5.9296 16.1762 0.0000 2.2035 0.0000
# 2 -5.9296 39.8591 -3.6317 0.0000 -2.2012 0.0000
# 3 16.1762 -3.6317 65.3173 0.0000 -7.5877 0.0000
# 4 0.0000 0.0000 0.0000 17.3025 0.0000 -0.4053
# 5 2.2035 -2.2012 -7.5877 0.0000 35.2222 0.0000
# 6 0.0000 0.0000 0.0000 -0.4053 0.0000 26.2326
#
#
#
# Elastic Compliance Matrix: (Units=1/GPa)
#
#
# Indices 1 2 3 4 5 6 
#
# 1 0.018340 0.002193 -0.004654 0.000000 -0.002013 0.000000
# 2 0.002193 0.025606 0.001078 0.000000 0.001695 0.000000
# 3 -0.004654 0.001078 0.016989 0.000000 0.004018 0.000000
# 4 0.000000 0.000000 0.000000 0.057816 0.000000 0.000893
# 5 -0.002013 0.001695 0.004018 0.000000 0.029489 0.000000
# 6 0.000000 0.000000 0.000000 0.000893 0.000000 0.038134
#
#
# Mechanical properties :
#
#
# Convention : Reuss Voigt Hill
#
# Bulk Modulus (GPa) = 17.19122 19.77635 18.48379
# Shear Modulus (GPa) = 23.97725 26.29430 25.13578
#
# Velocity S-wave (km/s) = 3.33795 3.49551 3.41764
# Velocity P-wave (km/s) = 4.77958 5.04790 4.91557
#
# Compressibility (1/GPa) = 0.05816922
#
# Stress axis : x y z
#
# Youngs Moduli (GPa) = 54.52532 39.05272 58.86102
#
# Poissons Ratio (x) = -0.08565 0.27393
# Poissons Ratio (y) = -0.11958 -0.06342
# Poissons Ratio (z) = 0.25376 -0.04208
#
# Static dielectric constant tensor:
#      x y z
#    x 1.853410 0.000000 -0.001950 
#    y 0.000000 1.944160 0.000000 
#    z -0.001950 0.000000 1.853370 
# 
# From -- ./inp_files/19030.got.cif
#   From: 2010.05.17/outbox.cif.g08.bks.cpg/sg14_10_cif.got.tgz:19030.got - 2010.06.03 17:49:19.
