data_PCOD9241538
_publ_section_title
;
Structure prediction by ZEFSAII (Michael W. Deem and Ramdas Pophale) SiO2 
 PCOD9241538
Probable space group: P 21/C
;
_chemical_formula_sum "Si O2"
_cell_formula_units_Z 28
_cell_length_a 15.077298
_cell_length_b 17.061477
_cell_length_c 5.055189
_cell_angle_alpha 90.000000
_cell_angle_beta 59.612574
_cell_angle_gamma 90.000000
_cell_volume 1121.758660
_symmetry_space_group_name_H-M "P 21/C"
_symmetry_group_IT_number 14
_symmetry_cell_setting 'monoclinic'
loop_
_space_group_symop_operation_xyz
x,y,z
-x,1/2+y,1/2-z
-x,-y,-z
x,1/2-y,1/2+z
loop_
_atom_site_type_symbol
_atom_site_label
_atom_site_fract_x
_atom_site_fract_y
_atom_site_fract_z
Si Si1 0.131539 0.461975 0.074265
Si Si2 0.353223 0.059604 0.374340
Si Si3 0.535269 0.700166 0.458906
Si Si4 0.955406 0.116334 0.083287
Si Si5 0.205725 0.701919 0.936928
Si Si6 0.566961 0.435884 0.676403
Si Si7 0.221654 0.561715 0.539009
O O1 0.055750 0.537042 0.224234
O O2 0.061819 0.389155 0.266010
O O3 0.234868 0.461521 0.098637
O O4 0.179562 0.478755 0.714069
O O5 0.362495 0.149082 0.255857
O O6 0.396016 0.004965 0.074310
O O7 0.447229 0.056261 0.444849
O O8 0.529946 0.726313 0.768684
O O9 0.447078 0.641236 0.489518
O O10 0.863983 0.102747 0.008541
O O11 0.917619 0.189674 0.314139
O O12 0.242010 0.740216 0.152469
O O13 0.230601 0.615704 0.792602
O O14 0.661287 0.429259 0.737809
#
# Coordination Sequence:
#
# PCOD9241538 Si02
#       7
#     4   4   4   4   4   4   4
#     4   9  19  37  60  88 120 160 203 263 305 359
#     4   8  17  41  59  89 124 163 212 254 313 368
#     4  10  21  41  61  88 125 163 207 251 308 374
#     4  10  20  36  60  91 121 157 208 255 311 364
#     4  11  22  39  59  86 126 164 203 249 310 377
#     4   8  18  38  61  90 124 161 207 261 312 371
#     4  10  19  36  60  89 121 155 204 254 314 365
#
# _framework density 24.960806999999999
#
# number of rings (size 3 to 8) (size 9 to 14) (size 15 to 20)
#    0.857    1.714    1.429    0.429    0.000    1.143 
#   12.857    3.571    0.000    0.000    0.000    0.000 
#    0.000    0.000    0.000    0.000    0.000    0.000 
#
# Total GULP energy -155899.596896 kJ/mol
# GULP energy per Si atom -5567.842746 kJ/mol
# Density = 2.490399 g / cm^3
# Si number density = 24.960807 Si / 1000 Ang^3
#
#
#
# Elastic Constant Matrix: (Units=GPa)
#
#
# Indices 1 2 3 4 5 6 
#
# 1 96.0519 10.3391 17.8934 0.0000 -13.7301 0.0000
# 2 10.3391 49.1513 12.7142 0.0000 -3.1184 0.0000
# 3 17.8934 12.7142 101.8191 0.0000 5.4752 0.0000
# 4 0.0000 0.0000 0.0000 33.7337 0.0000 -1.0378
# 5 -13.7301 -3.1184 5.4752 0.0000 39.9109 0.0000
# 6 0.0000 0.0000 0.0000 -1.0378 0.0000 20.4878
#
#
#
# Elastic Compliance Matrix: (Units=1/GPa)
#
#
# Indices 1 2 3 4 5 6 
#
# 1 0.011559 -0.001640 -0.002049 0.000000 0.004130 0.000000
# 2 -0.001640 0.021420 -0.002464 0.000000 0.001448 0.000000
# 3 -0.002049 -0.002464 0.010616 0.000000 -0.002354 0.000000
# 4 0.000000 0.000000 0.000000 0.029690 0.000000 0.001504
# 5 0.004130 0.001448 -0.002354 0.000000 0.026912 0.000000
# 6 0.000000 0.000000 0.000000 0.001504 0.000000 0.048886
#
#
# Mechanical properties :
#
#
# Convention : Reuss Voigt Hill
#
# Bulk Modulus (GPa) = 31.95982 36.54616 34.25299
# Shear Modulus (GPa) = 29.10050 32.56486 30.83268
#
# Velocity S-wave (km/s) = 3.41816 3.61590 3.51842
# Velocity P-wave (km/s) = 5.33012 5.66623 5.50074
#
# Compressibility (1/GPa) = 0.03128929
#
# Stress axis : x y z
#
# Youngs Moduli (GPa) = 86.50901 46.68628 94.20032
#
# Poissons Ratio (x) = 0.07655 0.19299
# Poissons Ratio (y) = 0.14184 0.23214
# Poissons Ratio (z) = 0.17724 0.11505
#
# Static dielectric constant tensor:
#      x y z
#    x 2.103300 0.000000 -0.018600 
#    y 0.000000 2.107090 0.000000 
#    z -0.018600 0.000000 2.150080 
# 
# From -- ./inp_files/4257.got.cif
#   From: 2010.05.17/outbox.cif.g08.bks.cpg/sg14_3_cif.got.tgz:4257.got - 2010.06.03 17:49:19.
