data_PCOD9241636
_publ_section_title
;
Structure prediction by ZEFSAII (Michael W. Deem and Ramdas Pophale) SiO2 
 PCOD9241636
Probable space group: P 21/C
;
_chemical_formula_sum "Si O2"
_cell_formula_units_Z 32
_cell_length_a 19.857124
_cell_length_b 9.320955
_cell_length_c 19.417368
_cell_angle_alpha 90.000000
_cell_angle_beta 158.578372
_cell_angle_gamma 90.000000
_cell_volume 1312.597096
_symmetry_space_group_name_H-M "P 21/C"
_symmetry_group_IT_number 14
_symmetry_cell_setting 'monoclinic'
loop_
_space_group_symop_operation_xyz
x,y,z
-x,1/2+y,1/2-z
-x,-y,-z
x,1/2-y,1/2+z
loop_
_atom_site_type_symbol
_atom_site_label
_atom_site_fract_x
_atom_site_fract_y
_atom_site_fract_z
Si Si1 0.809382 0.328729 0.647227
Si Si2 0.885217 0.773585 0.671010
Si Si3 0.415895 0.306215 0.941425
Si Si4 0.837454 0.566696 0.420880
Si Si5 0.849483 0.272717 0.353820
Si Si6 0.359799 0.052620 0.120304
Si Si7 0.095621 0.094624 0.680838
Si Si8 0.324812 0.980233 0.479134
O O1 0.698103 0.428772 0.487438
O O2 0.859503 0.430949 0.758778
O O3 0.696914 0.186492 0.556642
O O4 0.989079 0.283979 0.775598
O O5 0.688502 0.701238 0.464307
O O6 0.966420 0.667200 0.805764
O O7 0.858147 0.930647 0.676734
O O8 0.313121 0.367613 0.775978
O O9 0.285005 0.175246 0.840455
O O10 0.628952 0.263295 0.135713
O O11 0.403437 0.427233 0.990001
O O12 0.876690 0.405264 0.433906
O O13 0.757843 0.560502 0.421279
O O14 0.019211 0.663258 0.581756
O O15 0.941793 0.136521 0.479001
O O16 0.559956 0.022107 0.340465
#
# Coordination Sequence:
#
# PCOD9241636 Si02
#       8
#     4   4   4   4   4   4   4   4
#     4  11  23  42  63  94 135 169 214 267 341 407
#     4  10  22  39  59  91 127 170 209 263 333 391
#     4  10  21  40  67 100 126 171 222 278 332 383
#     4  10  21  36  65 101 129 165 224 279 323 388
#     4  10  19  36  64  94 126 165 218 274 324 381
#     4  11  22  40  61  97 130 167 215 268 334 400
#     4   9  21  40  62  92 129 167 211 270 327 392
#     4  11  22  39  66  93 132 167 217 275 328 403
#
# _framework density 24.379149999999999
#
# number of rings (size 3 to 8) (size 9 to 14) (size 15 to 20)
#    0.000    1.750    1.250    3.375    0.000    4.000 
#    9.000    0.000    0.000   12.750    0.000    0.000 
#    0.000    0.000    0.000    0.000    0.000    0.000 
#
# Total GULP energy -179156.356462 kJ/mol
# GULP energy per Si atom -5598.636139 kJ/mol
# Density = 2.432366 g / cm^3
# Si number density = 24.379150 Si / 1000 Ang^3
#
#
#
# Elastic Constant Matrix: (Units=GPa)
#
#
# Indices 1 2 3 4 5 6 
#
# 1 98.2589 16.3944 14.0369 0.0000 -10.5451 0.0000
# 2 16.3944 145.4310 30.2221 0.0000 -6.7799 0.0000
# 3 14.0369 30.2221 128.3755 0.0000 -21.5722 0.0000
# 4 0.0000 0.0000 0.0000 39.4088 0.0000 -4.7832
# 5 -10.5451 -6.7799 -21.5722 0.0000 50.6592 0.0000
# 6 0.0000 0.0000 0.0000 -4.7832 0.0000 20.0369
#
#
#
# Elastic Compliance Matrix: (Units=1/GPa)
#
#
# Indices 1 2 3 4 5 6 
#
# 1 0.010625 -0.000983 -0.000626 0.000000 0.001814 0.000000
# 2 -0.000983 0.007324 -0.001601 0.000000 0.000094 0.000000
# 3 -0.000626 -0.001601 0.008807 0.000000 0.003406 0.000000
# 4 0.000000 0.000000 0.000000 0.026132 0.000000 0.006238
# 5 0.001814 0.000094 0.003406 0.000000 0.021580 0.000000
# 6 0.000000 0.000000 0.000000 0.006238 0.000000 0.051397
#
#
# Mechanical properties :
#
#
# Convention : Reuss Voigt Hill
#
# Bulk Modulus (GPa) = 49.17117 54.81914 51.99516
# Shear Modulus (GPa) = 35.95455 42.78179 39.36817
#
# Velocity S-wave (km/s) = 3.84449 4.19364 4.02285
# Velocity P-wave (km/s) = 6.31822 6.78113 6.55376
#
# Compressibility (1/GPa) = 0.02033712
#
# Stress axis : x y z
#
# Youngs Moduli (GPa) = 94.11534 136.53707 113.54249
#
# Poissons Ratio (x) = 0.13425 0.07103
# Poissons Ratio (y) = 0.09254 0.18178
# Poissons Ratio (z) = 0.05887 0.21859
#
# Static dielectric constant tensor:
#      x y z
#    x 1.944910 0.000000 -0.037740 
#    y 0.000000 1.924110 0.000000 
#    z -0.037740 0.000000 1.978410 
# 
# From -- ./inp_files/69971.got.cif
#   From: 2010.05.17/outbox.cif.g08.bks.cpg/sg14_35_cif.got.tgz:69971.got - 2010.06.03 17:49:19.
