data_PCOD9241702
_publ_section_title
;
Structure prediction by ZEFSAII (Michael W. Deem and Ramdas Pophale) SiO2 
 PCOD9241702
Probable space group: P 21/C
;
_chemical_formula_sum "Si O2"
_cell_formula_units_Z 32
_cell_length_a 11.488693
_cell_length_b 23.249299
_cell_length_c 8.908972
_cell_angle_alpha 90.000000
_cell_angle_beta 140.340607
_cell_angle_gamma 90.000000
_cell_volume 1518.728348
_symmetry_space_group_name_H-M "P 21/C"
_symmetry_group_IT_number 14
_symmetry_cell_setting 'monoclinic'
loop_
_space_group_symop_operation_xyz
x,y,z
-x,1/2+y,1/2-z
-x,-y,-z
x,1/2-y,1/2+z
loop_
_atom_site_type_symbol
_atom_site_label
_atom_site_fract_x
_atom_site_fract_y
_atom_site_fract_z
Si Si1 0.666881 0.330279 0.922532
Si Si2 0.530053 0.563813 0.398618
Si Si3 0.682276 0.498495 0.279830
Si Si4 0.193007 0.484676 0.114357
Si Si5 0.184870 0.085215 0.305080
Si Si6 0.453832 0.729927 0.470386
Si Si7 0.828263 0.371841 0.373068
Si Si8 0.524263 0.676143 0.831531
O O1 0.509154 0.377752 0.732188
O O2 0.615450 0.276830 0.978383
O O3 0.691692 0.302681 0.781658
O O4 0.810428 0.361174 0.176085
O O5 0.615553 0.514944 0.376922
O O6 0.330312 0.539699 0.246654
O O7 0.681626 0.563675 0.678647
O O8 0.809418 0.548449 0.340992
O O9 0.773491 0.437398 0.352455
O O10 0.500000 0.500000 0.000000
O O11 0.157704 0.459511 0.913629
O O12 0.000000 0.500000 0.000000
O O13 0.370740 0.119942 0.511045
O O14 0.029515 0.133021 0.136615
O O15 0.543286 0.684770 0.673019
O O16 0.578877 0.766776 0.480239
O O17 0.685198 0.333752 0.325018
#
# Coordination Sequence:
#
# PCOD9241702 Si02
#       8
#     4   4   4   4   4   4   4   4
#     4  10  19  37  59  87 112 153 203 247 309 353
#     4  11  22  39  63  87 125 167 199 250 304 367
#     4  12  19  38  61  89 124 162 201 244 292 367
#     4  11  24  39  57  93 132 163 200 241 301 374
#     4  12  23  38  62  91 125 163 203 248 302 369
#     4   9  20  37  65  83 110 152 202 262 303 357
#     4  11  22  36  59  89 125 160 197 245 304 369
#     4  10  20  41  60  86 115 154 203 250 310 358
#
# _framework density 21.070259
#
# number of rings (size 3 to 8) (size 9 to 14) (size 15 to 20)
#    0.000    1.250    3.750    2.625    0.000    4.000 
#    0.000    5.000    0.000    4.500    0.000    0.000 
#    0.000    0.000    0.000    0.000    0.000    0.000 
#
# Total GULP energy -178340.822614 kJ/mol
# GULP energy per Si atom -5573.150707 kJ/mol
# Density = 2.102230 g / cm^3
# Si number density = 21.070259 Si / 1000 Ang^3
#
#
#
# Elastic Constant Matrix: (Units=GPa)
#
#
# Indices 1 2 3 4 5 6 
#
# 1 82.8076 21.1794 33.6793 0.0000 -6.7250 0.0000
# 2 21.1794 79.2851 19.6883 0.0000 -4.8032 0.0000
# 3 33.6793 19.6883 80.1835 0.0000 -9.2648 0.0000
# 4 0.0000 0.0000 0.0000 26.2798 0.0000 -12.9229
# 5 -6.7250 -4.8032 -9.2648 0.0000 36.9497 0.0000
# 6 0.0000 0.0000 0.0000 -12.9229 0.0000 23.5983
#
#
#
# Elastic Compliance Matrix: (Units=1/GPa)
#
#
# Indices 1 2 3 4 5 6 
#
# 1 0.015091 -0.002583 -0.005588 0.000000 0.001010 0.000000
# 2 -0.002583 0.013906 -0.002240 0.000000 0.000776 0.000000
# 3 -0.005588 -0.002240 0.015671 0.000000 0.002621 0.000000
# 4 0.000000 0.000000 0.000000 0.052075 0.000000 0.028518
# 5 0.001010 0.000776 0.002621 0.000000 0.028006 0.000000
# 6 0.000000 0.000000 0.000000 0.028518 0.000000 0.057993
#
#
# Mechanical properties :
#
#
# Convention : Reuss Voigt Hill
#
# Bulk Modulus (GPa) = 41.93319 43.48558 42.70938
# Shear Modulus (GPa) = 23.63921 28.54750 26.09336
#
# Velocity S-wave (km/s) = 3.35315 3.68485 3.52290
# Velocity P-wave (km/s) = 5.91069 6.22795 6.07139
#
# Compressibility (1/GPa) = 0.02384746
#
# Stress axis : x y z
#
# Youngs Moduli (GPa) = 66.26258 71.91222 63.81045
#
# Poissons Ratio (x) = 0.18572 0.35657
# Poissons Ratio (y) = 0.17113 0.14294
# Poissons Ratio (z) = 0.37028 0.16109
#
# Static dielectric constant tensor:
#      x y z
#    x 1.909560 0.000000 -0.003700 
#    y 0.000000 1.865130 0.000000 
#    z -0.003700 0.000000 1.853540 
# 
# From -- ./inp_files/14550.got.cif
#   From: 2010.05.17/outbox.cif.g08.bks.cpg/sg14_8_cif.got.tgz:14550.got - 2010.06.03 17:49:19.
