data_PCOD9241080
_publ_section_title
;
Structure prediction by ZEFSAII (Michael W. Deem and Ramdas Pophale) SiO2 
 PCOD9241080
Probable space group: P 21/C
;
_chemical_formula_sum "Si O2"
_cell_formula_units_Z 28
_cell_length_a 30.669899
_cell_length_b 4.961391
_cell_length_c 18.993823
_cell_angle_alpha 90.000000
_cell_angle_beta 26.725439
_cell_angle_gamma 90.000000
_cell_volume 1299.768913
_symmetry_space_group_name_H-M "P 21/C"
_symmetry_group_IT_number 14
_symmetry_cell_setting 'monoclinic'
loop_
_space_group_symop_operation_xyz
x,y,z
-x,1/2+y,1/2-z
-x,-y,-z
x,1/2-y,1/2+z
loop_
_atom_site_type_symbol
_atom_site_label
_atom_site_fract_x
_atom_site_fract_y
_atom_site_fract_z
Si Si1 0.140245 0.588342 0.056252
Si Si2 0.162955 0.554277 0.301322
Si Si3 0.588754 0.429818 0.692217
Si Si4 0.375355 0.070645 0.456501
Si Si5 0.964962 0.742989 0.910235
Si Si6 0.754253 0.576792 0.544340
Si Si7 0.881693 0.945643 0.721178
O O1 0.097184 0.457282 0.048483
O O2 0.193740 0.874686 0.976360
O O3 0.048218 0.621763 0.241590
O O4 0.218755 0.378618 0.973663
O O5 0.102388 0.463625 0.455884
O O6 0.153726 0.860505 0.290141
O O7 0.119140 0.362620 0.302276
O O8 0.276228 0.479936 0.140468
O O9 0.622034 0.638714 0.583653
O O10 0.472564 0.456425 0.862322
O O11 0.644374 0.504568 0.683466
O O12 0.616242 0.139101 0.620862
O O13 0.019439 0.566537 0.890898
O O14 0.808697 0.525729 0.391701
#
# Coordination Sequence:
#
# PCOD9241080 Si02
#       7
#     4   4   4   4   4   4   4
#     4  11  25  39  56  78 110 158 201 228 273 321
#     4  12  22  37  58  86 119 146 182 236 296 338
#     4  10  19  34  58  85 118 143 182 231 281 351
#     4  10  19  34  57  88 115 147 177 227 296 344
#     4  11  25  41  57  81 117 153 200 235 271 337
#     4  11  20  38  60  81 115 148 191 237 270 339
#     4  11  22  35  56  85 116 149 182 233 289 342
#
# _framework density 21.542290999999999
#
# number of rings (size 3 to 8) (size 9 to 14) (size 15 to 20)
#    0.000    1.143    2.857    5.143    0.000    5.714 
#    0.000    0.000    0.000    1.714    0.000    0.000 
#    0.000    0.000    0.000    0.000    0.000    0.000 
#
# Total GULP energy -156725.637799 kJ/mol
# GULP energy per Si atom -5597.344207 kJ/mol
# Density = 2.149326 g / cm^3
# Si number density = 21.542291 Si / 1000 Ang^3
#
#
#
# Elastic Constant Matrix: (Units=GPa)
#
#
# Indices 1 2 3 4 5 6 
#
# 1 85.2869 2.6458 22.5090 0.0000 -18.9359 0.0000
# 2 2.6458 71.3526 -0.1078 0.0000 2.6541 0.0000
# 3 22.5090 -0.1078 55.3797 0.0000 -24.8761 0.0000
# 4 0.0000 0.0000 0.0000 24.4602 0.0000 -2.8931
# 5 -18.9359 2.6541 -24.8761 0.0000 24.8755 0.0000
# 6 0.0000 0.0000 0.0000 -2.8931 0.0000 33.6888
#
#
#
# Elastic Compliance Matrix: (Units=1/GPa)
#
#
# Indices 1 2 3 4 5 6 
#
# 1 0.014248 -0.000878 -0.001595 0.000000 0.009344 0.000000
# 2 -0.000878 0.014167 -0.001080 0.000000 -0.003260 0.000000
# 3 -0.001595 -0.001080 0.033061 0.000000 0.031962 0.000000
# 4 0.000000 0.000000 0.000000 0.041302 0.000000 0.003547
# 5 0.009344 -0.003260 0.031962 0.000000 0.079624 0.000000
# 6 0.000000 0.000000 0.000000 0.003547 0.000000 0.029988
#
#
# Mechanical properties :
#
#
# Convention : Reuss Voigt Hill
#
# Bulk Modulus (GPa) = 18.39295 29.12370 23.75833
# Shear Modulus (GPa) = 21.04196 29.06970 25.05583
#
# Velocity S-wave (km/s) = 3.12873 3.67744 3.41412
# Velocity P-wave (km/s) = 4.64850 5.61961 5.15697
#
# Compressibility (1/GPa) = 0.05436866
#
# Stress axis : x y z
#
# Youngs Moduli (GPa) = 70.18468 70.58598 30.24742
#
# Poissons Ratio (x) = 0.06200 0.04826
# Poissons Ratio (y) = 0.06165 0.03266
# Poissons Ratio (z) = 0.11198 0.07622
#
# Static dielectric constant tensor:
#      x y z
#    x 1.817320 0.000000 -0.032190 
#    y 0.000000 1.768160 0.000000 
#    z -0.032190 0.000000 1.804110 
# 
# From -- ./inp_files/62407.got.cif
#   From: 2010.05.17/outbox.cif.g08.bks.cpg/sg14_32_cif.got.tgz:62407.got - 2010.06.03 17:49:19.
