data_PCOD9241177
_publ_section_title
;
Structure prediction by ZEFSAII (Michael W. Deem and Ramdas Pophale) SiO2 
 PCOD9241177
Probable space group: P 21/C
;
_chemical_formula_sum "Si O2"
_cell_formula_units_Z 28
_cell_length_a 9.773459
_cell_length_b 16.786342
_cell_length_c 14.837751
_cell_angle_alpha 90.000000
_cell_angle_beta 138.002216
_cell_angle_gamma 90.000000
_cell_volume 1628.788449
_symmetry_space_group_name_H-M "P 21/C"
_symmetry_group_IT_number 14
_symmetry_cell_setting 'monoclinic'
loop_
_space_group_symop_operation_xyz
x,y,z
-x,1/2+y,1/2-z
-x,-y,-z
x,1/2-y,1/2+z
loop_
_atom_site_type_symbol
_atom_site_label
_atom_site_fract_x
_atom_site_fract_y
_atom_site_fract_z
Si Si1 0.652116 0.446231 0.179228
Si Si2 0.229087 0.976572 0.465635
Si Si3 0.760591 0.585475 0.365853
Si Si4 0.633528 0.046753 0.946272
Si Si5 0.223905 0.540888 0.281232
Si Si6 0.193607 0.830714 0.099920
Si Si7 0.316949 0.649501 0.162485
O O1 0.705222 0.443331 0.100164
O O2 0.750836 0.524782 0.275814
O O3 0.733834 0.368948 0.270235
O O4 0.409486 0.460029 0.075310
O O5 0.229892 0.910373 0.543972
O O6 0.005659 0.013058 0.347483
O O7 0.736955 0.525584 0.439901
O O8 0.561667 0.641759 0.268472
O O9 0.964988 0.636762 0.470622
O O10 0.667139 0.125767 0.906040
O O11 0.395519 0.024404 0.838648
O O12 0.733618 0.055802 0.092938
O O13 0.268198 0.614600 0.237249
O O14 0.226282 0.737146 0.110617
#
# Coordination Sequence:
#
# PCOD9241177 Si02
#       7
#     4   4   4   4   4   4   4
#     4   9  19  34  56  77  94 132 180 205 237 301
#     4  10  19  35  54  74 102 133 169 210 247 290
#     4   9  18  36  54  73  99 131 174 210 238 292
#     4   9  19  34  56  77  94 132 180 205 237 301
#     4  10  19  35  54  74 102 133 169 210 247 290
#     4  11  20  34  54  74 104 135 162 206 258 296
#     4  10  23  32  47  81 107 128 164 206 254 306
#
# _framework density 17.190693
#
# number of rings (size 3 to 8) (size 9 to 14) (size 15 to 20)
#    0.000    2.286    0.000    4.714    0.000    3.429 
#    0.000    0.000    0.000   10.286    0.000    0.000 
#    0.000    0.000    0.000    0.000    0.000    0.000 
#
# Total GULP energy -156185.110338 kJ/mol
# GULP energy per Si atom -5578.039655 kJ/mol
# Density = 1.715157 g / cm^3
# Si number density = 17.190693 Si / 1000 Ang^3
#
#
#
# Elastic Constant Matrix: (Units=GPa)
#
#
# Indices 1 2 3 4 5 6 
#
# 1 20.4524 -5.6303 0.8373 0.0000 -10.5767 0.0000
# 2 -5.6303 37.5631 4.3378 0.0000 2.8170 0.0000
# 3 0.8373 4.3378 65.0461 0.0000 6.6029 0.0000
# 4 0.0000 0.0000 0.0000 14.2262 0.0000 4.8379
# 5 -10.5767 2.8170 6.6029 0.0000 31.9648 0.0000
# 6 0.0000 0.0000 0.0000 4.8379 0.0000 9.4635
#
#
#
# Elastic Compliance Matrix: (Units=1/GPa)
#
#
# Indices 1 2 3 4 5 6 
#
# 1 0.061850 0.008131 -0.003415 0.000000 0.020454 0.000000
# 2 0.008131 0.028028 -0.002039 0.000000 0.000641 0.000000
# 3 -0.003415 -0.002039 0.015985 0.000000 -0.004252 0.000000
# 4 0.000000 0.000000 0.000000 0.085085 0.000000 -0.043497
# 5 0.020454 0.000641 -0.004252 0.000000 0.038874 0.000000
# 6 0.000000 0.000000 0.000000 -0.043497 0.000000 0.127905
#
#
# Mechanical properties :
#
#
# Convention : Reuss Voigt Hill
#
# Bulk Modulus (GPa) = 8.99138 13.57234 11.28186
# Shear Modulus (GPa) = 12.83879 19.36537 16.10208
#
# Velocity S-wave (km/s) = 2.73581 3.35998 3.06383
# Velocity P-wave (km/s) = 3.90145 4.79218 4.36957
#
# Compressibility (1/GPa) = 0.11121766
#
# Stress axis : x y z
#
# Youngs Moduli (GPa) = 16.16823 35.67870 62.55756
#
# Poissons Ratio (x) = -0.29010 0.21361
# Poissons Ratio (y) = -0.13146 0.12755
# Poissons Ratio (z) = 0.05521 0.07274
#
# Static dielectric constant tensor:
#      x y z
#    x 1.595570 0.000000 -0.000050 
#    y 0.000000 1.538620 0.000000 
#    z -0.000050 0.000000 1.599280 
# 
# From -- ./inp_files/41826.got.cif
#   From: 2010.05.17/outbox.cif.g08.bks.cpg/sg14_21_cif.got.tgz:41826.got - 2010.06.03 17:49:19.
