data_PCOD9241164
_publ_section_title
;
Structure prediction by ZEFSAII (Michael W. Deem and Ramdas Pophale) SiO2 
 PCOD9241164
Probable space group: P 21/C
;
_chemical_formula_sum "Si O2"
_cell_formula_units_Z 28
_cell_length_a 10.435490
_cell_length_b 24.970093
_cell_length_c 5.217083
_cell_angle_alpha 90.000000
_cell_angle_beta 87.139776
_cell_angle_gamma 90.000000
_cell_volume 1357.748676
_symmetry_space_group_name_H-M "P 21/C"
_symmetry_group_IT_number 14
_symmetry_cell_setting 'monoclinic'
loop_
_space_group_symop_operation_xyz
x,y,z
-x,1/2+y,1/2-z
-x,-y,-z
x,1/2-y,1/2+z
loop_
_atom_site_type_symbol
_atom_site_label
_atom_site_fract_x
_atom_site_fract_y
_atom_site_fract_z
Si Si1 0.333132 0.214032 0.458914
Si Si2 0.136807 0.031144 0.948951
Si Si3 0.832724 0.364963 0.144872
Si Si4 0.110684 0.352619 0.203628
Si Si5 0.153621 0.511875 0.947322
Si Si6 0.627193 0.286925 0.937579
Si Si7 0.069622 0.785916 0.000589
O O1 0.318681 0.241232 0.183514
O O2 0.230172 0.168497 0.534264
O O3 0.479956 0.193981 0.464734
O O4 0.122708 0.090386 0.839662
O O5 0.209720 0.998562 0.721307
O O6 0.197806 0.028473 0.222402
O O7 0.000000 0.000000 0.000000
O O8 0.818761 0.428332 0.147717
O O9 0.841760 0.336277 0.423724
O O10 0.981439 0.356113 0.041706
O O11 0.725630 0.334237 0.995459
O O12 0.071242 0.309559 0.426639
O O13 0.000000 0.500000 0.000000
O O14 0.643672 0.242737 0.163105
O O15 0.913075 0.257093 0.769677
#
# Coordination Sequence:
#
# PCOD9241164 Si02
#       7
#     4   4   4   4   4   4   4
#     4  10  22  40  57  79 114 150 181 220 272 330
#     4  10  19  35  50  76 110 142 175 221 278 323
#     4  10  21  34  57  84 106 147 181 229 267 329
#     4  10  21  34  57  84 106 147 181 229 267 329
#     4  10  19  35  50  76 110 142 175 221 278 323
#     4  10  22  40  57  79 114 150 181 220 272 330
#     4  10  20  30  44  74 108 126 164 218 262 302
#
# _framework density 20.622373
#
# number of rings (size 3 to 8) (size 9 to 14) (size 15 to 20)
#    0.857    1.143    2.857    1.714    0.000    6.857 
#    0.000    0.000    0.000    1.714    0.000    0.000 
#    0.000    0.000    0.000    0.000    0.000    0.000 
#
# Total GULP energy -156092.284684 kJ/mol
# GULP energy per Si atom -5574.724453 kJ/mol
# Density = 2.057544 g / cm^3
# Si number density = 20.622373 Si / 1000 Ang^3
#
#
#
# Elastic Constant Matrix: (Units=GPa)
#
#
# Indices 1 2 3 4 5 6 
#
# 1 78.6639 28.5772 2.1873 0.0000 -3.5583 0.0000
# 2 28.5772 91.5551 22.5991 0.0000 -6.4602 0.0000
# 3 2.1873 22.5991 122.6788 0.0000 5.2400 0.0000
# 4 0.0000 0.0000 0.0000 19.6076 0.0000 -4.3188
# 5 -3.5583 -6.4602 5.2400 0.0000 17.8445 0.0000
# 6 0.0000 0.0000 0.0000 -4.3188 0.0000 19.5700
#
#
#
# Elastic Compliance Matrix: (Units=1/GPa)
#
#
# Indices 1 2 3 4 5 6 
#
# 1 0.014399 -0.004552 0.000536 0.000000 0.001066 0.000000
# 2 -0.004552 0.013306 -0.002569 0.000000 0.004664 0.000000
# 3 0.000536 -0.002569 0.008760 0.000000 -0.003396 0.000000
# 4 0.000000 0.000000 0.000000 0.053606 0.000000 0.011830
# 5 0.001066 0.004664 -0.003396 0.000000 0.058938 0.000000
# 6 0.000000 0.000000 0.000000 0.011830 0.000000 0.053709
#
#
# Mechanical properties :
#
#
# Convention : Reuss Voigt Hill
#
# Bulk Modulus (GPa) = 42.92520 44.40280 43.66400
# Shear Modulus (GPa) = 22.35594 27.37334 24.86464
#
# Velocity S-wave (km/s) = 3.29608 3.64725 3.47610
# Velocity P-wave (km/s) = 5.94522 6.27014 6.10984
#
# Compressibility (1/GPa) = 0.02329634
#
# Stress axis : x y z
#
# Youngs Moduli (GPa) = 69.44870 75.15204 114.15333
#
# Poissons Ratio (x) = 0.34206 -0.06121
# Poissons Ratio (y) = 0.31610 0.29329
# Poissons Ratio (z) = -0.03724 0.19309
#
# Static dielectric constant tensor:
#      x y z
#    x 1.982860 0.000000 0.119050 
#    y 0.000000 1.770270 0.000000 
#    z 0.119050 0.000000 1.894330 
# 
# From -- ./inp_files/1888.got.cif
#   From: 2010.05.17/outbox.cif.g08.bks.cpg/sg14_1_cif.got.tgz:1888.got - 2010.06.03 17:49:19.
