data_PCOD9241765
_publ_section_title
;
Structure prediction by ZEFSAII (Michael W. Deem and Ramdas Pophale) SiO2 
 PCOD9241765
Probable space group: P 21/C
;
_chemical_formula_sum "Si O2"
_cell_formula_units_Z 28
_cell_length_a 9.778053
_cell_length_b 11.345503
_cell_length_c 14.333964
_cell_angle_alpha 90.000000
_cell_angle_beta 43.264687
_cell_angle_gamma 90.000000
_cell_volume 1089.851526
_symmetry_space_group_name_H-M "P 21/C"
_symmetry_group_IT_number 14
_symmetry_cell_setting 'monoclinic'
loop_
_space_group_symop_operation_xyz
x,y,z
-x,1/2+y,1/2-z
-x,-y,-z
x,1/2-y,1/2+z
loop_
_atom_site_type_symbol
_atom_site_label
_atom_site_fract_x
_atom_site_fract_y
_atom_site_fract_z
Si Si1 0.434123 0.037244 0.898635
Si Si2 0.847995 0.232598 0.099648
Si Si3 0.576993 0.462240 0.796633
Si Si4 0.758749 0.396578 0.976711
Si Si5 0.475781 0.195270 0.037384
Si Si6 0.973497 0.738082 0.285313
Si Si7 0.008114 0.943823 0.130723
O O1 0.454420 0.043027 0.778880
O O2 0.195813 0.032982 0.037239
O O3 0.517459 0.912031 0.892966
O O4 0.539552 0.135563 0.908021
O O5 0.963713 0.249713 0.138678
O O6 0.638423 0.167383 0.230049
O O7 0.958473 0.134554 0.979934
O O8 0.369792 0.483281 0.953766
O O9 0.783071 0.507348 0.740640
O O10 0.600740 0.301982 0.015119
O O11 0.935994 0.376060 0.814936
O O12 0.830869 0.346208 0.041244
O O13 0.256845 0.238825 0.124550
O O14 0.051133 0.853457 0.192336
#
# Coordination Sequence:
#
# PCOD9241765 Si02
#       7
#     4   4   4   4   4   4   4
#     4  10  21  36  68  90 113 162 216 251 296 366
#     4  10  22  40  58  88 126 160 204 251 310 364
#     4  11  20  38  64  88 124 162 201 258 309 361
#     4  11  24  39  60  93 122 159 210 253 308 377
#     4  11  20  39  61  90 118 156 208 258 294 358
#     4  11  22  39  59  87 134 154 196 261 304 364
#     4  10  19  37  61  95 118 154 209 253 296 365
#
# _framework density 25.691573999999999
#
# number of rings (size 3 to 8) (size 9 to 14) (size 15 to 20)
#    0.000    1.429    5.714    3.429    2.000    0.571 
#    0.000    0.714    0.000    0.000    0.000    0.000 
#    0.000    0.000    0.000    0.000    0.000    0.000 
#
# Total GULP energy -156740.097216 kJ/mol
# GULP energy per Si atom -5597.860615 kJ/mol
# Density = 2.563310 g / cm^3
# Si number density = 25.691574 Si / 1000 Ang^3
#
#
#
# Elastic Constant Matrix: (Units=GPa)
#
#
# Indices 1 2 3 4 5 6 
#
# 1 162.4279 9.6918 51.7058 0.0000 28.3828 0.0000
# 2 9.6918 34.2166 26.0235 0.0000 8.0407 0.0000
# 3 51.7058 26.0235 52.6544 0.0000 12.0973 0.0000
# 4 0.0000 0.0000 0.0000 38.9742 0.0000 2.5545
# 5 28.3828 8.0407 12.0973 0.0000 44.9503 0.0000
# 6 0.0000 0.0000 0.0000 2.5545 0.0000 23.0024
#
#
#
# Elastic Compliance Matrix: (Units=1/GPa)
#
#
# Indices 1 2 3 4 5 6 
#
# 1 0.010855 0.008514 -0.013796 0.000000 -0.004664 0.000000
# 2 0.008514 0.053727 -0.033545 0.000000 -0.005959 0.000000
# 3 -0.013796 -0.033545 0.048753 0.000000 0.001591 0.000000
# 4 0.000000 0.000000 0.000000 0.025846 0.000000 -0.002870
# 5 -0.004664 -0.005959 0.001591 0.000000 0.025830 0.000000
# 6 0.000000 0.000000 0.000000 -0.002870 0.000000 0.043793
#
#
# Mechanical properties :
#
#
# Convention : Reuss Voigt Hill
#
# Bulk Modulus (GPa) = 28.02632 47.12679 37.57655
# Shear Modulus (GPa) = 16.75874 32.17722 24.46798
#
# Velocity S-wave (km/s) = 2.55680 3.54283 3.08940
# Velocity P-wave (km/s) = 4.43269 5.92609 5.23294
#
# Compressibility (1/GPa) = 0.03568074
#
# Stress axis : x y z
#
# Youngs Moduli (GPa) = 92.12085 18.61254 20.51169
#
# Poissons Ratio (x) = -0.15847 0.28298
# Poissons Ratio (y) = -0.78431 0.68807
# Poissons Ratio (z) = 1.27089 0.62436
#
# Static dielectric constant tensor:
#      x y z
#    x 1.935880 0.000000 0.005110 
#    y 0.000000 2.049600 0.000000 
#    z 0.005110 0.000000 2.134460 
# 
# From -- ./inp_files/41480.got.cif
#   From: 2010.05.17/outbox.cif.g08.bks.cpg/sg14_21_cif.got.tgz:41480.got - 2010.06.03 17:49:19.
