data_PCOD9241408
_publ_section_title
;
Structure prediction by ZEFSAII (Michael W. Deem and Ramdas Pophale) SiO2 
 PCOD9241408
Probable space group: P 21/C
;
_chemical_formula_sum "Si O2"
_cell_formula_units_Z 20
_cell_length_a 7.865730
_cell_length_b 8.254264
_cell_length_c 24.856432
_cell_angle_alpha 90.000000
_cell_angle_beta 30.894341
_cell_angle_gamma 90.000000
_cell_volume 828.628438
_symmetry_space_group_name_H-M "P 21/C"
_symmetry_group_IT_number 14
_symmetry_cell_setting 'monoclinic'
loop_
_space_group_symop_operation_xyz
x,y,z
-x,1/2+y,1/2-z
-x,-y,-z
x,1/2-y,1/2+z
loop_
_atom_site_type_symbol
_atom_site_label
_atom_site_fract_x
_atom_site_fract_y
_atom_site_fract_z
Si Si1 0.258738 0.571918 0.204581
Si Si2 0.673172 0.097782 0.105880
Si Si3 0.356830 0.548939 0.594853
Si Si4 0.163141 0.151413 0.510408
Si Si5 0.918775 0.077926 0.692641
O O1 0.156222 0.742142 0.261934
O O2 0.040023 0.441418 0.297473
O O3 0.132080 0.521466 0.178673
O O4 0.653517 0.563864 0.089187
O O5 0.456145 0.091919 0.110538
O O6 0.823366 0.260575 0.087386
O O7 0.440685 0.007559 0.211714
O O8 0.000000 0.000000 0.000000
O O9 0.500000 0.500000 0.500000
O O10 0.555409 0.707706 0.557854
O O11 0.097500 0.075731 0.586650
#
# Coordination Sequence:
#
# PCOD9241408 Si02
#       5
#     4   4   4   4   4
#     4  11  20  38  63 102 134 173 229 273 330 408
#     4   9  19  39  62  93 130 175 214 275 333 395
#     4  10  19  35  65  99 127 177 217 272 335 400
#     4  11  21  40  68  95 136 178 222 282 339 394
#     4  11  22  38  69  99 137 178 225 280 336 405
#
# _framework density 24.13627
#
# number of rings (size 3 to 8) (size 9 to 14) (size 15 to 20)
#    0.000    1.600    8.000    0.600    0.000    0.000 
#    0.000   12.000    4.400    6.000    0.000    0.000 
#    0.000    0.000    0.000    0.000    0.000    0.000 
#
# Total GULP energy -111487.670507 kJ/mol
# GULP energy per Si atom -5574.383525 kJ/mol
# Density = 2.408133 g / cm^3
# Si number density = 24.136270 Si / 1000 Ang^3
#
#
#
# Elastic Constant Matrix: (Units=GPa)
#
#
# Indices 1 2 3 4 5 6 
#
# 1 15.1448 18.6619 21.8380 0.0000 10.1534 0.0000
# 2 18.6619 94.6004 30.4887 0.0000 -8.8341 0.0000
# 3 21.8380 30.4887 206.6422 0.0000 6.2363 0.0000
# 4 0.0000 0.0000 0.0000 46.1085 0.0000 -6.6498
# 5 10.1534 -8.8341 6.2363 0.0000 46.7035 0.0000
# 6 0.0000 0.0000 0.0000 -6.6498 0.0000 44.6385
#
#
#
# Elastic Compliance Matrix: (Units=1/GPa)
#
#
# Indices 1 2 3 4 5 6 
#
# 1 0.134253 -0.026575 -0.009272 0.000000 -0.032975 0.000000
# 2 -0.026575 0.016617 0.000088 0.000000 0.008909 0.000000
# 3 -0.009272 0.000088 0.005768 0.000000 0.001262 0.000000
# 4 0.000000 0.000000 0.000000 0.022164 0.000000 0.003302
# 5 -0.032975 0.008909 0.001262 0.000000 0.030097 0.000000
# 6 0.000000 0.000000 0.000000 0.003302 0.000000 0.022894
#
#
# Mechanical properties :
#
#
# Convention : Reuss Voigt Hill
#
# Bulk Modulus (GPa) = 11.74819 50.92938 31.33878
# Shear Modulus (GPa) = 15.07456 43.85002 29.46229
#
# Velocity S-wave (km/s) = 2.50183 4.26698 3.49759
# Velocity P-wave (km/s) = 3.63642 6.73964 5.41509
#
# Compressibility (1/GPa) = 0.08511952
#
# Stress axis : x y z
#
# Youngs Moduli (GPa) = 7.44864 60.17953 173.36877
#
# Poissons Ratio (x) = 1.59929 1.60741
# Poissons Ratio (y) = 0.19795 -0.01524
# Poissons Ratio (z) = 0.06906 -0.00529
#
# Static dielectric constant tensor:
#      x y z
#    x 2.011960 0.000000 -0.015040 
#    y 0.000000 2.757140 0.000000 
#    z -0.015040 0.000000 2.012200 
# 
# From -- ./inp_files/38598.got.cif
#   From: 2010.05.17/outbox.cif.g08.bks.cpg/sg14_20_cif.got.tgz:38598.got - 2010.06.03 17:49:19.
