data_PCOD9241265
_publ_section_title
;
Structure prediction by ZEFSAII (Michael W. Deem and Ramdas Pophale) SiO2 
 PCOD9241265
Probable space group: P 21/C
;
_chemical_formula_sum "Si O2"
_cell_formula_units_Z 28
_cell_length_a 8.110246
_cell_length_b 12.059416
_cell_length_c 13.629731
_cell_angle_alpha 90.000000
_cell_angle_beta 106.815744
_cell_angle_gamma 90.000000
_cell_volume 1276.052213
_symmetry_space_group_name_H-M "P 21/C"
_symmetry_group_IT_number 14
_symmetry_cell_setting 'monoclinic'
loop_
_space_group_symop_operation_xyz
x,y,z
-x,1/2+y,1/2-z
-x,-y,-z
x,1/2-y,1/2+z
loop_
_atom_site_type_symbol
_atom_site_label
_atom_site_fract_x
_atom_site_fract_y
_atom_site_fract_z
Si Si1 0.156135 0.229003 0.707178
Si Si2 0.315518 0.972341 0.924705
Si Si3 0.263236 0.772661 0.039118
Si Si4 0.959548 0.860668 0.111789
Si Si5 0.465474 0.407151 0.276211
Si Si6 0.778242 0.975360 0.737243
Si Si7 0.116695 0.567135 0.943808
O O1 0.136684 0.210418 0.821818
O O2 0.334201 0.175011 0.700798
O O3 0.171670 0.360163 0.703405
O O4 0.004195 0.160308 0.629869
O O5 0.179121 0.053000 0.954392
O O6 0.339195 0.011264 0.817155
O O7 0.271639 0.846252 0.941256
O O8 0.500000 0.000000 0.000000
O O9 0.411188 0.828963 0.133246
O O10 0.077917 0.793899 0.058038
O O11 0.266865 0.642094 0.018858
O O12 0.093114 0.936390 0.193282
O O13 0.588941 0.482523 0.232755
O O14 0.811153 0.984992 0.626934
O O15 0.000000 0.500000 0.000000
#
# Coordination Sequence:
#
# PCOD9241265 Si02
#       7
#     4   4   4   4   4   4   4
#     4  10  21  39  59  80 116 159 192 239 295 347
#     4   9  17  30  53  86 114 143 191 242 286 340
#     4  10  19  35  58  84 115 148 188 246 294 334
#     4   9  18  34  56  79 110 151 192 230 283 358
#     4   9  21  38  58  86 117 154 199 239 289 360
#     4  10  21  39  60  83 113 158 201 230 291 365
#     4  11  24  39  59  90 119 151 198 248 293 346
#
# _framework density 21.942677
#
# number of rings (size 3 to 8) (size 9 to 14) (size 15 to 20)
#    0.000    2.286    0.000    2.143    0.000    4.571 
#    0.000   10.000    0.000    0.000    0.000    0.000 
#    0.000    0.000    0.000    0.000    0.000    0.000 
#
# Total GULP energy -156216.168825 kJ/mol
# GULP energy per Si atom -5579.148887 kJ/mol
# Density = 2.189273 g / cm^3
# Si number density = 21.942677 Si / 1000 Ang^3
#
#
#
# Elastic Constant Matrix: (Units=GPa)
#
#
# Indices 1 2 3 4 5 6 
#
# 1 78.5526 7.0500 8.8498 0.0000 -9.6323 0.0000
# 2 7.0500 86.4541 20.4500 0.0000 -14.9354 0.0000
# 3 8.8498 20.4500 38.8026 0.0000 -18.8507 0.0000
# 4 0.0000 0.0000 0.0000 17.3286 0.0000 -5.9293
# 5 -9.6323 -14.9354 -18.8507 0.0000 23.4839 0.0000
# 6 0.0000 0.0000 0.0000 -5.9293 0.0000 26.6398
#
#
#
# Elastic Compliance Matrix: (Units=1/GPa)
#
#
# Indices 1 2 3 4 5 6 
#
# 1 0.013415 -0.000095 -0.000600 0.000000 0.004960 0.000000
# 2 -0.000095 0.013527 -0.004831 0.000000 0.004686 0.000000
# 3 -0.000600 -0.004831 0.044001 0.000000 0.032002 0.000000
# 4 0.000000 0.000000 0.000000 0.062465 0.000000 0.013903
# 5 0.004960 0.004686 0.032002 0.000000 0.073285 0.000000
# 6 0.000000 0.000000 0.000000 0.013903 0.000000 0.040632
#
#
# Mechanical properties :
#
#
# Convention : Reuss Voigt Hill
#
# Bulk Modulus (GPa) = 16.69681 30.72322 23.71001
# Shear Modulus (GPa) = 17.96362 24.65443 21.30902
#
# Velocity S-wave (km/s) = 2.86433 3.35563 3.11966
# Velocity P-wave (km/s) = 4.30871 5.38940 4.87907
#
# Compressibility (1/GPa) = 0.05989170
#
# Stress axis : x y z
#
# Youngs Moduli (GPa) = 74.54532 73.92722 22.72674
#
# Poissons Ratio (x) = 0.00704 0.01363
# Poissons Ratio (y) = 0.00709 0.10979
# Poissons Ratio (z) = 0.04469 0.35712
#
# Static dielectric constant tensor:
#      x y z
#    x 1.768590 0.000000 0.007090 
#    y 0.000000 1.826540 0.000000 
#    z 0.007090 0.000000 1.881550 
# 
# From -- ./inp_files/39774.got.cif
#   From: 2010.05.17/outbox.cif.g08.bks.cpg/sg14_20_cif.got.tgz:39774.got - 2010.06.03 17:49:19.
