data_PCOD9241350
_publ_section_title
;
Structure prediction by ZEFSAII (Michael W. Deem and Ramdas Pophale) SiO2 
 PCOD9241350
Probable space group: P 21/C
;
_chemical_formula_sum "Si O2"
_cell_formula_units_Z 32
_cell_length_a 9.381168
_cell_length_b 11.002192
_cell_length_c 18.138909
_cell_angle_alpha 90.000000
_cell_angle_beta 136.451367
_cell_angle_gamma 90.000000
_cell_volume 1289.875000
_symmetry_space_group_name_H-M "P 21/C"
_symmetry_group_IT_number 14
_symmetry_cell_setting 'monoclinic'
loop_
_space_group_symop_operation_xyz
x,y,z
-x,1/2+y,1/2-z
-x,-y,-z
x,1/2-y,1/2+z
loop_
_atom_site_type_symbol
_atom_site_label
_atom_site_fract_x
_atom_site_fract_y
_atom_site_fract_z
Si Si1 0.510453 0.434840 0.256790
Si Si2 0.229011 0.459098 0.926815
Si Si3 0.371558 0.246238 0.084369
Si Si4 0.611420 0.618451 0.634392
Si Si5 0.543197 0.599655 0.129257
Si Si6 0.834046 0.176685 0.248048
Si Si7 0.045648 0.611917 0.597476
Si Si8 0.823055 0.437434 0.604433
O O1 0.408893 0.330412 0.168737
O O2 0.383544 0.441931 0.283413
O O3 0.530745 0.547755 0.207649
O O4 0.742984 0.396818 0.368022
O O5 0.305372 0.472439 0.871036
O O6 0.989264 0.423579 0.841113
O O7 0.338227 0.338483 0.003226
O O8 0.317943 0.570057 0.008247
O O9 0.584009 0.173134 0.153063
O O10 0.166257 0.165486 0.014548
O O11 0.615319 0.762375 0.649731
O O12 0.771261 0.553647 0.638597
O O13 0.389658 0.593807 0.514362
O O14 0.890748 0.170567 0.183189
O O15 0.890516 0.298316 0.312167
O O16 0.990707 0.481186 0.609636
#
# Coordination Sequence:
#
# PCOD9241350 Si02
#       8
#     4   4   4   4   4   4   4   4
#     4  10  23  40  63  90 121 163 205 247 307 373
#     4   9  18  35  63  94 121 159 213 258 301 366
#     4   9  18  36  61  88 123 162 199 253 313 361
#     4  11  24  41  62  91 127 163 201 255 310 362
#     4  10  20  39  63  91 126 162 206 256 304 362
#     4  10  19  35  61  89 119 157 201 250 306 359
#     4  10  21  39  62  90 122 160 205 254 306 363
#     4  11  23  38  59  89 123 160 206 251 303 364
#
# _framework density 24.808603999999999
#
# number of rings (size 3 to 8) (size 9 to 14) (size 15 to 20)
#    0.000    2.000    0.000    4.500    0.000    6.500 
#    0.000    3.750    0.000    6.750    0.000    0.000 
#    0.000    0.000    0.000    0.000    0.000    0.000 
#
# Total GULP energy -178931.828395 kJ/mol
# GULP energy per Si atom -5591.619637 kJ/mol
# Density = 2.475214 g / cm^3
# Si number density = 24.808604 Si / 1000 Ang^3
#
#
#
# Elastic Constant Matrix: (Units=GPa)
#
#
# Indices 1 2 3 4 5 6 
#
# 1 78.3189 28.2456 53.8834 0.0000 9.0798 0.0000
# 2 28.2456 81.5363 36.4643 0.0000 -5.4461 0.0000
# 3 53.8834 36.4643 120.6335 0.0000 15.6797 0.0000
# 4 0.0000 0.0000 0.0000 29.6299 0.0000 -7.1184
# 5 9.0798 -5.4461 15.6797 0.0000 48.7453 0.0000
# 6 0.0000 0.0000 0.0000 -7.1184 0.0000 20.1318
#
#
#
# Elastic Compliance Matrix: (Units=1/GPa)
#
#
# Indices 1 2 3 4 5 6 
#
# 1 0.019267 -0.003501 -0.007337 0.000000 -0.001620 0.000000
# 2 -0.003501 0.015279 -0.003508 0.000000 0.003488 0.000000
# 3 -0.007337 -0.003508 0.013046 0.000000 -0.003222 0.000000
# 4 0.000000 0.000000 0.000000 0.036883 0.000000 0.013041
# 5 -0.001620 0.003488 -0.003222 0.000000 0.022243 0.000000
# 6 0.000000 0.000000 0.000000 0.013041 0.000000 0.054284
#
#
# Mechanical properties :
#
#
# Convention : Reuss Voigt Hill
#
# Bulk Modulus (GPa) = 52.91170 57.51948 55.21559
# Shear Modulus (GPa) = 25.51113 30.49443 28.00278
#
# Velocity S-wave (km/s) = 3.21022 3.50978 3.36334
# Velocity P-wave (km/s) = 5.92579 6.29765 6.11454
#
# Compressibility (1/GPa) = 0.01889941
#
# Stress axis : x y z
#
# Youngs Moduli (GPa) = 51.90312 65.44879 76.65285
#
# Poissons Ratio (x) = 0.22916 0.56240
# Poissons Ratio (y) = 0.18173 0.26889
# Poissons Ratio (z) = 0.38081 0.22958
#
# Static dielectric constant tensor:
#      x y z
#    x 1.936110 0.000000 -0.002480 
#    y 0.000000 2.006520 0.000000 
#    z -0.002480 0.000000 1.987850 
# 
# From -- ./inp_files/57729.got.cif
#   From: 2010.05.17/outbox.cif.g08.bks.cpg/sg14_29_cif.got.tgz:57729.got - 2010.06.03 17:49:19.
