data_PCOD9241900
_publ_section_title
;
Structure prediction by ZEFSAII (Michael W. Deem and Ramdas Pophale) SiO2 
 PCOD9241900
Probable space group: P 21/C
;
_chemical_formula_sum "Si O2"
_cell_formula_units_Z 28
_cell_length_a 8.719378
_cell_length_b 6.302136
_cell_length_c 26.464837
_cell_angle_alpha 90.000000
_cell_angle_beta 48.955547
_cell_angle_gamma 90.000000
_cell_volume 1096.804513
_symmetry_space_group_name_H-M "P 21/C"
_symmetry_group_IT_number 14
_symmetry_cell_setting 'monoclinic'
loop_
_space_group_symop_operation_xyz
x,y,z
-x,1/2+y,1/2-z
-x,-y,-z
x,1/2-y,1/2+z
loop_
_atom_site_type_symbol
_atom_site_label
_atom_site_fract_x
_atom_site_fract_y
_atom_site_fract_z
Si Si1 0.468083 0.246484 0.629972
Si Si2 0.163674 0.813022 0.769444
Si Si3 0.771119 0.871121 0.585633
Si Si4 0.321894 0.517373 0.331286
Si Si5 0.762413 0.109022 0.853623
Si Si6 0.163826 0.039682 0.625225
Si Si7 0.073761 0.224257 0.549570
O O1 0.506477 0.348290 0.676533
O O2 0.434448 0.457321 0.602832
O O3 0.636485 0.063094 0.591627
O O4 0.269673 0.123184 0.653658
O O5 0.318895 0.932474 0.772781
O O6 0.238724 0.728602 0.699982
O O7 0.072392 0.601048 0.816266
O O8 0.970111 0.971952 0.808329
O O9 0.677320 0.721671 0.648709
O O10 0.830234 0.726748 0.525008
O O11 0.965369 0.994852 0.565264
O O12 0.102138 0.611146 0.397367
O O13 0.783493 0.293697 0.890131
O O14 0.224847 0.179507 0.563412
#
# Coordination Sequence:
#
# PCOD9241900 Si02
#       7
#     4   4   4   4   4   4   4
#     4  10  23  37  55  84 126 153 192 240 304 357
#     4  10  21  36  62  83 106 149 206 240 303 355
#     4  10  19  38  59  87 120 155 198 247 294 367
#     4  10  20  39  58  85 116 156 192 252 295 360
#     4  11  20  39  58  83 111 154 194 254 295 358
#     4  10  20  38  57  84 118 149 194 254 293 356
#     4   9  20  35  62  88 113 156 203 242 302 354
#
# _framework density 25.528707000000001
#
# number of rings (size 3 to 8) (size 9 to 14) (size 15 to 20)
#    0.000    2.000    1.429    2.143    0.000    0.571 
#    2.571    1.429    0.000    0.000    0.000    0.000 
#    0.000    0.000    0.000    0.000    0.000    0.000 
#
# Total GULP energy -156246.409240 kJ/mol
# GULP energy per Si atom -5580.228901 kJ/mol
# Density = 2.547060 g / cm^3
# Si number density = 25.528707 Si / 1000 Ang^3
#
#
#
# Elastic Constant Matrix: (Units=GPa)
#
#
# Indices 1 2 3 4 5 6 
#
# 1 135.0445 52.3626 28.1181 0.0000 16.5786 0.0000
# 2 52.3626 124.7734 31.0673 0.0000 -4.3682 0.0000
# 3 28.1181 31.0673 56.6018 0.0000 14.5047 0.0000
# 4 0.0000 0.0000 0.0000 31.5907 0.0000 -4.8307
# 5 16.5786 -4.3682 14.5047 0.0000 24.9607 0.0000
# 6 0.0000 0.0000 0.0000 -4.8307 0.0000 51.1594
#
#
#
# Elastic Compliance Matrix: (Units=1/GPa)
#
#
# Indices 1 2 3 4 5 6 
#
# 1 0.010092 -0.004252 -0.000906 0.000000 -0.006920 0.000000
# 2 -0.004252 0.011735 -0.006555 0.000000 0.008687 0.000000
# 3 -0.000906 -0.006555 0.025679 0.000000 -0.015467 0.000000
# 4 0.000000 0.000000 0.000000 0.032119 0.000000 0.003033
# 5 -0.006920 0.008687 -0.015467 0.000000 0.055168 0.000000
# 6 0.000000 0.000000 0.000000 0.003033 0.000000 0.019833
#
#
# Mechanical properties :
#
#
# Convention : Reuss Voigt Hill
#
# Bulk Modulus (GPa) = 41.52848 59.94620 50.73734
# Shear Modulus (GPa) = 26.87044 35.20025 31.03534
#
# Velocity S-wave (km/s) = 3.24783 3.71731 3.49048
# Velocity P-wave (km/s) = 5.51065 6.47746 6.01351
#
# Compressibility (1/GPa) = 0.02407986
#
# Stress axis : x y z
#
# Youngs Moduli (GPa) = 99.09005 85.21457 38.94241
#
# Poissons Ratio (x) = 0.36231 0.03529
# Poissons Ratio (y) = 0.42131 0.25527
# Poissons Ratio (z) = 0.08980 0.55858
#
# Static dielectric constant tensor:
#      x y z
#    x 2.072260 0.000000 0.011790 
#    y 0.000000 2.071900 0.000000 
#    z 0.011790 0.000000 2.042700 
# 
# From -- ./inp_files/79071.got.cif
#   From: 2010.05.17/outbox.cif.g08.bks.cpg/sg14_40_cif.got.tgz:79071.got - 2010.06.03 17:49:19.
