data_PCOD9241784
_publ_section_title
;
Structure prediction by ZEFSAII (Michael W. Deem and Ramdas Pophale) SiO2 
 PCOD9241784
Probable space group: P 21/C
;
_chemical_formula_sum "Si O2"
_cell_formula_units_Z 32
_cell_length_a 17.611953
_cell_length_b 7.834606
_cell_length_c 22.080262
_cell_angle_alpha 90.000000
_cell_angle_beta 29.648793
_cell_angle_gamma 90.000000
_cell_volume 1507.145353
_symmetry_space_group_name_H-M "P 21/C"
_symmetry_group_IT_number 14
_symmetry_cell_setting 'monoclinic'
loop_
_space_group_symop_operation_xyz
x,y,z
-x,1/2+y,1/2-z
-x,-y,-z
x,1/2-y,1/2+z
loop_
_atom_site_type_symbol
_atom_site_label
_atom_site_fract_x
_atom_site_fract_y
_atom_site_fract_z
Si Si1 0.196229 0.658835 0.168622
Si Si2 0.193391 0.612916 0.502095
Si Si3 0.719790 0.637409 0.349583
Si Si4 0.565245 0.265605 0.084961
Si Si5 0.051598 0.503779 0.720325
Si Si6 0.436756 0.595249 0.635907
Si Si7 0.137114 0.065091 0.818238
Si Si8 0.336208 0.564538 0.278077
O O1 0.089370 0.814526 0.223060
O O2 0.170148 0.600269 0.254170
O O3 0.124291 0.510125 0.176587
O O4 0.365831 0.703597 0.029953
O O5 0.286096 0.757875 0.474044
O O6 0.146127 0.490788 0.591308
O O7 0.308632 0.563888 0.368798
O O8 0.031218 0.637683 0.580048
O O9 0.875665 0.619122 0.280243
O O10 0.583133 0.648895 0.493215
O O11 0.685521 0.476739 0.328960
O O12 0.741254 0.797434 0.291099
O O13 0.487758 0.077168 0.137277
O O14 0.462163 0.423047 0.174802
O O15 0.381047 0.751347 0.717201
O O16 0.181188 0.008553 0.854429
#
# Coordination Sequence:
#
# PCOD9241784 Si02
#       8
#     4   4   4   4   4   4   4   4
#     4  10  20  36  62  92 128 160 212 272 334 380
#     4  10  24  43  65  90 135 175 223 263 312 396
#     4  11  20  38  66  93 133 157 213 279 330 377
#     4  11  23  45  63  98 129 167 217 274 320 391
#     4  10  19  37  62  91 124 169 210 270 328 385
#     4  11  24  39  67  99 129 167 211 277 327 384
#     4  11  23  42  68  97 129 175 214 273 329 384
#     4  12  26  42  70  91 132 181 217 258 330 385
#
# _framework density 21.232192999999999
#
# number of rings (size 3 to 8) (size 9 to 14) (size 15 to 20)
#    0.000    1.250    3.750    4.125    3.500    1.000 
#    0.000    0.625    5.500    0.000    0.000    0.000 
#    0.000    0.000    0.000    0.000    0.000    0.000 
#
# Total GULP energy -178427.468646 kJ/mol
# GULP energy per Si atom -5575.858395 kJ/mol
# Density = 2.118387 g / cm^3
# Si number density = 21.232193 Si / 1000 Ang^3
#
#
#
# Elastic Constant Matrix: (Units=GPa)
#
#
# Indices 1 2 3 4 5 6 
#
# 1 81.8250 10.8787 21.3635 0.0000 5.3848 0.0000
# 2 10.8787 96.2423 33.2578 0.0000 7.1203 0.0000
# 3 21.3635 33.2578 52.4241 0.0000 5.1148 0.0000
# 4 0.0000 0.0000 0.0000 20.4570 0.0000 -7.6612
# 5 5.3848 7.1203 5.1148 0.0000 35.8871 0.0000
# 6 0.0000 0.0000 0.0000 -7.6612 0.0000 23.8582
#
#
#
# Elastic Compliance Matrix: (Units=1/GPa)
#
#
# Indices 1 2 3 4 5 6 
#
# 1 0.013757 0.000559 -0.005830 0.000000 -0.001344 0.000000
# 2 0.000559 0.013406 -0.008584 0.000000 -0.001520 0.000000
# 3 -0.005830 -0.008584 0.027021 0.000000 -0.001273 0.000000
# 4 0.000000 0.000000 0.000000 0.055565 0.000000 0.017843
# 5 -0.001344 -0.001520 -0.001273 0.000000 0.028550 0.000000
# 6 0.000000 0.000000 0.000000 0.017843 0.000000 0.047644
#
#
# Mechanical properties :
#
#
# Convention : Reuss Voigt Hill
#
# Bulk Modulus (GPa) = 37.77245 40.16572 38.96908
# Shear Modulus (GPa) = 22.47406 27.03988 24.75697
#
# Velocity S-wave (km/s) = 3.25697 3.57253 3.41839
# Velocity P-wave (km/s) = 5.65444 5.99798 5.82874
#
# Compressibility (1/GPa) = 0.02647432
#
# Stress axis : x y z
#
# Youngs Moduli (GPa) = 72.68797 74.59255 37.00827
#
# Poissons Ratio (x) = -0.04169 0.21575
# Poissons Ratio (y) = -0.04063 0.31769
# Poissons Ratio (z) = 0.42375 0.64033
#
# Static dielectric constant tensor:
#      x y z
#    x 1.821910 0.000000 -0.056840 
#    y 0.000000 1.846910 0.000000 
#    z -0.056840 0.000000 1.763650 
# 
# From -- ./inp_files/69137.got.cif
#   From: 2010.05.17/outbox.cif.g08.bks.cpg/sg14_35_cif.got.tgz:69137.got - 2010.06.03 17:49:19.
