data_PCOD9241239
_publ_section_title
;
Structure prediction by ZEFSAII (Michael W. Deem and Ramdas Pophale) SiO2 
 PCOD9241239
Probable space group: P 21/C
;
_chemical_formula_sum "Si O2"
_cell_formula_units_Z 24
_cell_length_a 22.565656
_cell_length_b 13.308755
_cell_length_c 11.555943
_cell_angle_alpha 90.000000
_cell_angle_beta 20.499712
_cell_angle_gamma 90.000000
_cell_volume 1215.374839
_symmetry_space_group_name_H-M "P 21/C"
_symmetry_group_IT_number 14
_symmetry_cell_setting 'monoclinic'
loop_
_space_group_symop_operation_xyz
x,y,z
-x,1/2+y,1/2-z
-x,-y,-z
x,1/2-y,1/2+z
loop_
_atom_site_type_symbol
_atom_site_label
_atom_site_fract_x
_atom_site_fract_y
_atom_site_fract_z
Si Si1 0.131303 0.683361 0.574300
Si Si2 0.069364 0.381775 0.250965
Si Si3 0.850522 0.932739 0.721079
Si Si4 0.398197 0.582659 0.259203
Si Si5 0.007731 0.892558 0.837569
Si Si6 0.268542 0.313981 0.336600
O O1 0.272305 0.633488 0.396326
O O2 0.108958 0.655322 0.480542
O O3 0.136504 0.802281 0.578162
O O4 0.950328 0.640568 0.952701
O O5 0.054665 0.382499 0.416336
O O6 0.085316 0.497061 0.181774
O O7 0.212275 0.301597 0.952863
O O8 0.773293 0.863087 0.962470
O O9 0.000000 0.000000 0.500000
O O10 0.708746 0.017108 0.952271
O O11 0.500000 0.500000 0.000000
O O12 0.537243 0.661706 0.048894
O O13 0.853792 0.870874 0.030709
#
# Coordination Sequence:
#
# PCOD9241239 Si02
#       6
#     4   4   4   4   4   4
#     4  10  19  35  59  83 106 145 195 226 266 335
#     4  10  20  35  58  79 113 149 186 220 277 338
#     4   9  16  30  56  82 103 132 187 231 261 314
#     4   9  18  32  56  84 110 135 182 239 280 306
#     4  10  20  35  58  80 111 154 184 223 275 342
#     4  10  19  35  57  82 109 143 185 234 278 321
#
# _framework density 19.746994999999998
#
# number of rings (size 3 to 8) (size 9 to 14) (size 15 to 20)
#    0.000    2.333    1.667    3.000    0.000    0.000 
#    0.000    2.500   14.667    0.000    0.000    0.000 
#    0.000    0.000    0.000    0.000    0.000    0.000 
#
# Total GULP energy -133637.710841 kJ/mol
# GULP energy per Si atom -5568.237952 kJ/mol
# Density = 1.970205 g / cm^3
# Si number density = 19.746995 Si / 1000 Ang^3
#
#
#
# Elastic Constant Matrix: (Units=GPa)
#
#
# Indices 1 2 3 4 5 6 
#
# 1 78.4488 33.5161 22.2832 0.0000 -9.4702 0.0000
# 2 33.5161 172.4828 41.8850 0.0000 -15.8855 0.0000
# 3 22.2832 41.8850 64.4951 0.0000 -18.4964 0.0000
# 4 0.0000 0.0000 0.0000 29.4164 0.0000 -3.5839
# 5 -9.4702 -15.8855 -18.4964 0.0000 23.1302 0.0000
# 6 0.0000 0.0000 0.0000 -3.5839 0.0000 33.1781
#
#
#
# Elastic Compliance Matrix: (Units=1/GPa)
#
#
# Indices 1 2 3 4 5 6 
#
# 1 0.014732 -0.001874 -0.003260 0.000000 0.002138 0.000000
# 2 -0.001874 0.007162 -0.003650 0.000000 0.001232 0.000000
# 3 -0.003260 -0.003650 0.023227 0.000000 0.014732 0.000000
# 4 0.000000 0.000000 0.000000 0.034448 0.000000 0.003721
# 5 0.002138 0.001232 0.014732 0.000000 0.056736 0.000000
# 6 0.000000 0.000000 0.000000 0.003721 0.000000 0.030542
#
#
# Mechanical properties :
#
#
# Convention : Reuss Voigt Hill
#
# Bulk Modulus (GPa) = 36.29427 56.75504 46.52465
# Shear Modulus (GPa) = 25.82664 31.66111 28.74387
#
# Velocity S-wave (km/s) = 3.62038 4.00851 3.81938
# Velocity P-wave (km/s) = 5.99131 7.08715 6.56215
#
# Compressibility (1/GPa) = 0.02755256
#
# Stress axis : x y z
#
# Youngs Moduli (GPa) = 67.88016 139.63105 43.05389
#
# Poissons Ratio (x) = 0.26169 0.14034
# Poissons Ratio (y) = 0.12722 0.15715
# Poissons Ratio (z) = 0.22126 0.50966
#
# Static dielectric constant tensor:
#      x y z
#    x 1.793930 0.000000 0.071420 
#    y 0.000000 1.738270 0.000000 
#    z 0.071420 0.000000 1.749970 
# 
# From -- ./inp_files/35963.got.cif
#   From: 2010.05.17/outbox.cif.g08.bks.cpg/sg14_18_cif.got.tgz:35963.got - 2010.06.03 17:49:19.
