data_PCOD9241887
_publ_section_title
;
Structure prediction by ZEFSAII (Michael W. Deem and Ramdas Pophale) SiO2 
 PCOD9241887
Probable space group: P 21/C
;
_chemical_formula_sum "Si O2"
_cell_formula_units_Z 26
_cell_length_a 13.735382
_cell_length_b 6.896277
_cell_length_c 24.303838
_cell_angle_alpha 90.000000
_cell_angle_beta 29.905847
_cell_angle_gamma 90.000000
_cell_volume 1147.788443
_symmetry_space_group_name_H-M "P 21/C"
_symmetry_group_IT_number 14
_symmetry_cell_setting 'monoclinic'
loop_
_space_group_symop_operation_xyz
x,y,z
-x,1/2+y,1/2-z
-x,-y,-z
x,1/2-y,1/2+z
loop_
_atom_site_type_symbol
_atom_site_label
_atom_site_fract_x
_atom_site_fract_y
_atom_site_fract_z
Si Si1 0.500000 0.000000 0.000000
Si Si2 0.400224 0.097034 0.618808
Si Si3 0.719070 0.575688 0.117421
Si Si4 0.896239 0.302094 0.121526
Si Si5 0.157948 0.714184 0.728104
Si Si6 0.697584 0.778431 0.447471
Si Si7 0.691636 0.582701 0.717106
O O1 0.278618 0.909283 0.126153
O O2 0.403898 0.082687 0.984116
O O3 0.238179 0.934456 0.684008
O O4 0.598728 0.971460 0.519569
O O5 0.343669 0.174571 0.705581
O O6 0.401512 0.246186 0.567110
O O7 0.787009 0.398668 0.123239
O O8 0.506688 0.535971 0.197614
O O9 0.718390 0.759338 0.157790
O O10 0.882546 0.621774 0.991814
O O11 0.814396 0.349972 0.221869
O O12 0.868115 0.070539 0.131442
O O13 0.926093 0.711536 0.832860
#
# Coordination Sequence:
#
# PCOD9241887 Si02
#       7
#     2   4   4   4   4   4   4
#     4  10  22  34  62  90 118 156 214 238 302 380
#     4   9  21  35  57  85 120 159 200 248 308 362
#     4  11  22  39  64  88 122 164 204 262 308 366
#     4  10  23  40  61  90 124 159 211 253 311 369
#     4  10  20  38  60  85 122 161 196 256 304 369
#     4  10  19  38  58  86 125 160 195 255 303 372
#     4  11  21  40  62  90 122 165 206 260 313 365
#
# _framework density 22.652258
#
# number of rings (size 3 to 8) (size 9 to 14) (size 15 to 20)
#    0.000    1.846    1.538    2.308    2.154    0.000 
#    0.000    0.000    6.769    0.000    0.000    0.000 
#    0.000    0.000    0.000    0.000    0.000    0.000 
#
# Total GULP energy -144908.543036 kJ/mol
# GULP energy per Si atom -5573.405501 kJ/mol
# Density = 2.260070 g / cm^3
# Si number density = 22.652258 Si / 1000 Ang^3
#
#
#
# Elastic Constant Matrix: (Units=GPa)
#
#
# Indices 1 2 3 4 5 6 
#
# 1 43.6814 5.5676 14.2202 0.0000 20.5120 0.0000
# 2 5.5676 66.9719 20.7293 0.0000 16.7709 0.0000
# 3 14.2202 20.7293 122.0097 0.0000 -2.0344 0.0000
# 4 0.0000 0.0000 0.0000 29.7475 0.0000 7.9589
# 5 20.5120 16.7709 -2.0344 0.0000 45.9325 0.0000
# 6 0.0000 0.0000 0.0000 7.9589 0.0000 10.6958
#
#
#
# Elastic Compliance Matrix: (Units=1/GPa)
#
#
# Indices 1 2 3 4 5 6 
#
# 1 0.030983 0.002490 -0.004283 0.000000 -0.014935 0.000000
# 2 0.002490 0.017723 -0.003430 0.000000 -0.007735 0.000000
# 3 -0.004283 -0.003430 0.009338 0.000000 0.003579 0.000000
# 4 0.000000 0.000000 0.000000 0.041973 0.000000 -0.031232
# 5 -0.014935 -0.007735 0.003579 0.000000 0.031423 0.000000
# 6 0.000000 0.000000 0.000000 -0.031232 0.000000 0.116735
#
#
# Mechanical properties :
#
#
# Convention : Reuss Voigt Hill
#
# Bulk Modulus (GPa) = 21.00962 34.85526 27.93244
# Shear Modulus (GPa) = 18.21573 30.08488 24.15031
#
# Velocity S-wave (km/s) = 2.83882 3.64829 3.26871
# Velocity P-wave (km/s) = 4.47663 5.75910 5.15788
#
# Compressibility (1/GPa) = 0.04759724
#
# Stress axis : x y z
#
# Youngs Moduli (GPa) = 32.27551 56.42265 107.09210
#
# Poissons Ratio (x) = -0.14049 0.45869
# Poissons Ratio (y) = -0.08036 0.36736
# Poissons Ratio (z) = 0.13824 0.19355
#
# Static dielectric constant tensor:
#      x y z
#    x 1.896700 0.000000 -0.011620 
#    y 0.000000 2.057270 0.000000 
#    z -0.011620 0.000000 1.825920 
# 
# From -- ./inp_files/31329.got.cif
#   From: 2010.05.17/outbox.cif.g08.bks.cpg/sg14_16_cif.got.tgz:31329.got - 2010.06.03 17:49:19.
