data_PCOD9241318
_publ_section_title
;
Structure prediction by ZEFSAII (Michael W. Deem and Ramdas Pophale) SiO2 
 PCOD9241318
Probable space group: P 21/C
;
_chemical_formula_sum "Si O2"
_cell_formula_units_Z 28
_cell_length_a 16.822227
_cell_length_b 18.798168
_cell_length_c 11.793912
_cell_angle_alpha 90.000000
_cell_angle_beta 160.950684
_cell_angle_gamma 90.000000
_cell_volume 1217.258794
_symmetry_space_group_name_H-M "P 21/C"
_symmetry_group_IT_number 14
_symmetry_cell_setting 'monoclinic'
loop_
_space_group_symop_operation_xyz
x,y,z
-x,1/2+y,1/2-z
-x,-y,-z
x,1/2-y,1/2+z
loop_
_atom_site_type_symbol
_atom_site_label
_atom_site_fract_x
_atom_site_fract_y
_atom_site_fract_z
Si Si1 0.402349 0.347703 0.841042
Si Si2 0.350030 0.442628 0.988029
Si Si3 0.079486 0.215820 0.466551
Si Si4 0.288020 0.675368 0.106353
Si Si5 0.804759 0.097872 0.734839
Si Si6 0.431123 0.346557 0.292509
Si Si7 0.247828 0.203205 0.917441
O O1 0.412827 0.405932 0.953051
O O2 0.299629 0.275245 0.758482
O O3 0.219216 0.349643 0.484910
O O4 0.661191 0.348198 0.123819
O O5 0.359390 0.527103 0.991103
O O6 0.068780 0.422677 0.636449
O O7 0.488640 0.407678 0.280153
O O8 0.187942 0.149018 0.545034
O O9 0.031164 0.210205 0.535177
O O10 0.849965 0.249535 0.093672
O O11 0.356622 0.658909 0.327397
O O12 0.540769 0.673804 0.377650
O O13 0.144126 0.624366 0.824417
O O14 0.351437 0.277101 0.109649
#
# Coordination Sequence:
#
# PCOD9241318 Si02
#       7
#     4   4   4   4   4   4   4
#     4  10  19  35  60  82 113 142 191 236 277 335
#     4  11  21  39  59  83 115 151 197 234 284 338
#     4  10  19  36  59  81 117 147 183 235 289 343
#     4  10  20  36  56  84 111 151 189 230 290 338
#     4  10  22  37  61  82 109 158 196 236 279 336
#     4  10  21  34  56  85 114 150 183 238 290 339
#     4   9  19  33  54  82 110 141 184 229 285 338
#
# _framework density 23.002503000000001
#
# number of rings (size 3 to 8) (size 9 to 14) (size 15 to 20)
#    0.000    2.000    2.857    0.429    0.000    7.429 
#    0.000    0.000    0.000    0.857    0.000    0.000 
#    0.000    0.000    0.000    0.000    0.000    0.000 
#
# Total GULP energy -155983.455614 kJ/mol
# GULP energy per Si atom -5570.837700 kJ/mol
# Density = 2.295015 g / cm^3
# Si number density = 23.002503 Si / 1000 Ang^3
#
#
#
# Elastic Constant Matrix: (Units=GPa)
#
#
# Indices 1 2 3 4 5 6 
#
# 1 150.7436 28.6219 37.0523 0.0000 -26.0165 0.0000
# 2 28.6219 41.9605 2.3206 0.0000 -8.2653 0.0000
# 3 37.0523 2.3206 69.1804 0.0000 -33.0411 0.0000
# 4 0.0000 0.0000 0.0000 21.0093 0.0000 1.6932
# 5 -26.0165 -8.2653 -33.0411 0.0000 48.5276 0.0000
# 6 0.0000 0.0000 0.0000 1.6932 0.0000 25.7115
#
#
#
# Elastic Compliance Matrix: (Units=1/GPa)
#
#
# Indices 1 2 3 4 5 6 
#
# 1 0.008883 -0.005631 -0.004078 0.000000 0.001026 0.000000
# 2 -0.005631 0.028373 0.004343 0.000000 0.004770 0.000000
# 3 -0.004078 0.004343 0.023418 0.000000 0.014498 0.000000
# 4 0.000000 0.000000 0.000000 0.047852 0.000000 -0.003151
# 5 0.001026 0.004770 0.014498 0.000000 0.031840 0.000000
# 6 0.000000 0.000000 0.000000 -0.003151 0.000000 0.039101
#
#
# Mechanical properties :
#
#
# Convention : Reuss Voigt Hill
#
# Bulk Modulus (GPa) = 20.02451 44.20822 32.11636
# Shear Modulus (GPa) = 24.17252 31.97567 28.07409
#
# Velocity S-wave (km/s) = 3.24522 3.73244 3.49733
# Velocity P-wave (km/s) = 4.77139 6.15105 5.50462
#
# Compressibility (1/GPa) = 0.04993881
#
# Stress axis : x y z
#
# Youngs Moduli (GPa) = 112.58024 35.24528 42.70237
#
# Poissons Ratio (x) = 0.19848 0.17416
# Poissons Ratio (y) = 0.63397 -0.18544
# Poissons Ratio (z) = 0.45915 -0.15306
#
# Static dielectric constant tensor:
#      x y z
#    x 1.960950 0.000000 -0.009100 
#    y 0.000000 1.906470 0.000000 
#    z -0.009100 0.000000 2.023400 
# 
# From -- ./inp_files/34440.got.cif
#   From: 2010.05.17/outbox.cif.g08.bks.cpg/sg14_18_cif.got.tgz:34440.got - 2010.06.03 17:49:19.
