data_PCOD9241927
_publ_section_title
;
Structure prediction by ZEFSAII (Michael W. Deem and Ramdas Pophale) SiO2 
 PCOD9241927
Probable space group: P 21/C
;
_chemical_formula_sum "Si O2"
_cell_formula_units_Z 28
_cell_length_a 11.821524
_cell_length_b 10.511457
_cell_length_c 12.270086
_cell_angle_alpha 90.000000
_cell_angle_beta 133.203667
_cell_angle_gamma 90.000000
_cell_volume 1111.390622
_symmetry_space_group_name_H-M "P 21/C"
_symmetry_group_IT_number 14
_symmetry_cell_setting 'monoclinic'
loop_
_space_group_symop_operation_xyz
x,y,z
-x,1/2+y,1/2-z
-x,-y,-z
x,1/2-y,1/2+z
loop_
_atom_site_type_symbol
_atom_site_label
_atom_site_fract_x
_atom_site_fract_y
_atom_site_fract_z
Si Si1 0.524777 0.542328 0.178508
Si Si2 0.287826 0.796148 0.476932
Si Si3 0.023342 0.871537 0.789262
Si Si4 0.698058 0.283870 0.262241
Si Si5 0.946885 0.785319 0.520075
Si Si6 0.270716 0.087065 0.000098
Si Si7 0.741868 0.740594 0.210929
O O1 0.348447 0.558424 0.024380
O O2 0.612618 0.418439 0.196797
O O3 0.571289 0.547767 0.335981
O O4 0.602259 0.667155 0.174983
O O5 0.103918 0.768623 0.352738
O O6 0.329897 0.735310 0.383494
O O7 0.343429 0.755576 0.637948
O O8 0.972550 0.886189 0.631717
O O9 0.872088 0.864492 0.763668
O O10 0.161448 0.966691 0.907128
O O11 0.885313 0.274329 0.394363
O O12 0.836784 0.673929 0.493778
O O13 0.840675 0.834833 0.352935
O O14 0.307911 0.176899 0.924052
#
# Coordination Sequence:
#
# PCOD9241927 Si02
#       7
#     4   4   4   4   4   4   4
#     4  11  23  40  63  91 126 170 207 259 321 378
#     4  11  24  40  67  92 127 162 219 257 310 381
#     4  10  19  38  61  88 120 168 206 263 312 372
#     4  11  22  44  67  93 125 169 211 261 317 378
#     4   9  19  35  63  91 121 159 210 261 306 380
#     4  10  20  36  63  90 127 161 209 259 321 366
#     4  10  20  37  60  91 124 160 210 260 308 381
#
# _framework density 25.193662
#
# number of rings (size 3 to 8) (size 9 to 14) (size 15 to 20)
#    0.000    1.714    2.857    1.286    2.000    2.857 
#    0.000    4.286    3.143    0.000    0.000    0.000 
#    0.000    0.000    0.000    0.000    0.000    0.000 
#
# Total GULP energy -155932.557028 kJ/mol
# GULP energy per Si atom -5569.019894 kJ/mol
# Density = 2.513632 g / cm^3
# Si number density = 25.193662 Si / 1000 Ang^3
#
#
#
# Elastic Constant Matrix: (Units=GPa)
#
#
# Indices 1 2 3 4 5 6 
#
# 1 66.6626 -29.5956 74.9145 0.0000 -4.0824 0.0000
# 2 -29.5956 -86.2144 107.3843 0.0000 20.4201 0.0000
# 3 74.9145 107.3843 52.8616 0.0000 -55.9840 0.0000
# 4 0.0000 0.0000 0.0000 35.7424 0.0000 2.2627
# 5 -4.0824 20.4201 -55.9840 0.0000 40.2844 0.0000
# 6 0.0000 0.0000 0.0000 2.2627 0.0000 9.4983
#
#
#
# Elastic Compliance Matrix: (Units=1/GPa)
#
#
# Indices 1 2 3 4 5 6 
#
# 1 0.014604 -0.007942 -0.002688 0.000000 0.001770 0.000000
# 2 -0.007942 0.005876 0.009935 0.000000 0.010023 0.000000
# 3 -0.002688 0.009935 0.006521 0.000000 0.003755 0.000000
# 4 0.000000 0.000000 0.000000 0.028406 0.000000 -0.006767
# 5 0.001770 0.010023 0.003755 0.000000 0.025140 0.000000
# 6 0.000000 0.000000 0.000000 -0.006767 0.000000 0.106894
#
#
# Mechanical properties :
#
#
# Convention : Reuss Voigt Hill
#
# Bulk Modulus (GPa) = 39.04671 37.63513 38.34092
# Shear Modulus (GPa) = 25.33326 9.14547 17.23937
#
# Velocity S-wave (km/s) = 3.17447 1.90734 2.61870
# Velocity P-wave (km/s) = 5.38225 4.45212 4.93913
#
# Compressibility (1/GPa) = 0.02561035
#
# Stress axis : x y z
#
# Youngs Moduli (GPa) = 68.47369 170.19151 153.34082
#
# Poissons Ratio (x) = 1.35169 0.41219
# Poissons Ratio (y) = 0.54383 -1.52341
# Poissons Ratio (z) = 0.18406 -1.69082
#
# Static dielectric constant tensor:
#      x y z
#    x 2.026150 0.000000 -0.100840 
#    y 0.000000 2.005540 0.000000 
#    z -0.100840 0.000000 2.083860 
# 
# From -- ./inp_files/32219.got.cif
#   From: 2010.05.17/outbox.cif.g08.bks.cpg/sg14_17_cif.got.tgz:32219.got - 2010.06.03 17:49:19.
