data_PCOD9241431
_publ_section_title
;
Structure prediction by ZEFSAII (Michael W. Deem and Ramdas Pophale) SiO2 
 PCOD9241431
Probable space group: P 21/C
;
_chemical_formula_sum "Si O2"
_cell_formula_units_Z 26
_cell_length_a 6.888276
_cell_length_b 24.960671
_cell_length_c 7.941474
_cell_angle_alpha 90.000000
_cell_angle_beta 53.078483
_cell_angle_gamma 90.000000
_cell_volume 1091.601629
_symmetry_space_group_name_H-M "P 21/C"
_symmetry_group_IT_number 14
_symmetry_cell_setting 'monoclinic'
loop_
_space_group_symop_operation_xyz
x,y,z
-x,1/2+y,1/2-z
-x,-y,-z
x,1/2-y,1/2+z
loop_
_atom_site_type_symbol
_atom_site_label
_atom_site_fract_x
_atom_site_fract_y
_atom_site_fract_z
Si Si1 0.765121 0.731607 0.806066
Si Si2 0.000000 0.500000 0.000000
Si Si3 0.414222 0.553145 0.828385
Si Si4 0.924566 0.935451 0.880753
Si Si5 0.550125 0.435105 0.802759
Si Si6 0.000130 0.314693 0.631185
Si Si7 0.472419 0.322832 0.754871
O O1 0.999518 0.766283 0.737113
O O2 0.803301 0.698732 0.616220
O O3 0.585137 0.781461 0.862763
O O4 0.689319 0.695334 0.001316
O O5 0.156593 0.559641 0.876019
O O6 0.050995 0.476535 0.783317
O O7 0.661021 0.560273 0.601421
O O8 0.379632 0.487276 0.869742
O O9 0.450476 0.576831 0.995762
O O10 0.953999 0.872874 0.816989
O O11 0.163213 0.946080 0.875673
O O12 0.451422 0.386616 0.744493
O O13 0.746771 0.316392 0.669800
#
# Coordination Sequence:
#
# PCOD9241431 Si02
#       7
#     4   2   4   4   4   4   4
#     4  10  21  36  59  83 112 150 186 233 286 333
#     4  10  22  34  52  82 112 148 180 236 276 336
#     4  10  19  36  56  79 114 146 185 230 280 345
#     4  10  20  36  57  80 113 147 186 230 286 334
#     4   9  20  34  57  80 108 145 186 228 282 332
#     4  10  21  37  60  83 115 149 188 234 286 337
#     4  10  20  37  57  82 114 143 190 233 280 339
#
# _framework density 23.818211999999999
#
# number of rings (size 3 to 8) (size 9 to 14) (size 15 to 20)
#    0.000    2.154    0.000    2.769    2.154    0.000 
#    0.000    0.000    0.000    0.000    0.000    0.000 
#    0.000    0.000    0.000    0.000    0.000    0.000 
#
# Total GULP energy -144737.597946 kJ/mol
# GULP energy per Si atom -5566.830690 kJ/mol
# Density = 2.376400 g / cm^3
# Si number density = 23.818212 Si / 1000 Ang^3
#
#
#
# Elastic Constant Matrix: (Units=GPa)
#
#
# Indices 1 2 3 4 5 6 
#
# 1 34.4814 -6.6898 1.8094 0.0000 0.4815 0.0000
# 2 -6.6898 62.1669 8.1560 0.0000 -1.6636 0.0000
# 3 1.8094 8.1560 83.9261 0.0000 -11.9276 0.0000
# 4 0.0000 0.0000 0.0000 14.5171 0.0000 -10.2509
# 5 0.4815 -1.6636 -11.9276 0.0000 28.2386 0.0000
# 6 0.0000 0.0000 0.0000 -10.2509 0.0000 -109.9388
#
#
#
# Elastic Compliance Matrix: (Units=1/GPa)
#
#
# Indices 1 2 3 4 5 6 
#
# 1 0.029712 0.003317 -0.001072 0.000000 -0.000764 0.000000
# 2 0.003317 0.016666 -0.001659 0.000000 0.000224 0.000000
# 3 -0.001072 -0.001659 0.012860 0.000000 0.005353 0.000000
# 4 0.000000 0.000000 0.000000 0.064629 0.000000 -0.006026
# 5 -0.000764 0.000224 0.005353 0.000000 0.037700 0.000000
# 6 0.000000 0.000000 0.000000 -0.006026 0.000000 -0.008534
#
#
# Mechanical properties :
#
#
# Convention : Reuss Voigt Hill
#
# Bulk Modulus (GPa) = 16.55308 20.79172 18.67240
# Shear Modulus (GPa) = 29.07032 -1.61668 13.72682
#
# Velocity S-wave (km/s) = 3.49737 -0.82476 2.40326
# Velocity P-wave (km/s) = 4.82427 2.80023 3.94429
#
# Compressibility (1/GPa) = 0.06041172
#
# Stress axis : x y z
#
# Youngs Moduli (GPa) = 33.65680 60.00088 77.75867
#
# Poissons Ratio (x) = -0.19905 0.08332
# Poissons Ratio (y) = -0.11165 0.12902
# Poissons Ratio (z) = 0.03606 0.09956
#
# Static dielectric constant tensor:
#      x y z
#    x 1.162640 0.000000 0.311050 
#    y 0.000000 1.901980 0.000000 
#    z 0.311050 0.000000 1.773380 
# 
# From -- ./inp_files/6663.got.cif
#   From: 2010.05.17/outbox.cif.g08.bks.cpg/sg14_4_cif.got.tgz:6663.got - 2010.06.03 17:49:19.
