data_PCOD9241874
_publ_section_title
;
Structure prediction by ZEFSAII (Michael W. Deem and Ramdas Pophale) SiO2 
 PCOD9241874
Probable space group: P 21/C
;
_chemical_formula_sum "Si O2"
_cell_formula_units_Z 20
_cell_length_a 7.381095
_cell_length_b 14.383403
_cell_length_c 11.744912
_cell_angle_alpha 90.000000
_cell_angle_beta 147.916072
_cell_angle_gamma 90.000000
_cell_volume 662.305461
_symmetry_space_group_name_H-M "P 21/C"
_symmetry_group_IT_number 14
_symmetry_cell_setting 'monoclinic'
loop_
_space_group_symop_operation_xyz
x,y,z
-x,1/2+y,1/2-z
-x,-y,-z
x,1/2-y,1/2+z
loop_
_atom_site_type_symbol
_atom_site_label
_atom_site_fract_x
_atom_site_fract_y
_atom_site_fract_z
Si Si1 0.166541 0.910143 0.010978
Si Si2 0.971939 0.059757 0.760876
Si Si3 0.092054 0.249664 0.769309
Si Si4 0.081389 0.230984 0.514978
Si Si5 0.706986 0.448202 0.748165
O O1 0.078755 0.835120 0.060340
O O2 0.525564 0.962873 0.211679
O O3 0.109975 0.842825 0.871276
O O4 0.901387 0.993426 0.832236
O O5 0.982963 0.993299 0.657001
O O6 0.841529 0.160522 0.657217
O O7 0.378143 0.079813 0.996593
O O8 0.260561 0.227928 0.734556
O O9 0.243550 0.270005 0.975470
O O10 0.821146 0.144068 0.373953
#
# Coordination Sequence:
#
# PCOD9241874 Si02
#       5
#     4   4   4   4   4
#     4   8  19  35  56  79 118 138 188 234 273 324
#     4   9  17  35  59  78 112 154 180 228 280 339
#     4  10  20  35  57  83 114 144 186 235 279 326
#     4  10  19  38  57  82 115 147 188 235 273 339
#     4   9  16  38  58  75 113 156 185 214 290 338
#
# _framework density 30.197545000000002
#
# number of rings (size 3 to 8) (size 9 to 14) (size 15 to 20)
#    2.400    0.400    2.000    0.000    0.000    1.600 
#    3.600    1.000    0.000    0.000    0.000    0.000 
#    0.000    0.000    0.000    0.000    0.000    0.000 
#
# Total GULP energy -111368.216909 kJ/mol
# GULP energy per Si atom -5568.410845 kJ/mol
# Density = 3.012881 g / cm^3
# Si number density = 30.197545 Si / 1000 Ang^3
#
#
#
# Elastic Constant Matrix: (Units=GPa)
#
#
# Indices 1 2 3 4 5 6 
#
# 1 88.0447 20.0524 66.6152 0.0000 -39.2402 0.0000
# 2 20.0524 236.5006 44.4639 0.0000 11.2889 0.0000
# 3 66.6152 44.4639 175.3498 0.0000 -43.7083 0.0000
# 4 0.0000 0.0000 0.0000 33.6846 0.0000 -8.3274
# 5 -39.2402 11.2889 -43.7083 0.0000 44.8639 0.0000
# 6 0.0000 0.0000 0.0000 -8.3274 0.0000 56.6711
#
#
#
# Elastic Compliance Matrix: (Units=1/GPa)
#
#
# Indices 1 2 3 4 5 6 
#
# 1 0.021690 -0.001862 -0.003860 0.000000 0.015680 0.000000
# 2 -0.001862 0.004911 -0.001653 0.000000 -0.004475 0.000000
# 3 -0.003860 -0.001653 0.009048 0.000000 0.005855 0.000000
# 4 0.000000 0.000000 0.000000 0.030806 0.000000 0.004527
# 5 0.015680 -0.004475 0.005855 0.000000 0.042834 0.000000
# 6 0.000000 0.000000 0.000000 0.004527 0.000000 0.018311
#
#
# Mechanical properties :
#
#
# Convention : Reuss Voigt Hill
#
# Bulk Modulus (GPa) = 47.84872 84.68424 66.26648
# Shear Modulus (GPa) = 33.48603 51.62814 42.55709
#
# Velocity S-wave (km/s) = 3.33363 4.13931 3.75812
# Velocity P-wave (km/s) = 5.54049 7.13789 6.38931
#
# Compressibility (1/GPa) = 0.02089920
#
# Stress axis : x y z
#
# Youngs Moduli (GPa) = 46.10337 203.64065 110.52413
#
# Poissons Ratio (x) = 0.37916 0.42658
# Poissons Ratio (y) = 0.08584 0.18273
# Poissons Ratio (z) = 0.17794 0.33667
#
# Static dielectric constant tensor:
#      x y z
#    x 2.408490 0.000000 -0.125650 
#    y 0.000000 2.466610 0.000000 
#    z -0.125650 0.000000 2.381470 
# 
# From -- ./inp_files/24666.got.cif
#   From: 2010.05.17/outbox.cif.g08.bks.cpg/sg14_13_cif.got.tgz:24666.got - 2010.06.03 17:49:19.
