data_PCOD9241023
_publ_section_title
;
Structure prediction by ZEFSAII (Michael W. Deem and Ramdas Pophale) SiO2 
 PCOD9241023
Probable space group: P 21/C
;
_chemical_formula_sum "Si O2"
_cell_formula_units_Z 28
_cell_length_a 29.073763
_cell_length_b 8.811699
_cell_length_c 15.959531
_cell_angle_alpha 90.000000
_cell_angle_beta 163.729977
_cell_angle_gamma 90.000000
_cell_volume 1145.497467
_symmetry_space_group_name_H-M "P 21/C"
_symmetry_group_IT_number 14
_symmetry_cell_setting 'monoclinic'
loop_
_space_group_symop_operation_xyz
x,y,z
-x,1/2+y,1/2-z
-x,-y,-z
x,1/2-y,1/2+z
loop_
_atom_site_type_symbol
_atom_site_label
_atom_site_fract_x
_atom_site_fract_y
_atom_site_fract_z
Si Si1 0.173470 0.960674 0.212023
Si Si2 0.611463 0.534655 0.616307
Si Si3 0.979814 0.673155 0.799627
Si Si4 0.152304 0.867545 0.355091
Si Si5 0.277419 0.192918 0.282950
Si Si6 0.174958 0.529881 0.352601
Si Si7 0.702586 0.992549 0.104781
O O1 0.238203 0.915056 0.416629
O O2 0.294279 0.026271 0.351810
O O3 0.072605 0.817592 0.999955
O O4 0.038051 0.091259 0.991058
O O5 0.500000 0.500000 0.500000
O O6 0.618866 0.713047 0.605100
O O7 0.589436 0.458280 0.485688
O O8 0.779915 0.467077 0.950258
O O9 0.903242 0.697394 0.575077
O O10 0.827044 0.611685 0.588304
O O11 0.118785 0.544750 0.048763
O O12 0.175551 0.687835 0.403071
O O13 0.299128 0.310938 0.396860
O O14 0.305783 0.542676 0.505712
O O15 0.000000 0.500000 0.000000
#
# Coordination Sequence:
#
# PCOD9241023 Si02
#       7
#     4   4   4   4   4   4   4
#     4  11  20  31  59  95 121 142 194 254 320 368
#     4  10  23  42  59  77 119 177 214 245 298 370
#     4  11  18  33  57  94 127 145 180 251 329 372
#     4  11  21  36  59  90 123 159 195 249 316 376
#     4  10  21  34  54  88 117 154 200 245 304 361
#     4  10  19  34  55  88 129 148 182 248 317 379
#     4   9  20  35  53  80 118 156 193 245 303 368
#
# _framework density 24.443529999999999
#
# number of rings (size 3 to 8) (size 9 to 14) (size 15 to 20)
#    0.857    0.857    4.286    3.429    2.000    1.143 
#    0.000    1.429    0.000    3.429    0.000    0.000 
#    0.000    0.000    0.000    0.000    0.000    0.000 
#
# Total GULP energy -155910.670599 kJ/mol
# GULP energy per Si atom -5568.238236 kJ/mol
# Density = 2.438790 g / cm^3
# Si number density = 24.443530 Si / 1000 Ang^3
#
#
#
# Elastic Constant Matrix: (Units=GPa)
#
#
# Indices 1 2 3 4 5 6 
#
# 1 163.1002 65.1792 21.7387 0.0000 12.7857 0.0000
# 2 65.1792 102.9067 5.8230 0.0000 -0.9892 0.0000
# 3 21.7387 5.8230 36.7197 0.0000 2.1585 0.0000
# 4 0.0000 0.0000 0.0000 14.6022 0.0000 2.4427
# 5 12.7857 -0.9892 2.1585 0.0000 43.0831 0.0000
# 6 0.0000 0.0000 0.0000 2.4427 0.0000 51.4757
#
#
#
# Elastic Compliance Matrix: (Units=1/GPa)
#
#
# Indices 1 2 3 4 5 6 
#
# 1 0.009146 -0.005571 -0.004377 0.000000 -0.002623 0.000000
# 2 -0.005571 0.013202 0.001093 0.000000 0.001902 0.000000
# 3 -0.004377 0.001093 0.029661 0.000000 -0.000162 0.000000
# 4 0.000000 0.000000 0.000000 0.069031 0.000000 -0.003276
# 5 -0.002623 0.001902 -0.000162 0.000000 0.024041 0.000000
# 6 0.000000 0.000000 0.000000 -0.003276 0.000000 0.019582
#
#
# Mechanical properties :
#
#
# Convention : Reuss Voigt Hill
#
# Bulk Modulus (GPa) = 29.15538 54.24538 41.70038
# Shear Modulus (GPa) = 25.79878 35.83125 30.81502
#
# Velocity S-wave (km/s) = 3.25228 3.83283 3.55443
# Velocity P-wave (km/s) = 5.10457 6.46744 5.82600
#
# Compressibility (1/GPa) = 0.03429898
#
# Stress axis : x y z
#
# Youngs Moduli (GPa) = 109.33202 75.74388 33.71430
#
# Poissons Ratio (x) = 0.42195 0.14758
# Poissons Ratio (y) = 0.60906 -0.03684
# Poissons Ratio (z) = 0.47858 -0.08276
#
# Static dielectric constant tensor:
#      x y z
#    x 2.127490 0.000000 0.106540 
#    y 0.000000 1.917920 0.000000 
#    z 0.106540 0.000000 2.066350 
# 
# From -- ./inp_files/62625.got.cif
#   From: 2010.05.17/outbox.cif.g08.bks.cpg/sg14_32_cif.got.tgz:62625.got - 2010.06.03 17:49:19.
