data_PCOD9241964
_publ_section_title
;
Structure prediction by ZEFSAII (Michael W. Deem and Ramdas Pophale) SiO2 
 PCOD9241964
Probable space group: P 21/C
;
_chemical_formula_sum "Si O2"
_cell_formula_units_Z 32
_cell_length_a 14.659909
_cell_length_b 19.511918
_cell_length_c 14.995108
_cell_angle_alpha 90.000000
_cell_angle_beta 19.566544
_cell_angle_gamma 90.000000
_cell_volume 1436.474217
_symmetry_space_group_name_H-M "P 21/C"
_symmetry_group_IT_number 14
_symmetry_cell_setting 'monoclinic'
loop_
_space_group_symop_operation_xyz
x,y,z
-x,1/2+y,1/2-z
-x,-y,-z
x,1/2-y,1/2+z
loop_
_atom_site_type_symbol
_atom_site_label
_atom_site_fract_x
_atom_site_fract_y
_atom_site_fract_z
Si Si1 0.573985 0.976294 0.641827
Si Si2 0.114950 0.853119 0.254229
Si Si3 0.036286 0.491773 0.835220
Si Si4 0.555329 0.805160 0.107380
Si Si5 0.512656 0.667511 0.238199
Si Si6 0.832874 0.907677 0.966013
Si Si7 0.795025 0.015268 0.268320
Si Si8 0.011773 0.354648 0.931502
O O1 0.409450 0.906240 0.798944
O O2 0.399131 0.043130 0.779941
O O3 0.791875 0.968911 0.361031
O O4 0.724778 0.989708 0.596680
O O5 0.053357 0.827305 0.410365
O O6 0.832778 0.843362 0.461413
O O7 0.179795 0.934711 0.205370
O O8 0.353230 0.819111 0.977245
O O9 0.117692 0.445680 0.674357
O O10 0.076864 0.436409 0.875699
O O11 0.746833 0.817575 0.844872
O O12 0.479240 0.727452 0.198279
O O13 0.721821 0.834346 0.039329
O O14 0.274139 0.846733 0.357194
O O15 0.092761 0.913637 0.791034
O O16 0.500000 0.000000 0.500000
O O17 0.000000 0.000000 0.000000
#
# Coordination Sequence:
#
# PCOD9241964 Si02
#       8
#     4   4   4   4   4   4   4   4
#     4  10  19  38  63  86 119 160 211 251 303 382
#     4  11  22  39  64  95 129 157 204 263 314 372
#     4   9  19  34  61  98 122 161 195 249 315 380
#     4  11  24  42  63  88 125 174 209 246 307 384
#     4  11  24  42  63  89 125 172 211 247 310 384
#     4  10  19  38  63  88 121 162 210 248 307 379
#     4  11  22  36  59  90 121 150 204 274 315 342
#     4  11  22  39  64  94 129 157 204 259 314 372
#
# _framework density 22.276767
#
# number of rings (size 3 to 8) (size 9 to 14) (size 15 to 20)
#    0.000    1.500    3.750    1.875    0.000    0.000 
#    0.000    7.500    0.000    0.000    0.000    0.000 
#    0.000    0.000    0.000    0.000    0.000    0.000 
#
# Total GULP energy -178424.876564 kJ/mol
# GULP energy per Si atom -5575.777393 kJ/mol
# Density = 2.222606 g / cm^3
# Si number density = 22.276767 Si / 1000 Ang^3
#
#
#
# Elastic Constant Matrix: (Units=GPa)
#
#
# Indices 1 2 3 4 5 6 
#
# 1 42.9195 -2.7183 11.7152 0.0000 11.1765 0.0000
# 2 -2.7183 56.4072 25.0462 0.0000 16.5191 0.0000
# 3 11.7152 25.0462 129.7482 0.0000 19.8325 0.0000
# 4 0.0000 0.0000 0.0000 22.9531 0.0000 3.4451
# 5 11.1765 16.5191 19.8325 0.0000 43.2691 0.0000
# 6 0.0000 0.0000 0.0000 3.4451 0.0000 17.5544
#
#
#
# Elastic Compliance Matrix: (Units=1/GPa)
#
#
# Indices 1 2 3 4 5 6 
#
# 1 0.026078 0.004353 -0.002055 0.000000 -0.007456 0.000000
# 2 0.004353 0.021748 -0.003388 0.000000 -0.007875 0.000000
# 3 -0.002055 -0.003388 0.008891 0.000000 -0.002251 0.000000
# 4 0.000000 0.000000 0.000000 0.044889 0.000000 -0.008810
# 5 -0.007456 -0.007875 -0.002251 0.000000 0.029075 0.000000
# 6 0.000000 0.000000 0.000000 -0.008810 0.000000 0.058695
#
#
# Mechanical properties :
#
#
# Convention : Reuss Voigt Hill
#
# Bulk Modulus (GPa) = 18.33639 33.01791 25.67715
# Shear Modulus (GPa) = 23.83965 29.75744 26.79854
#
# Velocity S-wave (km/s) = 3.27488 3.65883 3.47217
# Velocity P-wave (km/s) = 4.74856 5.71868 5.25605
#
# Compressibility (1/GPa) = 0.05453636
#
# Stress axis : x y z
#
# Youngs Moduli (GPa) = 38.34716 45.98075 112.47589
#
# Poissons Ratio (x) = -0.20014 0.23116
# Poissons Ratio (y) = -0.16691 0.38102
# Poissons Ratio (z) = 0.07881 0.15576
#
# Static dielectric constant tensor:
#      x y z
#    x 1.908000 0.000000 0.005400 
#    y 0.000000 1.873790 0.000000 
#    z 0.005400 0.000000 1.921210 
# 
# From -- ./inp_files/47619.got.cif
#   From: 2010.05.17/outbox.cif.g08.bks.cpg/sg14_24_cif.got.tgz:47619.got - 2010.06.03 17:49:19.
