data_PCOD9241839
_publ_section_title
;
Structure prediction by ZEFSAII (Michael W. Deem and Ramdas Pophale) SiO2 
 PCOD9241839
Probable space group: P 21/C
;
_chemical_formula_sum "Si O2"
_cell_formula_units_Z 28
_cell_length_a 9.072540
_cell_length_b 10.993335
_cell_length_c 22.667263
_cell_angle_alpha 90.000000
_cell_angle_beta 139.999542
_cell_angle_gamma 90.000000
_cell_volume 1453.212322
_symmetry_space_group_name_H-M "P 21/C"
_symmetry_group_IT_number 14
_symmetry_cell_setting 'monoclinic'
loop_
_space_group_symop_operation_xyz
x,y,z
-x,1/2+y,1/2-z
-x,-y,-z
x,1/2-y,1/2+z
loop_
_atom_site_type_symbol
_atom_site_label
_atom_site_fract_x
_atom_site_fract_y
_atom_site_fract_z
Si Si1 0.857504 0.239743 0.501312
Si Si2 0.217282 0.449465 0.886964
Si Si3 0.396049 0.159278 0.801954
Si Si4 0.372744 0.497159 0.059005
Si Si5 0.719029 0.115780 0.203557
Si Si6 0.109722 0.761704 0.352213
Si Si7 0.626654 0.704156 0.844342
O O1 0.643929 0.294010 0.399837
O O2 0.824396 0.093820 0.488349
O O3 0.846661 0.276822 0.566885
O O4 0.121014 0.259019 0.563886
O O5 0.409126 0.425568 0.896849
O O6 0.176139 0.595405 0.869388
O O7 0.979447 0.384118 0.805789
O O8 0.306585 0.423373 0.979875
O O9 0.387691 0.161526 0.727860
O O10 0.163857 0.236081 0.745534
O O11 0.360381 0.024254 0.817715
O O12 0.418009 0.410542 0.127104
O O13 0.742664 0.180258 0.147105
O O14 0.559110 0.194700 0.196730
#
# Coordination Sequence:
#
# PCOD9241839 Si02
#       7
#     4   4   4   4   4   4   4
#     4  10  22  39  61  86 125 160 205 255 301 367
#     4   9  19  35  63  93 114 151 211 263 294 353
#     4  10  24  40  61  92 123 167 199 247 318 367
#     4  10  19  37  65  89 115 157 215 262 300 337
#     4  11  22  40  62  89 130 158 203 255 309 371
#     4   9  19  41  60  89 118 155 211 257 294 360
#     4  11  24  38  62  93 126 161 207 253 308 366
#
# _framework density 19.267661
#
# number of rings (size 3 to 8) (size 9 to 14) (size 15 to 20)
#    0.000    2.000    1.429    2.143    4.000    1.143 
#    0.000    0.000    0.000    0.000    0.000    0.000 
#    0.000    0.000    0.000    0.000    0.000    0.000 
#
# Total GULP energy -156125.689522 kJ/mol
# GULP energy per Si atom -5575.917483 kJ/mol
# Density = 1.922381 g / cm^3
# Si number density = 19.267661 Si / 1000 Ang^3
#
#
#
# Elastic Constant Matrix: (Units=GPa)
#
#
# Indices 1 2 3 4 5 6 
#
# 1 93.9364 26.1376 37.6800 0.0000 5.5936 0.0000
# 2 26.1376 35.9742 28.7080 0.0000 -10.7604 0.0000
# 3 37.6800 28.7080 103.5583 0.0000 10.8293 0.0000
# 4 0.0000 0.0000 0.0000 25.7023 0.0000 9.8558
# 5 5.5936 -10.7604 10.8293 0.0000 33.5130 0.0000
# 6 0.0000 0.0000 0.0000 9.8558 0.0000 23.1260
#
#
#
# Elastic Compliance Matrix: (Units=1/GPa)
#
#
# Indices 1 2 3 4 5 6 
#
# 1 0.014702 -0.010874 -0.001773 0.000000 -0.005372 0.000000
# 2 -0.010874 0.053156 -0.013200 0.000000 0.023148 0.000000
# 3 -0.001773 -0.013200 0.014876 0.000000 -0.008749 0.000000
# 4 0.000000 0.000000 0.000000 0.046507 0.000000 -0.019821
# 5 -0.005372 0.023148 -0.008749 0.000000 0.040995 0.000000
# 6 0.000000 0.000000 0.000000 -0.019821 0.000000 0.051689
#
#
# Mechanical properties :
#
#
# Convention : Reuss Voigt Hill
#
# Bulk Modulus (GPa) = 32.21666 46.50221 39.35944
# Shear Modulus (GPa) = 17.60776 25.86447 21.73612
#
# Velocity S-wave (km/s) = 3.02628 3.66782 3.36238
# Velocity P-wave (km/s) = 5.38219 6.49034 5.96207
#
# Compressibility (1/GPa) = 0.03103984
#
# Stress axis : x y z
#
# Youngs Moduli (GPa) = 68.01610 18.81262 67.22407
#
# Poissons Ratio (x) = 0.20457 0.11920
# Poissons Ratio (y) = 0.73962 0.88733
# Poissons Ratio (z) = 0.12061 0.24832
#
# Static dielectric constant tensor:
#      x y z
#    x 1.692490 0.000000 0.022540 
#    y 0.000000 1.667680 0.000000 
#    z 0.022540 0.000000 1.687920 
# 
# From -- ./inp_files/48772.got.cif
#   From: 2010.05.17/outbox.cif.g08.bks.cpg/sg14_25_cif.got.tgz:48772.got - 2010.06.03 17:49:19.
