data_PCOD9241369
_publ_section_title
;
Structure prediction by ZEFSAII (Michael W. Deem and Ramdas Pophale) SiO2 
 PCOD9241369
Probable space group: P 21/C
;
_chemical_formula_sum "Si O2"
_cell_formula_units_Z 32
_cell_length_a 16.522943
_cell_length_b 12.486197
_cell_length_c 15.288645
_cell_angle_alpha 90.000000
_cell_angle_beta 151.773175
_cell_angle_gamma 90.000000
_cell_volume 1491.811841
_symmetry_space_group_name_H-M "P 21/C"
_symmetry_group_IT_number 14
_symmetry_cell_setting 'monoclinic'
loop_
_space_group_symop_operation_xyz
x,y,z
-x,1/2+y,1/2-z
-x,-y,-z
x,1/2-y,1/2+z
loop_
_atom_site_type_symbol
_atom_site_label
_atom_site_fract_x
_atom_site_fract_y
_atom_site_fract_z
Si Si1 0.251399 0.676948 0.976706
Si Si2 0.686162 0.832860 0.024329
Si Si3 0.629581 0.008502 0.275954
Si Si4 0.461875 0.641228 0.750911
Si Si5 0.717740 0.489178 0.278553
Si Si6 0.455923 0.665436 0.000676
Si Si7 0.104378 0.161067 0.957108
Si Si8 0.731709 0.666445 0.754688
O O1 0.403332 0.657842 0.051676
O O2 0.081017 0.680808 0.758584
O O3 0.254455 0.584777 0.052809
O O4 0.299792 0.789207 0.066559
O O5 0.778255 0.847815 0.018721
O O6 0.800190 0.829918 0.220451
O O7 0.542909 0.923849 0.903465
O O8 0.583963 0.721437 0.919349
O O9 0.569902 0.906316 0.275142
O O10 0.718647 0.954422 0.277781
O O11 0.393573 0.546053 0.744377
O O12 0.703901 0.381993 0.206679
O O13 0.881254 0.550406 0.473310
O O14 0.611862 0.583504 0.130061
O O15 0.539026 0.781437 0.065163
O O16 0.167916 0.257015 0.081263
#
# Coordination Sequence:
#
# PCOD9241369 Si02
#       8
#     4   4   4   4   4   4   4   4
#     4  11  24  38  58  90 125 156 194 239 304 365
#     4  11  22  39  63  90 118 153 205 248 289 350
#     4  11  20  39  65  88 110 157 206 250 284 344
#     4  11  18  38  65  83 115 158 202 247 287 339
#     4  10  19  36  62  86 111 153 202 246 290 334
#     4  10  19  35  62  89 111 146 208 252 275 346
#     4  11  24  40  56  88 132 159 187 241 309 367
#     4  11  21  39  64  90 116 156 203 249 295 342
#
# _framework density 21.450427000000001
#
# number of rings (size 3 to 8) (size 9 to 14) (size 15 to 20)
#    0.000    1.250    6.250    1.875    0.000    1.500 
#    2.250    0.625    0.000    0.000    0.000    0.000 
#    0.000    0.000    0.000    0.000    0.000    0.000 
#
# Total GULP energy -178483.021957 kJ/mol
# GULP energy per Si atom -5577.594436 kJ/mol
# Density = 2.140160 g / cm^3
# Si number density = 21.450427 Si / 1000 Ang^3
#
#
#
# Elastic Constant Matrix: (Units=GPa)
#
#
# Indices 1 2 3 4 5 6 
#
# 1 42.2967 7.4466 27.4364 0.0000 -25.3438 0.0000
# 2 7.4466 64.8775 30.6695 0.0000 -6.3662 0.0000
# 3 27.4364 30.6695 104.9952 0.0000 -18.9845 0.0000
# 4 0.0000 0.0000 0.0000 14.7779 0.0000 -10.6441
# 5 -25.3438 -6.3662 -18.9845 0.0000 28.2186 0.0000
# 6 0.0000 0.0000 0.0000 -10.6441 0.0000 26.2092
#
#
#
# Elastic Compliance Matrix: (Units=1/GPa)
#
#
# Indices 1 2 3 4 5 6 
#
# 1 0.054533 0.001212 -0.006488 0.000000 0.044886 0.000000
# 2 0.001212 0.017919 -0.005263 0.000000 0.001590 0.000000
# 3 -0.006488 -0.005263 0.013080 0.000000 0.001785 0.000000
# 4 0.000000 0.000000 0.000000 0.095647 0.000000 0.038844
# 5 0.044886 0.001590 0.001785 0.000000 0.077310 0.000000
# 6 0.000000 0.000000 0.000000 0.038844 0.000000 0.053930
#
#
# Mechanical properties :
#
#
# Convention : Reuss Voigt Hill
#
# Bulk Modulus (GPa) = 15.51517 38.14158 26.82837
# Shear Modulus (GPa) = 14.08525 23.61560 18.85042
#
# Velocity S-wave (km/s) = 2.56528 3.32164 2.96766
# Velocity P-wave (km/s) = 4.00287 5.70359 4.92716
#
# Compressibility (1/GPa) = 0.06445305
#
# Stress axis : x y z
#
# Youngs Moduli (GPa) = 18.33756 55.80754 76.45311
#
# Poissons Ratio (x) = -0.06766 0.49605
# Poissons Ratio (y) = -0.02223 0.40240
# Poissons Ratio (z) = 0.11898 0.29374
#
# Static dielectric constant tensor:
#      x y z
#    x 1.820930 0.000000 -0.043090 
#    y 0.000000 1.793860 0.000000 
#    z -0.043090 0.000000 1.815490 
# 
# From -- ./inp_files/40345.got.cif
#   From: 2010.05.17/outbox.cif.g08.bks.cpg/sg14_21_cif.got.tgz:40345.got - 2010.06.03 17:49:19.
