data_PCOD9241646
_publ_section_title
;
Structure prediction by ZEFSAII (Michael W. Deem and Ramdas Pophale) SiO2 
 PCOD9241646
Probable space group: P 21/C
;
_chemical_formula_sum "Si O2"
_cell_formula_units_Z 28
_cell_length_a 8.674322
_cell_length_b 19.611504
_cell_length_c 7.898020
_cell_angle_alpha 90.000000
_cell_angle_beta 90.892385
_cell_angle_gamma 90.000000
_cell_volume 1343.420563
_symmetry_space_group_name_H-M "P 21/C"
_symmetry_group_IT_number 14
_symmetry_cell_setting 'monoclinic'
loop_
_space_group_symop_operation_xyz
x,y,z
-x,1/2+y,1/2-z
-x,-y,-z
x,1/2-y,1/2+z
loop_
_atom_site_type_symbol
_atom_site_label
_atom_site_fract_x
_atom_site_fract_y
_atom_site_fract_z
Si Si1 0.907883 0.120847 0.285514
Si Si2 0.205448 0.548261 0.538492
Si Si3 0.224892 0.163336 0.747966
Si Si4 0.580891 0.342983 0.342886
Si Si5 0.746829 0.221089 0.526533
Si Si6 0.084151 0.028064 0.737879
Si Si7 0.081129 0.288189 0.591158
O O1 0.785882 0.168374 0.376422
O O2 0.065538 0.161428 0.252999
O O3 0.912123 0.044241 0.359480
O O4 0.862089 0.105401 0.090006
O O5 0.363265 0.581871 0.599178
O O6 0.191951 0.484595 0.409710
O O7 0.086974 0.537111 0.689364
O O8 0.401393 0.155853 0.801564
O O9 0.151263 0.096286 0.659998
O O10 0.203154 0.229622 0.633189
O O11 0.125531 0.176397 0.916824
O O12 0.632931 0.282457 0.471960
O O13 0.676284 0.321651 0.178022
O O14 0.914851 0.250964 0.576671
#
# Coordination Sequence:
#
# PCOD9241646 Si02
#       7
#     4   4   4   4   4   4   4
#     4  10  19  36  66  86 107 153 211 248 277 336
#     4   9  17  38  63  83 112 152 206 238 285 348
#     4  12  24  37  59  91 127 147 194 250 311 348
#     4  12  23  36  57  92 121 161 184 249 310 356
#     4  12  20  38  61  85 116 156 208 237 292 353
#     4   9  18  38  63  86 116 152 207 248 281 355
#     4  12  20  38  63  88 110 155 205 251 278 353
#
# _framework density 20.842317999999999
#
# number of rings (size 3 to 8) (size 9 to 14) (size 15 to 20)
#    0.857    0.286    5.714    1.714    0.000    0.571 
#    0.000    3.571    0.000    0.000    0.000    0.000 
#    0.000    0.000    0.000    0.000    0.000    0.000 
#
# Total GULP energy -156109.830355 kJ/mol
# GULP energy per Si atom -5575.351084 kJ/mol
# Density = 2.079488 g / cm^3
# Si number density = 20.842318 Si / 1000 Ang^3
#
#
#
# Elastic Constant Matrix: (Units=GPa)
#
#
# Indices 1 2 3 4 5 6 
#
# 1 76.1760 13.9603 -1.5691 0.0000 7.1572 0.0000
# 2 13.9603 104.8058 -0.2580 0.0000 8.2646 0.0000
# 3 -1.5691 -0.2580 33.3879 0.0000 -6.9498 0.0000
# 4 0.0000 0.0000 0.0000 26.6112 0.0000 10.7970
# 5 7.1572 8.2646 -6.9498 0.0000 22.9173 0.0000
# 6 0.0000 0.0000 0.0000 10.7970 0.0000 28.7720
#
#
#
# Elastic Compliance Matrix: (Units=1/GPa)
#
#
# Indices 1 2 3 4 5 6 
#
# 1 0.013762 -0.001534 -0.000154 0.000000 -0.003791 0.000000
# 2 -0.001534 0.010007 -0.000690 0.000000 -0.003339 0.000000
# 3 -0.000154 -0.000690 0.032021 0.000000 0.010008 0.000000
# 4 0.000000 0.000000 0.000000 0.044327 0.000000 -0.016634
# 5 -0.003791 -0.003339 0.010008 0.000000 0.049058 0.000000
# 6 0.000000 0.000000 0.000000 -0.016634 0.000000 0.040998
#
#
# Mechanical properties :
#
#
# Convention : Reuss Voigt Hill
#
# Bulk Modulus (GPa) = 19.59496 26.51513 23.05504
# Shear Modulus (GPa) = 23.59132 29.14254 26.36693
#
# Velocity S-wave (km/s) = 3.36801 3.74336 3.56064
# Velocity P-wave (km/s) = 4.95446 5.60652 5.29054
#
# Compressibility (1/GPa) = 0.05103354
#
# Stress axis : x y z
#
# Youngs Moduli (GPa) = 72.66523 99.92554 31.22904
#
# Poissons Ratio (x) = 0.15334 0.00482
# Poissons Ratio (y) = 0.11150 0.02154
# Poissons Ratio (z) = 0.01121 0.06893
#
# Static dielectric constant tensor:
#      x y z
#    x 1.693800 0.000000 0.044120 
#    y 0.000000 1.851270 0.000000 
#    z 0.044120 0.000000 1.810470 
# 
# From -- ./inp_files/9920.got.cif
#   From: 2010.05.17/outbox.cif.g08.bks.cpg/sg14_5_cif.got.tgz:9920.got - 2010.06.03 17:49:19.
