data_PCOD9241004
_publ_section_title
;
Structure prediction by ZEFSAII (Michael W. Deem and Ramdas Pophale) SiO2 
 PCOD9241004
Probable space group: P 21/C
;
_chemical_formula_sum "Si O2"
_cell_formula_units_Z 32
_cell_length_a 18.802073
_cell_length_b 9.138121
_cell_length_c 10.300292
_cell_angle_alpha 90.000000
_cell_angle_beta 56.585603
_cell_angle_gamma 90.000000
_cell_volume 1477.228029
_symmetry_space_group_name_H-M "P 21/C"
_symmetry_group_IT_number 14
_symmetry_cell_setting 'monoclinic'
loop_
_space_group_symop_operation_xyz
x,y,z
-x,1/2+y,1/2-z
-x,-y,-z
x,1/2-y,1/2+z
loop_
_atom_site_type_symbol
_atom_site_label
_atom_site_fract_x
_atom_site_fract_y
_atom_site_fract_z
Si Si1 0.554074 0.012352 0.644434
Si Si2 0.334852 0.236405 0.423085
Si Si3 0.680058 0.263359 0.568979
Si Si4 0.368281 0.014958 0.718675
Si Si5 0.910629 0.596584 0.242841
Si Si6 0.788562 0.497847 0.000054
Si Si7 0.280537 0.026419 0.142455
Si Si8 0.043806 0.150411 0.598878
O O1 0.598218 0.156943 0.656995
O O2 0.599623 0.990652 0.458941
O O3 0.584844 0.867143 0.687475
O O4 0.454533 0.019049 0.719280
O O5 0.317815 0.343216 0.318502
O O6 0.256801 0.127878 0.532067
O O7 0.343647 0.344198 0.536411
O O8 0.681351 0.368568 0.692486
O O9 0.680928 0.376378 0.449903
O O10 0.761469 0.158435 0.474686
O O11 0.809348 0.566043 0.337781
O O12 0.939911 0.704606 0.330440
O O13 0.955747 0.437159 0.205123
O O14 0.938182 0.666238 0.074435
O O15 0.742129 0.511377 0.185839
O O16 0.886002 0.533340 0.921489
#
# Coordination Sequence:
#
# PCOD9241004 Si02
#       8
#     4   4   4   4   4   4   4   4
#     4  10  20  34  52  76 106 139 178 224 274 328
#     4  10  19  34  55  76 102 142 178 224 269 332
#     4  10  21  34  53  80 106 142 182 228 273 332
#     4  10  20  34  52  76 106 139 178 224 274 328
#     4  10  22  40  61  86 118 151 188 230 279 333
#     4  10  20  36  55  79 109 143 182 228 274 326
#     4  10  20  36  55  79 109 143 182 228 274 326
#     4  10  22  40  61  86 118 151 188 230 279 333
#
# _framework density 21.662194
#
# number of rings (size 3 to 8) (size 9 to 14) (size 15 to 20)
#    0.000    2.000    1.250    2.250    1.750    0.500 
#    0.000    1.250    0.000   12.000    0.000    0.000 
#    0.000    0.000    0.000    0.000    0.000    0.000 
#
# Total GULP energy -178590.129770 kJ/mol
# GULP energy per Si atom -5580.941555 kJ/mol
# Density = 2.161289 g / cm^3
# Si number density = 21.662194 Si / 1000 Ang^3
#
#
#
# Elastic Constant Matrix: (Units=GPa)
#
#
# Indices 1 2 3 4 5 6 
#
# 1 52.2624 9.5042 -6.6962 0.0000 -2.4913 0.0000
# 2 9.5042 123.8423 11.5968 0.0000 5.8229 0.0000
# 3 -6.6962 11.5968 40.8869 0.0000 2.9369 0.0000
# 4 0.0000 0.0000 0.0000 22.4091 0.0000 -1.1254
# 5 -2.4913 5.8229 2.9369 0.0000 26.9235 0.0000
# 6 0.0000 0.0000 0.0000 -1.1254 0.0000 21.1301
#
#
#
# Elastic Compliance Matrix: (Units=1/GPa)
#
#
# Indices 1 2 3 4 5 6 
#
# 1 0.020058 -0.001975 0.003710 0.000000 0.001878 0.000000
# 2 -0.001975 0.008554 -0.002624 0.000000 -0.001747 0.000000
# 3 0.003710 -0.002624 0.025948 0.000000 -0.001920 0.000000
# 4 0.000000 0.000000 0.000000 0.044744 0.000000 0.002383
# 5 0.001878 -0.001747 -0.001920 0.000000 0.037903 0.000000
# 6 0.000000 0.000000 0.000000 0.002383 0.000000 0.047453
#
#
# Mechanical properties :
#
#
# Convention : Reuss Voigt Hill
#
# Bulk Modulus (GPa) = 18.94584 27.31122 23.12853
# Shear Modulus (GPa) = 24.50588 27.59834 26.05211
#
# Velocity S-wave (km/s) = 3.36709 3.57323 3.47169
# Velocity P-wave (km/s) = 4.88686 5.44602 5.17400
#
# Compressibility (1/GPa) = 0.05278205
#
# Stress axis : x y z
#
# Youngs Moduli (GPa) = 49.85454 116.90132 38.53924
#
# Poissons Ratio (x) = 0.23089 -0.14299
# Poissons Ratio (y) = 0.09847 0.10114
# Poissons Ratio (z) = -0.18498 0.30678
#
# Static dielectric constant tensor:
#      x y z
#    x 1.820460 0.000000 0.018940 
#    y 0.000000 1.796160 0.000000 
#    z 0.018940 0.000000 1.759990 
# 
# From -- ./inp_files/34974.got.cif
#   From: 2010.05.17/outbox.cif.g08.bks.cpg/sg14_18_cif.got.tgz:34974.got - 2010.06.03 17:49:19.
