data_PCOD9241589
_publ_section_title
;
Structure prediction by ZEFSAII (Michael W. Deem and Ramdas Pophale) SiO2 
 PCOD9241589
Probable space group: P 21/C
;
_chemical_formula_sum "Si O2"
_cell_formula_units_Z 20
_cell_length_a 9.538727
_cell_length_b 8.490041
_cell_length_c 27.873039
_cell_angle_alpha 90.000000
_cell_angle_beta 155.023076
_cell_angle_gamma 90.000000
_cell_volume 953.141741
_symmetry_space_group_name_H-M "P 21/C"
_symmetry_group_IT_number 14
_symmetry_cell_setting 'monoclinic'
loop_
_space_group_symop_operation_xyz
x,y,z
-x,1/2+y,1/2-z
-x,-y,-z
x,1/2-y,1/2+z
loop_
_atom_site_type_symbol
_atom_site_label
_atom_site_fract_x
_atom_site_fract_y
_atom_site_fract_z
Si Si1 0.940199 0.086713 0.431911
Si Si2 0.157019 0.439795 0.499137
Si Si3 0.163659 0.094125 0.195245
Si Si4 0.307469 0.071551 0.892759
Si Si5 0.297870 0.871468 0.466276
O O1 0.549867 0.122351 0.309129
O O2 0.124418 0.253044 0.485437
O O3 0.000000 0.000000 0.500000
O O4 0.073057 0.965959 0.433760
O O5 0.536601 0.489289 0.605485
O O6 0.000000 0.500000 0.500000
O O7 0.958311 0.521818 0.393520
O O8 0.957865 0.254893 0.140404
O O9 0.064614 0.973024 0.207391
O O10 0.424719 0.251593 0.926360
O O11 0.500000 0.000000 0.000000
O O12 0.500000 0.000000 0.500000
#
# Coordination Sequence:
#
# PCOD9241589 Si02
#       5
#     4   4   4   4   4
#     4  12  23  37  58  88 118 154 201 242 282 350
#     4  10  20  38  60  84 117 150 186 242 301 350
#     4  10  21  39  60  85 119 157 190 238 302 350
#     4   8  17  36  58  80 114 152 185 233 295 346
#     4  10  19  36  62  87 113 149 195 243 290 348
#
# _framework density 20.983238
#
# number of rings (size 3 to 8) (size 9 to 14) (size 15 to 20)
#    0.000    2.400    0.000    7.200    0.000    0.000 
#    0.000   12.000    0.000    0.000    0.000    0.000 
#    0.000    0.000    0.000    0.000    0.000    0.000 
#
# Total GULP energy -111553.201729 kJ/mol
# GULP energy per Si atom -5577.660086 kJ/mol
# Density = 2.093548 g / cm^3
# Si number density = 20.983238 Si / 1000 Ang^3
#
#
#
# Elastic Constant Matrix: (Units=GPa)
#
#
# Indices 1 2 3 4 5 6 
#
# 1 123.4548 38.5252 37.7342 0.0000 45.3492 0.0000
# 2 38.5252 154.2906 38.2423 0.0000 29.5826 0.0000
# 3 37.7342 38.2423 35.6839 0.0000 20.4229 0.0000
# 4 0.0000 0.0000 0.0000 15.8693 0.0000 19.6164
# 5 45.3492 29.5826 20.4229 0.0000 32.0865 0.0000
# 6 0.0000 0.0000 0.0000 19.6164 0.0000 48.3017
#
#
#
# Elastic Compliance Matrix: (Units=1/GPa)
#
#
# Indices 1 2 3 4 5 6 
#
# 1 0.018241 0.001797 -0.008670 0.000000 -0.021919 0.000000
# 2 0.001797 0.009235 -0.008605 0.000000 -0.005576 0.000000
# 3 -0.008670 -0.008605 0.054836 0.000000 -0.014716 0.000000
# 4 0.000000 0.000000 0.000000 0.126540 0.000000 -0.051391
# 5 -0.021919 -0.005576 -0.014716 0.000000 0.076653 0.000000
# 6 0.000000 0.000000 0.000000 -0.051391 0.000000 0.041574
#
#
# Mechanical properties :
#
#
# Convention : Reuss Voigt Hill
#
# Bulk Modulus (GPa) = 19.47219 60.27032 39.87125
# Shear Modulus (GPa) = 13.32787 32.51335 22.92061
#
# Velocity S-wave (km/s) = 2.52299 3.94063 3.30863
# Velocity P-wave (km/s) = 4.21750 7.03493 5.79989
#
# Compressibility (1/GPa) = 0.05135530
#
# Stress axis : x y z
#
# Youngs Moduli (GPa) = 54.82160 108.28703 18.23607
#
# Poissons Ratio (x) = -0.19458 0.15810
# Poissons Ratio (y) = -0.09851 0.15693
# Poissons Ratio (z) = 0.47530 0.93185
#
# Static dielectric constant tensor:
#      x y z
#    x 1.807410 0.000000 0.092580 
#    y 0.000000 1.768030 0.000000 
#    z 0.092580 0.000000 1.925840 
# 
# From -- ./inp_files/58869.got.cif
#   From: 2010.05.17/outbox.cif.g08.bks.cpg/sg14_30_cif.got.tgz:58869.got - 2010.06.03 17:49:19.
