data_PCOD9241586
_publ_section_title
;
Structure prediction by ZEFSAII (Michael W. Deem and Ramdas Pophale) SiO2 
 PCOD9241586
Probable space group: P 21/C
;
_chemical_formula_sum "Si O2"
_cell_formula_units_Z 32
_cell_length_a 17.251945
_cell_length_b 14.704026
_cell_length_c 17.412405
_cell_angle_alpha 90.000000
_cell_angle_beta 17.117845
_cell_angle_gamma 90.000000
_cell_volume 1300.107957
_symmetry_space_group_name_H-M "P 21/C"
_symmetry_group_IT_number 14
_symmetry_cell_setting 'monoclinic'
loop_
_space_group_symop_operation_xyz
x,y,z
-x,1/2+y,1/2-z
-x,-y,-z
x,1/2-y,1/2+z
loop_
_atom_site_type_symbol
_atom_site_label
_atom_site_fract_x
_atom_site_fract_y
_atom_site_fract_z
Si Si1 0.911107 0.075858 0.023681
Si Si2 0.322957 0.807804 0.354765
Si Si3 0.219699 0.191918 0.183193
Si Si4 0.610363 0.186193 0.533067
Si Si5 0.959243 0.766583 0.991696
Si Si6 0.341716 0.470349 0.000176
Si Si7 0.754600 0.527764 0.083339
Si Si8 0.688860 0.483938 0.394800
O O1 0.885490 0.162666 0.101547
O O2 0.158315 0.081898 0.733127
O O3 0.646992 0.050366 0.228279
O O4 0.000000 0.000000 0.000000
O O5 0.416046 0.788878 0.352270
O O6 0.287271 0.917551 0.377005
O O7 0.031458 0.769621 0.622677
O O8 0.514432 0.771707 0.106810
O O9 0.147970 0.197171 0.341090
O O10 0.246343 0.085469 0.139046
O O11 0.316766 0.193802 0.777525
O O12 0.696321 0.079433 0.451078
O O13 0.830931 0.243195 0.276728
O O14 0.249124 0.446817 0.001951
O O15 0.497046 0.566566 0.368881
O O16 0.015418 0.555062 0.884438
O O17 0.500000 0.500000 0.500000
#
# Coordination Sequence:
#
# PCOD9241586 Si02
#       8
#     4   4   4   4   4   4   4   4
#     4  12  21  34  53  84 119 159 190 230 286 338
#     4   9  19  36  59  79 111 144 196 239 282 340
#     4  10  21  38  56  85 112 151 191 240 292 357
#     4  11  20  35  58  87 108 151 198 246 280 333
#     4  12  23  34  57  85 118 153 194 237 294 349
#     4  11  20  35  55  81 121 149 197 239 275 342
#     4   9  19  33  57  88 108 144 188 239 289 345
#     4  10  19  36  62  86 110 142 191 248 305 346
#
# _framework density 24.613340999999998
#
# number of rings (size 3 to 8) (size 9 to 14) (size 15 to 20)
#    0.000    1.500    2.500    3.750    0.000    4.000 
#    0.000    0.000   11.000    0.000    0.000    0.000 
#    0.000    0.000    0.000    0.000    0.000    0.000 
#
# Total GULP energy -178735.632341 kJ/mol
# GULP energy per Si atom -5585.488511 kJ/mol
# Density = 2.455732 g / cm^3
# Si number density = 24.613341 Si / 1000 Ang^3
#
#
#
# Elastic Constant Matrix: (Units=GPa)
#
#
# Indices 1 2 3 4 5 6 
#
# 1 126.4491 3.5640 67.5824 0.0000 -11.3711 0.0000
# 2 3.5640 38.2506 16.6697 0.0000 -0.9057 0.0000
# 3 67.5824 16.6697 177.1846 0.0000 4.6615 0.0000
# 4 0.0000 0.0000 0.0000 24.4506 0.0000 0.9376
# 5 -11.3711 -0.9057 4.6615 0.0000 39.6827 0.0000
# 6 0.0000 0.0000 0.0000 0.9376 0.0000 17.1213
#
#
#
# Elastic Compliance Matrix: (Units=1/GPa)
#
#
# Indices 1 2 3 4 5 6 
#
# 1 0.010415 0.000921 -0.004151 0.000000 0.003493 0.000000
# 2 0.000921 0.027377 -0.002960 0.000000 0.001236 0.000000
# 3 -0.004151 -0.002960 0.007562 0.000000 -0.002145 0.000000
# 4 0.000000 0.000000 0.000000 0.040985 0.000000 -0.002244
# 5 0.003493 0.001236 -0.002145 0.000000 0.026481 0.000000
# 6 0.000000 0.000000 0.000000 -0.002244 0.000000 0.058530
#
#
# Mechanical properties :
#
#
# Convention : Reuss Voigt Hill
#
# Bulk Modulus (GPa) = 30.32598 57.50184 43.91391
# Shear Modulus (GPa) = 25.67791 33.18880 29.43336
#
# Velocity S-wave (km/s) = 3.23345 3.67605 3.46183
# Velocity P-wave (km/s) = 5.12718 6.43666 5.81887
#
# Compressibility (1/GPa) = 0.03297502
#
# Stress axis : x y z
#
# Youngs Moduli (GPa) = 96.01429 36.52759 132.23909
#
# Poissons Ratio (x) = -0.03366 0.54894
# Poissons Ratio (y) = -0.08847 0.39137
# Poissons Ratio (z) = 0.39857 0.10811
#
# Static dielectric constant tensor:
#      x y z
#    x 1.833450 0.000000 0.072480 
#    y 0.000000 2.066550 0.000000 
#    z 0.072480 0.000000 1.887680 
# 
# From -- ./inp_files/47698.got.cif
#   From: 2010.05.17/outbox.cif.g08.bks.cpg/sg14_24_cif.got.tgz:47698.got - 2010.06.03 17:49:19.
