data_PCOD9241665
_publ_section_title
;
Structure prediction by ZEFSAII (Michael W. Deem and Ramdas Pophale) SiO2 
 PCOD9241665
Probable space group: P 21/C
;
_chemical_formula_sum "Si O2"
_cell_formula_units_Z 32
_cell_length_a 16.879197
_cell_length_b 17.811080
_cell_length_c 7.713935
_cell_angle_alpha 90.000000
_cell_angle_beta 36.900499
_cell_angle_gamma 90.000000
_cell_volume 1392.446000
_symmetry_space_group_name_H-M "P 21/C"
_symmetry_group_IT_number 14
_symmetry_cell_setting 'monoclinic'
loop_
_space_group_symop_operation_xyz
x,y,z
-x,1/2+y,1/2-z
-x,-y,-z
x,1/2-y,1/2+z
loop_
_atom_site_type_symbol
_atom_site_label
_atom_site_fract_x
_atom_site_fract_y
_atom_site_fract_z
Si Si1 0.645406 0.629217 0.212071
Si Si2 0.112091 0.193953 0.853970
Si Si3 0.550483 0.088316 0.233671
Si Si4 0.930497 0.214335 0.880170
Si Si5 0.471051 0.913340 0.329149
Si Si6 0.032338 0.443781 0.693283
Si Si7 0.209861 0.527159 0.145295
Si Si8 0.840520 0.134984 0.726813
O O1 0.537487 0.633263 0.248879
O O2 0.573892 0.627138 0.521969
O O3 0.753850 0.692744 0.986099
O O4 0.722137 0.549433 0.048033
O O5 0.991992 0.172697 0.935199
O O6 0.057644 0.268658 0.036019
O O7 0.114191 0.130800 0.997037
O O8 0.529967 0.112502 0.469496
O O9 0.511507 0.001305 0.275458
O O10 0.703340 0.097574 0.921910
O O11 0.833077 0.169280 0.930957
O O12 0.870978 0.293401 0.049014
O O13 0.328153 0.916013 0.483443
O O14 0.904128 0.452963 0.792427
O O15 0.134472 0.507593 0.458434
O O16 0.962117 0.422971 0.995532
#
# Coordination Sequence:
#
# PCOD9241665 Si02
#       8
#     4   4   4   4   4   4   4   4
#     4  10  19  37  56  76 113 151 176 218 274 325
#     4   9  19  36  56  79 101 141 180 227 284 324
#     4  10  21  36  56  85 112 148 182 222 270 332
#     4   9  20  38  57  78 105 135 185 239 282 323
#     4  10  20  35  55  83 115 151 183 215 266 339
#     4   9  17  30  56  83 109 146 177 223 280 330
#     4   9  17  31  54  82 119 144 181 217 270 339
#     4  10  19  37  57  80 109 142 182 236 282 323
#
# _framework density 22.981142999999999
#
# number of rings (size 3 to 8) (size 9 to 14) (size 15 to 20)
#    0.000    2.500    0.000    3.000    1.750    0.000 
#   15.750    1.875    0.000    0.000    0.000    0.000 
#    0.000    0.000    0.000    0.000    0.000    0.000 
#
# Total GULP energy -178582.025613 kJ/mol
# GULP energy per Si atom -5580.688300 kJ/mol
# Density = 2.292884 g / cm^3
# Si number density = 22.981143 Si / 1000 Ang^3
#
#
#
# Elastic Constant Matrix: (Units=GPa)
#
#
# Indices 1 2 3 4 5 6 
#
# 1 49.5312 2.9614 20.1488 0.0000 9.3318 0.0000
# 2 2.9614 24.7454 10.6266 0.0000 0.8587 0.0000
# 3 20.1488 10.6266 131.8371 0.0000 8.1165 0.0000
# 4 0.0000 0.0000 0.0000 35.2804 0.0000 3.3182
# 5 9.3318 0.8587 8.1165 0.0000 32.0811 0.0000
# 6 0.0000 0.0000 0.0000 3.3182 0.0000 16.4342
#
#
#
# Elastic Compliance Matrix: (Units=1/GPa)
#
#
# Indices 1 2 3 4 5 6 
#
# 1 0.022568 -0.001214 -0.002996 0.000000 -0.005774 0.000000
# 2 -0.001214 0.041928 -0.003196 0.000000 0.000040 0.000000
# 3 -0.002996 -0.003196 0.008372 0.000000 -0.001161 0.000000
# 4 0.000000 0.000000 0.000000 0.028893 0.000000 -0.005834
# 5 -0.005774 0.000040 -0.001161 0.000000 0.033143 0.000000
# 6 0.000000 0.000000 0.000000 -0.005834 0.000000 0.062027
#
#
# Mechanical properties :
#
#
# Convention : Reuss Voigt Hill
#
# Bulk Modulus (GPa) = 17.22467 30.39858 23.81163
# Shear Modulus (GPa) = 21.63601 28.25094 24.94347
#
# Velocity S-wave (km/s) = 3.07166 3.50995 3.29810
# Velocity P-wave (km/s) = 4.48236 5.44818 4.98870
#
# Compressibility (1/GPa) = 0.05805626
#
# Stress axis : x y z
#
# Youngs Moduli (GPa) = 44.30971 23.85029 119.44428
#
# Poissons Ratio (x) = 0.02895 0.35783
# Poissons Ratio (y) = 0.05379 0.38180
# Poissons Ratio (z) = 0.13274 0.07624
#
# Static dielectric constant tensor:
#      x y z
#    x 1.885770 0.000000 0.031520 
#    y 0.000000 1.896280 0.000000 
#    z 0.031520 0.000000 1.889650 
# 
# From -- ./inp_files/18248.got.cif
#   From: 2010.05.17/outbox.cif.g08.bks.cpg/sg14_10_cif.got.tgz:18248.got - 2010.06.03 17:49:19.
