data_PCOD9241196
_publ_section_title
;
Structure prediction by ZEFSAII (Michael W. Deem and Ramdas Pophale) SiO2 
 PCOD9241196
Probable space group: P 21/C
;
_chemical_formula_sum "Si O2"
_cell_formula_units_Z 32
_cell_length_a 19.653534
_cell_length_b 14.471370
_cell_length_c 12.804985
_cell_angle_alpha 90.000000
_cell_angle_beta 161.179788
_cell_angle_gamma 90.000000
_cell_volume 1174.879236
_symmetry_space_group_name_H-M "P 21/C"
_symmetry_group_IT_number 14
_symmetry_cell_setting 'monoclinic'
loop_
_space_group_symop_operation_xyz
x,y,z
-x,1/2+y,1/2-z
-x,-y,-z
x,1/2-y,1/2+z
loop_
_atom_site_type_symbol
_atom_site_label
_atom_site_fract_x
_atom_site_fract_y
_atom_site_fract_z
Si Si1 0.641200 0.493006 0.459795
Si Si2 0.670718 0.277087 0.804328
Si Si3 0.590771 0.879294 0.534936
Si Si4 0.968729 0.876767 0.429755
Si Si5 0.643405 0.609305 0.792029
Si Si6 0.059269 0.950225 0.331718
Si Si7 0.261461 0.602545 0.717063
Si Si8 0.964015 0.833614 0.942068
O O1 0.488984 0.468311 0.143969
O O2 0.727419 0.595140 0.601619
O O3 0.527981 0.449232 0.393431
O O4 0.859594 0.437282 0.758831
O O5 0.545054 0.210543 0.702083
O O6 0.483307 0.316095 0.458076
O O7 0.803010 0.368371 0.025846
O O8 0.811301 0.200266 0.946028
O O9 0.828073 0.861411 0.845852
O O10 0.501108 0.889131 0.521770
O O11 0.013981 0.772804 0.523297
O O12 0.003856 0.899633 0.359015
O O13 0.798144 0.649935 0.105648
O O14 0.778193 0.536007 0.922455
O O15 0.856439 0.011648 0.999034
O O16 0.171816 0.612804 0.703961
#
# Coordination Sequence:
#
# PCOD9241196 Si02
#       8
#     4   4   4   4   4   4   4   4
#     4  10  20  32  52  82 111 135 183 227 278 322
#     4  10  19  35  55  79 116 143 178 227 276 319
#     4   9  20  35  50  75 110 147 175 218 271 329
#     4  11  19  31  54  81 111 140 172 235 277 320
#     4  10  21  33  54  84 109 142 182 226 273 331
#     4  11  19  32  56  82 109 142 181 227 279 322
#     4   9  19  35  52  77 111 145 177 219 271 330
#     4  10  20  35  51  77 109 147 179 215 273 332
#
# _framework density 27.236841999999999
#
# number of rings (size 3 to 8) (size 9 to 14) (size 15 to 20)
#    0.750    1.250    3.750    0.375    1.750    1.000 
#    0.000    0.000    0.000    3.000    3.250    3.500 
#    0.000    0.000    0.000    0.000    0.000    0.000 
#
# Total GULP energy -178819.486217 kJ/mol
# GULP energy per Si atom -5588.108944 kJ/mol
# Density = 2.717485 g / cm^3
# Si number density = 27.236842 Si / 1000 Ang^3
#
#
#
# Elastic Constant Matrix: (Units=GPa)
#
#
# Indices 1 2 3 4 5 6 
#
# 1 90.9327 35.3959 39.3010 0.0000 41.0903 0.0000
# 2 35.3959 160.3661 42.0448 0.0000 22.9063 0.0000
# 3 39.3010 42.0448 129.6833 0.0000 24.0860 0.0000
# 4 0.0000 0.0000 0.0000 48.8533 0.0000 9.4755
# 5 41.0903 22.9063 24.0860 0.0000 51.9739 0.0000
# 6 0.0000 0.0000 0.0000 9.4755 0.0000 38.1924
#
#
#
# Elastic Compliance Matrix: (Units=1/GPa)
#
#
# Indices 1 2 3 4 5 6 
#
# 1 0.018524 -0.001555 -0.002754 0.000000 -0.012683 0.000000
# 2 -0.001555 0.007176 -0.001637 0.000000 -0.001175 0.000000
# 3 -0.002754 -0.001637 0.009342 0.000000 -0.001431 0.000000
# 4 0.000000 0.000000 0.000000 0.021504 0.000000 -0.005335
# 5 -0.012683 -0.001175 -0.001431 0.000000 0.030449 0.000000
# 6 0.000000 0.000000 0.000000 -0.005335 0.000000 0.027507
#
#
# Mechanical properties :
#
#
# Convention : Reuss Voigt Hill
#
# Bulk Modulus (GPa) = 43.19638 68.27394 55.73516
# Shear Modulus (GPa) = 37.28270 45.41993 41.35131
#
# Velocity S-wave (km/s) = 3.70379 4.08805 3.90065
# Velocity P-wave (km/s) = 5.84677 6.88506 6.38705
#
# Compressibility (1/GPa) = 0.02315009
#
# Stress axis : x y z
#
# Youngs Moduli (GPa) = 53.98413 139.35459 107.04144
#
# Poissons Ratio (x) = 0.21668 0.29479
# Poissons Ratio (y) = 0.08394 0.17524
# Poissons Ratio (z) = 0.14867 0.22814
#
# Static dielectric constant tensor:
#      x y z
#    x 2.145560 0.000000 -0.052110 
#    y 0.000000 2.121240 0.000000 
#    z -0.052110 0.000000 2.204680 
# 
# From -- ./inp_files/62032.got.cif
#   From: 2010.05.17/outbox.cif.g08.bks.cpg/sg14_32_cif.got.tgz:62032.got - 2010.06.03 17:49:19.
