data_PCOD9241488
_publ_section_title
;
Structure prediction by ZEFSAII (Michael W. Deem and Ramdas Pophale) SiO2 
 PCOD9241488
Probable space group: P 21/C
;
_chemical_formula_sum "Si O2"
_cell_formula_units_Z 32
_cell_length_a 13.929221
_cell_length_b 19.249681
_cell_length_c 8.779654
_cell_angle_alpha 90.000000
_cell_angle_beta 50.927268
_cell_angle_gamma 90.000000
_cell_volume 1827.609254
_symmetry_space_group_name_H-M "P 21/C"
_symmetry_group_IT_number 14
_symmetry_cell_setting 'monoclinic'
loop_
_space_group_symop_operation_xyz
x,y,z
-x,1/2+y,1/2-z
-x,-y,-z
x,1/2-y,1/2+z
loop_
_atom_site_type_symbol
_atom_site_label
_atom_site_fract_x
_atom_site_fract_y
_atom_site_fract_z
Si Si1 0.374899 0.455622 0.108810
Si Si2 0.988387 0.156362 0.228928
Si Si3 0.511613 0.843638 0.705702
Si Si4 0.125101 0.544378 0.358609
Si Si5 0.380910 0.226330 0.111557
Si Si6 0.727947 0.655754 0.570755
Si Si7 0.772053 0.344246 0.526648
Si Si8 0.119090 0.773670 0.373377
O O1 0.250000 0.500000 0.214391
O O2 0.353938 0.405759 0.276136
O O3 0.500000 0.500000 0.000000
O O4 0.397832 0.403594 0.944669
O O5 0.897832 0.096406 0.259667
O O6 0.966668 0.222309 0.139800
O O7 0.956064 0.181093 0.430315
O O8 0.129684 0.133857 0.071158
O O9 0.533332 0.777691 0.573135
O O10 0.543936 0.818907 0.842444
O O11 0.370316 0.866143 0.830525
O O12 0.146062 0.594241 0.484013
O O13 0.000000 0.500000 0.500000
O O14 0.293016 0.277249 0.298624
O O15 0.310852 0.179320 0.058751
O O16 0.810852 0.320680 0.319545
O O17 0.793016 0.277249 0.615344
#
# Coordination Sequence:
#
# PCOD9241488 Si02
#       8
#     4   4   4   4   4   4   4   4
#     4  11  22  40  60  80 111 156 195 230 281 338
#     4  10  19  36  59  83 115 146 187 237 280 338
#     4  10  19  36  59  83 115 146 187 237 280 338
#     4  11  22  40  60  80 111 156 195 230 281 338
#     4   9  20  34  56  91 110 146 182 232 294 333
#     4  10  19  36  59  83 117 145 186 239 277 339
#     4  10  19  36  59  83 117 145 186 239 277 339
#     4   9  20  34  56  91 110 146 182 232 294 333
#
# _framework density 17.509214
#
# number of rings (size 3 to 8) (size 9 to 14) (size 15 to 20)
#    0.000    2.000    2.500    1.500    0.000    0.000 
#    9.000    2.500    0.000    0.000    0.000    0.000 
#    0.000    0.000    0.000    0.000    0.000    0.000 
#
# Total GULP energy -178457.672770 kJ/mol
# GULP energy per Si atom -5576.802274 kJ/mol
# Density = 1.746936 g / cm^3
# Si number density = 17.509214 Si / 1000 Ang^3
#
#
#
# Elastic Constant Matrix: (Units=GPa)
#
#
# Indices 1 2 3 4 5 6 
#
# 1 92.3801 45.6288 62.4632 0.0000 2.6702 0.0000
# 2 45.6288 88.4012 45.4603 0.0000 -1.7635 0.0000
# 3 62.4632 45.4603 93.1014 0.0000 4.8738 0.0000
# 4 0.0000 0.0000 0.0000 22.5340 0.0000 -11.5128
# 5 2.6702 -1.7635 4.8738 0.0000 38.1083 0.0000
# 6 0.0000 0.0000 0.0000 -11.5128 0.0000 23.6356
#
#
#
# Elastic Compliance Matrix: (Units=1/GPa)
#
#
# Indices 1 2 3 4 5 6 
#
# 1 0.021271 -0.004873 -0.011881 0.000000 -0.000196 0.000000
# 2 -0.004873 0.016326 -0.004792 0.000000 0.001710 0.000000
# 3 -0.011881 -0.004792 0.021162 0.000000 -0.002096 0.000000
# 4 0.000000 0.000000 0.000000 0.059080 0.000000 0.028778
# 5 -0.000196 0.001710 -0.002096 0.000000 0.026602 0.000000
# 6 0.000000 0.000000 0.000000 0.028778 0.000000 0.056327
#
#
# Mechanical properties :
#
#
# Convention : Reuss Voigt Hill
#
# Bulk Modulus (GPa) = 63.83161 64.55415 64.19288
# Shear Modulus (GPa) = 20.07377 24.87762 22.47569
#
# Velocity S-wave (km/s) = 3.38963 3.77348 3.58669
# Velocity P-wave (km/s) = 7.20101 7.47892 7.34128
#
# Compressibility (1/GPa) = 0.01566622
#
# Stress axis : x y z
#
# Youngs Moduli (GPa) = 47.01210 61.25367 47.25509
#
# Poissons Ratio (x) = 0.29850 0.56145
# Poissons Ratio (y) = 0.22910 0.22643
# Poissons Ratio (z) = 0.55857 0.29350
#
# Static dielectric constant tensor:
#      x y z
#    x 1.578310 0.000000 -0.006700 
#    y 0.000000 1.602310 0.000000 
#    z -0.006700 0.000000 1.577670 
# 
# From -- ./inp_files/14292.got.cif
#   From: 2010.05.17/outbox.cif.g08.bks.cpg/sg14_8_cif.got.tgz:14292.got - 2010.06.03 17:49:19.
