data_PCOD9241292
_publ_section_title
;
Structure prediction by ZEFSAII (Michael W. Deem and Ramdas Pophale) SiO2 
 PCOD9241292
Probable space group: P 21/C
;
_chemical_formula_sum "Si O2"
_cell_formula_units_Z 20
_cell_length_a 20.204471
_cell_length_b 5.163312
_cell_length_c 27.377787
_cell_angle_alpha 90.000000
_cell_angle_beta 162.285692
_cell_angle_gamma 90.000000
_cell_volume 869.029834
_symmetry_space_group_name_H-M "P 21/C"
_symmetry_group_IT_number 14
_symmetry_cell_setting 'monoclinic'
loop_
_space_group_symop_operation_xyz
x,y,z
-x,1/2+y,1/2-z
-x,-y,-z
x,1/2-y,1/2+z
loop_
_atom_site_type_symbol
_atom_site_label
_atom_site_fract_x
_atom_site_fract_y
_atom_site_fract_z
Si Si1 0.114212 0.690709 0.816890
Si Si2 0.837154 0.074577 0.841123
Si Si3 0.912524 0.721309 0.075901
Si Si4 0.749364 0.572588 0.811835
Si Si5 0.353923 0.722757 0.581119
O O1 0.068779 0.384104 0.788391
O O2 0.094430 0.776860 0.747057
O O3 0.305485 0.749794 0.988976
O O4 0.663065 0.286604 0.737223
O O5 0.960595 0.208885 0.883758
O O6 0.749331 0.787080 0.769076
O O7 0.000000 0.000000 0.000000
O O8 0.767782 0.460677 0.978158
O O9 0.752092 0.960130 0.974321
O O10 0.613875 0.690106 0.761998
O O11 0.000000 0.500000 0.000000
#
# Coordination Sequence:
#
# PCOD9241292 Si02
#       5
#     4   4   4   4   4
#     4   8  16  30  52  82 112 138 180 242 290 326
#     4  10  21  38  55  77 114 151 181 232 288 332
#     4  10  19  35  59  84 109 147 195 237 281 342
#     4  10  21  38  55  77 114 151 181 232 288 332
#     4  10  19  35  59  84 109 147 195 237 281 342
#
# _framework density 23.014168000000002
#
# number of rings (size 3 to 8) (size 9 to 14) (size 15 to 20)
#    0.000    2.400    0.000    2.400    0.000    0.000 
#    0.000   18.000    0.000    0.000    0.000    0.000 
#    0.000    0.000    0.000    0.000    0.000    0.000 
#
# Total GULP energy -111344.197788 kJ/mol
# GULP energy per Si atom -5567.209889 kJ/mol
# Density = 2.296179 g / cm^3
# Si number density = 23.014168 Si / 1000 Ang^3
#
#
#
# Elastic Constant Matrix: (Units=GPa)
#
#
# Indices 1 2 3 4 5 6 
#
# 1 101.3867 22.7162 14.8167 0.0000 5.8351 0.0000
# 2 22.7162 201.3622 12.7230 0.0000 18.2824 0.0000
# 3 14.8167 12.7230 30.6331 0.0000 12.2053 0.0000
# 4 0.0000 0.0000 0.0000 20.7708 0.0000 9.5893
# 5 5.8351 18.2824 12.2053 0.0000 25.7759 0.0000
# 6 0.0000 0.0000 0.0000 9.5893 0.0000 27.5134
#
#
#
# Elastic Compliance Matrix: (Units=1/GPa)
#
#
# Indices 1 2 3 4 5 6 
#
# 1 0.010782 -0.000954 -0.005073 0.000000 0.000638 0.000000
# 2 -0.000954 0.005411 -0.000423 0.000000 -0.003422 0.000000
# 3 -0.005073 -0.000423 0.042765 0.000000 -0.018802 0.000000
# 4 0.000000 0.000000 0.000000 0.057377 0.000000 -0.019998
# 5 0.000638 -0.003422 -0.018802 0.000000 0.049982 0.000000
# 6 0.000000 0.000000 0.000000 -0.019998 0.000000 0.043316
#
#
# Mechanical properties :
#
#
# Convention : Reuss Voigt Hill
#
# Bulk Modulus (GPa) = 21.71123 48.21042 34.96082
# Shear Modulus (GPa) = 21.01868 33.68709 27.35289
#
# Velocity S-wave (km/s) = 3.02535 3.83005 3.45124
# Velocity P-wave (km/s) = 4.65382 6.36810 5.57722
#
# Compressibility (1/GPa) = 0.04605912
#
# Stress axis : x y z
#
# Youngs Moduli (GPa) = 92.75105 184.80304 23.38361
#
# Poissons Ratio (x) = 0.17624 0.11862
# Poissons Ratio (y) = 0.08845 0.00989
# Poissons Ratio (z) = 0.47051 0.07812
#
# Static dielectric constant tensor:
#      x y z
#    x 1.912670 0.000000 -0.060810 
#    y 0.000000 2.062890 0.000000 
#    z -0.060810 0.000000 2.050940 
# 
# From -- ./inp_files/42486.got.cif
#   From: 2010.05.17/outbox.cif.g08.bks.cpg/sg14_22_cif.got.tgz:42486.got - 2010.06.03 17:49:19.
