data_PCOD9241659
_publ_section_title
;
Structure prediction by ZEFSAII (Michael W. Deem and Ramdas Pophale) SiO2 
 PCOD9241659
Probable space group: P 21/C
;
_chemical_formula_sum "Si O2"
_cell_formula_units_Z 24
_cell_length_a 20.604062
_cell_length_b 10.756330
_cell_length_c 12.784228
_cell_angle_alpha 90.000000
_cell_angle_beta 19.880418
_cell_angle_gamma 90.000000
_cell_volume 963.484392
_symmetry_space_group_name_H-M "P 21/C"
_symmetry_group_IT_number 14
_symmetry_cell_setting 'monoclinic'
loop_
_space_group_symop_operation_xyz
x,y,z
-x,1/2+y,1/2-z
-x,-y,-z
x,1/2-y,1/2+z
loop_
_atom_site_type_symbol
_atom_site_label
_atom_site_fract_x
_atom_site_fract_y
_atom_site_fract_z
Si Si1 0.359397 0.879571 0.211241
Si Si2 0.909235 0.913928 0.359193
Si Si3 0.339948 0.211447 0.669517
Si Si4 0.196436 0.021225 0.054845
Si Si5 0.073439 0.360041 0.393022
Si Si6 0.814154 0.360490 0.242527
O O1 0.325543 0.835949 0.143240
O O2 0.164402 0.944711 0.543921
O O3 0.452312 0.772429 0.139364
O O4 0.500000 0.000000 0.000000
O O5 0.794555 0.833882 0.616715
O O6 0.869488 0.841016 0.313981
O O7 0.121966 0.924691 0.079272
O O8 0.251281 0.150206 0.701148
O O9 0.312786 0.120470 0.810509
O O10 0.999994 0.075325 0.404633
O O11 0.281190 0.951227 0.026941
O O12 0.000000 0.500000 0.500000
O O13 0.905453 0.259083 0.660779
#
# Coordination Sequence:
#
# PCOD9241659 Si02
#       6
#     4   4   4   4   4   4
#     4   9  22  41  65  94 137 177 216 274 345 398
#     4  10  20  39  62  96 134 174 219 281 328 392
#     4  11  21  39  67 100 133 172 221 278 330 403
#     4  10  19  36  70  95 127 173 227 278 321 394
#     4  12  23  37  67  99 129 176 232 272 325 401
#     4  10  21  39  66  95 128 177 228 267 337 396
#
# _framework density 24.909587999999999
#
# number of rings (size 3 to 8) (size 9 to 14) (size 15 to 20)
#    0.000    1.667    5.000    0.000    2.333    0.000 
#    0.000    7.500    0.000    0.000    0.000    0.000 
#    0.000    0.000    0.000    0.000    0.000    0.000 
#
# Total GULP energy -133967.433944 kJ/mol
# GULP energy per Si atom -5581.976414 kJ/mol
# Density = 2.485289 g / cm^3
# Si number density = 24.909588 Si / 1000 Ang^3
#
#
#
# Elastic Constant Matrix: (Units=GPa)
#
#
# Indices 1 2 3 4 5 6 
#
# 1 165.5244 64.7146 31.4502 0.0000 -11.8126 0.0000
# 2 64.7146 88.5791 23.6771 0.0000 -10.3323 0.0000
# 3 31.4502 23.6771 36.9049 0.0000 -7.7222 0.0000
# 4 0.0000 0.0000 0.0000 48.6133 0.0000 -2.1192
# 5 -11.8126 -10.3323 -7.7222 0.0000 29.2070 0.0000
# 6 0.0000 0.0000 0.0000 -2.1192 0.0000 47.1211
#
#
#
# Elastic Compliance Matrix: (Units=1/GPa)
#
#
# Indices 1 2 3 4 5 6 
#
# 1 0.008964 -0.005393 -0.004044 0.000000 0.000649 0.000000
# 2 -0.005393 0.017068 -0.005872 0.000000 0.002304 0.000000
# 3 -0.004044 -0.005872 0.035497 0.000000 0.005672 0.000000
# 4 0.000000 0.000000 0.000000 0.020611 0.000000 0.000927
# 5 0.000649 0.002304 0.005672 0.000000 0.036816 0.000000
# 6 0.000000 0.000000 0.000000 0.000927 0.000000 0.021264
#
#
# Mechanical properties :
#
#
# Convention : Reuss Voigt Hill
#
# Bulk Modulus (GPa) = 32.35035 58.96580 45.65807
# Shear Modulus (GPa) = 27.60279 36.39939 32.00109
#
# Velocity S-wave (km/s) = 3.33245 3.82679 3.58815
# Velocity P-wave (km/s) = 5.27468 6.57640 5.96118
#
# Compressibility (1/GPa) = 0.03091157
#
# Stress axis : x y z
#
# Youngs Moduli (GPa) = 111.55216 58.59062 28.17110
#
# Poissons Ratio (x) = 0.31596 0.11392
# Poissons Ratio (y) = 0.60156 0.16543
# Poissons Ratio (z) = 0.45111 0.34406
#
# Static dielectric constant tensor:
#      x y z
#    x 2.023190 0.000000 0.075190 
#    y 0.000000 2.023640 0.000000 
#    z 0.075190 0.000000 2.077410 
# 
# From -- ./inp_files/33851.got.cif
#   From: 2010.05.17/outbox.cif.g08.bks.cpg/sg14_17_cif.got.tgz:33851.got - 2010.06.03 17:49:19.
