data_PCOD9241850
_publ_section_title
;
Structure prediction by ZEFSAII (Michael W. Deem and Ramdas Pophale) SiO2 
 PCOD9241850
Probable space group: P 21/C
;
_chemical_formula_sum "Si O2"
_cell_formula_units_Z 32
_cell_length_a 17.788372
_cell_length_b 8.924076
_cell_length_c 13.986195
_cell_angle_alpha 90.000000
_cell_angle_beta 43.834535
_cell_angle_gamma 90.000000
_cell_volume 1537.686459
_symmetry_space_group_name_H-M "P 21/C"
_symmetry_group_IT_number 14
_symmetry_cell_setting 'monoclinic'
loop_
_space_group_symop_operation_xyz
x,y,z
-x,1/2+y,1/2-z
-x,-y,-z
x,1/2-y,1/2+z
loop_
_atom_site_type_symbol
_atom_site_label
_atom_site_fract_x
_atom_site_fract_y
_atom_site_fract_z
Si Si1 0.395172 0.006419 0.466655
Si Si2 0.078445 0.334074 0.348223
Si Si3 0.843200 0.571188 0.321875
Si Si4 0.642342 0.948318 0.274454
Si Si5 0.771937 0.252840 0.879508
Si Si6 0.844675 0.111992 0.111718
Si Si7 0.907152 0.019566 0.362056
Si Si8 0.261674 0.300828 0.936940
O O1 0.362698 0.053882 0.604925
O O2 0.343561 0.117949 0.436274
O O3 0.524201 0.993781 0.345255
O O4 0.338886 0.844234 0.503547
O O5 0.147829 0.183979 0.275860
O O6 0.113371 0.443378 0.401188
O O7 0.098658 0.426841 0.232464
O O8 0.949581 0.307880 0.472486
O O9 0.770605 0.424867 0.381136
O O10 0.801818 0.670384 0.447773
O O11 0.968320 0.524737 0.223459
O O12 0.675996 0.786921 0.202845
O O13 0.731637 0.075033 0.163992
O O14 0.816240 0.302408 0.735095
O O15 0.855721 0.321248 0.880176
O O16 0.828143 0.927497 0.504920
#
# Coordination Sequence:
#
# PCOD9241850 Si02
#       8
#     4   4   4   4   4   4   4   4
#     4   9  21  40  59  84 112 146 194 240 285 336
#     4   9  18  31  50  76 109 144 184 230 274 336
#     4  11  19  30  52  80 114 151 187 230 284 336
#     4  10  19  37  66  81 104 153 195 231 284 342
#     4   9  18  32  50  74 111 146 179 234 281 326
#     4   9  18  34  53  75 104 146 189 223 284 348
#     4   9  18  32  48  75 111 145 180 223 279 338
#     4  10  21  36  58  85 111 147 194 235 279 340
#
# _framework density 20.810485
#
# number of rings (size 3 to 8) (size 9 to 14) (size 15 to 20)
#    0.000    2.500    0.000    4.500    0.000    3.500 
#    0.000    2.500    0.000   21.750    0.000    0.000 
#    0.000    0.000    0.000    0.000    0.000    0.000 
#
# Total GULP energy -178607.771781 kJ/mol
# GULP energy per Si atom -5581.492868 kJ/mol
# Density = 2.076312 g / cm^3
# Si number density = 20.810485 Si / 1000 Ang^3
#
#
#
# Elastic Constant Matrix: (Units=GPa)
#
#
# Indices 1 2 3 4 5 6 
#
# 1 76.7807 15.9896 16.8232 0.0000 -19.4738 0.0000
# 2 15.9896 100.1825 18.3100 0.0000 -0.6960 0.0000
# 3 16.8232 18.3100 59.3814 0.0000 -18.2342 0.0000
# 4 0.0000 0.0000 0.0000 32.4909 0.0000 1.2572
# 5 -19.4738 -0.6960 -18.2342 0.0000 26.5910 0.0000
# 6 0.0000 0.0000 0.0000 1.2572 0.0000 14.8869
#
#
#
# Elastic Compliance Matrix: (Units=1/GPa)
#
#
# Indices 1 2 3 4 5 6 
#
# 1 0.016635 -0.002522 -0.000272 0.000000 0.011930 0.000000
# 2 -0.002522 0.011091 -0.004033 0.000000 -0.004322 0.000000
# 3 -0.000272 -0.004033 0.022886 0.000000 0.015389 0.000000
# 4 0.000000 0.000000 0.000000 0.030879 0.000000 -0.002608
# 5 0.011930 -0.004322 0.015389 0.000000 0.056783 0.000000
# 6 0.000000 0.000000 0.000000 -0.002608 0.000000 0.067393
#
#
# Mechanical properties :
#
#
# Convention : Reuss Voigt Hill
#
# Bulk Modulus (GPa) = 27.05691 37.62112 32.33902
# Shear Modulus (GPa) = 21.58512 27.14186 24.36349
#
# Velocity S-wave (km/s) = 3.22409 3.61534 3.42531
# Velocity P-wave (km/s) = 5.18551 5.96195 5.58723
#
# Compressibility (1/GPa) = 0.03695913
#
# Stress axis : x y z
#
# Youngs Moduli (GPa) = 60.11508 90.16014 43.69435
#
# Poissons Ratio (x) = 0.22743 0.01187
# Poissons Ratio (y) = 0.15164 0.17620
# Poissons Ratio (z) = 0.01633 0.36358
#
# Static dielectric constant tensor:
#      x y z
#    x 1.773500 0.000000 0.009430 
#    y 0.000000 1.767390 0.000000 
#    z 0.009430 0.000000 1.774550 
# 
# From -- ./inp_files/49934.got.cif
#   From: 2010.05.17/outbox.cif.g08.bks.cpg/sg14_25_cif.got.tgz:49934.got - 2010.06.03 17:49:19.
