data_PCOD9241965
_publ_section_title
;
Structure prediction by ZEFSAII (Michael W. Deem and Ramdas Pophale) SiO2 
 PCOD9241965
Probable space group: P 21/C
;
_chemical_formula_sum "Si O2"
_cell_formula_units_Z 24
_cell_length_a 10.997244
_cell_length_b 11.022928
_cell_length_c 22.023796
_cell_angle_alpha 90.000000
_cell_angle_beta 21.950366
_cell_angle_gamma 90.000000
_cell_volume 997.966783
_symmetry_space_group_name_H-M "P 21/C"
_symmetry_group_IT_number 14
_symmetry_cell_setting 'monoclinic'
loop_
_space_group_symop_operation_xyz
x,y,z
-x,1/2+y,1/2-z
-x,-y,-z
x,1/2-y,1/2+z
loop_
_atom_site_type_symbol
_atom_site_label
_atom_site_fract_x
_atom_site_fract_y
_atom_site_fract_z
Si Si1 0.082137 0.068354 0.821926
Si Si2 0.840793 0.963685 0.639333
Si Si3 0.166838 0.305336 0.020589
Si Si4 0.713567 0.285946 0.988845
Si Si5 0.648965 0.386015 0.894479
Si Si6 0.273407 0.600145 0.327694
O O1 0.363281 0.158975 0.667620
O O2 0.751926 0.142235 0.974994
O O3 0.115007 0.948467 0.764660
O O4 0.172465 0.029963 0.848239
O O5 0.476886 0.919243 0.794448
O O6 0.047343 0.858678 0.576272
O O7 0.000000 0.000000 0.500000
O O8 0.892668 0.088787 0.652424
O O9 0.015715 0.192257 0.054275
O O10 0.365522 0.308052 0.992222
O O11 0.447933 0.352101 0.846430
O O12 0.806258 0.312942 0.876063
O O13 0.500000 0.500000 0.000000
#
# Coordination Sequence:
#
# PCOD9241965 Si02
#       6
#     4   4   4   4   4   4
#     4  10  22  40  59  93 121 162 205 254 310 366
#     4  10  19  38  63  86 120 164 204 246 314 359
#     4  10  20  39  62  82 118 163 194 256 304 357
#     4  11  21  39  65  88 125 164 200 262 306 364
#     4   9  18  39  59  86 119 158 206 242 308 362
#     4  10  22  39  60  87 122 157 205 248 306 367
#
# _framework density 24.048898000000001
#
# number of rings (size 3 to 8) (size 9 to 14) (size 15 to 20)
#    0.000    2.000    6.667    0.000    2.333    5.333 
#    3.000    2.500    0.000    0.000    0.000    0.000 
#    0.000    0.000    0.000    0.000    0.000    0.000 
#
# Total GULP energy -133842.427382 kJ/mol
# GULP energy per Si atom -5576.767808 kJ/mol
# Density = 2.399416 g / cm^3
# Si number density = 24.048898 Si / 1000 Ang^3
#
#
#
# Elastic Constant Matrix: (Units=GPa)
#
#
# Indices 1 2 3 4 5 6 
#
# 1 137.5692 29.3404 26.7683 0.0000 -27.1976 0.0000
# 2 29.3404 75.2452 22.1432 0.0000 -22.3947 0.0000
# 3 26.7683 22.1432 57.9976 0.0000 -12.0178 0.0000
# 4 0.0000 0.0000 0.0000 46.6353 0.0000 -22.2861
# 5 -27.1976 -22.3947 -12.0178 0.0000 26.6524 0.0000
# 6 0.0000 0.0000 0.0000 -22.2861 0.0000 39.4126
#
#
#
# Elastic Compliance Matrix: (Units=1/GPa)
#
#
# Indices 1 2 3 4 5 6 
#
# 1 0.009467 -0.000558 -0.002484 0.000000 0.008072 0.000000
# 2 -0.000558 0.018666 -0.004122 0.000000 0.013256 0.000000
# 3 -0.002484 -0.004122 0.020649 0.000000 0.003312 0.000000
# 4 0.000000 0.000000 0.000000 0.029383 0.000000 0.016615
# 5 0.008072 0.013256 0.003312 0.000000 0.058389 0.000000
# 6 0.000000 0.000000 0.000000 0.016615 0.000000 0.034768
#
#
# Mechanical properties :
#
#
# Convention : Reuss Voigt Hill
#
# Bulk Modulus (GPa) = 29.02480 47.47951 38.25216
# Shear Modulus (GPa) = 25.36350 35.37739 30.37044
#
# Velocity S-wave (km/s) = 3.25108 3.83960 3.55753
# Velocity P-wave (km/s) = 5.11742 6.28033 5.72846
#
# Compressibility (1/GPa) = 0.03445329
#
# Stress axis : x y z
#
# Youngs Moduli (GPa) = 105.62719 53.57397 48.42930
#
# Poissons Ratio (x) = 0.02991 0.12029
# Poissons Ratio (y) = 0.05897 0.19963
# Poissons Ratio (z) = 0.26236 0.22084
#
# Static dielectric constant tensor:
#      x y z
#    x 2.041150 0.000000 0.028920 
#    y 0.000000 2.158480 0.000000 
#    z 0.028920 0.000000 1.954740 
# 
# From -- ./inp_files/12422.got.cif
#   From: 2010.05.17/outbox.cif.g08.bks.cpg/sg14_7_cif.got.tgz:12422.got - 2010.06.03 17:49:19.
