data_PCOD9241649
_publ_section_title
;
Structure prediction by ZEFSAII (Michael W. Deem and Ramdas Pophale) SiO2 
 PCOD9241649
Probable space group: P 21/C
;
_chemical_formula_sum "Si O2"
_cell_formula_units_Z 28
_cell_length_a 9.163319
_cell_length_b 14.079318
_cell_length_c 18.392475
_cell_angle_alpha 90.000000
_cell_angle_beta 37.110707
_cell_angle_gamma 90.000000
_cell_volume 1431.689932
_symmetry_space_group_name_H-M "P 21/C"
_symmetry_group_IT_number 14
_symmetry_cell_setting 'monoclinic'
loop_
_space_group_symop_operation_xyz
x,y,z
-x,1/2+y,1/2-z
-x,-y,-z
x,1/2-y,1/2+z
loop_
_atom_site_type_symbol
_atom_site_label
_atom_site_fract_x
_atom_site_fract_y
_atom_site_fract_z
Si Si1 0.425272 0.782541 0.888083
Si Si2 0.228301 0.126306 0.750279
Si Si3 0.619825 0.608319 0.527266
Si Si4 0.987335 0.886001 0.004977
Si Si5 0.749666 0.462036 0.865019
Si Si6 0.732138 0.939726 0.816193
Si Si7 0.209910 0.764097 0.134796
O O1 0.510685 0.674883 0.847867
O O2 0.664508 0.848599 0.795303
O O3 0.310362 0.785718 0.014012
O O4 0.238308 0.828432 0.906483
O O5 0.128702 0.134684 0.870702
O O6 0.054598 0.186468 0.763736
O O7 0.234663 0.019708 0.716990
O O8 0.821744 0.641065 0.502843
O O9 0.493636 0.510538 0.602748
O O10 0.726205 0.589123 0.404317
O O11 0.397319 0.680538 0.610801
O O12 0.000000 0.000000 0.000000
O O13 0.766798 0.347384 0.856928
O O14 0.006093 0.484181 0.803341
O O15 0.500000 0.500000 0.000000
#
# Coordination Sequence:
#
# PCOD9241649 Si02
#       7
#     4   4   4   4   4   4   4
#     4  10  20  38  61  87 122 162 197 252 306 366
#     4  11  22  39  60  91 124 166 201 249 313 367
#     4  10  20  39  61  94 115 152 210 264 296 349
#     4  11  22  39  62  90 122 159 207 249 310 367
#     4  12  22  36  61  93 121 158 202 254 308 366
#     4  10  19  36  66  90 115 151 211 260 295 352
#     4  10  21  37  62  87 119 153 211 256 299 355
#
# _framework density 19.557307999999999
#
# number of rings (size 3 to 8) (size 9 to 14) (size 15 to 20)
#    0.000    1.429    5.714    0.857    0.000    0.000 
#    5.143    0.000    0.000    1.714    0.000    0.000 
#    0.000    0.000    0.000    0.000    0.000    0.000 
#
# Total GULP energy -156027.961172 kJ/mol
# GULP energy per Si atom -5572.427185 kJ/mol
# Density = 1.951279 g / cm^3
# Si number density = 19.557308 Si / 1000 Ang^3
#
#
#
# Elastic Constant Matrix: (Units=GPa)
#
#
# Indices 1 2 3 4 5 6 
#
# 1 135.7451 43.6821 19.8533 0.0000 -23.3006 0.0000
# 2 43.6821 90.8703 -6.8742 0.0000 -9.7466 0.0000
# 3 19.8533 -6.8742 36.7951 0.0000 -17.6609 0.0000
# 4 0.0000 0.0000 0.0000 30.1707 0.0000 -7.8329
# 5 -23.3006 -9.7466 -17.6609 0.0000 20.6801 0.0000
# 6 0.0000 0.0000 0.0000 -7.8329 0.0000 29.1409
#
#
#
# Elastic Compliance Matrix: (Units=1/GPa)
#
#
# Indices 1 2 3 4 5 6 
#
# 1 0.010484 -0.004528 -0.003148 0.000000 0.006991 0.000000
# 2 -0.004528 0.015176 0.010613 0.000000 0.011114 0.000000
# 3 -0.003148 0.010613 0.053478 0.000000 0.047126 0.000000
# 4 0.000000 0.000000 0.000000 0.035631 0.000000 0.009577
# 5 0.006991 0.011114 0.047126 0.000000 0.101716 0.000000
# 6 0.000000 0.000000 0.000000 0.009577 0.000000 0.036890
#
#
# Mechanical properties :
#
#
# Convention : Reuss Voigt Hill
#
# Bulk Modulus (GPa) = 11.76280 41.85922 26.81101
# Shear Modulus (GPa) = 18.12651 29.78163 23.95407
#
# Velocity S-wave (km/s) = 3.04771 3.90652 3.50353
# Velocity P-wave (km/s) = 4.29095 6.46512 5.48680
#
# Compressibility (1/GPa) = 0.08501380
#
# Stress axis : x y z
#
# Youngs Moduli (GPa) = 95.38211 65.89179 18.69925
#
# Poissons Ratio (x) = 0.29837 0.05886
# Poissons Ratio (y) = 0.43190 -0.19846
# Poissons Ratio (z) = 0.30022 -0.69932
#
# Static dielectric constant tensor:
#      x y z
#    x 1.670620 0.000000 -0.064380 
#    y 0.000000 1.737090 0.000000 
#    z -0.064380 0.000000 1.680130 
# 
# From -- ./inp_files/24872.got.cif
#   From: 2010.05.17/outbox.cif.g08.bks.cpg/sg14_13_cif.got.tgz:24872.got - 2010.06.03 17:49:19.
