data_PCOD9241867
_publ_section_title
;
Structure prediction by ZEFSAII (Michael W. Deem and Ramdas Pophale) SiO2 
 PCOD9241867
Probable space group: P 21/C
;
_chemical_formula_sum "Si O2"
_cell_formula_units_Z 24
_cell_length_a 17.426027
_cell_length_b 8.002658
_cell_length_c 18.644605
_cell_angle_alpha 90.000000
_cell_angle_beta 22.900224
_cell_angle_gamma 90.000000
_cell_volume 1011.760705
_symmetry_space_group_name_H-M "P 21/C"
_symmetry_group_IT_number 14
_symmetry_cell_setting 'monoclinic'
loop_
_space_group_symop_operation_xyz
x,y,z
-x,1/2+y,1/2-z
-x,-y,-z
x,1/2-y,1/2+z
loop_
_atom_site_type_symbol
_atom_site_label
_atom_site_fract_x
_atom_site_fract_y
_atom_site_fract_z
Si Si1 0.615680 0.281406 0.337545
Si Si2 0.991393 0.162136 0.083181
Si Si3 0.961429 0.508977 0.870184
Si Si4 0.189456 0.504927 0.527619
Si Si5 0.420283 0.681408 0.797100
Si Si6 0.770943 0.846941 0.742683
O O1 0.570553 0.258040 0.293117
O O2 0.418276 0.274015 0.554163
O O3 0.704073 0.470524 0.269958
O O4 0.780621 0.158192 0.226561
O O5 0.983667 0.306168 0.150802
O O6 0.059004 0.999813 0.068092
O O7 0.144320 0.232096 0.892935
O O8 0.058647 0.473343 0.709947
O O9 0.060496 0.388687 0.844256
O O10 0.729070 0.475092 0.069554
O O11 0.362543 0.370110 0.367331
O O12 0.308088 0.675835 0.437171
#
# Coordination Sequence:
#
# PCOD9241867 Si02
#       6
#     4   4   4   4   4   4
#     4  10  20  38  69  91 125 171 216 263 315 380
#     4  11  22  41  65  99 123 168 221 266 316 383
#     4  11  21  43  68  95 127 172 218 263 318 384
#     4  12  28  40  65  96 136 170 214 269 331 387
#     4  12  24  44  64  95 133 173 212 271 326 383
#     4  10  19  37  70  96 121 167 224 257 309 391
#
# _framework density 23.721025999999998
#
# number of rings (size 3 to 8) (size 9 to 14) (size 15 to 20)
#    0.000    1.000    5.000    3.000    0.000    2.000 
#    0.000    0.833    0.000    0.000    0.000    0.000 
#    0.000    0.000    0.000    0.000    0.000    0.000 
#
# Total GULP energy -134483.223431 kJ/mol
# GULP energy per Si atom -5603.467643 kJ/mol
# Density = 2.366704 g / cm^3
# Si number density = 23.721026 Si / 1000 Ang^3
#
#
#
# Elastic Constant Matrix: (Units=GPa)
#
#
# Indices 1 2 3 4 5 6 
#
# 1 65.4277 -1.1487 28.0674 0.0000 6.7874 0.0000
# 2 -1.1487 55.2130 -3.7982 0.0000 1.9639 0.0000
# 3 28.0674 -3.7982 125.2653 0.0000 15.6838 0.0000
# 4 0.0000 0.0000 0.0000 12.7672 0.0000 -0.8011
# 5 6.7874 1.9639 15.6838 0.0000 43.6040 0.0000
# 6 0.0000 0.0000 0.0000 -0.8011 0.0000 30.0384
#
#
#
# Elastic Compliance Matrix: (Units=1/GPa)
#
#
# Indices 1 2 3 4 5 6 
#
# 1 0.016985 0.000151 -0.003633 0.000000 -0.001344 0.000000
# 2 0.000151 0.018198 0.000653 0.000000 -0.001078 0.000000
# 3 -0.003633 0.000653 0.009162 0.000000 -0.002759 0.000000
# 4 0.000000 0.000000 0.000000 0.078457 0.000000 0.002092
# 5 -0.001344 -0.001078 -0.002759 0.000000 0.024184 0.000000
# 6 0.000000 0.000000 0.000000 0.002092 0.000000 0.033346
#
#
# Mechanical properties :
#
#
# Convention : Reuss Voigt Hill
#
# Bulk Modulus (GPa) = 25.84801 32.46077 29.15439
# Shear Modulus (GPa) = 25.14012 32.13431 28.63722
#
# Velocity S-wave (km/s) = 3.25903 3.68459 3.47832
# Velocity P-wave (km/s) = 5.00819 5.64054 5.33374
#
# Compressibility (1/GPa) = 0.03868771
#
# Stress axis : x y z
#
# Youngs Moduli (GPa) = 58.87711 54.95082 109.14262
#
# Poissons Ratio (x) = -0.00831 0.39649
# Poissons Ratio (y) = -0.00891 -0.07126
# Poissons Ratio (z) = 0.21389 -0.03588
#
# Static dielectric constant tensor:
#      x y z
#    x 1.840450 0.000000 -0.018990 
#    y 0.000000 1.985170 0.000000 
#    z -0.018990 0.000000 1.833560 
# 
# From -- ./inp_files/69743.got.cif
#   From: 2010.05.17/outbox.cif.g08.bks.cpg/sg14_35_cif.got.tgz:69743.got - 2010.06.03 17:49:19.
