data_PCOD9241829
_publ_section_title
;
Structure prediction by ZEFSAII (Michael W. Deem and Ramdas Pophale) SiO2 
 PCOD9241829
Probable space group: P 21/C
;
_chemical_formula_sum "Si O2"
_cell_formula_units_Z 32
_cell_length_a 20.807647
_cell_length_b 14.370231
_cell_length_c 8.565314
_cell_angle_alpha 90.000000
_cell_angle_beta 146.128012
_cell_angle_gamma 90.000000
_cell_volume 1427.412964
_symmetry_space_group_name_H-M "P 21/C"
_symmetry_group_IT_number 14
_symmetry_cell_setting 'monoclinic'
loop_
_space_group_symop_operation_xyz
x,y,z
-x,1/2+y,1/2-z
-x,-y,-z
x,1/2-y,1/2+z
loop_
_atom_site_type_symbol
_atom_site_label
_atom_site_fract_x
_atom_site_fract_y
_atom_site_fract_z
Si Si1 0.452362 0.636753 0.656339
Si Si2 0.247619 0.555518 0.732865
Si Si3 0.968225 0.179638 0.117515
Si Si4 0.298719 0.368929 0.694612
Si Si5 0.874090 0.341362 0.108517
Si Si6 0.712136 0.998371 0.332271
Si Si7 0.227383 0.318102 0.209101
Si Si8 0.650200 0.219237 0.746244
O O1 0.397457 0.544247 0.473441
O O2 0.368146 0.682063 0.617008
O O3 0.452577 0.713874 0.519510
O O4 0.571052 0.619564 0.982229
O O5 0.127232 0.609063 0.509764
O O6 0.237568 0.466844 0.602122
O O7 0.334492 0.630566 0.834366
O O8 0.287625 0.520889 0.983840
O O9 0.921802 0.283798 0.059580
O O10 0.090678 0.166241 0.443115
O O11 0.970782 0.161180 0.937761
O O12 0.287927 0.340581 0.493787
O O13 0.245705 0.286408 0.689894
O O14 0.822043 0.443915 0.983648
O O15 0.764831 0.282939 0.959431
O O16 0.723636 0.890628 0.318811
#
# Coordination Sequence:
#
# PCOD9241829 Si02
#       8
#     4   4   4   4   4   4   4   4
#     4  11  22  39  64  89 122 161 195 249 304 347
#     4  10  23  41  63  92 121 155 204 250 297 362
#     4  10  21  38  63  89 121 159 193 249 304 346
#     4  12  27  42  59  87 122 161 204 248 298 360
#     4   9  18  36  62  92 118 150 199 246 297 357
#     4  10  22  40  63  90 119 157 203 246 298 362
#     4  12  26  42  60  87 122 161 205 247 299 361
#     4  10  19  37  64  94 121 153 203 248 297 361
#
# _framework density 22.418178999999999
#
# number of rings (size 3 to 8) (size 9 to 14) (size 15 to 20)
#    0.000    1.500    0.000    6.750    0.000    8.000 
#    0.000    0.000    0.000    0.000    0.000    0.000 
#    0.000    0.000    0.000    0.000    0.000    0.000 
#
# Total GULP energy -179094.623232 kJ/mol
# GULP energy per Si atom -5596.706976 kJ/mol
# Density = 2.236715 g / cm^3
# Si number density = 22.418179 Si / 1000 Ang^3
#
#
#
# Elastic Constant Matrix: (Units=GPa)
#
#
# Indices 1 2 3 4 5 6 
#
# 1 10.8888 16.4319 -63.4123 0.0000 18.8406 0.0000
# 2 16.4319 59.3789 71.2373 0.0000 -25.1673 0.0000
# 3 -63.4123 71.2373 -231.5811 0.0000 120.4852 0.0000
# 4 0.0000 0.0000 0.0000 13.6072 0.0000 -4.4261
# 5 18.8406 -25.1673 120.4852 0.0000 -23.3625 0.0000
# 6 0.0000 0.0000 0.0000 -4.4261 0.0000 25.6712
#
#
#
# Elastic Compliance Matrix: (Units=1/GPa)
#
#
# Indices 1 2 3 4 5 6 
#
# 1 0.043213 -0.000671 -0.003843 0.000000 0.015754 0.000000
# 2 -0.000671 0.012881 0.001993 0.000000 -0.004138 0.000000
# 3 -0.003843 0.001993 0.003198 0.000000 0.011245 0.000000
# 4 0.000000 0.000000 0.000000 0.077857 0.000000 0.013424
# 5 0.015754 -0.004138 0.011245 0.000000 0.032352 0.000000
# 6 0.000000 0.000000 0.000000 0.013424 0.000000 0.041269
#
#
# Mechanical properties :
#
#
# Convention : Reuss Voigt Hill
#
# Bulk Modulus (GPa) = 18.43280 -12.53327 2.94977
# Shear Modulus (GPa) = 21.37721 -9.18817 6.09452
#
# Velocity S-wave (km/s) = 3.09134 -2.02668 1.65059
# Velocity P-wave (km/s) = 4.58060 3.32857 2.22514
#
# Compressibility (1/GPa) = 0.05425110
#
# Stress axis : x y z
#
# Youngs Moduli (GPa) = 23.14127 77.63108 312.72522
#
# Poissons Ratio (x) = 0.05209 1.20170
# Poissons Ratio (y) = 0.01553 -0.62333
# Poissons Ratio (z) = 0.08892 -0.15473
#
# Static dielectric constant tensor:
#      x y z
#    x 1.836670 0.000000 0.015320 
#    y 0.000000 1.806460 0.000000 
#    z 0.015320 0.000000 1.837640 
# 
# From -- ./inp_files/19526.got.cif
#   From: 2010.05.17/outbox.cif.g08.bks.cpg/sg14_10_cif.got.tgz:19526.got - 2010.06.03 17:49:19.
