data_PCOD9241311
_publ_section_title
;
Structure prediction by ZEFSAII (Michael W. Deem and Ramdas Pophale) SiO2 
 PCOD9241311
Probable space group: P 21/C
;
_chemical_formula_sum "Si O2"
_cell_formula_units_Z 20
_cell_length_a 7.821765
_cell_length_b 5.177896
_cell_length_c 20.765965
_cell_angle_alpha 90.000000
_cell_angle_beta 65.209349
_cell_angle_gamma 90.000000
_cell_volume 763.523389
_symmetry_space_group_name_H-M "P 21/C"
_symmetry_group_IT_number 14
_symmetry_cell_setting 'monoclinic'
loop_
_space_group_symop_operation_xyz
x,y,z
-x,1/2+y,1/2-z
-x,-y,-z
x,1/2-y,1/2+z
loop_
_atom_site_type_symbol
_atom_site_label
_atom_site_fract_x
_atom_site_fract_y
_atom_site_fract_z
Si Si1 0.396437 0.661816 0.243841
Si Si2 0.179245 0.733538 0.948530
Si Si3 0.409156 0.235684 0.907146
Si Si4 0.209377 0.121983 0.549518
Si Si5 0.994592 0.683727 0.792498
O O1 0.463139 0.372867 0.247801
O O2 0.410191 0.722079 0.164906
O O3 0.183883 0.717042 0.297567
O O4 0.267365 0.465421 0.907637
O O5 0.967213 0.766105 0.957870
O O6 0.318975 0.960198 0.909092
O O7 0.182183 0.666217 0.024863
O O8 0.399663 0.275624 0.985762
O O9 0.173685 0.161315 0.629559
O O10 0.039442 0.404851 0.755045
#
# Coordination Sequence:
#
# PCOD9241311 Si02
#       5
#     4   4   4   4   4
#     4  12  25  43  71 100 135 173 229 283 329 386
#     4   9  19  31  66  91 122 152 232 273 320 360
#     4  10  19  35  59  94 118 159 219 277 314 366
#     4   9  21  36  63  88 126 173 220 263 321 400
#     4  12  28  45  65  98 146 182 213 268 352 411
#
# _framework density 26.194353
#
# number of rings (size 3 to 8) (size 9 to 14) (size 15 to 20)
#    1.200    0.400    0.000    5.400    2.800    0.000 
#    0.000    2.000    0.000    0.000    0.000    0.000 
#    0.000    0.000    0.000    0.000    0.000    0.000 
#
# Total GULP energy -111794.013616 kJ/mol
# GULP energy per Si atom -5589.700681 kJ/mol
# Density = 2.613473 g / cm^3
# Si number density = 26.194353 Si / 1000 Ang^3
#
#
#
# Elastic Constant Matrix: (Units=GPa)
#
#
# Indices 1 2 3 4 5 6 
#
# 1 62.7239 13.9059 -4.3476 0.0000 9.6052 0.0000
# 2 13.9059 135.9913 9.2389 0.0000 12.4483 0.0000
# 3 -4.3476 9.2389 172.7487 0.0000 -27.4205 0.0000
# 4 0.0000 0.0000 0.000012811.5561 0.0000**********
# 5 9.6052 12.4483 -27.4205 0.0000 25.2564 0.0000
# 6 0.0000 0.0000 0.0000********** 0.000057632.8896
#
#
#
# Elastic Compliance Matrix: (Units=1/GPa)
#
#
# Indices 1 2 3 4 5 6 
#
# 1 0.017159 -0.001115 -0.000552 0.000000 -0.006576 0.000000
# 2 -0.001115 0.007994 -0.001225 0.000000 -0.004846 0.000000
# 3 -0.000552 -0.001225 0.007212 0.000000 0.008644 0.000000
# 4 0.000000 0.000000 0.000000 0.019894 0.000000 0.009361
# 5 -0.006576 -0.004846 0.008644 0.000000 0.053868 0.000000
# 6 0.000000 0.000000 0.000000 0.009361 0.000000 0.004422
#
#
# Mechanical properties :
#
#
# Convention : Reuss Voigt Hill
#
# Bulk Modulus (GPa) = 37.62080 45.45093 41.53587
# Shear Modulus (GPa) = 39.93791 14117.45154 7078.69473
#
# Velocity S-wave (km/s) = 3.90895 73.49287 52.04076
# Velocity P-wave (km/s) = 5.89631 84.96465 60.22358
#
# Compressibility (1/GPa) = 0.02658104
#
# Stress axis : x y z
#
# Youngs Moduli (GPa) = 58.27919 125.09027 138.64911
#
# Poissons Ratio (x) = 0.13950 0.07657
# Poissons Ratio (y) = 0.06499 0.16982
# Poissons Ratio (z) = 0.03219 0.15321
#
# Static dielectric constant tensor:
#      x y z
#    x 2.011900 0.000000 0.067580 
#    y 0.000000 2.005030 0.000000 
#    z 0.067580 0.000000 2.243800 
# 
# From -- ./inp_files/64163.got.cif
#   From: 2010.05.17/outbox.cif.g08.bks.cpg/sg14_33_cif.got.tgz:64163.got - 2010.06.03 17:49:19.
