data_PCOD9241320
_publ_section_title
;
Structure prediction by ZEFSAII (Michael W. Deem and Ramdas Pophale) SiO2 
 PCOD9241320
Probable space group: P 21/C
;
_chemical_formula_sum "Si O2"
_cell_formula_units_Z 28
_cell_length_a 9.313507
_cell_length_b 17.771462
_cell_length_c 9.096872
_cell_angle_alpha 90.000000
_cell_angle_beta 107.165140
_cell_angle_gamma 90.000000
_cell_volume 1438.600256
_symmetry_space_group_name_H-M "P 21/C"
_symmetry_group_IT_number 14
_symmetry_cell_setting 'monoclinic'
loop_
_space_group_symop_operation_xyz
x,y,z
-x,1/2+y,1/2-z
-x,-y,-z
x,1/2-y,1/2+z
loop_
_atom_site_type_symbol
_atom_site_label
_atom_site_fract_x
_atom_site_fract_y
_atom_site_fract_z
Si Si1 0.883323 0.892138 0.681358
Si Si2 0.227124 0.051047 0.071575
Si Si3 0.502370 0.660485 0.375515
Si Si4 0.986515 0.174901 0.882787
Si Si5 0.645263 0.741723 0.173214
Si Si6 0.907650 0.678129 0.907922
Si Si7 0.801978 0.113177 0.064828
O O1 0.763941 0.824884 0.675059
O O2 0.898864 0.894810 0.510209
O O3 0.047759 0.873918 0.794697
O O4 0.820981 0.957099 0.770945
O O5 0.109470 0.112184 0.970423
O O6 0.213394 0.974496 0.979143
O O7 0.391881 0.087053 0.108417
O O8 0.511425 0.704173 0.224430
O O9 0.585747 0.715317 0.514969
O O10 0.340891 0.641401 0.389856
O O11 0.990975 0.175140 0.707917
O O12 0.832671 0.153605 0.917928
O O13 0.037739 0.253631 0.970780
O O14 0.742750 0.800243 0.298554
#
# Coordination Sequence:
#
# PCOD9241320 Si02
#       7
#     4   4   4   4   4   4   4
#     4  10  19  35  60  84 108 145 190 233 273 328
#     4  10  19  39  58  77 113 159 191 215 272 345
#     4  11  22  36  59  85 109 150 182 230 284 333
#     4  11  19  33  60  84 109 146 188 234 280 325
#     4  11  18  36  59  80 107 145 185 224 286 338
#     4  12  17  34  62  83 108 140 193 234 283 324
#     4  11  23  37  53  86 118 147 189 231 272 328
#
# _framework density 19.463365
#
# number of rings (size 3 to 8) (size 9 to 14) (size 15 to 20)
#    0.000    1.143    8.571    2.143    0.000    2.286 
#    0.000    2.857    0.000    0.857    0.000    0.000 
#    0.000    0.000    0.000    0.000    0.000    0.000 
#
# Total GULP energy -156192.233710 kJ/mol
# GULP energy per Si atom -5578.294061 kJ/mol
# Density = 1.941907 g / cm^3
# Si number density = 19.463365 Si / 1000 Ang^3
#
#
#
# Elastic Constant Matrix: (Units=GPa)
#
#
# Indices 1 2 3 4 5 6 
#
# 1 131.6682 8.1534 17.4242 0.0000 -32.3579 0.0000
# 2 8.1534 24.8625 -8.7072 0.0000 -6.1764 0.0000
# 3 17.4242 -8.7072 69.2892 0.0000 -31.7654 0.0000
# 4 0.0000 0.0000 0.0000 6.7815 0.0000 -7.1722
# 5 -32.3579 -6.1764 -31.7654 0.0000 34.3229 0.0000
# 6 0.0000 0.0000 0.0000 -7.1722 0.0000 19.4653
#
#
#
# Elastic Compliance Matrix: (Units=1/GPa)
#
#
# Indices 1 2 3 4 5 6 
#
# 1 0.010312 0.001222 0.003679 0.000000 0.013347 0.000000
# 2 0.001222 0.054094 0.019943 0.000000 0.029343 0.000000
# 3 0.003679 0.019943 0.033434 0.000000 0.038000 0.000000
# 4 0.000000 0.000000 0.000000 0.241616 0.000000 0.089026
# 5 0.013347 0.029343 0.038000 0.000000 0.082167 0.000000
# 6 0.000000 0.000000 0.000000 0.089026 0.000000 0.084176
#
#
# Mechanical properties :
#
#
# Convention : Reuss Voigt Hill
#
# Bulk Modulus (GPa) = 6.77834 28.84008 17.80921
# Shear Modulus (GPa) = 9.89535 26.04389 17.96962
#
# Velocity S-wave (km/s) = 2.25724 3.66197 3.04181
# Velocity P-wave (km/s) = 3.20682 5.72100 4.63754
#
# Compressibility (1/GPa) = 0.14752884
#
# Stress axis : x y z
#
# Youngs Moduli (GPa) = 96.97128 18.48631 29.90960
#
# Poissons Ratio (x) = -0.02260 -0.11004
# Poissons Ratio (y) = -0.11853 -0.59648
# Poissons Ratio (z) = -0.35678 -0.36867
#
# Static dielectric constant tensor:
#      x y z
#    x 1.698160 0.000000 -0.050110 
#    y 0.000000 1.696550 0.000000 
#    z -0.050110 0.000000 1.721500 
# 
# From -- ./inp_files/9530.got.cif
#   From: 2010.05.17/outbox.cif.g08.bks.cpg/sg14_5_cif.got.tgz:9530.got - 2010.06.03 17:49:19.
