data_PCOD9241843
_publ_section_title
;
Structure prediction by ZEFSAII (Michael W. Deem and Ramdas Pophale) SiO2 
 PCOD9241843
Probable space group: P 21/C
;
_chemical_formula_sum "Si O2"
_cell_formula_units_Z 32
_cell_length_a 12.444771
_cell_length_b 13.457593
_cell_length_c 18.139165
_cell_angle_alpha 90.000000
_cell_angle_beta 29.574767
_cell_angle_gamma 90.000000
_cell_volume 1499.376062
_symmetry_space_group_name_H-M "P 21/C"
_symmetry_group_IT_number 14
_symmetry_cell_setting 'monoclinic'
loop_
_space_group_symop_operation_xyz
x,y,z
-x,1/2+y,1/2-z
-x,-y,-z
x,1/2-y,1/2+z
loop_
_atom_site_type_symbol
_atom_site_label
_atom_site_fract_x
_atom_site_fract_y
_atom_site_fract_z
Si Si1 0.333438 0.125285 0.068441
Si Si2 0.391130 0.492860 0.680986
Si Si3 0.059331 0.023916 0.707698
Si Si4 0.013621 0.103700 0.581170
Si Si5 0.470996 0.583643 0.250685
Si Si6 0.433469 0.908791 0.396437
Si Si7 0.204468 0.188997 0.727990
Si Si8 0.169460 0.727322 0.941552
O O1 0.262808 0.236555 0.126329
O O2 0.410753 0.082451 0.101488
O O3 0.520160 0.099792 0.898792
O O4 0.131479 0.055428 0.166629
O O5 0.531227 0.455351 0.664699
O O6 0.135422 0.507066 0.850644
O O7 0.984975 0.100505 0.687107
O O8 0.122014 0.086726 0.741401
O O9 0.261729 0.962308 0.553057
O O10 0.272206 0.101355 0.416543
O O11 0.926318 0.186571 0.577766
O O12 0.414399 0.494434 0.229151
O O13 0.326932 0.680601 0.330532
O O14 0.580288 0.831505 0.352820
O O15 0.304829 0.855947 0.406205
O O16 0.023208 0.237873 0.888622
#
# Coordination Sequence:
#
# PCOD9241843 Si02
#       8
#     4   4   4   4   4   4   4   4
#     4  10  21  39  65  95 126 175 223 271 328 392
#     4  10  19  37  65  92 130 169 222 276 322 385
#     4  10  23  44  65  97 133 177 218 274 335 398
#     4  10  22  40  68  94 128 172 225 268 328 394
#     4  11  23  40  66  99 133 172 219 277 336 394
#     4  11  24  43  69  95 135 178 218 275 338 392
#     4  12  25  44  66  97 136 178 222 274 337 404
#     4  12  23  42  70 100 132 177 227 271 333 399
#
# _framework density 21.342210999999999
#
# number of rings (size 3 to 8) (size 9 to 14) (size 15 to 20)
#    0.000    1.250    2.500    3.750    1.750    4.500 
#    4.500    0.000    0.000    0.000    0.000    0.000 
#    0.000    0.000    0.000    0.000    0.000    0.000 
#
# Total GULP energy -178813.750759 kJ/mol
# GULP energy per Si atom -5587.929711 kJ/mol
# Density = 2.129363 g / cm^3
# Si number density = 21.342211 Si / 1000 Ang^3
#
#
#
# Elastic Constant Matrix: (Units=GPa)
#
#
# Indices 1 2 3 4 5 6 
#
# 1 56.5245 15.5423 11.7746 0.0000 -16.0015 0.0000
# 2 15.5423 81.3496 24.9822 0.0000 -11.9327 0.0000
# 3 11.7746 24.9822 55.4861 0.0000 -5.2905 0.0000
# 4 0.0000 0.0000 0.0000 35.3233 0.0000 -2.8246
# 5 -16.0015 -11.9327 -5.2905 0.0000 15.1419 0.0000
# 6 0.0000 0.0000 0.0000 -2.8246 0.0000 33.3928
#
#
#
# Elastic Compliance Matrix: (Units=1/GPa)
#
#
# Indices 1 2 3 4 5 6 
#
# 1 0.025709 -0.000214 -0.002881 0.000000 0.025993 0.000000
# 2 -0.000214 0.015659 -0.006051 0.000000 0.009999 0.000000
# 3 -0.002881 -0.006051 0.021324 0.000000 -0.000363 0.000000
# 4 0.000000 0.000000 0.000000 0.028503 0.000000 0.002411
# 5 0.025993 0.009999 -0.000363 0.000000 0.101264 0.000000
# 6 0.000000 0.000000 0.000000 0.002411 0.000000 0.030151
#
#
# Mechanical properties :
#
#
# Convention : Reuss Voigt Hill
#
# Bulk Modulus (GPa) = 22.52324 33.10647 27.81486
# Shear Modulus (GPa) = 19.55409 26.17567 22.86488
#
# Velocity S-wave (km/s) = 3.03019 3.50590 3.27669
# Velocity P-wave (km/s) = 4.77693 5.65105 5.23227
#
# Compressibility (1/GPa) = 0.04439859
#
# Stress axis : x y z
#
# Youngs Moduli (GPa) = 38.89710 63.86257 46.89591
#
# Poissons Ratio (x) = 0.01369 0.13509
# Poissons Ratio (y) = 0.00834 0.28378
# Poissons Ratio (z) = 0.11205 0.38645
#
# Static dielectric constant tensor:
#      x y z
#    x 1.752360 0.000000 0.003680 
#    y 0.000000 1.793140 0.000000 
#    z 0.003680 0.000000 1.808980 
# 
# From -- ./inp_files/57994.got.cif
#   From: 2010.05.17/outbox.cif.g08.bks.cpg/sg14_29_cif.got.tgz:57994.got - 2010.06.03 17:49:19.
