data_PCOD9241797
_publ_section_title
;
Structure prediction by ZEFSAII (Michael W. Deem and Ramdas Pophale) SiO2 
 PCOD9241797
Probable space group: P 21/C
;
_chemical_formula_sum "Si O2"
_cell_formula_units_Z 32
_cell_length_a 17.375033
_cell_length_b 8.369205
_cell_length_c 16.814499
_cell_angle_alpha 90.000000
_cell_angle_beta 31.630989
_cell_angle_gamma 90.000000
_cell_volume 1282.315708
_symmetry_space_group_name_H-M "P 21/C"
_symmetry_group_IT_number 14
_symmetry_cell_setting 'monoclinic'
loop_
_space_group_symop_operation_xyz
x,y,z
-x,1/2+y,1/2-z
-x,-y,-z
x,1/2-y,1/2+z
loop_
_atom_site_type_symbol
_atom_site_label
_atom_site_fract_x
_atom_site_fract_y
_atom_site_fract_z
Si Si1 0.148268 0.962461 0.414571
Si Si2 0.848492 0.075625 0.325935
Si Si3 0.590853 0.076583 0.219107
Si Si4 0.537557 0.356540 0.396925
Si Si5 0.531946 0.366144 0.037726
Si Si6 0.995078 0.241409 0.328788
Si Si7 0.261211 0.047342 0.045960
Si Si8 0.708683 0.864400 0.583034
O O1 0.297745 0.920655 0.237647
O O2 0.110429 0.814558 0.507182
O O3 0.200099 0.118699 0.418025
O O4 0.000000 0.000000 0.500000
O O5 0.937952 0.919686 0.215109
O O6 0.775418 0.999627 0.467835
O O7 0.707825 0.132312 0.399426
O O8 0.943065 0.218380 0.281580
O O9 0.556611 0.920010 0.304942
O O10 0.728260 0.078950 0.036996
O O11 0.566492 0.218402 0.303609
O O12 0.460794 0.089728 0.268803
O O13 0.487613 0.287563 0.526114
O O14 0.400020 0.452341 0.482069
O O15 0.500000 0.500000 0.000000
O O16 0.117916 0.096538 0.221277
O O17 0.277995 0.203726 0.976287
#
# Coordination Sequence:
#
# PCOD9241797 Si02
#       8
#     4   4   4   4   4   4   4   4
#     4  11  23  41  55  81 131 172 191 240 319 373
#     4   9  19  37  62  85 118 157 201 249 309 356
#     4   9  17  34  63  91 109 148 207 263 294 354
#     4  10  21  37  62  87 122 160 203 249 307 371
#     4   9  18  36  60  91 122 155 197 251 320 360
#     4  10  22  38  62  88 122 157 208 255 303 365
#     4  10  19  37  63  89 115 148 211 260 293 353
#     4   8  17  36  55  81 112 157 187 243 303 352
#
# _framework density 24.954851000000001
#
# number of rings (size 3 to 8) (size 9 to 14) (size 15 to 20)
#    0.000    2.500    1.250    2.250    1.750    3.000 
#    6.750    3.750    0.000    0.000    0.000    0.000 
#    0.000    0.000    0.000    0.000    0.000    0.000 
#
# Total GULP energy -178342.634924 kJ/mol
# GULP energy per Si atom -5573.207341 kJ/mol
# Density = 2.489805 g / cm^3
# Si number density = 24.954851 Si / 1000 Ang^3
#
#
#
# Elastic Constant Matrix: (Units=GPa)
#
#
# Indices 1 2 3 4 5 6 
#
# 1 158.5615 39.8801 26.2891 0.0000 -24.9981 0.0000
# 2 39.8801 53.7937 12.7970 0.0000 16.5356 0.0000
# 3 26.2891 12.7970 100.4654 0.0000 5.3430 0.0000
# 4 0.0000 0.0000 0.0000 32.1196 0.0000 9.0888
# 5 -24.9981 16.5356 5.3430 0.0000 29.6758 0.0000
# 6 0.0000 0.0000 0.0000 9.0888 0.0000 48.6184
#
#
#
# Elastic Compliance Matrix: (Units=1/GPa)
#
#
# Indices 1 2 3 4 5 6 
#
# 1 0.014520 -0.016904 -0.002825 0.000000 0.022159 0.000000
# 2 -0.016904 0.042609 0.001026 0.000000 -0.038166 0.000000
# 3 -0.002825 0.001026 0.010823 0.000000 -0.004900 0.000000
# 4 0.000000 0.000000 0.000000 0.032873 0.000000 -0.006145
# 5 0.022159 -0.038166 -0.004900 0.000000 0.074512 0.000000
# 6 0.000000 0.000000 0.000000 -0.006145 0.000000 0.021717
#
#
# Mechanical properties :
#
#
# Convention : Reuss Voigt Hill
#
# Bulk Modulus (GPa) = 32.73767 52.30590 42.52178
# Shear Modulus (GPa) = 20.43803 37.67304 29.05554
#
# Velocity S-wave (km/s) = 2.86492 3.88963 3.41592
# Velocity P-wave (km/s) = 4.90825 6.41701 5.71266
#
# Compressibility (1/GPa) = 0.03054585
#
# Stress axis : x y z
#
# Youngs Moduli (GPa) = 68.87035 23.46915 92.39770
#
# Poissons Ratio (x) = 0.39672 0.26100
# Poissons Ratio (y) = 1.16417 -0.09476
# Poissons Ratio (z) = 0.19454 -0.02407
#
# Static dielectric constant tensor:
#      x y z
#    x 1.992600 0.000000 -0.050760 
#    y 0.000000 2.629260 0.000000 
#    z -0.050760 0.000000 2.037720 
# 
# From -- ./inp_files/60532.got.cif
#   From: 2010.05.17/outbox.cif.g08.bks.cpg/sg14_31_cif.got.tgz:60532.got - 2010.06.03 17:49:19.
