data_PCOD9241856
_publ_section_title
;
Structure prediction by ZEFSAII (Michael W. Deem and Ramdas Pophale) SiO2 
 PCOD9241856
Probable space group: P 21/C
;
_chemical_formula_sum "Si O2"
_cell_formula_units_Z 28
_cell_length_a 14.236573
_cell_length_b 7.566056
_cell_length_c 20.235607
_cell_angle_alpha 90.000000
_cell_angle_beta 150.311541
_cell_angle_gamma 90.000000
_cell_volume 1079.556247
_symmetry_space_group_name_H-M "P 21/C"
_symmetry_group_IT_number 14
_symmetry_cell_setting 'monoclinic'
loop_
_space_group_symop_operation_xyz
x,y,z
-x,1/2+y,1/2-z
-x,-y,-z
x,1/2-y,1/2+z
loop_
_atom_site_type_symbol
_atom_site_label
_atom_site_fract_x
_atom_site_fract_y
_atom_site_fract_z
Si Si1 0.872351 0.830986 0.217895
Si Si2 0.529736 0.856049 0.349786
Si Si3 0.278520 0.991550 0.076133
Si Si4 0.131810 0.942060 0.490213
Si Si5 0.366630 0.396245 0.841981
Si Si6 0.087860 0.278840 0.555390
Si Si7 0.252367 0.822774 0.921928
O O1 0.767214 0.653408 0.178218
O O2 0.952630 0.926863 0.332696
O O3 0.053248 0.775000 0.283987
O O4 0.745440 0.981834 0.107921
O O5 0.421000 0.909931 0.216491
O O6 0.697082 0.001534 0.452386
O O7 0.412337 0.905123 0.344356
O O8 0.611670 0.660882 0.389694
O O9 0.096718 0.072345 0.004057
O O10 0.232965 0.862343 0.988526
O O11 0.101118 0.777030 0.521073
O O12 0.134424 0.104419 0.542444
O O13 0.256717 0.318718 0.710152
O O14 0.558363 0.287593 0.974297
#
# Coordination Sequence:
#
# PCOD9241856 Si02
#       7
#     4   4   4   4   4   4   4
#     4  11  26  41  66  91 126 171 220 256 319 378
#     4  10  19  37  66  94 128 168 203 268 326 374
#     4  10  21  37  63  94 128 167 211 255 328 381
#     4   9  16  34  59  89 125 156 202 256 306 371
#     4  10  21  45  65  95 126 165 210 270 319 382
#     4   8  17  32  62  94 120 155 204 253 318 371
#     4  12  25  44  64  91 129 175 212 265 311 380
#
# _framework density 25.936582000000001
#
# number of rings (size 3 to 8) (size 9 to 14) (size 15 to 20)
#    0.000    2.000    1.429    3.000    4.000    0.000 
#    2.571    6.429    0.000    0.000    0.000    0.000 
#    0.000    0.000    0.000    0.000    0.000    0.000 
#
# Total GULP energy -156534.182999 kJ/mol
# GULP energy per Si atom -5590.506536 kJ/mol
# Density = 2.587755 g / cm^3
# Si number density = 25.936582 Si / 1000 Ang^3
#
#
#
# Elastic Constant Matrix: (Units=GPa)
#
#
# Indices 1 2 3 4 5 6 
#
# 1 52.2159 -7.0259 22.4781 0.0000 12.5016 0.0000
# 2 -7.0259 85.9381 19.9095 0.0000 -5.6481 0.0000
# 3 22.4781 19.9095 66.8188 0.0000 2.1181 0.0000
# 4 0.0000 0.0000 0.0000 37.9696 0.0000 -2.3701
# 5 12.5016 -5.6481 2.1181 0.0000 32.0549 0.0000
# 6 0.0000 0.0000 0.0000 -2.3701 0.0000 39.7079
#
#
#
# Elastic Compliance Matrix: (Units=1/GPa)
#
#
# Indices 1 2 3 4 5 6 
#
# 1 0.025869 0.003747 -0.009540 0.000000 -0.008798 0.000000
# 2 0.003747 0.013237 -0.005243 0.000000 0.001218 0.000000
# 3 -0.009540 -0.005243 0.019690 0.000000 0.001496 0.000000
# 4 0.000000 0.000000 0.000000 0.026435 0.000000 0.001578
# 5 -0.008798 0.001218 0.001496 0.000000 0.034744 0.000000
# 6 0.000000 0.000000 0.000000 0.001578 0.000000 0.025278
#
#
# Mechanical properties :
#
#
# Convention : Reuss Voigt Hill
#
# Bulk Modulus (GPa) = 27.23066 30.63293 28.93179
# Shear Modulus (GPa) = 27.84479 33.25389 30.54934
#
# Velocity S-wave (km/s) = 3.28010 3.58456 3.43570
# Velocity P-wave (km/s) = 4.98669 5.38223 5.18823
#
# Compressibility (1/GPa) = 0.03672332
#
# Stress axis : x y z
#
# Youngs Moduli (GPa) = 38.65681 75.54387 50.78725
#
# Poissons Ratio (x) = -0.28304 0.48450
# Poissons Ratio (y) = -0.14484 0.26629
# Poissons Ratio (z) = 0.36878 0.39610
#
# Static dielectric constant tensor:
#      x y z
#    x 2.115150 0.000000 0.053740 
#    y 0.000000 2.095300 0.000000 
#    z 0.053740 0.000000 1.992390 
# 
# From -- ./inp_files/68365.got.cif
#   From: 2010.05.17/outbox.cif.g08.bks.cpg/sg14_35_cif.got.tgz:68365.got - 2010.06.03 17:49:19.
