data_PCOD9241781
_publ_section_title
;
Structure prediction by ZEFSAII (Michael W. Deem and Ramdas Pophale) SiO2 
 PCOD9241781
Probable space group: P 21/C
;
_chemical_formula_sum "Si O2"
_cell_formula_units_Z 24
_cell_length_a 10.164962
_cell_length_b 14.304823
_cell_length_c 15.411051
_cell_angle_alpha 90.000000
_cell_angle_beta 30.535880
_cell_angle_gamma 90.000000
_cell_volume 1138.546456
_symmetry_space_group_name_H-M "P 21/C"
_symmetry_group_IT_number 14
_symmetry_cell_setting 'monoclinic'
loop_
_space_group_symop_operation_xyz
x,y,z
-x,1/2+y,1/2-z
-x,-y,-z
x,1/2-y,1/2+z
loop_
_atom_site_type_symbol
_atom_site_label
_atom_site_fract_x
_atom_site_fract_y
_atom_site_fract_z
Si Si1 0.537557 0.856921 0.878016
Si Si2 0.489957 0.155618 0.661082
Si Si3 0.225573 0.451127 0.170120
Si Si4 0.004098 0.636767 0.249803
Si Si5 0.724412 0.043790 0.686502
Si Si6 0.077313 0.830345 0.271856
O O1 0.564059 0.766378 0.800753
O O2 0.758335 0.852201 0.827030
O O3 0.570769 0.955480 0.812148
O O4 0.269429 0.847186 0.081464
O O5 0.255437 0.108855 0.740289
O O6 0.744792 0.146693 0.454938
O O7 0.565791 0.097262 0.702406
O O8 0.019685 0.535070 0.283942
O O9 0.176978 0.384558 0.115400
O O10 0.500000 0.500000 0.000000
O O11 0.021237 0.720727 0.308710
O O12 0.796409 0.119908 0.718379
O O13 0.000000 0.000000 0.500000
#
# Coordination Sequence:
#
# PCOD9241781 Si02
#       6
#     4   4   4   4   4   4
#     4  11  22  41  65  90 129 167 208 261 313 371
#     4  10  22  39  63  92 129 160 204 263 315 367
#     4  10  19  37  62  90 119 165 208 247 306 378
#     4  10  20  39  65  91 121 167 209 254 307 375
#     4  12  23  42  64  93 126 166 208 259 323 367
#     4  11  23  39  66  91 121 168 216 249 304 387
#
# _framework density 21.079509999999999
#
# number of rings (size 3 to 8) (size 9 to 14) (size 15 to 20)
#    0.000    1.333    5.000    1.500    0.000    1.333 
#    3.000    0.833    0.000    0.000    0.000    0.000 
#    0.000    0.000    0.000    0.000    0.000    0.000 
#
# Total GULP energy -134063.335269 kJ/mol
# GULP energy per Si atom -5585.972303 kJ/mol
# Density = 2.103153 g / cm^3
# Si number density = 21.079510 Si / 1000 Ang^3
#
#
#
# Elastic Constant Matrix: (Units=GPa)
#
#
# Indices 1 2 3 4 5 6 
#
# 1 119.4501 64.7044 -15.8677 0.0000 3.9856 0.0000
# 2 64.7044 146.7149 -7.7384 0.0000 14.0800 0.0000
# 3 -15.8677 -7.7384 20.9330 0.0000 -6.0636 0.0000
# 4 0.0000 0.0000 0.0000 7.3202 0.0000 0.8765
# 5 3.9856 14.0800 -6.0636 0.0000 23.9817 0.0000
# 6 0.0000 0.0000 0.0000 0.8765 0.0000 35.5061
#
#
#
# Elastic Compliance Matrix: (Units=1/GPa)
#
#
# Indices 1 2 3 4 5 6 
#
# 1 0.012202 -0.005248 0.008216 0.000000 0.003131 0.000000
# 2 -0.005248 0.009528 -0.001968 0.000000 -0.005219 0.000000
# 3 0.008216 -0.001968 0.057416 0.000000 0.014307 0.000000
# 4 0.000000 0.000000 0.000000 0.137014 0.000000 -0.003382
# 5 0.003131 -0.005219 0.014307 0.000000 0.047860 0.000000
# 6 0.000000 0.000000 0.000000 -0.003382 0.000000 0.028248
#
#
# Mechanical properties :
#
#
# Convention : Reuss Voigt Hill
#
# Bulk Modulus (GPa) = 12.32373 41.03272 26.67822
# Shear Modulus (GPa) = 15.75718 29.76157 22.75938
#
# Velocity S-wave (km/s) = 2.73703 3.76157 3.28943
# Velocity P-wave (km/s) = 3.98089 6.19466 5.20679
#
# Compressibility (1/GPa) = 0.08114425
#
# Stress axis : x y z
#
# Youngs Moduli (GPa) = 81.95704 104.95825 17.41673
#
# Poissons Ratio (x) = 0.55085 -0.14309
# Poissons Ratio (y) = 0.43013 0.03428
# Poissons Ratio (z) = -0.67334 0.20656
#
# Static dielectric constant tensor:
#      x y z
#    x 1.761220 0.000000 -0.039380 
#    y 0.000000 1.784610 0.000000 
#    z -0.039380 0.000000 1.794680 
# 
# From -- ./inp_files/35342.got.cif
#   From: 2010.05.17/outbox.cif.g08.bks.cpg/sg14_18_cif.got.tgz:35342.got - 2010.06.03 17:49:19.
