data_PCOD9241876
_publ_section_title
;
Structure prediction by ZEFSAII (Michael W. Deem and Ramdas Pophale) SiO2 
 PCOD9241876
Probable space group: P 21/C
;
_chemical_formula_sum "Si O2"
_cell_formula_units_Z 32
_cell_length_a 19.514620
_cell_length_b 9.740515
_cell_length_c 27.097318
_cell_angle_alpha 90.000000
_cell_angle_beta 158.660599
_cell_angle_gamma 90.000000
_cell_volume 1874.306676
_symmetry_space_group_name_H-M "P 21/C"
_symmetry_group_IT_number 14
_symmetry_cell_setting 'monoclinic'
loop_
_space_group_symop_operation_xyz
x,y,z
-x,1/2+y,1/2-z
-x,-y,-z
x,1/2-y,1/2+z
loop_
_atom_site_type_symbol
_atom_site_label
_atom_site_fract_x
_atom_site_fract_y
_atom_site_fract_z
Si Si1 0.931028 0.561156 0.160040
Si Si2 0.065301 0.816331 0.980317
Si Si3 0.828059 0.012542 0.479652
Si Si4 0.162277 0.947397 0.224806
Si Si5 0.400658 0.024808 0.223221
Si Si6 0.461134 0.994368 0.572571
Si Si7 0.142711 0.664574 0.820706
Si Si8 0.913776 0.762117 0.988130
O O1 0.977794 0.419668 0.219645
O O2 0.072372 0.682274 0.266830
O O3 0.904327 0.535716 0.084236
O O4 0.720396 0.592175 0.040297
O O5 0.933688 0.910829 0.857535
O O6 0.100054 0.664683 0.983391
O O7 0.261622 0.898962 0.117648
O O8 0.973052 0.802369 0.972590
O O9 0.600958 0.015848 0.330911
O O10 0.893259 0.898847 0.484115
O O11 0.382938 0.954932 0.360483
O O12 0.127837 0.913038 0.258532
O O13 0.066334 0.829638 0.127051
O O14 0.442982 0.025233 0.310114
O O15 0.282923 0.161550 0.131861
O O16 0.356281 0.856540 0.483398
#
# Coordination Sequence:
#
# PCOD9241876 Si02
#       8
#     4   4   4   4   4   4   4   4
#     4   9  22  37  58  84 111 145 190 236 283 331
#     4  11  22  35  60  86 117 150 188 232 282 351
#     4  11  22  36  56  85 121 148 184 239 295 322
#     4  11  19  37  61  85 106 155 195 220 284 343
#     4  10  19  38  57  85 111 153 191 229 275 351
#     4   9  19  35  64  77 113 145 192 234 270 342
#     4  10  21  37  62  81 109 147 190 237 282 327
#     4  11  20  37  60  82 121 148 188 236 278 350
#
# _framework density 17.072980000000001
#
# number of rings (size 3 to 8) (size 9 to 14) (size 15 to 20)
#    0.750    1.000    3.750    2.250    1.750    0.000 
#    0.000    0.000    2.750    1.500    0.000    0.000 
#    0.000    0.000    0.000    0.000    0.000    0.000 
#
# Total GULP energy -178298.965627 kJ/mol
# GULP energy per Si atom -5571.842676 kJ/mol
# Density = 1.703412 g / cm^3
# Si number density = 17.072980 Si / 1000 Ang^3
#
#
#
# Elastic Constant Matrix: (Units=GPa)
#
#
# Indices 1 2 3 4 5 6 
#
# 1 15.3346 -2.0140 -5.2231 0.0000 3.6334 0.0000
# 2 -2.0140 82.0359 9.1415 0.0000 3.8630 0.0000
# 3 -5.2231 9.1415 38.4278 0.0000 4.0379 0.0000
# 4 0.0000 0.0000 0.0000 12.4840 0.0000 -3.6469
# 5 3.6334 3.8630 4.0379 0.0000 19.5158 0.0000
# 6 0.0000 0.0000 0.0000 -3.6469 0.0000 25.1966
#
#
#
# Elastic Compliance Matrix: (Units=1/GPa)
#
#
# Indices 1 2 3 4 5 6 
#
# 1 0.073080 0.001295 0.011328 0.000000 -0.016206 0.000000
# 2 0.001295 0.012614 -0.002593 0.000000 -0.002201 0.000000
# 3 0.011328 -0.002593 0.028977 0.000000 -0.007591 0.000000
# 4 0.000000 0.000000 0.000000 0.083639 0.000000 0.012106
# 5 -0.016206 -0.002201 -0.007591 0.000000 0.056264 0.000000
# 6 0.000000 0.000000 0.000000 0.012106 0.000000 0.041440
#
#
# Mechanical properties :
#
#
# Convention : Reuss Voigt Hill
#
# Bulk Modulus (GPa) = 7.42223 15.51191 11.46707
# Shear Modulus (GPa) = 15.58285 20.36556 17.97421
#
# Velocity S-wave (km/s) = 3.02440 3.45752 3.24819
# Velocity P-wave (km/s) = 4.06852 5.00446 4.56056
#
# Compressibility (1/GPa) = 0.13473035
#
# Stress axis : x y z
#
# Youngs Moduli (GPa) = 13.68360 79.27554 34.51000
#
# Poissons Ratio (x) = -0.10266 -0.39093
# Poissons Ratio (y) = -0.01772 0.08950
# Poissons Ratio (z) = -0.15501 0.20560
#
# Static dielectric constant tensor:
#      x y z
#    x 1.572300 0.000000 0.002060 
#    y 0.000000 1.558870 0.000000 
#    z 0.002060 0.000000 1.575500 
# 
# From -- ./inp_files/57065.got.cif
#   From: 2010.05.17/outbox.cif.g08.bks.cpg/sg14_29_cif.got.tgz:57065.got - 2010.06.03 17:49:19.
