data_PCOD9241046
_publ_section_title
;
Structure prediction by ZEFSAII (Michael W. Deem and Ramdas Pophale) SiO2 
 PCOD9241046
Probable space group: P 21/C
;
_chemical_formula_sum "Si O2"
_cell_formula_units_Z 32
_cell_length_a 12.197231
_cell_length_b 24.456854
_cell_length_c 8.348403
_cell_angle_alpha 90.000000
_cell_angle_beta 36.201067
_cell_angle_gamma 90.000000
_cell_volume 1470.868698
_symmetry_space_group_name_H-M "P 21/C"
_symmetry_group_IT_number 14
_symmetry_cell_setting 'monoclinic'
loop_
_space_group_symop_operation_xyz
x,y,z
-x,1/2+y,1/2-z
-x,-y,-z
x,1/2-y,1/2+z
loop_
_atom_site_type_symbol
_atom_site_label
_atom_site_fract_x
_atom_site_fract_y
_atom_site_fract_z
Si Si1 0.641369 0.511464 0.575304
Si Si2 0.591386 0.611145 0.821854
Si Si3 0.615324 0.232353 0.998099
Si Si4 0.937387 0.909548 0.129716
Si Si5 0.461648 0.176131 0.914466
Si Si6 0.760462 0.174717 0.119949
Si Si7 0.398025 0.569701 0.608453
Si Si8 0.063345 0.518224 0.188994
O O1 0.548260 0.548154 0.823813
O O2 0.571207 0.542783 0.498954
O O3 0.590320 0.448844 0.591110
O O4 0.857601 0.515809 0.358636
O O5 0.755979 0.612415 0.754491
O O6 0.654129 0.641386 0.580647
O O7 0.411482 0.641059 0.101430
O O8 0.435701 0.209588 0.111115
O O9 0.754103 0.266785 0.720028
O O10 0.543625 0.276958 0.207218
O O11 0.718362 0.187443 0.984576
O O12 0.886356 0.957079 0.315282
O O13 0.058349 0.861309 0.062385
O O14 0.054054 0.942440 0.855724
O O15 0.599759 0.130822 0.826729
O O16 0.209558 0.542989 0.895130
#
# Coordination Sequence:
#
# PCOD9241046 Si02
#       8
#     4   4   4   4   4   4   4   4
#     4   9  19  33  53  81 114 152 191 226 278 344
#     4   9  19  38  56  82 117 150 187 235 283 342
#     4   9  19  36  61  86 103 147 197 235 291 344
#     4  10  21  35  56  84 117 155 190 230 289 342
#     4   9  18  35  59  81 110 145 188 238 288 331
#     4  10  20  39  62  81 116 148 188 245 290 335
#     4  10  19  34  56  81 117 152 188 233 287 340
#     4  10  20  34  52  82 120 154 189 230 277 344
#
# _framework density 21.755849999999999
#
# number of rings (size 3 to 8) (size 9 to 14) (size 15 to 20)
#    0.000    2.500    0.000    2.625    1.750    1.000 
#    4.500   10.625    0.000    4.500    0.000    0.000 
#    0.000    0.000    0.000    0.000    0.000    0.000 
#
# Total GULP energy -178157.611904 kJ/mol
# GULP energy per Si atom -5567.425372 kJ/mol
# Density = 2.170633 g / cm^3
# Si number density = 21.755850 Si / 1000 Ang^3
#
#
#
# Elastic Constant Matrix: (Units=GPa)
#
#
# Indices 1 2 3 4 5 6 
#
# 1 138.4799 57.5597 16.8660 0.0000 -1.2768 0.0000
# 2 57.5597 76.1225 23.8276 0.0000 0.4979 0.0000
# 3 16.8660 23.8276 21.0395 0.0000 2.6119 0.0000
# 4 0.0000 0.0000 0.0000 20.2688 0.0000 11.5624
# 5 -1.2768 0.4979 2.6119 0.0000 22.3254 0.0000
# 6 0.0000 0.0000 0.0000 11.5624 0.0000 46.5468
#
#
#
# Elastic Compliance Matrix: (Units=1/GPa)
#
#
# Indices 1 2 3 4 5 6 
#
# 1 0.010553 -0.008224 0.000768 0.000000 0.000697 0.000000
# 2 -0.008224 0.026875 -0.024061 0.000000 0.001745 0.000000
# 3 0.000768 -0.024061 0.075183 0.000000 -0.008215 0.000000
# 4 0.000000 0.000000 0.000000 0.057482 0.000000 -0.014279
# 5 0.000697 0.001745 -0.008215 0.000000 0.045754 0.000000
# 6 0.000000 0.000000 0.000000 -0.014279 0.000000 0.025031
#
#
# Mechanical properties :
#
#
# Convention : Reuss Voigt Hill
#
# Bulk Modulus (GPa) = 20.17046 48.01647 34.09347
# Shear Modulus (GPa) = 15.60370 26.98745 21.29557
#
# Velocity S-wave (km/s) = 2.68100 3.52585 3.13204
# Velocity P-wave (km/s) = 4.34455 6.22045 5.36512
#
# Compressibility (1/GPa) = 0.04957744
#
# Stress axis : x y z
#
# Youngs Moduli (GPa) = 94.76338 37.20864 13.30095
#
# Poissons Ratio (x) = 0.30602 -0.01022
# Poissons Ratio (y) = 0.77937 0.32003
# Poissons Ratio (z) = -0.07281 0.89526
#
# Static dielectric constant tensor:
#      x y z
#    x 1.808040 0.000000 0.052600 
#    y 0.000000 1.898130 0.000000 
#    z 0.052600 0.000000 1.785420 
# 
# From -- ./inp_files/14612.got.cif
#   From: 2010.05.17/outbox.cif.g08.bks.cpg/sg14_8_cif.got.tgz:14612.got - 2010.06.03 17:49:19.
