data_PCOD9241986
_publ_section_title
;
Structure prediction by ZEFSAII (Michael W. Deem and Ramdas Pophale) SiO2 
 PCOD9241986
Probable space group: P 21/C
;
_chemical_formula_sum "Si O2"
_cell_formula_units_Z 28
_cell_length_a 21.111293
_cell_length_b 5.293496
_cell_length_c 15.318493
_cell_angle_alpha 90.000000
_cell_angle_beta 45.646903
_cell_angle_gamma 90.000000
_cell_volume 1224.071979
_symmetry_space_group_name_H-M "P 21/C"
_symmetry_group_IT_number 14
_symmetry_cell_setting 'monoclinic'
loop_
_space_group_symop_operation_xyz
x,y,z
-x,1/2+y,1/2-z
-x,-y,-z
x,1/2-y,1/2+z
loop_
_atom_site_type_symbol
_atom_site_label
_atom_site_fract_x
_atom_site_fract_y
_atom_site_fract_z
Si Si1 0.731642 0.075063 0.242489
Si Si2 0.915794 0.681343 0.604132
Si Si3 0.533923 0.905510 0.674277
Si Si4 0.566474 0.325513 0.383264
Si Si5 0.150215 0.937405 0.460876
Si Si6 0.006586 0.825276 0.190011
Si Si7 0.686388 0.814840 0.640004
O O1 0.637677 0.164516 0.371276
O O2 0.784568 0.331672 0.174649
O O3 0.812687 0.910212 0.201564
O O4 0.700740 0.942050 0.181037
O O5 0.000000 0.500000 0.500000
O O6 0.935763 0.749593 0.684578
O O7 0.917557 0.888236 0.525638
O O8 0.481210 0.697348 0.785086
O O9 0.493584 0.854641 0.618788
O O10 0.633946 0.818753 0.599761
O O11 0.500000 0.500000 0.500000
O O12 0.624870 0.506194 0.261881
O O13 0.101652 0.705931 0.552574
O O14 0.214593 0.078416 0.465120
O O15 0.005780 0.605209 0.262772
#
# Coordination Sequence:
#
# PCOD9241986 Si02
#       7
#     4   4   4   4   4   4   4
#     4  10  20  39  67  93 127 167 245 270 324 416
#     4  11  22  42  74  95 127 189 239 272 336 431
#     4  10  19  38  64  90 124 170 217 261 331 400
#     4  10  21  38  63  95 132 169 218 284 339 390
#     4  10  22  41  70  93 128 180 233 271 331 422
#     4  12  27  43  66 104 145 178 220 296 363 402
#     4   9  20  38  64  94 124 173 224 277 320 411
#
# _framework density 22.874472000000001
#
# number of rings (size 3 to 8) (size 9 to 14) (size 15 to 20)
#    0.000    1.714    2.857    1.286    4.000    0.571 
#    0.000    5.714    0.000    0.000    0.000    0.000 
#    0.000    0.000    0.000    0.000    0.000    0.000 
#
# Total GULP energy -156045.497463 kJ/mol
# GULP energy per Si atom -5573.053481 kJ/mol
# Density = 2.282241 g / cm^3
# Si number density = 22.874472 Si / 1000 Ang^3
#
#
#
# Elastic Constant Matrix: (Units=GPa)
#
#
# Indices 1 2 3 4 5 6 
#
# 1 134.1206 11.8859 26.8488 0.0000 -27.5214 0.0000
# 2 11.8859 58.9820 7.8713 0.0000 -8.6527 0.0000
# 3 26.8488 7.8713 57.1861 0.0000 -11.7540 0.0000
# 4 0.0000 0.0000 0.0000 33.9527 0.0000 -20.6962
# 5 -27.5214 -8.6527 -11.7540 0.0000 17.9949 0.0000
# 6 0.0000 0.0000 0.0000 -20.6962 0.0000 36.8659
#
#
#
# Elastic Compliance Matrix: (Units=1/GPa)
#
#
# Indices 1 2 3 4 5 6 
#
# 1 0.011064 0.000353 -0.001999 0.000000 0.015785 0.000000
# 2 0.000353 0.018285 -0.000883 0.000000 0.008755 0.000000
# 3 -0.001999 -0.000883 0.020596 0.000000 0.009972 0.000000
# 4 0.000000 0.000000 0.000000 0.044775 0.000000 0.025136
# 5 0.015785 0.008755 0.009972 0.000000 0.090437 0.000000
# 6 0.000000 0.000000 0.000000 0.025136 0.000000 0.041237
#
#
# Mechanical properties :
#
#
# Convention : Reuss Voigt Hill
#
# Bulk Modulus (GPa) = 22.27748 38.16674 30.22211
# Shear Modulus (GPa) = 20.29103 31.34154 25.81628
#
# Velocity S-wave (km/s) = 2.98159 3.70557 3.36312
# Velocity P-wave (km/s) = 4.64901 5.91861 5.32180
#
# Compressibility (1/GPa) = 0.04488838
#
# Stress axis : x y z
#
# Youngs Moduli (GPa) = 90.38387 54.68818 48.55245
#
# Poissons Ratio (x) = -0.01930 0.09703
# Poissons Ratio (y) = -0.03189 0.04287
# Poissons Ratio (z) = 0.18064 0.04829
#
# Static dielectric constant tensor:
#      x y z
#    x 1.932190 0.000000 -0.011530 
#    y 0.000000 1.935060 0.000000 
#    z -0.011530 0.000000 1.907820 
# 
# From -- ./inp_files/60876.got.cif
#   From: 2010.05.17/outbox.cif.g08.bks.cpg/sg14_31_cif.got.tgz:60876.got - 2010.06.03 17:49:19.
