data_PCOD9241462
_publ_section_title
;
Structure prediction by ZEFSAII (Michael W. Deem and Ramdas Pophale) SiO2 
 PCOD9241462
Probable space group: P 21/C
;
_chemical_formula_sum "Si O2"
_cell_formula_units_Z 28
_cell_length_a 9.789382
_cell_length_b 14.920379
_cell_length_c 14.860847
_cell_angle_alpha 90.000000
_cell_angle_beta 138.359625
_cell_angle_gamma 90.000000
_cell_volume 1442.258020
_symmetry_space_group_name_H-M "P 21/C"
_symmetry_group_IT_number 14
_symmetry_cell_setting 'monoclinic'
loop_
_space_group_symop_operation_xyz
x,y,z
-x,1/2+y,1/2-z
-x,-y,-z
x,1/2-y,1/2+z
loop_
_atom_site_type_symbol
_atom_site_label
_atom_site_fract_x
_atom_site_fract_y
_atom_site_fract_z
Si Si1 0.891201 0.207965 0.700761
Si Si2 0.912672 0.149847 0.903214
Si Si3 0.265348 0.643257 0.498661
Si Si4 0.659014 0.827917 0.084001
Si Si5 0.447029 0.128032 0.480375
Si Si6 0.331897 0.057263 0.080663
Si Si7 0.589124 0.998677 0.694959
O O1 0.101072 0.157409 0.777834
O O2 0.896426 0.216109 0.811287
O O3 0.862582 0.303285 0.639014
O O4 0.688222 0.149690 0.579529
O O5 0.785129 0.061408 0.811234
O O6 0.807452 0.183049 0.942041
O O7 0.146272 0.117779 0.028331
O O8 0.503281 0.659296 0.589610
O O9 0.242837 0.536613 0.498496
O O10 0.648363 0.724436 0.048779
O O11 0.584873 0.889692 0.964736
O O12 0.438841 0.062058 0.562004
O O13 0.359735 0.081058 0.348523
O O14 0.473685 0.034756 0.236596
#
# Coordination Sequence:
#
# PCOD9241462 Si02
#       7
#     4   4   4   4   4   4   4
#     4   9  20  37  52  85 115 140 188 237 273 340
#     4   9  19  35  58  86 108 148 200 229 270 346
#     4  10  19  36  58  81 113 153 184 228 294 326
#     4  10  21  36  56  84 116 145 183 237 295 326
#     4   9  19  35  55  83 109 152 184 234 281 333
#     4  10  20  35  58  88 111 150 193 232 280 348
#     4   9  17  34  57  79 109 140 197 230 269 331
#
# _framework density 19.414000999999999
#
# number of rings (size 3 to 8) (size 9 to 14) (size 15 to 20)
#    0.000    2.571    0.000    2.143    4.000    0.000 
#   20.571    0.000    0.000    3.429    0.000    0.000 
#    0.000    0.000    0.000    0.000    0.000    0.000 
#
# Total GULP energy -155952.253403 kJ/mol
# GULP energy per Si atom -5569.723336 kJ/mol
# Density = 1.936981 g / cm^3
# Si number density = 19.414001 Si / 1000 Ang^3
#
#
#
# Elastic Constant Matrix: (Units=GPa)
#
#
# Indices 1 2 3 4 5 6 
#
# 1 116.2110 19.0995 37.0876 0.0000 -16.5652 0.0000
# 2 19.0995 71.5262 34.8682 0.0000 -38.0306 0.0000
# 3 37.0876 34.8682 65.1855 0.0000 -19.5733 0.0000
# 4 0.0000 0.0000 0.0000 17.4442 0.0000 -7.7392
# 5 -16.5652 -38.0306 -19.5733 0.0000 32.9235 0.0000
# 6 0.0000 0.0000 0.0000 -7.7392 0.0000 17.9422
#
#
#
# Elastic Compliance Matrix: (Units=1/GPa)
#
#
# Indices 1 2 3 4 5 6 
#
# 1 0.010819 0.002737 -0.006130 0.000000 0.004960 0.000000
# 2 0.002737 0.041031 -0.010785 0.000000 0.042361 0.000000
# 3 -0.006130 -0.010785 0.024262 0.000000 -0.001119 0.000000
# 4 0.000000 0.000000 0.000000 0.070892 0.000000 0.030579
# 5 0.004960 0.042361 -0.001119 0.000000 0.081136 0.000000
# 6 0.000000 0.000000 0.000000 0.030579 0.000000 0.068925
#
#
# Mechanical properties :
#
#
# Convention : Reuss Voigt Hill
#
# Bulk Modulus (GPa) = 20.94022 48.33704 34.63863
# Shear Modulus (GPa) = 14.64821 24.45315 19.55068
#
# Velocity S-wave (km/s) = 2.74983 3.55288 3.17683
# Velocity P-wave (km/s) = 4.57074 6.46395 5.59796
#
# Compressibility (1/GPa) = 0.04775499
#
# Stress axis : x y z
#
# Youngs Moduli (GPa) = 92.43374 24.37171 41.21752
#
# Poissons Ratio (x) = -0.06670 0.25265
# Poissons Ratio (y) = -0.25297 0.44454
# Poissons Ratio (z) = 0.56659 0.26285
#
# Static dielectric constant tensor:
#      x y z
#    x 1.708140 0.000000 -0.004270 
#    y 0.000000 1.700290 0.000000 
#    z -0.004270 0.000000 1.692760 
# 
# From -- ./inp_files/41275.got.cif
#   From: 2010.05.17/outbox.cif.g08.bks.cpg/sg14_21_cif.got.tgz:41275.got - 2010.06.03 17:49:19.
