data_PCOD9241857
_publ_section_title
;
Structure prediction by ZEFSAII (Michael W. Deem and Ramdas Pophale) SiO2 
 PCOD9241857
Probable space group: P 21/C
;
_chemical_formula_sum "Si O2"
_cell_formula_units_Z 24
_cell_length_a 13.465494
_cell_length_b 7.184001
_cell_length_c 9.338334
_cell_angle_alpha 90.000000
_cell_angle_beta 95.913806
_cell_angle_gamma 90.000000
_cell_volume 898.546587
_symmetry_space_group_name_H-M "P 21/C"
_symmetry_group_IT_number 14
_symmetry_cell_setting 'monoclinic'
loop_
_space_group_symop_operation_xyz
x,y,z
-x,1/2+y,1/2-z
-x,-y,-z
x,1/2-y,1/2+z
loop_
_atom_site_type_symbol
_atom_site_label
_atom_site_fract_x
_atom_site_fract_y
_atom_site_fract_z
Si Si1 0.574358 0.861699 0.599100
Si Si2 0.592677 0.394474 0.368185
Si Si3 0.943573 0.425618 0.352993
Si Si4 0.201824 0.049304 0.379184
Si Si5 0.285074 0.645826 0.336078
Si Si6 0.110710 0.494300 0.150334
O O1 0.514440 0.672525 0.594479
O O2 0.500000 0.000000 0.500000
O O3 0.582004 0.932484 0.763163
O O4 0.689587 0.865597 0.571594
O O5 0.640509 0.231375 0.273050
O O6 0.663125 0.420207 0.512700
O O7 0.854214 0.560763 0.282189
O O8 0.906446 0.216481 0.374335
O O9 0.000000 0.500000 0.500000
O O10 0.021274 0.419195 0.232576
O O11 0.223983 0.827074 0.380343
O O12 0.128332 0.094307 0.498380
O O13 0.213247 0.493485 0.256312
#
# Coordination Sequence:
#
# PCOD9241857 Si02
#       6
#     4   4   4   4   4   4
#     4  11  22  41  66  96 132 171 221 271 319 386
#     4  11  21  39  67  95 129 173 222 265 320 385
#     4  11  24  39  67  98 128 166 224 273 324 393
#     4  10  21  39  65  88 131 173 213 254 331 386
#     4  10  19  37  66  95 121 175 228 250 317 401
#     4  11  22  42  68  96 127 173 218 272 327 390
#
# _framework density 26.709800999999999
#
# number of rings (size 3 to 8) (size 9 to 14) (size 15 to 20)
#    0.000    1.333    5.000    2.500    4.667    0.667 
#    0.000    5.000    0.000    0.000    0.000    0.000 
#    0.000    0.000    0.000    0.000    0.000    0.000 
#
# Total GULP energy -134626.269028 kJ/mol
# GULP energy per Si atom -5609.427876 kJ/mol
# Density = 2.664901 g / cm^3
# Si number density = 26.709801 Si / 1000 Ang^3
#
#
#
# Elastic Constant Matrix: (Units=GPa)
#
#
# Indices 1 2 3 4 5 6 
#
# 1 144.6600 17.4177 76.6869 0.0000 10.3766 0.0000
# 2 17.4177 50.6216 20.6998 0.0000 6.7600 0.0000
# 3 76.6869 20.6998 182.1596 0.0000 35.6588 0.0000
# 4 0.0000 0.0000 0.0000 31.1011 0.0000 -2.1056
# 5 10.3766 6.7600 35.6588 0.0000 71.0861 0.0000
# 6 0.0000 0.0000 0.0000 -2.1056 0.0000 48.6758
#
#
#
# Elastic Compliance Matrix: (Units=1/GPa)
#
#
# Indices 1 2 3 4 5 6 
#
# 1 0.009058 -0.001674 -0.003765 0.000000 0.000726 0.000000
# 2 -0.001674 0.021076 -0.001492 0.000000 -0.001011 0.000000
# 3 -0.003765 -0.001492 0.007883 0.000000 -0.003263 0.000000
# 4 0.000000 0.000000 0.000000 0.032248 0.000000 0.001395
# 5 0.000726 -0.001011 -0.003263 0.000000 0.015694 0.000000
# 6 0.000000 0.000000 0.000000 0.001395 0.000000 0.020604
#
#
# Mechanical properties :
#
#
# Convention : Reuss Voigt Hill
#
# Bulk Modulus (GPa) = 41.40090 67.44998 54.42544
# Shear Modulus (GPa) = 38.91720 47.68172 43.29946
#
# Velocity S-wave (km/s) = 3.82126 4.22972 4.03067
# Velocity P-wave (km/s) = 5.91636 7.01154 6.48710
#
# Compressibility (1/GPa) = 0.02415407
#
# Stress axis : x y z
#
# Youngs Moduli (GPa) = 110.39605 47.44813 126.85336
#
# Poissons Ratio (x) = 0.07943 0.47764
# Poissons Ratio (y) = 0.18480 0.18930
# Poissons Ratio (z) = 0.41567 0.07080
#
# Static dielectric constant tensor:
#      x y z
#    x 2.097000 0.000000 -0.043620 
#    y 0.000000 2.123310 0.000000 
#    z -0.043620 0.000000 1.975340 
# 
# From -- ./inp_files/12443.got.cif
#   From: 2010.05.17/outbox.cif.g08.bks.cpg/sg14_7_cif.got.tgz:12443.got - 2010.06.03 17:49:19.
