data_PCOD9241009
_publ_section_title
;
Structure prediction by ZEFSAII (Michael W. Deem and Ramdas Pophale) SiO2 
 PCOD9241009
Probable space group: P 21/C
;
_chemical_formula_sum "Si O2"
_cell_formula_units_Z 24
_cell_length_a 31.159134
_cell_length_b 4.887293
_cell_length_c 17.042852
_cell_angle_alpha 90.000000
_cell_angle_beta 27.180737
_cell_angle_gamma 90.000000
_cell_volume 1185.553223
_symmetry_space_group_name_H-M "P 21/C"
_symmetry_group_IT_number 14
_symmetry_cell_setting 'monoclinic'
loop_
_space_group_symop_operation_xyz
x,y,z
-x,1/2+y,1/2-z
-x,-y,-z
x,1/2-y,1/2+z
loop_
_atom_site_type_symbol
_atom_site_label
_atom_site_fract_x
_atom_site_fract_y
_atom_site_fract_z
Si Si1 0.152191 0.608901 0.129518
Si Si2 0.033012 0.388464 0.865007
Si Si3 0.500495 0.194597 0.690837
Si Si4 0.941568 0.523096 0.866128
Si Si5 0.402887 0.876971 0.624354
Si Si6 0.345202 0.146642 0.313710
O O1 0.071499 0.417051 0.298431
O O2 0.145604 0.544604 0.046855
O O3 0.119223 0.916798 0.197014
O O4 0.251237 0.499389 0.997438
O O5 0.945482 0.430778 0.948649
O O6 0.000000 0.500000 0.000000
O O7 0.521454 0.432257 0.719651
O O8 0.583349 0.136020 0.491968
O O9 0.413719 0.281237 0.774953
O O10 0.973258 0.836346 0.807875
O O11 0.389709 0.579232 0.683065
O O12 0.500000 0.000000 0.500000
O O13 0.329160 0.084290 0.785418
#
# Coordination Sequence:
#
# PCOD9241009 Si02
#       6
#     4   4   4   4   4   4
#     4  10  20  35  55  79 104 139 181 225 265 307
#     4  10  19  34  55  79 108 142 174 214 271 332
#     4  11  21  36  57  81 111 147 182 224 279 337
#     4   8  16  31  51  71  97 133 172 203 248 317
#     4  10  20  37  58  79 105 147 189 219 265 338
#     4  11  21  37  58  81 109 144 190 235 269 319
#
# _framework density 20.243711999999999
#
# number of rings (size 3 to 8) (size 9 to 14) (size 15 to 20)
#    0.000    2.000    0.000    6.500    0.000    0.000 
#    0.000    5.000    0.000    0.000    0.000    0.000 
#    0.000    0.000    0.000    0.000    0.000    0.000 
#
# Total GULP energy -133751.031939 kJ/mol
# GULP energy per Si atom -5572.959664 kJ/mol
# Density = 2.019764 g / cm^3
# Si number density = 20.243712 Si / 1000 Ang^3
#
#
#
# Elastic Constant Matrix: (Units=GPa)
#
#
# Indices 1 2 3 4 5 6 
#
# 1 64.5816 0.4210 23.6925 0.0000 18.3600 0.0000
# 2 0.4210 103.6606 6.1075 0.0000 9.7101 0.0000
# 3 23.6925 6.1075 41.3111 0.0000 13.6941 0.0000
# 4 0.0000 0.0000 0.0000 25.4577 0.0000 7.9235
# 5 18.3600 9.7101 13.6941 0.0000 34.8164 0.0000
# 6 0.0000 0.0000 0.0000 7.9235 0.0000 30.0097
#
#
#
# Elastic Compliance Matrix: (Units=1/GPa)
#
#
# Indices 1 2 3 4 5 6 
#
# 1 0.021268 0.001213 -0.009828 0.000000 -0.007688 0.000000
# 2 0.001213 0.009989 -0.001192 0.000000 -0.002956 0.000000
# 3 -0.009828 -0.001192 0.032418 0.000000 -0.007235 0.000000
# 4 0.000000 0.000000 0.000000 0.042798 0.000000 -0.011300
# 5 -0.007688 -0.002956 -0.007235 0.000000 0.036447 0.000000
# 6 0.000000 0.000000 0.000000 -0.011300 0.000000 0.036306
#
#
# Mechanical properties :
#
#
# Convention : Reuss Voigt Hill
#
# Bulk Modulus (GPa) = 22.69672 29.99950 26.34811
# Shear Modulus (GPa) = 23.41625 30.01222 26.71424
#
# Velocity S-wave (km/s) = 3.40474 3.85456 3.63661
# Velocity P-wave (km/s) = 5.16647 5.88740 5.53868
#
# Compressibility (1/GPa) = 0.04405923
#
# Stress axis : x y z
#
# Youngs Moduli (GPa) = 47.02009 100.10882 30.84714
#
# Poissons Ratio (x) = -0.12141 0.30317
# Poissons Ratio (y) = -0.05703 0.03678
# Poissons Ratio (z) = 0.46212 0.11936
#
# Static dielectric constant tensor:
#      x y z
#    x 1.748540 0.000000 -0.020190 
#    y 0.000000 1.746200 0.000000 
#    z -0.020190 0.000000 1.771180 
# 
# From -- ./inp_files/52143.got.cif
#   From: 2010.05.17/outbox.cif.g08.bks.cpg/sg14_27_cif.got.tgz:52143.got - 2010.06.03 17:49:19.
