data_PCOD9241509
_publ_section_title
;
Structure prediction by ZEFSAII (Michael W. Deem and Ramdas Pophale) SiO2 
 PCOD9241509
Probable space group: P 21/C
;
_chemical_formula_sum "Si O2"
_cell_formula_units_Z 28
_cell_length_a 21.103294
_cell_length_b 7.805124
_cell_length_c 17.242304
_cell_angle_alpha 90.000000
_cell_angle_beta 152.837504
_cell_angle_gamma 90.000000
_cell_volume 1296.525373
_symmetry_space_group_name_H-M "P 21/C"
_symmetry_group_IT_number 14
_symmetry_cell_setting 'monoclinic'
loop_
_space_group_symop_operation_xyz
x,y,z
-x,1/2+y,1/2-z
-x,-y,-z
x,1/2-y,1/2+z
loop_
_atom_site_type_symbol
_atom_site_label
_atom_site_fract_x
_atom_site_fract_y
_atom_site_fract_z
Si Si1 0.518141 0.529667 0.813226
Si Si2 0.102559 0.119772 0.190260
Si Si3 0.613369 0.101452 0.673872
Si Si4 0.302446 0.806155 0.387700
Si Si5 0.876232 0.895156 0.022737
Si Si6 0.975749 0.163160 0.421326
Si Si7 0.277106 0.176552 0.988707
O O1 0.453471 0.640026 0.814922
O O2 0.640168 0.642273 0.909266
O O3 0.397900 0.465844 0.624931
O O4 0.578134 0.357410 0.921501
O O5 0.183684 0.282819 0.312804
O O6 0.222865 0.989489 0.296350
O O7 0.007125 0.183167 0.016554
O O8 0.006264 0.021999 0.148311
O O9 0.744131 0.982277 0.837396
O O10 0.500000 0.000000 0.500000
O O11 0.656206 0.241257 0.655772
O O12 0.180582 0.679350 0.280364
O O13 0.829169 0.868202 0.058774
O O14 0.918784 0.712489 0.032005
O O15 0.000000 0.000000 0.500000
#
# Coordination Sequence:
#
# PCOD9241509 Si02
#       7
#     4   4   4   4   4   4   4
#     4   9  20  35  57  82 114 155 187 234 282 344
#     4  10  19  36  60  80 115 156 189 234 289 352
#     4   9  15  30  61  81  98 142 196 228 264 341
#     4   9  16  35  59  80 107 149 197 230 281 349
#     4  10  19  38  58  82 114 151 196 231 283 356
#     4  11  21  33  56  89 115 142 187 253 293 324
#     4  10  22  38  57  85 117 153 193 233 289 348
#
# _framework density 21.596184999999998
#
# number of rings (size 3 to 8) (size 9 to 14) (size 15 to 20)
#    0.000    2.286    2.857    0.857    0.000    2.286 
#    2.571    7.143    0.000    3.429    0.000    0.000 
#    0.000    0.000    0.000    0.000    0.000    0.000 
#
# Total GULP energy -155951.567463 kJ/mol
# GULP energy per Si atom -5569.698838 kJ/mol
# Density = 2.154703 g / cm^3
# Si number density = 21.596185 Si / 1000 Ang^3
#
#
#
# Elastic Constant Matrix: (Units=GPa)
#
#
# Indices 1 2 3 4 5 6 
#
# 1 40.7360 -2.5494 6.3207 0.0000 14.4078 0.0000
# 2 -2.5494 46.0254 -5.4721 0.0000 2.0207 0.0000
# 3 6.3207 -5.4721 98.1385 0.0000 -4.3562 0.0000
# 4 0.0000 0.0000 0.0000 24.3029 0.0000 -1.3345
# 5 14.4078 2.0207 -4.3562 0.0000 29.0864 0.0000
# 6 0.0000 0.0000 0.0000 -1.3345 0.0000 23.7502
#
#
#
# Elastic Compliance Matrix: (Units=1/GPa)
#
#
# Indices 1 2 3 4 5 6 
#
# 1 0.030627 0.002082 -0.002553 0.000000 -0.015698 0.000000
# 2 0.002082 0.022066 0.000989 0.000000 -0.002416 0.000000
# 3 -0.002553 0.000989 0.010532 0.000000 0.002773 0.000000
# 4 0.000000 0.000000 0.000000 0.041275 0.000000 0.002319
# 5 -0.015698 -0.002416 0.002773 0.000000 0.042739 0.000000
# 6 0.000000 0.000000 0.000000 0.002319 0.000000 0.042235
#
#
# Mechanical properties :
#
#
# Convention : Reuss Voigt Hill
#
# Bulk Modulus (GPa) = 15.56147 20.16647 17.86397
# Shear Modulus (GPa) = 23.82548 27.86797 25.84672
#
# Velocity S-wave (km/s) = 3.32509 3.59613 3.46326
# Velocity P-wave (km/s) = 4.68646 5.15762 4.92768
#
# Compressibility (1/GPa) = 0.06426128
#
# Stress axis : x y z
#
# Youngs Moduli (GPa) = 32.65095 45.31833 94.94530
#
# Poissons Ratio (x) = -0.09436 0.24242
# Poissons Ratio (y) = -0.06798 -0.09390
# Poissons Ratio (z) = 0.08337 -0.04482
#
# Static dielectric constant tensor:
#      x y z
#    x 1.850300 0.000000 0.015360 
#    y 0.000000 1.862240 0.000000 
#    z 0.015360 0.000000 1.798080 
# 
# From -- ./inp_files/61088.got.cif
#   From: 2010.05.17/outbox.cif.g08.bks.cpg/sg14_31_cif.got.tgz:61088.got - 2010.06.03 17:49:19.
