data_PCOD9241326
_publ_section_title
;
Structure prediction by ZEFSAII (Michael W. Deem and Ramdas Pophale) SiO2 
 PCOD9241326
Probable space group: P 21/C
;
_chemical_formula_sum "Si O2"
_cell_formula_units_Z 32
_cell_length_a 10.903486
_cell_length_b 16.261248
_cell_length_c 16.515872
_cell_angle_alpha 90.000000
_cell_angle_beta 33.352986
_cell_angle_gamma 90.000000
_cell_volume 1609.985444
_symmetry_space_group_name_H-M "P 21/C"
_symmetry_group_IT_number 14
_symmetry_cell_setting 'monoclinic'
loop_
_space_group_symop_operation_xyz
x,y,z
-x,1/2+y,1/2-z
-x,-y,-z
x,1/2-y,1/2+z
loop_
_atom_site_type_symbol
_atom_site_label
_atom_site_fract_x
_atom_site_fract_y
_atom_site_fract_z
Si Si1 0.998862 0.907654 0.908174
Si Si2 0.264238 0.468882 0.597993
Si Si3 0.049999 0.170830 0.321620
Si Si4 0.361520 0.190841 0.623822
Si Si5 0.197262 0.739955 0.201164
Si Si6 0.326875 0.443807 0.274021
Si Si7 0.950438 0.600993 0.830416
Si Si8 0.814867 0.030943 0.538283
O O1 0.805001 0.928570 0.949100
O O2 0.131157 0.828394 0.803223
O O3 0.860008 0.899890 0.067502
O O4 0.186701 0.979180 0.814810
O O5 0.500000 0.500000 0.500000
O O6 0.188924 0.403700 0.706817
O O7 0.108198 0.548494 0.685764
O O8 0.217403 0.243087 0.254224
O O9 0.921126 0.211179 0.317119
O O10 0.889822 0.123656 0.472113
O O11 0.550287 0.238929 0.469290
O O12 0.419228 0.116779 0.653159
O O13 0.226788 0.146453 0.626913
O O14 0.105062 0.827305 0.282028
O O15 0.549133 0.469179 0.202014
O O16 0.843090 0.535315 0.950070
O O17 0.000000 0.000000 0.500000
#
# Coordination Sequence:
#
# PCOD9241326 Si02
#       8
#     4   4   4   4   4   4   4   4
#     4  10  23  39  61  92 125 162 213 253 313 373
#     4  10  19  35  60  87 121 158 205 256 305 364
#     4   9  21  36  58  92 117 159 209 252 311 372
#     4  11  20  39  67  91 123 160 215 264 309 367
#     4  10  20  39  63  90 122 155 208 266 310 365
#     4  11  23  41  64  91 125 172 206 261 313 368
#     4  10  22  37  63  92 115 164 214 252 309 378
#     4  11  24  42  62  90 132 169 207 256 324 382
#
# _framework density 19.875957
#
# number of rings (size 3 to 8) (size 9 to 14) (size 15 to 20)
#    0.000    1.750    2.500    1.500    3.500    2.000 
#    0.000    0.000    8.250    0.000    0.000    0.000 
#    0.000    0.000    0.000    0.000    0.000    0.000 
#
# Total GULP energy -178159.043831 kJ/mol
# GULP energy per Si atom -5567.470120 kJ/mol
# Density = 1.983072 g / cm^3
# Si number density = 19.875957 Si / 1000 Ang^3
#
#
#
# Elastic Constant Matrix: (Units=GPa)
#
#
# Indices 1 2 3 4 5 6 
#
# 1 40.4801 -3.2689 4.9824 0.0000 -16.5222 0.0000
# 2 -3.2689 76.5496 16.3489 0.0000 1.0698 0.0000
# 3 4.9824 16.3489 69.8465 0.0000 -11.9841 0.0000
# 4 0.0000 0.0000 0.0000 8.0432 0.0000 -5.5715
# 5 -16.5222 1.0698 -11.9841 0.0000 30.9466 0.0000
# 6 0.0000 0.0000 0.0000 -5.5715 0.0000 16.9969
#
#
#
# Elastic Compliance Matrix: (Units=1/GPa)
#
#
# Indices 1 2 3 4 5 6 
#
# 1 0.031693 0.001024 0.000425 0.000000 0.017050 0.000000
# 2 0.001024 0.013883 -0.003547 0.000000 -0.001307 0.000000
# 3 0.000425 -0.003547 0.016257 0.000000 0.006645 0.000000
# 4 0.000000 0.000000 0.000000 0.160851 0.000000 0.052726
# 5 0.017050 -0.001307 0.006645 0.000000 0.044035 0.000000
# 6 0.000000 0.000000 0.000000 0.052726 0.000000 0.076118
#
#
# Mechanical properties :
#
#
# Convention : Reuss Voigt Hill
#
# Bulk Modulus (GPa) = 17.34977 24.77789 21.06383
# Shear Modulus (GPa) = 13.65208 22.45162 18.05185
#
# Velocity S-wave (km/s) = 2.62365 3.36458 3.01695
# Velocity P-wave (km/s) = 4.23392 5.25235 4.77039
#
# Compressibility (1/GPa) = 0.05763766
#
# Stress axis : x y z
#
# Youngs Moduli (GPa) = 31.55287 72.03090 61.51143
#
# Poissons Ratio (x) = -0.07379 -0.02613
# Poissons Ratio (y) = -0.03232 0.21817
# Poissons Ratio (z) = -0.01340 0.25548
#
# Static dielectric constant tensor:
#      x y z
#    x 2.621110 0.000000 -0.386530 
#    y 0.000000 1.704950 0.000000 
#    z -0.386530 0.000000 1.874510 
# 
# From -- ./inp_files/57999.got.cif
#   From: 2010.05.17/outbox.cif.g08.bks.cpg/sg14_29_cif.got.tgz:57999.got - 2010.06.03 17:49:19.
