data_PCOD9241695
_publ_section_title
;
Structure prediction by ZEFSAII (Michael W. Deem and Ramdas Pophale) SiO2 
 PCOD9241695
Probable space group: P 21/C
;
_chemical_formula_sum "Si O2"
_cell_formula_units_Z 32
_cell_length_a 15.963736
_cell_length_b 8.678569
_cell_length_c 11.518573
_cell_angle_alpha 90.000000
_cell_angle_beta 58.121974
_cell_angle_gamma 90.000000
_cell_volume 1355.121308
_symmetry_space_group_name_H-M "P 21/C"
_symmetry_group_IT_number 14
_symmetry_cell_setting 'monoclinic'
loop_
_space_group_symop_operation_xyz
x,y,z
-x,1/2+y,1/2-z
-x,-y,-z
x,1/2-y,1/2+z
loop_
_atom_site_type_symbol
_atom_site_label
_atom_site_fract_x
_atom_site_fract_y
_atom_site_fract_z
Si Si1 0.690983 0.485287 0.316346
Si Si2 0.868388 0.194409 0.752156
Si Si3 0.321875 0.287697 0.041446
Si Si4 0.002297 0.914080 0.688425
Si Si5 0.981425 0.822138 0.022374
Si Si6 0.444939 0.091993 0.641527
Si Si7 0.529167 0.594175 0.270931
Si Si8 0.164918 0.131424 0.481603
O O1 0.752101 0.337683 0.318200
O O2 0.674386 0.606635 0.432338
O O3 0.590505 0.479992 0.312434
O O4 0.765716 0.566435 0.169996
O O5 0.916335 0.337474 0.786479
O O6 0.919653 0.234729 0.592243
O O7 0.914430 0.037408 0.775544
O O8 0.344416 0.362974 0.150508
O O9 0.222401 0.348247 0.058318
O O10 0.399593 0.338523 0.884052
O O11 0.957046 0.764542 0.659386
O O12 0.071876 0.021373 0.559922
O O13 0.886872 0.790799 0.011781
O O14 0.000000 0.000000 0.000000
O O15 0.497342 0.254975 0.634805
O O16 0.500000 0.000000 0.500000
O O17 0.446272 0.992553 0.757491
#
# Coordination Sequence:
#
# PCOD9241695 Si02
#       8
#     4   4   4   4   4   4   4   4
#     4  10  19  37  59  83 118 159 194 246 301 355
#     4  11  22  37  57  81 117 157 207 254 301 354
#     4   9  20  34  64  90 118 159 194 242 304 370
#     4  11  22  36  54  82 111 158 206 254 300 344
#     4  11  22  36  55  82 113 159 207 255 300 356
#     4   9  18  39  64  93 122 157 201 243 301 375
#     4   9  19  38  66  92 121 158 196 241 304 367
#     4  10  20  38  58  80 120 155 199 254 302 349
#
# _framework density 23.614121999999998
#
# number of rings (size 3 to 8) (size 9 to 14) (size 15 to 20)
#    0.000    2.000    2.500    1.500    5.250    1.000 
#    2.250    5.625    5.500    0.000    0.000    0.000 
#    0.000    0.000    0.000    0.000    0.000    0.000 
#
# Total GULP energy -178344.521715 kJ/mol
# GULP energy per Si atom -5573.266304 kJ/mol
# Density = 2.356038 g / cm^3
# Si number density = 23.614122 Si / 1000 Ang^3
#
#
#
# Elastic Constant Matrix: (Units=GPa)
#
#
# Indices 1 2 3 4 5 6 
#
# 1 101.2626 31.6616 19.7270 0.0000 31.6690 0.0000
# 2 31.6616 75.2012 12.4741 0.0000 20.5539 0.0000
# 3 19.7270 12.4741 48.1498 0.0000 3.7241 0.0000
# 4 0.0000 0.0000 0.0000 37.1250 0.0000 13.0817
# 5 31.6690 20.5539 3.7241 0.0000 25.3766 0.0000
# 6 0.0000 0.0000 0.0000 13.0817 0.0000 39.7406
#
#
#
# Elastic Compliance Matrix: (Units=1/GPa)
#
#
# Indices 1 2 3 4 5 6 
#
# 1 0.017604 -0.000937 -0.005391 0.000000 -0.020420 0.000000
# 2 -0.000937 0.017694 -0.003219 0.000000 -0.012691 0.000000
# 3 -0.005391 -0.003219 0.023354 0.000000 0.005907 0.000000
# 4 0.000000 0.000000 0.000000 0.030470 0.000000 -0.010030
# 5 -0.020420 -0.012691 0.005907 0.000000 0.074302 0.000000
# 6 0.000000 0.000000 0.000000 -0.010030 0.000000 0.028465
#
#
# Mechanical properties :
#
#
# Convention : Reuss Voigt Hill
#
# Bulk Modulus (GPa) = 25.27740 39.14878 32.21309
# Shear Modulus (GPa) = 22.30460 31.16515 26.73488
#
# Velocity S-wave (km/s) = 3.07668 3.63680 3.36840
# Velocity P-wave (km/s) = 4.83207 5.85232 5.36649
#
# Compressibility (1/GPa) = 0.03956103
#
# Stress axis : x y z
#
# Youngs Moduli (GPa) = 56.80373 56.51479 42.81903
#
# Poissons Ratio (x) = 0.05293 0.23082
# Poissons Ratio (y) = 0.05320 0.13783
# Poissons Ratio (z) = 0.30621 0.18191
#
# Static dielectric constant tensor:
#      x y z
#    x 1.944450 0.000000 0.054180 
#    y 0.000000 1.936300 0.000000 
#    z 0.054180 0.000000 2.003270 
# 
# From -- ./inp_files/31792.got.cif
#   From: 2010.05.17/outbox.cif.g08.bks.cpg/sg14_16_cif.got.tgz:31792.got - 2010.06.03 17:49:19.
