data_PCOD9241040
_publ_section_title
;
Structure prediction by ZEFSAII (Michael W. Deem and Ramdas Pophale) SiO2 
 PCOD9241040
Probable space group: P 21/C
;
_chemical_formula_sum "Si O2"
_cell_formula_units_Z 28
_cell_length_a 18.711967
_cell_length_b 12.875307
_cell_length_c 25.745327
_cell_angle_alpha 90.000000
_cell_angle_beta 168.581684
_cell_angle_gamma 90.000000
_cell_volume 1227.937783
_symmetry_space_group_name_H-M "P 21/C"
_symmetry_group_IT_number 14
_symmetry_cell_setting 'monoclinic'
loop_
_space_group_symop_operation_xyz
x,y,z
-x,1/2+y,1/2-z
-x,-y,-z
x,1/2-y,1/2+z
loop_
_atom_site_type_symbol
_atom_site_label
_atom_site_fract_x
_atom_site_fract_y
_atom_site_fract_z
Si Si1 0.417975 0.096770 0.067112
Si Si2 0.192286 0.027198 0.739858
Si Si3 0.096105 0.022201 0.229943
Si Si4 0.340704 0.185020 0.474107
Si Si5 0.840009 0.896689 0.952249
Si Si6 0.442026 0.422806 0.148636
Si Si7 0.737122 0.287567 0.895360
O O1 0.322342 0.192150 0.961826
O O2 0.616965 0.149813 0.257756
O O3 0.668422 0.015456 0.215895
O O4 0.055817 0.044971 0.830689
O O5 0.089878 0.149048 0.664062
O O6 0.843305 0.963799 0.512090
O O7 0.500000 0.000000 0.000000
O O8 0.112744 0.137687 0.264455
O O9 0.500000 0.000000 0.500000
O O10 0.870788 0.980177 0.021220
O O11 0.228399 0.134215 0.449303
O O12 0.764762 0.150391 0.774031
O O13 0.568716 0.808644 0.778982
O O14 0.644743 0.972869 0.772172
O O15 0.712599 0.332393 0.361895
#
# Coordination Sequence:
#
# PCOD9241040 Si02
#       7
#     4   4   4   4   4   4   4
#     4  10  20  36  57  80 109 153 192 232 291 353
#     4  11  22  36  58  87 119 148 192 250 292 338
#     4   9  19  36  56  81 112 148 190 236 288 346
#     4  10  19  34  56  80 110 148 190 238 286 341
#     4   9  18  34  55  77 108 147 193 238 283 342
#     4  10  20  35  55  81 113 151 189 234 290 347
#     4   9  20  37  55  78 111 153 192 230 287 353
#
# _framework density 22.802457
#
# number of rings (size 3 to 8) (size 9 to 14) (size 15 to 20)
#    0.000    2.286    0.000    2.571    0.000    2.286 
#    0.000    7.143    0.000    6.857    0.000    0.000 
#    0.000    0.000    0.000    0.000    0.000    0.000 
#
# Total GULP energy -156204.234187 kJ/mol
# GULP energy per Si atom -5578.722650 kJ/mol
# Density = 2.275056 g / cm^3
# Si number density = 22.802457 Si / 1000 Ang^3
#
#
#
# Elastic Constant Matrix: (Units=GPa)
#
#
# Indices 1 2 3 4 5 6 
#
# 1 46.5559 15.5337 18.5477 0.0000 22.9920 0.0000
# 2 15.5337 96.2263 24.7876 0.0000 14.9882 0.0000
# 3 18.5477 24.7876 81.8301 0.0000 19.2809 0.0000
# 4 0.0000 0.0000 0.0000 27.8768 0.0000 -8.4525
# 5 22.9920 14.9882 19.2809 0.0000 40.2750 0.0000
# 6 0.0000 0.0000 0.0000 -8.4525 0.0000 35.2521
#
#
#
# Elastic Compliance Matrix: (Units=1/GPa)
#
#
# Indices 1 2 3 4 5 6 
#
# 1 0.030921 -0.001843 -0.002765 0.000000 -0.015643 0.000000
# 2 -0.001843 0.011687 -0.002644 0.000000 -0.002032 0.000000
# 3 -0.002765 -0.002644 0.014703 0.000000 -0.004476 0.000000
# 4 0.000000 0.000000 0.000000 0.038685 0.000000 0.009276
# 5 -0.015643 -0.002032 -0.004476 0.000000 0.036659 0.000000
# 6 0.000000 0.000000 0.000000 0.009276 0.000000 0.030591
#
#
# Mechanical properties :
#
#
# Convention : Reuss Voigt Hill
#
# Bulk Modulus (GPa) = 23.35990 38.03891 30.69940
# Shear Modulus (GPa) = 26.03931 31.73033 28.88482
#
# Velocity S-wave (km/s) = 3.38294 3.73437 3.56299
# Velocity P-wave (km/s) = 5.05230 5.94240 5.51534
#
# Compressibility (1/GPa) = 0.04280840
#
# Stress axis : x y z
#
# Youngs Moduli (GPa) = 32.34027 85.56408 68.01476
#
# Poissons Ratio (x) = 0.15768 0.18804
# Poissons Ratio (y) = 0.05960 0.17982
# Poissons Ratio (z) = 0.08941 0.22622
#
# Static dielectric constant tensor:
#      x y z
#    x 1.958990 0.000000 -0.045180 
#    y 0.000000 1.850410 0.000000 
#    z -0.045180 0.000000 1.871620 
# 
# From -- ./inp_files/80546.got.cif
#   From: 2010.05.17/outbox.cif.g08.bks.cpg/sg14_41_cif.got.tgz:80546.got - 2010.06.03 17:49:19.
