data_PCOD9241008
_publ_section_title
;
Structure prediction by ZEFSAII (Michael W. Deem and Ramdas Pophale) SiO2 
 PCOD9241008
Probable space group: P 21/C
;
_chemical_formula_sum "Si O2"
_cell_formula_units_Z 32
_cell_length_a 10.730321
_cell_length_b 15.859709
_cell_length_c 14.395819
_cell_angle_alpha 90.000000
_cell_angle_beta 140.769967
_cell_angle_gamma 90.000000
_cell_volume 1549.389087
_symmetry_space_group_name_H-M "P 21/C"
_symmetry_group_IT_number 14
_symmetry_cell_setting 'monoclinic'
loop_
_space_group_symop_operation_xyz
x,y,z
-x,1/2+y,1/2-z
-x,-y,-z
x,1/2-y,1/2+z
loop_
_atom_site_type_symbol
_atom_site_label
_atom_site_fract_x
_atom_site_fract_y
_atom_site_fract_z
Si Si1 0.194062 0.246871 0.699923
Si Si2 0.127169 0.707223 0.620194
Si Si3 0.422566 0.972039 0.134074
Si Si4 0.626739 0.232807 0.898045
Si Si5 0.195287 0.517064 0.674615
Si Si6 0.868840 0.549512 0.849910
Si Si7 0.961396 0.217730 0.235884
Si Si8 0.952993 0.020999 0.205071
O O1 0.414806 0.267347 0.799986
O O2 0.146739 0.150192 0.643756
O O3 0.044231 0.304712 0.555483
O O4 0.151219 0.258661 0.783990
O O5 0.289177 0.758215 0.654125
O O6 0.210733 0.617303 0.697104
O O7 0.042791 0.748917 0.662962
O O8 0.391647 0.869838 0.117227
O O9 0.376147 0.006231 0.211137
O O10 0.643858 0.985555 0.226402
O O11 0.246887 0.004112 0.965991
O O12 0.781608 0.252498 0.068798
O O13 0.000000 0.500000 0.500000
O O14 0.139057 0.481952 0.742768
O O15 0.960204 0.534719 0.801048
O O16 0.000000 0.500000 0.000000
O O17 0.935295 0.117680 0.224938
#
# Coordination Sequence:
#
# PCOD9241008 Si02
#       8
#     4   4   4   4   4   4   4   4
#     4  10  20  36  53  76 106 136 167 210 259 306
#     4  10  19  34  55  79 103 133 171 214 257 304
#     4   8  17  34  55  74  98 132 175 214 249 297
#     4   8  18  34  52  73 103 134 168 211 256 302
#     4   9  17  34  58  79  98 131 177 220 253 296
#     4  11  21  34  51  77 109 138 164 205 260 311
#     4  10  20  35  52  76 104 134 171 213 252 300
#     4  10  19  35  55  76 100 134 175 213 249 300
#
# _framework density 20.653300999999999
#
# number of rings (size 3 to 8) (size 9 to 14) (size 15 to 20)
#    0.000    2.500    0.000    4.125    0.000    1.000 
#    0.000   14.375    0.000    0.000    0.000    0.000 
#    0.000    0.000    0.000    0.000    0.000    0.000 
#
# Total GULP energy -178473.172726 kJ/mol
# GULP energy per Si atom -5577.286648 kJ/mol
# Density = 2.060629 g / cm^3
# Si number density = 20.653301 Si / 1000 Ang^3
#
#
#
# Elastic Constant Matrix: (Units=GPa)
#
#
# Indices 1 2 3 4 5 6 
#
# 1 137.4747 -7.5371 29.4771 0.0000 -18.5194 0.0000
# 2 -7.5371 22.6072 -5.2352 0.0000 -5.4298 0.0000
# 3 29.4771 -5.2352 26.0336 0.0000 -14.2853 0.0000
# 4 0.0000 0.0000 0.0000 14.8066 0.0000 0.7776
# 5 -18.5194 -5.4298 -14.2853 0.0000 37.4294 0.0000
# 6 0.0000 0.0000 0.0000 0.7776 0.0000 18.2507
#
#
#
# Elastic Compliance Matrix: (Units=1/GPa)
#
#
# Indices 1 2 3 4 5 6 
#
# 1 0.009648 0.001138 -0.010101 0.000000 0.001084 0.000000
# 2 0.001138 0.052150 0.017277 0.000000 0.014722 0.000000
# 3 -0.010101 0.017277 0.065720 0.000000 0.022591 0.000000
# 4 0.000000 0.000000 0.000000 0.067689 0.000000 -0.002884
# 5 0.001084 0.014722 0.022591 0.000000 0.038011 0.000000
# 6 0.000000 0.000000 0.000000 -0.002884 0.000000 0.054915
#
#
# Mechanical properties :
#
#
# Convention : Reuss Voigt Hill
#
# Bulk Modulus (GPa) = 6.93743 24.39168 15.66456
# Shear Modulus (GPa) = 15.64683 25.39139 20.51911
#
# Velocity S-wave (km/s) = 2.75543 3.51010 3.15541
# Velocity P-wave (km/s) = 3.67280 5.31634 4.56908
#
# Compressibility (1/GPa) = 0.14414554
#
# Stress axis : x y z
#
# Youngs Moduli (GPa) = 103.64542 19.17549 15.21617
#
# Poissons Ratio (x) = -0.02182 0.15370
# Poissons Ratio (y) = -0.11794 -0.26289
# Poissons Ratio (z) = 1.04692 -0.33130
#
# Static dielectric constant tensor:
#      x y z
#    x 1.772570 0.000000 0.005510 
#    y 0.000000 2.064630 0.000000 
#    z 0.005510 0.000000 1.707400 
# 
# From -- ./inp_files/26831.got.cif
#   From: 2010.05.17/outbox.cif.g08.bks.cpg/sg14_14_cif.got.tgz:26831.got - 2010.06.03 17:49:19.
