data_PCOD9241798
_publ_section_title
;
Structure prediction by ZEFSAII (Michael W. Deem and Ramdas Pophale) SiO2 
 PCOD9241798
Probable space group: P 21/C
;
_chemical_formula_sum "Si O2"
_cell_formula_units_Z 24
_cell_length_a 9.839339
_cell_length_b 12.130445
_cell_length_c 14.135803
_cell_angle_alpha 90.000000
_cell_angle_beta 34.553682
_cell_angle_gamma 90.000000
_cell_volume 956.935401
_symmetry_space_group_name_H-M "P 21/C"
_symmetry_group_IT_number 14
_symmetry_cell_setting 'monoclinic'
loop_
_space_group_symop_operation_xyz
x,y,z
-x,1/2+y,1/2-z
-x,-y,-z
x,1/2-y,1/2+z
loop_
_atom_site_type_symbol
_atom_site_label
_atom_site_fract_x
_atom_site_fract_y
_atom_site_fract_z
Si Si1 0.139288 0.431519 0.769779
Si Si2 0.015241 0.757991 0.027794
Si Si3 0.276995 0.068049 0.499798
Si Si4 0.578505 0.083110 0.142438
Si Si5 0.651310 0.899418 0.338951
Si Si6 0.956185 0.903703 0.888871
O O1 0.993529 0.367242 0.935718
O O2 0.412731 0.429515 0.645930
O O3 0.102183 0.380964 0.686825
O O4 0.006811 0.549394 0.841014
O O5 0.763159 0.804932 0.212098
O O6 0.025209 0.800593 0.914622
O O7 0.223675 0.821260 0.965993
O O8 0.404409 0.103119 0.331297
O O9 0.346514 0.136381 0.552844
O O10 0.398616 0.948753 0.454067
O O11 0.729957 0.969602 0.063176
O O12 0.831966 0.004922 0.227940
#
# Coordination Sequence:
#
# PCOD9241798 Si02
#       6
#     4   4   4   4   4   4
#     4  11  26  36  59  98 127 145 202 270 305 330
#     4  11  22  40  62  89 120 161 204 248 303 362
#     4  10  19  37  63  89 119 158 204 244 287 372
#     4  11  21  41  66  87 118 169 201 241 303 370
#     4   9  18  36  65  87 112 163 209 230 290 374
#     4  10  20  43  63  84 119 168 205 235 298 383
#
# _framework density 25.080064
#
# number of rings (size 3 to 8) (size 9 to 14) (size 15 to 20)
#    0.000    1.667    3.333    2.000    2.333    1.333 
#    0.000    5.000    0.000    0.000    0.000    0.000 
#    0.000    0.000    0.000    0.000    0.000    0.000 
#
# Total GULP energy -134243.450616 kJ/mol
# GULP energy per Si atom -5593.477109 kJ/mol
# Density = 2.502298 g / cm^3
# Si number density = 25.080064 Si / 1000 Ang^3
#
#
#
# Elastic Constant Matrix: (Units=GPa)
#
#
# Indices 1 2 3 4 5 6 
#
# 1 149.2467 13.2349 29.7876 0.0000 -4.4463 0.0000
# 2 13.2349 44.2309 -3.8025 0.0000 -4.6832 0.0000
# 3 29.7876 -3.8025 70.4478 0.0000 6.4299 0.0000
# 4 0.0000 0.0000 0.0000 22.8129 0.0000 0.4117
# 5 -4.4463 -4.6832 6.4299 0.0000 53.7376 0.0000
# 6 0.0000 0.0000 0.0000 0.4117 0.0000 17.7822
#
#
#
# Elastic Compliance Matrix: (Units=1/GPa)
#
#
# Indices 1 2 3 4 5 6 
#
# 1 0.007632 -0.002492 -0.003437 0.000000 0.000826 0.000000
# 2 -0.002492 0.023711 0.002187 0.000000 0.001599 0.000000
# 3 -0.003437 0.002187 0.015949 0.000000 -0.002002 0.000000
# 4 0.000000 0.000000 0.000000 0.043853 0.000000 -0.001015
# 5 0.000826 0.001599 -0.002002 0.000000 0.019056 0.000000
# 6 0.000000 0.000000 0.000000 -0.001015 0.000000 0.056260
#
#
# Mechanical properties :
#
#
# Convention : Reuss Voigt Hill
#
# Bulk Modulus (GPa) = 25.11917 38.04062 31.57989
# Shear Modulus (GPa) = 26.70751 33.84689 30.27720
#
# Velocity S-wave (km/s) = 3.26681 3.67761 3.47828
# Velocity P-wave (km/s) = 4.92612 5.76487 5.36192
#
# Compressibility (1/GPa) = 0.03981024
#
# Stress axis : x y z
#
# Youngs Moduli (GPa) = 131.03064 42.17367 62.70025
#
# Poissons Ratio (x) = 0.10508 0.21549
# Poissons Ratio (y) = 0.32648 -0.13716
# Poissons Ratio (z) = 0.45033 -0.09225
#
# Static dielectric constant tensor:
#      x y z
#    x 2.037000 0.000000 -0.001690 
#    y 0.000000 1.985670 0.000000 
#    z -0.001690 0.000000 1.971820 
# 
# From -- ./inp_files/41069.got.cif
#   From: 2010.05.17/outbox.cif.g08.bks.cpg/sg14_21_cif.got.tgz:41069.got - 2010.06.03 17:49:19.
