data_PCOD9241933
_publ_section_title
;
Structure prediction by ZEFSAII (Michael W. Deem and Ramdas Pophale) SiO2 
 PCOD9241933
Probable space group: P 21/C
;
_chemical_formula_sum "Si O2"
_cell_formula_units_Z 32
_cell_length_a 20.426712
_cell_length_b 12.337470
_cell_length_c 13.799671
_cell_angle_alpha 90.000000
_cell_angle_beta 150.925483
_cell_angle_gamma 90.000000
_cell_volume 1689.981519
_symmetry_space_group_name_H-M "P 21/C"
_symmetry_group_IT_number 14
_symmetry_cell_setting 'monoclinic'
loop_
_space_group_symop_operation_xyz
x,y,z
-x,1/2+y,1/2-z
-x,-y,-z
x,1/2-y,1/2+z
loop_
_atom_site_type_symbol
_atom_site_label
_atom_site_fract_x
_atom_site_fract_y
_atom_site_fract_z
Si Si1 0.879680 0.614136 0.904370
Si Si2 0.527708 0.290244 0.714210
Si Si3 0.553415 0.275506 0.461555
Si Si4 0.678117 0.712869 0.201543
Si Si5 0.017393 0.604057 0.884674
Si Si6 0.758066 0.975550 0.941265
Si Si7 0.767741 0.216390 0.895941
Si Si8 0.376009 0.493537 0.529285
O O1 0.818559 0.723663 0.869618
O O2 0.989445 0.633053 0.961976
O O3 0.755591 0.561152 0.686129
O O4 0.926871 0.519745 0.038126
O O5 0.520576 0.282999 0.819584
O O6 0.409620 0.218399 0.511001
O O7 0.670329 0.254376 0.857160
O O8 0.496841 0.415489 0.653482
O O9 0.418809 0.279536 0.351228
O O10 0.668577 0.219513 0.674634
O O11 0.604975 0.391546 0.494501
O O12 0.697331 0.595944 0.275403
O O13 0.879308 0.593779 0.645720
O O14 0.115778 0.695144 0.969251
O O15 0.808649 0.092867 0.970390
O O16 0.651624 0.997563 0.891020
#
# Coordination Sequence:
#
# PCOD9241933 Si02
#       8
#     4   4   4   4   4   4   4   4
#     4   9  20  39  63  83 116 158 210 256 285 352
#     4  10  22  37  63  93 126 160 196 252 304 369
#     4  11  21  38  64  92 128 154 199 255 301 374
#     4  10  23  38  62  93 122 158 202 247 310 358
#     4  10  22  40  62  85 116 164 208 255 294 352
#     4  11  23  40  62  88 128 162 198 250 310 365
#     4  11  24  39  63  94 120 160 209 246 308 361
#     4  10  19  38  61  91 121 160 203 243 305 353
#
# _framework density 18.935117999999999
#
# number of rings (size 3 to 8) (size 9 to 14) (size 15 to 20)
#    0.000    1.750    3.750    0.000    3.500    4.500 
#    0.000    0.625    0.000    0.000    0.000    0.000 
#    0.000    0.000    0.000    0.000    0.000    0.000 
#
# Total GULP energy -178439.984192 kJ/mol
# GULP energy per Si atom -5576.249506 kJ/mol
# Density = 1.889202 g / cm^3
# Si number density = 18.935118 Si / 1000 Ang^3
#
#
#
# Elastic Constant Matrix: (Units=GPa)
#
#
# Indices 1 2 3 4 5 6 
#
# 1 60.1083 26.5668 25.8494 0.0000 -0.8810 0.0000
# 2 26.5668 78.8328 13.5151 0.0000 5.1034 0.0000
# 3 25.8494 13.5151 29.8610 0.0000 -1.0328 0.0000
# 4 0.0000 0.0000 0.0000 19.6750 0.0000 1.9747
# 5 -0.8810 5.1034 -1.0328 0.0000 28.9157 0.0000
# 6 0.0000 0.0000 0.0000 1.9747 0.0000 23.2887
#
#
#
# Elastic Compliance Matrix: (Units=1/GPa)
#
#
# Indices 1 2 3 4 5 6 
#
# 1 0.028862 -0.005989 -0.022235 0.000000 0.001142 0.000000
# 2 -0.005989 0.015201 -0.001797 0.000000 -0.002930 0.000000
# 3 -0.022235 -0.001797 0.053604 0.000000 0.001554 0.000000
# 4 0.000000 0.000000 0.000000 0.051262 0.000000 -0.004347
# 5 0.001142 -0.002930 0.001554 0.000000 0.035191 0.000000
# 6 0.000000 0.000000 0.000000 -0.004347 0.000000 0.043308
#
#
# Mechanical properties :
#
#
# Convention : Reuss Voigt Hill
#
# Bulk Modulus (GPa) = 26.57784 33.40720 29.99252
# Shear Modulus (GPa) = 16.66605 21.23393 18.94999
#
# Velocity S-wave (km/s) = 2.96998 3.35237 3.16695
# Velocity P-wave (km/s) = 5.08210 5.71540 5.40803
#
# Compressibility (1/GPa) = 0.03762534
#
# Stress axis : x y z
#
# Youngs Moduli (GPa) = 34.64721 65.78512 18.65544
#
# Poissons Ratio (x) = 0.39396 0.41480
# Poissons Ratio (y) = 0.20749 0.03353
# Poissons Ratio (z) = 0.77038 0.11823
#
# Static dielectric constant tensor:
#      x y z
#    x 1.666320 0.000000 -0.006480 
#    y 0.000000 1.664130 0.000000 
#    z -0.006480 0.000000 1.683330 
# 
# From -- ./inp_files/50398.got.cif
#   From: 2010.05.17/outbox.cif.g08.bks.cpg/sg14_26_cif.got.tgz:50398.got - 2010.06.03 17:49:19.
