data_PCOD9241486
_publ_section_title
;
Structure prediction by ZEFSAII (Michael W. Deem and Ramdas Pophale) SiO2 
 PCOD9241486
Probable space group: P 21/C
;
_chemical_formula_sum "Si O2"
_cell_formula_units_Z 32
_cell_length_a 15.267440
_cell_length_b 20.339276
_cell_length_c 9.014654
_cell_angle_alpha 90.000000
_cell_angle_beta 139.553943
_cell_angle_gamma 90.000000
_cell_volume 1816.000632
_symmetry_space_group_name_H-M "P 21/C"
_symmetry_group_IT_number 14
_symmetry_cell_setting 'monoclinic'
loop_
_space_group_symop_operation_xyz
x,y,z
-x,1/2+y,1/2-z
-x,-y,-z
x,1/2-y,1/2+z
loop_
_atom_site_type_symbol
_atom_site_label
_atom_site_fract_x
_atom_site_fract_y
_atom_site_fract_z
Si Si1 0.404766 0.407351 0.484064
Si Si2 0.385920 0.828081 0.224654
Si Si3 0.570279 0.302193 0.882028
Si Si4 0.070278 0.802193 0.882028
Si Si5 0.394242 0.943471 0.019757
Si Si6 0.095234 0.092649 0.515936
Si Si7 0.105758 0.943471 0.480243
Si Si8 0.114080 0.828081 0.275346
O O1 0.473781 0.350286 0.667038
O O2 0.490429 0.420023 0.445234
O O3 0.407453 0.478910 0.566555
O O4 0.250000 0.391579 0.250000
O O5 0.446062 0.813991 0.464104
O O6 0.442355 0.773626 0.183147
O O7 0.224740 0.819170 0.036714
O O8 0.405132 0.899555 0.179850
O O9 0.724740 0.319170 0.036714
O O10 0.057645 0.726374 0.816853
O O11 0.973781 0.850286 0.667038
O O12 0.053938 0.813991 0.035896
O O13 0.250000 0.933036 0.750000
O O14 0.009570 0.079977 0.554765
O O15 0.092547 0.021091 0.433445
O O16 0.094868 0.899555 0.320150
#
# Coordination Sequence:
#
# PCOD9241486 Si02
#       8
#     4   4   4   4   4   4   4   4
#     4  10  21  36  57  84 116 148 181 230 283 333
#     4  10  20  34  60  83 110 147 191 237 265 330
#     4  10  20  35  56  87 112 144 191 232 278 324
#     4  10  20  35  56  87 112 144 191 232 278 324
#     4  10  19  36  59  82 112 151 190 224 272 336
#     4  10  21  36  57  84 116 148 181 230 283 333
#     4  10  19  36  59  82 112 151 190 224 272 336
#     4  10  20  34  60  83 110 147 191 237 265 330
#
# _framework density 17.62114
#
# number of rings (size 3 to 8) (size 9 to 14) (size 15 to 20)
#    0.000    2.000    2.500    1.500    3.500    1.000 
#    0.000    6.250    0.000    0.000    0.000    0.000 
#    0.000    0.000    0.000    0.000    0.000    0.000 
#
# Total GULP energy -178537.752073 kJ/mol
# GULP energy per Si atom -5579.304752 kJ/mol
# Density = 1.758103 g / cm^3
# Si number density = 17.621140 Si / 1000 Ang^3
#
#
#
# Elastic Constant Matrix: (Units=GPa)
#
#
# Indices 1 2 3 4 5 6 
#
# 1 49.1164 21.3645 21.7145 0.0000 -1.7298 0.0000
# 2 21.3645 86.6821 37.5636 0.0000 -13.9681 0.0000
# 3 21.7145 37.5636 72.6391 0.0000 6.5862 0.0000
# 4 0.0000 0.0000 0.0000 29.8110 0.0000 -11.6341
# 5 -1.7298 -13.9681 6.5862 0.0000 27.7018 0.0000
# 6 0.0000 0.0000 0.0000 -11.6341 0.0000 6.4029
#
#
#
# Elastic Compliance Matrix: (Units=1/GPa)
#
#
# Indices 1 2 3 4 5 6 
#
# 1 0.024363 -0.003371 -0.005645 0.000000 0.001164 0.000000
# 2 -0.003371 0.018285 -0.009469 0.000000 0.011261 0.000000
# 3 -0.005645 -0.009469 0.021275 0.000000 -0.010185 0.000000
# 4 0.000000 0.000000 0.000000 0.115317 0.000000 0.209532
# 5 0.001164 0.011261 -0.010185 0.000000 0.044271 0.000000
# 6 0.000000 0.000000 0.000000 0.209532 0.000000 0.536899
#
#
# Mechanical properties :
#
#
# Convention : Reuss Voigt Hill
#
# Bulk Modulus (GPa) = 37.10290 41.08031 39.09161
# Shear Modulus (GPa) = 6.20067 21.30281 13.75174
#
# Velocity S-wave (km/s) = 1.87790 3.48075 2.79662
# Velocity P-wave (km/s) = 5.07973 6.28632 5.71496
#
# Compressibility (1/GPa) = 0.02695207
#
# Stress axis : x y z
#
# Youngs Moduli (GPa) = 41.04611 54.68901 47.00454
#
# Poissons Ratio (x) = 0.18434 0.26536
# Poissons Ratio (y) = 0.13835 0.44509
# Poissons Ratio (z) = 0.23172 0.51786
#
# Static dielectric constant tensor:
#      x y z
#    x 1.592950 0.000000 0.003070 
#    y 0.000000 1.592560 0.000000 
#    z 0.003070 0.000000 1.576800 
# 
# From -- ./inp_files/14167.got.cif
#   From: 2010.05.17/outbox.cif.g08.bks.cpg/sg14_8_cif.got.tgz:14167.got - 2010.06.03 17:49:19.
