data_PCOD9241069
_publ_section_title
;
Structure prediction by ZEFSAII (Michael W. Deem and Ramdas Pophale) SiO2 
 PCOD9241069
Probable space group: P 21/C
;
_chemical_formula_sum "Si O2"
_cell_formula_units_Z 32
_cell_length_a 18.744300
_cell_length_b 5.349616
_cell_length_c 22.975581
_cell_angle_alpha 90.000000
_cell_angle_beta 130.596494
_cell_angle_gamma 90.000000
_cell_volume 1749.355612
_symmetry_space_group_name_H-M "P 21/C"
_symmetry_group_IT_number 14
_symmetry_cell_setting 'monoclinic'
loop_
_space_group_symop_operation_xyz
x,y,z
-x,1/2+y,1/2-z
-x,-y,-z
x,1/2-y,1/2+z
loop_
_atom_site_type_symbol
_atom_site_label
_atom_site_fract_x
_atom_site_fract_y
_atom_site_fract_z
Si Si1 0.644211 0.393548 0.211094
Si Si2 0.196622 0.598807 0.402938
Si Si3 0.652215 0.716520 0.051192
Si Si4 0.203307 0.589406 0.793525
Si Si5 0.560373 0.261006 0.785860
Si Si6 0.553112 0.899976 0.110012
Si Si7 0.629381 0.325318 0.950408
Si Si8 0.994400 0.887492 0.784197
O O1 0.751437 0.373094 0.245446
O O2 0.627697 0.330377 0.269746
O O3 0.598981 0.665325 0.171206
O O4 0.593344 0.165328 0.150767
O O5 0.263036 0.361087 0.434946
O O6 0.186237 0.681874 0.329320
O O7 0.262362 0.782833 0.474940
O O8 0.091550 0.573870 0.370720
O O9 0.711263 0.542197 0.126915
O O10 0.584284 0.855115 0.060102
O O11 0.599816 0.559643 0.974234
O O12 0.106409 0.436262 0.740226
O O13 0.504550 0.514001 0.737797
O O14 0.612022 0.335749 0.872973
O O15 0.442119 0.884513 0.063536
O O16 0.999282 0.608031 0.761026
#
# Coordination Sequence:
#
# PCOD9241069 Si02
#       8
#     4   4   4   4   4   4   4   4
#     4  11  21  38  59  81 111 149 198 235 274 328
#     4  10  20  34  54  82 119 144 187 223 291 345
#     4  10  20  35  52  87 116 148 181 228 288 351
#     4   9  19  35  56  84 114 146 183 233 285 339
#     4  12  24  42  58  79 109 155 206 237 269 325
#     4  11  22  37  56  82 116 151 184 231 283 343
#     4  11  24  35  55  80 116 158 185 237 280 334
#     4  10  19  34  57  83 114 147 180 228 283 345
#
# _framework density 18.292451
#
# number of rings (size 3 to 8) (size 9 to 14) (size 15 to 20)
#    0.000    1.500    5.000    0.375    3.500    0.500 
#    0.000    0.000    0.000    0.750    0.000    0.875 
#    0.000    0.000    0.000    0.000    0.000    0.000 
#
# Total GULP energy -178286.507496 kJ/mol
# GULP energy per Si atom -5571.453359 kJ/mol
# Density = 1.825082 g / cm^3
# Si number density = 18.292451 Si / 1000 Ang^3
#
#
#
# Elastic Constant Matrix: (Units=GPa)
#
#
# Indices 1 2 3 4 5 6 
#
# 1 109.3147 2.9506 47.7773 0.0000 2.7876 0.0000
# 2 2.9506 51.8431 -0.8628 0.0000 4.0680 0.0000
# 3 47.7773 -0.8628 71.8333 0.0000 -4.0728 0.0000
# 4 0.0000 0.0000 0.0000 21.5192 0.0000 2.3984
# 5 2.7876 4.0680 -4.0728 0.0000 34.3464 0.0000
# 6 0.0000 0.0000 0.0000 2.3984 0.0000 27.3104
#
#
#
# Elastic Compliance Matrix: (Units=1/GPa)
#
#
# Indices 1 2 3 4 5 6 
#
# 1 0.013074 -0.000732 -0.008819 0.000000 -0.002020 0.000000
# 2 -0.000732 0.019512 0.000598 0.000000 -0.002181 0.000000
# 3 -0.008819 0.000598 0.019965 0.000000 0.003012 0.000000
# 4 0.000000 0.000000 0.000000 0.046929 0.000000 -0.004121
# 5 -0.002020 -0.002181 0.003012 0.000000 0.029895 0.000000
# 6 0.000000 0.000000 0.000000 -0.004121 0.000000 0.036978
#
#
# Mechanical properties :
#
#
# Convention : Reuss Voigt Hill
#
# Bulk Modulus (GPa) = 28.86559 36.96903 32.91731
# Shear Modulus (GPa) = 25.53547 28.84360 27.18954
#
# Velocity S-wave (km/s) = 3.74030 3.97521 3.85954
# Velocity P-wave (km/s) = 5.87090 6.42834 6.15593
#
# Compressibility (1/GPa) = 0.03464332
#
# Stress axis : x y z
#
# Youngs Moduli (GPa) = 76.49057 51.25123 50.08884
#
# Poissons Ratio (x) = 0.03753 0.44172
# Poissons Ratio (y) = 0.05602 -0.02994
# Poissons Ratio (z) = 0.67455 -0.03064
#
# Static dielectric constant tensor:
#      x y z
#    x 1.668840 0.000000 0.021720 
#    y 0.000000 1.738830 0.000000 
#    z 0.021720 0.000000 1.653390 
# 
# From -- ./inp_files/68961.got.cif
#   From: 2010.05.17/outbox.cif.g08.bks.cpg/sg14_35_cif.got.tgz:68961.got - 2010.06.03 17:49:19.
