data_PCOD9241059
_publ_section_title
;
Structure prediction by ZEFSAII (Michael W. Deem and Ramdas Pophale) SiO2 
 PCOD9241059
Probable space group: P 21/C
;
_chemical_formula_sum "Si O2"
_cell_formula_units_Z 32
_cell_length_a 9.412821
_cell_length_b 14.276764
_cell_length_c 12.327730
_cell_angle_alpha 90.000000
_cell_angle_beta 43.032832
_cell_angle_gamma 90.000000
_cell_volume 1130.531698
_symmetry_space_group_name_H-M "P 21/C"
_symmetry_group_IT_number 14
_symmetry_cell_setting 'monoclinic'
loop_
_space_group_symop_operation_xyz
x,y,z
-x,1/2+y,1/2-z
-x,-y,-z
x,1/2-y,1/2+z
loop_
_atom_site_type_symbol
_atom_site_label
_atom_site_fract_x
_atom_site_fract_y
_atom_site_fract_z
Si Si1 0.901511 0.925248 0.724676
Si Si2 0.642157 0.347609 0.080157
Si Si3 0.147916 0.321837 0.524532
Si Si4 0.486098 0.039601 0.385389
Si Si5 0.461770 0.594137 0.457156
Si Si6 0.125639 0.842789 0.013638
Si Si7 0.551862 0.269444 0.899068
Si Si8 0.030753 0.130645 0.661209
O O1 0.883422 0.891853 0.858802
O O2 0.695273 0.880495 0.785862
O O3 0.126958 0.889821 0.566778
O O4 0.905927 0.036152 0.705231
O O5 0.520948 0.443725 0.182458
O O6 0.727298 0.250021 0.084131
O O7 0.520172 0.312222 0.040407
O O8 0.376073 0.277125 0.417943
O O9 0.006253 0.227648 0.611801
O O10 0.056012 0.365612 0.468368
O O11 0.636626 0.132145 0.299410
O O12 0.264275 0.092739 0.505950
O O13 0.500000 0.000000 0.500000
O O14 0.500000 0.500000 0.500000
O O15 0.299784 0.581951 0.451396
O O16 0.370191 0.670504 0.592898
O O17 0.993222 0.836796 0.200705
#
# Coordination Sequence:
#
# PCOD9241059 Si02
#       8
#     4   4   4   4   4   4   4   4
#     4  10  19  36  62  83 117 164 201 251 313 374
#     4   9  17  33  61  81 110 154 197 241 310 367
#     4  10  21  37  59  90 119 154 205 253 306 369
#     4   8  15  31  57  85 107 149 198 240 296 366
#     4  10  19  34  56  85 119 162 197 247 318 363
#     4  11  21  36  60  89 122 162 204 254 308 374
#     4   8  17  33  55  81 113 153 189 246 303 363
#     4  10  19  35  60  87 118 162 203 247 315 367
#
# _framework density 28.305264999999999
#
# number of rings (size 3 to 8) (size 9 to 14) (size 15 to 20)
#    0.000    2.500    2.500    0.000    0.000    0.500 
#    0.000    6.875    0.000   13.500    0.000    0.000 
#    0.000    0.000    0.000    0.000    0.000    0.000 
#
# Total GULP energy -178201.634042 kJ/mol
# GULP energy per Si atom -5568.801064 kJ/mol
# Density = 2.824084 g / cm^3
# Si number density = 28.305265 Si / 1000 Ang^3
#
#
#
# Elastic Constant Matrix: (Units=GPa)
#
#
# Indices 1 2 3 4 5 6 
#
# 1 163.8916 1.4893 24.8605 0.0000 2.3571 0.0000
# 2 1.4893 187.0254 14.2939 0.0000 -3.5721 0.0000
# 3 24.8605 14.2939 40.2397 0.0000 -20.7232 0.0000
# 4 0.0000 0.0000 0.0000 13.3505 0.0000 -6.3614
# 5 2.3571 -3.5721 -20.7232 0.0000 37.6184 0.0000
# 6 0.0000 0.0000 0.0000 -6.3614 0.0000 34.1733
#
#
#
# Elastic Compliance Matrix: (Units=1/GPa)
#
#
# Indices 1 2 3 4 5 6 
#
# 1 0.007168 0.000374 -0.006665 0.000000 -0.004085 0.000000
# 2 0.000374 0.005532 -0.002705 0.000000 -0.000988 0.000000
# 3 -0.006665 -0.002705 0.041900 0.000000 0.023243 0.000000
# 4 0.000000 0.000000 0.000000 0.082194 0.000000 0.015300
# 5 -0.004085 -0.000988 0.023243 0.000000 0.039549 0.000000
# 6 0.000000 0.000000 0.000000 0.015300 0.000000 0.032111
#
#
# Mechanical properties :
#
#
# Convention : Reuss Voigt Hill
#
# Bulk Modulus (GPa) = 27.31733 52.49379 39.90556
# Shear Modulus (GPa) = 20.95135 40.39598 30.67367
#
# Velocity S-wave (km/s) = 2.72360 3.78187 3.29549
# Velocity P-wave (km/s) = 4.42296 6.13644 5.34876
#
# Compressibility (1/GPa) = 0.03660680
#
# Stress axis : x y z
#
# Youngs Moduli (GPa) = 139.50862 180.77415 23.86645
#
# Poissons Ratio (x) = -0.06767 0.15908
# Poissons Ratio (y) = -0.05222 0.06457
# Poissons Ratio (z) = 0.92988 0.48905
#
# Static dielectric constant tensor:
#      x y z
#    x 2.233140 0.000000 -0.095980 
#    y 0.000000 2.253460 0.000000 
#    z -0.095980 0.000000 2.531950 
# 
# From -- ./inp_files/41213.got.cif
#   From: 2010.05.17/outbox.cif.g08.bks.cpg/sg14_21_cif.got.tgz:41213.got - 2010.06.03 17:49:19.
