data_PCOD9241309
_publ_section_title
;
Structure prediction by ZEFSAII (Michael W. Deem and Ramdas Pophale) SiO2 
 PCOD9241309
Probable space group: P 21/C
;
_chemical_formula_sum "Si O2"
_cell_formula_units_Z 28
_cell_length_a 16.049060
_cell_length_b 7.317649
_cell_length_c 15.010966
_cell_angle_alpha 90.000000
_cell_angle_beta 35.210664
_cell_angle_gamma 90.000000
_cell_volume 1016.465634
_symmetry_space_group_name_H-M "P 21/C"
_symmetry_group_IT_number 14
_symmetry_cell_setting 'monoclinic'
loop_
_space_group_symop_operation_xyz
x,y,z
-x,1/2+y,1/2-z
-x,-y,-z
x,1/2-y,1/2+z
loop_
_atom_site_type_symbol
_atom_site_label
_atom_site_fract_x
_atom_site_fract_y
_atom_site_fract_z
Si Si1 0.011515 0.322997 0.862414
Si Si2 0.223899 0.076944 0.037104
Si Si3 0.340922 0.822056 0.452539
Si Si4 0.173457 0.986228 0.746637
Si Si5 0.480119 0.674985 0.646928
Si Si6 0.376834 0.402992 0.223133
Si Si7 0.798361 0.405711 0.188706
O O1 0.071189 0.364388 0.711819
O O2 0.031623 0.108911 0.864993
O O3 0.122261 0.434806 0.829034
O O4 0.860386 0.389773 0.033723
O O5 0.247199 0.858456 0.017628
O O6 0.268989 0.141668 0.899091
O O7 0.350389 0.144438 0.993914
O O8 0.422799 0.890588 0.293863
O O9 0.240901 0.963985 0.590325
O O10 0.478560 0.782349 0.397417
O O11 0.287884 0.088503 0.710478
O O12 0.158624 0.783436 0.799614
O O13 0.438163 0.889660 0.679827
O O14 0.373267 0.583393 0.669447
#
# Coordination Sequence:
#
# PCOD9241309 Si02
#       7
#     4   4   4   4   4   4   4
#     4  11  23  40  63  86 116 161 196 245 300 350
#     4  10  20  37  62  88 122 156 200 246 298 351
#     4  10  19  35  59  91 123 155 197 249 295 355
#     4  11  21  39  63  87 121 158 199 242 301 352
#     4   9  20  38  60  86 120 159 196 248 300 347
#     4   9  20  36  57  88 126 153 197 249 296 351
#     4  10  23  43  59  86 122 151 202 248 290 359
#
# _framework density 27.546430999999998
#
# number of rings (size 3 to 8) (size 9 to 14) (size 15 to 20)
#    0.000    2.000    1.429    1.714    2.000    2.857 
#    0.000    5.714    0.000    0.000    0.000    0.000 
#    0.000    0.000    0.000    0.000    0.000    0.000 
#
# Total GULP energy -157025.929711 kJ/mol
# GULP energy per Si atom -5608.068918 kJ/mol
# Density = 2.748373 g / cm^3
# Si number density = 27.546431 Si / 1000 Ang^3
#
#
#
# Elastic Constant Matrix: (Units=GPa)
#
#
# Indices 1 2 3 4 5 6 
#
# 1 78.3131 26.1520 24.2214 0.0000 -9.7472 0.0000
# 2 26.1520 75.3843 1.0934 0.0000 -9.3386 0.0000
# 3 24.2214 1.0934 155.1681 0.0000 9.3608 0.0000
# 4 0.0000 0.0000 0.0000 35.8406 0.0000 -1.5858
# 5 -9.7472 -9.3386 9.3608 0.0000 37.3221 0.0000
# 6 0.0000 0.0000 0.0000 -1.5858 0.0000 39.7416
#
#
#
# Elastic Compliance Matrix: (Units=1/GPa)
#
#
# Indices 1 2 3 4 5 6 
#
# 1 0.015676 -0.004965 -0.002624 0.000000 0.003510 0.000000
# 2 -0.004965 0.015277 0.000523 0.000000 0.002395 0.000000
# 3 -0.002624 0.000523 0.006990 0.000000 -0.002307 0.000000
# 4 0.000000 0.000000 0.000000 0.027951 0.000000 0.001115
# 5 0.003510 0.002395 -0.002307 0.000000 0.028888 0.000000
# 6 0.000000 0.000000 0.000000 0.001115 0.000000 0.025207
#
#
# Mechanical properties :
#
#
# Convention : Reuss Voigt Hill
#
# Bulk Modulus (GPa) = 41.99866 45.75546 43.87706
# Shear Modulus (GPa) = 35.19711 39.74077 37.46894
#
# Velocity S-wave (km/s) = 3.57842 3.80239 3.69210
# Velocity P-wave (km/s) = 5.68798 5.99365 5.84282
#
# Compressibility (1/GPa) = 0.02381028
#
# Stress axis : x y z
#
# Youngs Moduli (GPa) = 63.79314 65.45801 143.06786
#
# Poissons Ratio (x) = 0.32502 0.37536
# Poissons Ratio (y) = 0.31675 -0.07482
# Poissons Ratio (z) = 0.16737 -0.03423
#
# Static dielectric constant tensor:
#      x y z
#    x 2.167480 0.000000 0.023390 
#    y 0.000000 2.131570 0.000000 
#    z 0.023390 0.000000 2.081270 
# 
# From -- ./inp_files/61035.got.cif
#   From: 2010.05.17/outbox.cif.g08.bks.cpg/sg14_31_cif.got.tgz:61035.got - 2010.06.03 17:49:19.
