data_PCOD9241446
_publ_section_title
;
Structure prediction by ZEFSAII (Michael W. Deem and Ramdas Pophale) SiO2 
 PCOD9241446
Probable space group: P 21/C
;
_chemical_formula_sum "Si O2"
_cell_formula_units_Z 32
_cell_length_a 25.453700
_cell_length_b 5.215177
_cell_length_c 22.513185
_cell_angle_alpha 90.000000
_cell_angle_beta 146.708873
_cell_angle_gamma 90.000000
_cell_volume 1640.381654
_symmetry_space_group_name_H-M "P 21/C"
_symmetry_group_IT_number 14
_symmetry_cell_setting 'monoclinic'
loop_
_space_group_symop_operation_xyz
x,y,z
-x,1/2+y,1/2-z
-x,-y,-z
x,1/2-y,1/2+z
loop_
_atom_site_type_symbol
_atom_site_label
_atom_site_fract_x
_atom_site_fract_y
_atom_site_fract_z
Si Si1 0.307209 0.042101 0.970654
Si Si2 0.370075 0.539143 0.098601
Si Si3 0.563984 0.751805 0.007075
Si Si4 0.462242 0.402257 0.817908
Si Si5 0.896085 0.234979 0.605062
Si Si6 0.381621 0.038910 0.829561
Si Si7 0.887393 0.729841 0.679462
Si Si8 0.712019 0.291699 0.855904
O O1 0.315942 0.763594 0.009458
O O2 0.348501 0.254565 0.055199
O O3 0.369677 0.060800 0.970067
O O4 0.199941 0.151643 0.860334
O O5 0.481350 0.599373 0.190366
O O6 0.335036 0.559951 0.132516
O O7 0.621655 0.742897 0.123671
O O8 0.537476 0.530617 0.935467
O O9 0.455496 0.829068 0.924444
O O10 0.439821 0.134969 0.826950
O O11 0.361758 0.552887 0.720022
O O12 0.877043 0.995835 0.632562
O O13 0.885204 0.500644 0.629712
O O14 0.819470 0.246062 0.479986
O O15 0.007543 0.220926 0.692317
O O16 0.289972 0.925993 0.710609
#
# Coordination Sequence:
#
# PCOD9241446 Si02
#       8
#     4   4   4   4   4   4   4   4
#     4  11  19  37  58  81 105 147 177 238 264 320
#     4  11  23  34  53  82 115 139 182 215 281 330
#     4   9  20  36  53  75 105 142 202 224 262 314
#     4  10  22  33  52  76 108 151 181 228 269 322
#     4  10  21  35  55  82 111 144 177 228 272 350
#     4  10  20  36  52  74 107 152 186 226 265 321
#     4  10  19  36  57  80 110 141 183 224 285 320
#     4  11  23  33  51  80 113 146 175 224 280 334
#
# _framework density 19.507655
#
# number of rings (size 3 to 8) (size 9 to 14) (size 15 to 20)
#    0.000    1.750    3.750    0.375    5.250    0.000 
#    0.000    0.000    0.000    0.750    0.000    0.875 
#    0.000    0.000    0.000    0.000    0.000    0.000 
#
# Total GULP energy -178168.641983 kJ/mol
# GULP energy per Si atom -5567.770062 kJ/mol
# Density = 1.946325 g / cm^3
# Si number density = 19.507655 Si / 1000 Ang^3
#
#
#
# Elastic Constant Matrix: (Units=GPa)
#
#
# Indices 1 2 3 4 5 6 
#
# 1 49.7231 4.5074 34.9114 0.0000 -0.0398 0.0000
# 2 4.5074 63.4505 13.2825 0.0000 2.5603 0.0000
# 3 34.9114 13.2825 140.9319 0.0000 7.8503 0.0000
# 4 0.0000 0.0000 0.0000 21.0479 0.0000 4.9076
# 5 -0.0398 2.5603 7.8503 0.0000 27.4080 0.0000
# 6 0.0000 0.0000 0.0000 4.9076 0.0000 15.7208
#
#
#
# Elastic Compliance Matrix: (Units=1/GPa)
#
#
# Indices 1 2 3 4 5 6 
#
# 1 0.024450 -0.000532 -0.006109 0.000000 0.001835 0.000000
# 2 -0.000532 0.016121 -0.001325 0.000000 -0.001127 0.000000
# 3 -0.006109 -0.001325 0.008869 0.000000 -0.002425 0.000000
# 4 0.000000 0.000000 0.000000 0.051240 0.000000 -0.015996
# 5 0.001835 -0.001127 -0.002425 0.000000 0.037288 0.000000
# 6 0.000000 0.000000 0.000000 -0.015996 0.000000 0.068604
#
#
# Mechanical properties :
#
#
# Convention : Reuss Voigt Hill
#
# Bulk Modulus (GPa) = 29.84310 39.94533 34.89422
# Shear Modulus (GPa) = 21.39740 26.26228 23.82984
#
# Velocity S-wave (km/s) = 3.31550 3.67312 3.49888
# Velocity P-wave (km/s) = 5.47614 6.20566 5.85228
#
# Compressibility (1/GPa) = 0.03350858
#
# Stress axis : x y z
#
# Youngs Moduli (GPa) = 40.89947 62.03116 112.75415
#
# Poissons Ratio (x) = 0.03301 0.68880
# Poissons Ratio (y) = 0.02176 0.14937
# Poissons Ratio (z) = 0.24985 0.08218
#
# Static dielectric constant tensor:
#      x y z
#    x 1.717080 0.000000 0.001970 
#    y 0.000000 1.777450 0.000000 
#    z 0.001970 0.000000 1.796710 
# 
# From -- ./inp_files/67850.got.cif
#   From: 2010.05.17/outbox.cif.g08.bks.cpg/sg14_34_cif.got.tgz:67850.got - 2010.06.03 17:49:19.
