data_PCOD9241019
_publ_section_title
;
Structure prediction by ZEFSAII (Michael W. Deem and Ramdas Pophale) SiO2 
 PCOD9241019
Probable space group: P 21/C
;
_chemical_formula_sum "Si O2"
_cell_formula_units_Z 24
_cell_length_a 7.856069
_cell_length_b 11.386387
_cell_length_c 13.291641
_cell_angle_alpha 90.000000
_cell_angle_beta 55.770075
_cell_angle_gamma 90.000000
_cell_volume 983.022401
_symmetry_space_group_name_H-M "P 21/C"
_symmetry_group_IT_number 14
_symmetry_cell_setting 'monoclinic'
loop_
_space_group_symop_operation_xyz
x,y,z
-x,1/2+y,1/2-z
-x,-y,-z
x,1/2-y,1/2+z
loop_
_atom_site_type_symbol
_atom_site_label
_atom_site_fract_x
_atom_site_fract_y
_atom_site_fract_z
Si Si1 0.999532 0.638618 0.489305
Si Si2 0.817302 0.300800 0.220513
Si Si3 0.955862 0.019622 0.395526
Si Si4 0.335557 0.693770 0.946533
Si Si5 0.425908 0.394165 0.410949
Si Si6 0.660061 0.881338 0.836855
O O1 0.085074 0.680897 0.351225
O O2 0.152667 0.707579 0.512635
O O3 0.000000 0.500000 0.500000
O O4 0.759746 0.671960 0.582771
O O5 0.998354 0.395645 0.173663
O O6 0.629988 0.314123 0.359575
O O7 0.691841 0.342078 0.161672
O O8 0.129835 0.104712 0.292094
O O9 0.736824 0.084202 0.462871
O O10 0.000000 0.000000 0.500000
O O11 0.553972 0.755489 0.878745
O O12 0.323626 0.421302 0.553022
O O13 0.501391 0.520680 0.344873
#
# Coordination Sequence:
#
# PCOD9241019 Si02
#       6
#     4   4   4   4   4   4
#     4  10  19  34  55  84 106 144 187 231 272 335
#     4   8  19  32  55  77 108 148 179 228 284 333
#     4   9  18  36  54  81 108 145 184 227 276 340
#     4   9  19  32  55  79 104 139 191 225 269 330
#     4  10  19  35  53  79 115 142 187 232 291 334
#     4  10  20  33  56  82 107 150 184 235 283 336
#
# _framework density 24.414501000000001
#
# number of rings (size 3 to 8) (size 9 to 14) (size 15 to 20)
#    1.000    1.667    1.667    0.000    2.333    1.333 
#    0.000    0.000    0.000    1.000    0.000    0.000 
#    0.000    0.000    0.000    0.000    0.000    0.000 
#
# Total GULP energy -133653.354037 kJ/mol
# GULP energy per Si atom -5568.889752 kJ/mol
# Density = 2.435893 g / cm^3
# Si number density = 24.414501 Si / 1000 Ang^3
#
#
#
# Elastic Constant Matrix: (Units=GPa)
#
#
# Indices 1 2 3 4 5 6 
#
# 1 45.1928 12.9616 15.3457 0.0000 -13.3554 0.0000
# 2 12.9616 97.6249 43.0237 0.0000 -11.2282 0.0000
# 3 15.3457 43.0237 132.2007 0.0000 -20.1567 0.0000
# 4 0.0000 0.0000 0.0000 41.9515 0.0000 -16.8649
# 5 -13.3554 -11.2282 -20.1567 0.0000 16.2036 0.0000
# 6 0.0000 0.0000 0.0000 -16.8649 0.0000 26.4774
#
#
#
# Elastic Compliance Matrix: (Units=1/GPa)
#
#
# Indices 1 2 3 4 5 6 
#
# 1 0.029438 -0.001455 0.000743 0.000000 0.024179 0.000000
# 2 -0.001455 0.012272 -0.003346 0.000000 0.003143 0.000000
# 3 0.000743 -0.003346 0.010251 0.000000 0.011046 0.000000
# 4 0.000000 0.000000 0.000000 0.032042 0.000000 0.020409
# 5 0.024179 0.003143 0.011046 0.000000 0.097562 0.000000
# 6 0.000000 0.000000 0.000000 0.020409 0.000000 0.050768
#
#
# Mechanical properties :
#
#
# Convention : Reuss Voigt Hill
#
# Bulk Modulus (GPa) = 22.80722 46.40894 34.60808
# Shear Modulus (GPa) = 19.60296 30.50567 25.05431
#
# Velocity S-wave (km/s) = 2.83666 3.53865 3.20692
# Velocity P-wave (km/s) = 4.48228 5.97880 5.28379
#
# Compressibility (1/GPa) = 0.04384576
#
# Stress axis : x y z
#
# Youngs Moduli (GPa) = 33.96980 81.48311 97.55078
#
# Poissons Ratio (x) = 0.11855 -0.07248
# Poissons Ratio (y) = 0.04942 0.32640
# Poissons Ratio (z) = -0.02524 0.27264
#
# Static dielectric constant tensor:
#      x y z
#    x 2.082340 0.000000 -0.029640 
#    y 0.000000 1.994710 0.000000 
#    z -0.029640 0.000000 2.061270 
# 
# From -- ./inp_files/57384.got.cif
#   From: 2010.05.17/outbox.cif.g08.bks.cpg/sg14_29_cif.got.tgz:57384.got - 2010.06.03 17:49:19.
