data_PCOD9241670
_publ_section_title
;
Structure prediction by ZEFSAII (Michael W. Deem and Ramdas Pophale) SiO2 
 PCOD9241670
Probable space group: P 21/C
;
_chemical_formula_sum "Si O2"
_cell_formula_units_Z 32
_cell_length_a 20.008328
_cell_length_b 7.146258
_cell_length_c 13.430911
_cell_angle_alpha 90.000000
_cell_angle_beta 134.594509
_cell_angle_gamma 90.000000
_cell_volume 1367.514316
_symmetry_space_group_name_H-M "P 21/C"
_symmetry_group_IT_number 14
_symmetry_cell_setting 'monoclinic'
loop_
_space_group_symop_operation_xyz
x,y,z
-x,1/2+y,1/2-z
-x,-y,-z
x,1/2-y,1/2+z
loop_
_atom_site_type_symbol
_atom_site_label
_atom_site_fract_x
_atom_site_fract_y
_atom_site_fract_z
Si Si1 0.916308 0.683764 0.857085
Si Si2 0.198626 0.254145 0.945654
Si Si3 0.518516 0.356336 0.676059
Si Si4 0.014415 0.144415 0.874316
Si Si5 0.598071 0.687400 0.634554
Si Si6 0.366988 0.008073 0.174319
Si Si7 0.921533 0.230991 0.594137
Si Si8 0.772413 0.476338 0.848376
O O1 0.840072 0.786628 0.705859
O O2 0.852121 0.548940 0.855933
O O3 0.997088 0.596821 0.869797
O O4 0.974390 0.796073 0.001109
O O5 0.104440 0.225700 0.910899
O O6 0.268445 0.075887 0.022354
O O7 0.243369 0.416031 0.061261
O O8 0.542977 0.561050 0.657414
O O9 0.460300 0.265466 0.524336
O O10 0.450511 0.397250 0.697100
O O11 0.604036 0.211050 0.786829
O O12 0.923529 0.196316 0.714145
O O13 0.031967 0.926605 0.879797
O O14 0.633221 0.879802 0.720790
O O15 0.678878 0.534546 0.693157
O O16 0.820846 0.213004 0.437537
#
# Coordination Sequence:
#
# PCOD9241670 Si02
#       8
#     4   4   4   4   4   4   4   4
#     4  10  19  37  57  82 117 156 197 249 301 353
#     4   9  21  37  59  84 118 156 196 248 304 358
#     4  11  22  39  66  91 124 158 208 250 319 374
#     4  10  21  36  56  85 116 159 200 247 299 359
#     4  10  23  41  61  92 124 162 200 261 309 378
#     4  11  21  40  66  92 124 165 203 257 312 380
#     4  11  21  35  58  84 116 156 205 247 299 357
#     4  10  21  37  58  81 117 152 197 248 302 353
#
# _framework density 23.400120000000001
#
# number of rings (size 3 to 8) (size 9 to 14) (size 15 to 20)
#    0.000    1.750    1.250    4.125    1.750    1.000 
#    0.000    0.000    5.500    0.000    0.000    0.000 
#    0.000    0.000    0.000    0.000    0.000    0.000 
#
# Total GULP energy -178213.196680 kJ/mol
# GULP energy per Si atom -5569.162396 kJ/mol
# Density = 2.334686 g / cm^3
# Si number density = 23.400120 Si / 1000 Ang^3
#
#
#
# Elastic Constant Matrix: (Units=GPa)
#
#
# Indices 1 2 3 4 5 6 
#
# 1 41.7046 -9.2170 20.8131 0.0000 -0.6200 0.0000
# 2 -9.2170 44.8823 20.2125 0.0000 -12.1681 0.0000
# 3 20.8131 20.2125 102.2169 0.0000 -12.9577 0.0000
# 4 0.0000 0.0000 0.0000 28.0205 0.0000 3.5153
# 5 -0.6200 -12.1681 -12.9577 0.0000 34.6736 0.0000
# 6 0.0000 0.0000 0.0000 3.5153 0.0000 19.7245
#
#
#
# Elastic Compliance Matrix: (Units=1/GPa)
#
#
# Indices 1 2 3 4 5 6 
#
# 1 0.030231 0.010115 -0.008017 0.000000 0.001094 0.000000
# 2 0.010115 0.029637 -0.006906 0.000000 0.008001 0.000000
# 3 -0.008017 -0.006906 0.013075 0.000000 0.002319 0.000000
# 4 0.000000 0.000000 0.000000 0.036504 0.000000 -0.006506
# 5 0.001094 0.008001 0.002319 0.000000 0.032534 0.000000
# 6 0.000000 0.000000 0.000000 -0.006506 0.000000 0.051858
#
#
# Mechanical properties :
#
#
# Convention : Reuss Voigt Hill
#
# Bulk Modulus (GPa) = 15.79084 28.04676 21.91880
# Shear Modulus (GPa) = 22.26538 26.95007 24.60773
#
# Velocity S-wave (km/s) = 3.08800 3.39736 3.24637
# Velocity P-wave (km/s) = 4.41329 5.23461 4.84140
#
# Compressibility (1/GPa) = 0.06332786
#
# Stress axis : x y z
#
# Youngs Moduli (GPa) = 33.07865 33.74177 76.48113
#
# Poissons Ratio (x) = -0.34131 0.61315
# Poissons Ratio (y) = -0.33460 0.52817
# Poissons Ratio (z) = 0.26519 0.23302
#
# Static dielectric constant tensor:
#      x y z
#    x 1.953730 0.000000 0.045380 
#    y 0.000000 2.081950 0.000000 
#    z 0.045380 0.000000 1.972610 
# 
# From -- ./inp_files/34977.got.cif
#   From: 2010.05.17/outbox.cif.g08.bks.cpg/sg14_18_cif.got.tgz:34977.got - 2010.06.03 17:49:19.
