data_PCOD9241072
_publ_section_title
;
Structure prediction by ZEFSAII (Michael W. Deem and Ramdas Pophale) SiO2 
 PCOD9241072
Probable space group: P 21/C
;
_chemical_formula_sum "Si O2"
_cell_formula_units_Z 32
_cell_length_a 6.794314
_cell_length_b 13.871960
_cell_length_c 19.539999
_cell_angle_alpha 90.000000
_cell_angle_beta 68.427547
_cell_angle_gamma 90.000000
_cell_volume 1712.652096
_symmetry_space_group_name_H-M "P 21/C"
_symmetry_group_IT_number 14
_symmetry_cell_setting 'monoclinic'
loop_
_space_group_symop_operation_xyz
x,y,z
-x,1/2+y,1/2-z
-x,-y,-z
x,1/2-y,1/2+z
loop_
_atom_site_type_symbol
_atom_site_label
_atom_site_fract_x
_atom_site_fract_y
_atom_site_fract_z
Si Si1 0.308014 0.260964 0.374812
Si Si2 0.483018 0.239490 0.129208
Si Si3 0.150173 0.508646 0.191775
Si Si4 0.179562 0.139729 0.574152
Si Si5 0.543064 0.905814 0.256816
Si Si6 0.434404 0.868206 0.562319
Si Si7 0.282344 0.402148 0.762487
Si Si8 0.884794 0.270182 0.997850
O O1 0.413340 0.344041 0.316428
O O2 0.462086 0.226426 0.415874
O O3 0.281243 0.168184 0.328303
O O4 0.074351 0.283918 0.434032
O O5 0.298239 0.275205 0.101120
O O6 0.524822 0.331808 0.173956
O O7 0.407559 0.153800 0.187240
O O8 0.692758 0.215003 0.059483
O O9 0.085674 0.432576 0.141591
O O10 0.235680 0.451171 0.245554
O O11 0.347742 0.564951 0.133406
O O12 0.958052 0.579463 0.229696
O O13 0.371663 0.090954 0.507100
O O14 0.007947 0.173370 0.541869
O O15 0.387546 0.994958 0.264791
O O16 0.238215 0.840105 0.539113
#
# Coordination Sequence:
#
# PCOD9241072 Si02
#       8
#     4   4   4   4   4   4   4   4
#     4  10  21  38  58  83 115 149 191 233 283 339
#     4   9  21  38  56  83 118 146 189 238 278 337
#     4  11  20  34  55  86 116 146 186 227 289 343
#     4   9  20  34  54  85 115 145 184 232 284 339
#     4  10  22  38  56  85 118 148 187 237 282 337
#     4  10  19  34  57  84 113 147 181 231 282 346
#     4  11  21  37  57  84 114 153 190 229 286 340
#     4  10  19  37  59  80 111 158 186 229 289 331
#
# _framework density 18.684472
#
# number of rings (size 3 to 8) (size 9 to 14) (size 15 to 20)
#    0.000    2.000    2.500    1.125    0.000    2.500 
#    2.250    0.625    0.000    7.500    0.000    0.000 
#    0.000    0.000    0.000    0.000    0.000    0.000 
#
# Total GULP energy -178504.020219 kJ/mol
# GULP energy per Si atom -5578.250632 kJ/mol
# Density = 1.864195 g / cm^3
# Si number density = 18.684472 Si / 1000 Ang^3
#
#
#
# Elastic Constant Matrix: (Units=GPa)
#
#
# Indices 1 2 3 4 5 6 
#
# 1 79.0078 23.6680 33.1239 0.0000 0.7702 0.0000
# 2 23.6680 59.3224 29.0747 0.0000 -4.5192 0.0000
# 3 33.1239 29.0747 81.4302 0.0000 -5.4032 0.0000
# 4 0.0000 0.0000 0.0000 19.3258 0.0000 0.3090
# 5 0.7702 -4.5192 -5.4032 0.0000 24.7876 0.0000
# 6 0.0000 0.0000 0.0000 0.3090 0.0000 16.2012
#
#
#
# Elastic Compliance Matrix: (Units=1/GPa)
#
#
# Indices 1 2 3 4 5 6 
#
# 1 0.016093 -0.004020 -0.005269 0.000000 -0.002382 0.000000
# 2 -0.004020 0.021552 -0.005876 0.000000 0.002773 0.000000
# 3 -0.005269 -0.005876 0.016703 0.000000 0.002733 0.000000
# 4 0.000000 0.000000 0.000000 0.051760 0.000000 -0.000987
# 5 -0.002382 0.002773 0.002733 0.000000 0.041518 0.000000
# 6 0.000000 0.000000 0.000000 -0.000987 0.000000 0.061743
#
#
# Mechanical properties :
#
#
# Convention : Reuss Voigt Hill
#
# Bulk Modulus (GPa) = 41.63406 43.49928 42.56667
# Shear Modulus (GPa) = 20.18524 20.98917 20.58720
#
# Velocity S-wave (km/s) = 3.29039 3.35528 3.32299
# Velocity P-wave (km/s) = 6.06355 6.19209 6.12816
#
# Compressibility (1/GPa) = 0.02401880
#
# Stress axis : x y z
#
# Youngs Moduli (GPa) = 62.13694 46.39944 59.86870
#
# Poissons Ratio (x) = 0.18652 0.31546
# Poissons Ratio (y) = 0.24978 0.35179
# Poissons Ratio (z) = 0.32741 0.27264
#
# Static dielectric constant tensor:
#      x y z
#    x 1.652030 0.000000 0.000430 
#    y 0.000000 1.633470 0.000000 
#    z 0.000430 0.000000 1.652430 
# 
# From -- ./inp_files/53311.got.cif
#   From: 2010.05.17/outbox.cif.g08.bks.cpg/sg14_27_cif.got.tgz:53311.got - 2010.06.03 17:49:19.
