data_PCOD9241683
_publ_section_title
;
Structure prediction by ZEFSAII (Michael W. Deem and Ramdas Pophale) SiO2 
 PCOD9241683
Probable space group: P 21/C
;
_chemical_formula_sum "Si O2"
_cell_formula_units_Z 32
_cell_length_a 14.938689
_cell_length_b 8.049713
_cell_length_c 20.470403
_cell_angle_alpha 90.000000
_cell_angle_beta 136.358311
_cell_angle_gamma 90.000000
_cell_volume 1698.871083
_symmetry_space_group_name_H-M "P 21/C"
_symmetry_group_IT_number 14
_symmetry_cell_setting 'monoclinic'
loop_
_space_group_symop_operation_xyz
x,y,z
-x,1/2+y,1/2-z
-x,-y,-z
x,1/2-y,1/2+z
loop_
_atom_site_type_symbol
_atom_site_label
_atom_site_fract_x
_atom_site_fract_y
_atom_site_fract_z
Si Si1 0.615766 0.937828 0.015897
Si Si2 0.408300 0.627653 0.635361
Si Si3 0.986539 0.125921 0.825929
Si Si4 0.872696 0.398112 0.685684
Si Si5 0.750241 0.689366 0.005772
Si Si6 0.343997 0.193057 0.180379
Si Si7 0.064594 0.380778 0.589126
Si Si8 0.158705 0.818098 0.462774
O O1 0.596253 0.031536 0.936292
O O2 0.652743 0.749879 0.012022
O O3 0.741923 0.999632 0.121421
O O4 0.500000 0.000000 0.000000
O O5 0.542590 0.722576 0.718127
O O6 0.385230 0.491726 0.679614
O O7 0.285735 0.750509 0.567462
O O8 0.906539 0.287612 0.765218
O O9 0.014262 0.025445 0.773974
O O10 0.128706 0.180333 0.927573
O O11 0.920369 0.003065 0.841258
O O12 0.855533 0.284921 0.611957
O O13 0.677179 0.708986 0.898697
O O14 0.813467 0.508264 0.040416
O O15 0.203516 0.185276 0.139979
O O16 0.000000 0.500000 0.500000
O O17 0.965802 0.234580 0.559360
#
# Coordination Sequence:
#
# PCOD9241683 Si02
#       8
#     4   4   4   4   4   4   4   4
#     4   9  20  42  58  81 122 159 200 256 303 360
#     4  10  21  39  61  82 121 161 200 250 316 375
#     4  10  19  37  58  85 115 153 197 250 310 361
#     4   9  19  36  58  79 115 151 194 246 303 363
#     4  10  20  36  62  82 116 160 197 246 311 371
#     4  11  21  40  59  87 120 161 203 250 314 370
#     4  11  20  40  61  86 128 158 197 266 310 363
#     4  10  20  38  61  86 115 159 202 250 310 374
#
# _framework density 18.836037999999999
#
# number of rings (size 3 to 8) (size 9 to 14) (size 15 to 20)
#    0.000    2.000    2.500    3.000    0.000    0.500 
#   20.250    1.250    0.000    0.000    0.000    0.000 
#    0.000    0.000    0.000    0.000    0.000    0.000 
#
# Total GULP energy -178386.816988 kJ/mol
# GULP energy per Si atom -5574.588031 kJ/mol
# Density = 1.879317 g / cm^3
# Si number density = 18.836038 Si / 1000 Ang^3
#
#
#
# Elastic Constant Matrix: (Units=GPa)
#
#
# Indices 1 2 3 4 5 6 
#
# 1 103.0120 31.9746 13.7985 0.0000 22.4627 0.0000
# 2 31.9746 93.5167 17.7702 0.0000 10.3550 0.0000
# 3 13.7985 17.7702 85.1884 0.0000 14.1814 0.0000
# 4 0.0000 0.0000 0.0000 31.5623 0.0000 5.2401
# 5 22.4627 10.3550 14.1814 0.0000 20.3500 0.0000
# 6 0.0000 0.0000 0.0000 5.2401 0.0000 20.8407
#
#
#
# Elastic Compliance Matrix: (Units=1/GPa)
#
#
# Indices 1 2 3 4 5 6 
#
# 1 0.013664 -0.003276 0.000796 0.000000 -0.013970 0.000000
# 2 -0.003276 0.012310 -0.001806 0.000000 -0.001389 0.000000
# 3 0.000796 -0.001806 0.013552 0.000000 -0.009403 0.000000
# 4 0.000000 0.000000 0.000000 0.033064 0.000000 -0.008313
# 5 -0.013970 -0.001389 -0.009403 0.000000 0.071821 0.000000
# 6 0.000000 0.000000 0.000000 -0.008313 0.000000 0.050073
#
#
# Mechanical properties :
#
#
# Convention : Reuss Voigt Hill
#
# Bulk Modulus (GPa) = 32.30632 45.42262 38.86447
# Shear Modulus (GPa) = 23.43289 29.09553 26.26421
#
# Velocity S-wave (km/s) = 3.53093 3.93450 3.73816
# Velocity P-wave (km/s) = 5.81480 6.69384 6.26974
#
# Compressibility (1/GPa) = 0.03095370
#
# Stress axis : x y z
#
# Youngs Moduli (GPa) = 73.18324 81.23153 73.79024
#
# Poissons Ratio (x) = 0.26614 -0.05872
# Poissons Ratio (y) = 0.23977 0.13327
# Poissons Ratio (z) = -0.05824 0.14671
#
# Static dielectric constant tensor:
#      x y z
#    x 1.656070 0.000000 -0.002120 
#    y 0.000000 1.693840 0.000000 
#    z -0.002120 0.000000 1.650840 
# 
# From -- ./inp_files/68104.got.cif
#   From: 2010.05.17/outbox.cif.g08.bks.cpg/sg14_35_cif.got.tgz:68104.got - 2010.06.03 17:49:19.
