data_PCOD9241884
_publ_section_title
;
Structure prediction by ZEFSAII (Michael W. Deem and Ramdas Pophale) SiO2 
 PCOD9241884
Probable space group: P 21/C
;
_chemical_formula_sum "Si O2"
_cell_formula_units_Z 24
_cell_length_a 10.232596
_cell_length_b 7.499774
_cell_length_c 17.682757
_cell_angle_alpha 90.000000
_cell_angle_beta 136.602553
_cell_angle_gamma 90.000000
_cell_volume 932.342696
_symmetry_space_group_name_H-M "P 21/C"
_symmetry_group_IT_number 14
_symmetry_cell_setting 'monoclinic'
loop_
_space_group_symop_operation_xyz
x,y,z
-x,1/2+y,1/2-z
-x,-y,-z
x,1/2-y,1/2+z
loop_
_atom_site_type_symbol
_atom_site_label
_atom_site_fract_x
_atom_site_fract_y
_atom_site_fract_z
Si Si1 0.877152 0.334209 0.066698
Si Si2 0.215116 0.544320 0.566658
Si Si3 0.372549 0.860793 0.387912
Si Si4 0.316951 0.384172 0.448977
Si Si5 0.796258 0.483357 0.752046
Si Si6 0.285688 0.336581 0.738774
O O1 0.745888 0.336618 0.084774
O O2 0.003234 0.514727 0.119264
O O3 0.057611 0.198492 0.152750
O O4 0.773569 0.256527 0.948913
O O5 0.252486 0.453791 0.502018
O O6 0.327678 0.444414 0.680562
O O7 0.000000 0.500000 0.500000
O O8 0.589902 0.807669 0.496870
O O9 0.287851 0.710031 0.295602
O O10 0.355387 0.044758 0.336911
O O11 0.500000 0.500000 0.500000
O O12 0.175306 0.426437 0.320296
O O13 0.654923 0.628282 0.731247
#
# Coordination Sequence:
#
# PCOD9241884 Si02
#       6
#     4   4   4   4   4   4
#     4   9  18  35  60  84 113 156 192 232 283 354
#     4  10  19  38  58  84 118 155 181 238 304 330
#     4  11  19  37  60  85 115 155 195 236 289 337
#     4  10  20  37  60  83 119 153 190 237 289 347
#     4   9  20  35  59  87 115 149 200 230 281 357
#     4   9  22  34  61  85 116 150 194 243 283 342
#
# _framework density 25.741610999999999
#
# number of rings (size 3 to 8) (size 9 to 14) (size 15 to 20)
#    1.000    1.333    3.333    1.000    2.333    0.667 
#    6.000    0.833    3.667    0.000    0.000    0.000 
#    0.000    0.000    0.000    0.000    0.000    0.000 
#
# Total GULP energy -133923.931193 kJ/mol
# GULP energy per Si atom -5580.163800 kJ/mol
# Density = 2.568302 g / cm^3
# Si number density = 25.741611 Si / 1000 Ang^3
#
#
#
# Elastic Constant Matrix: (Units=GPa)
#
#
# Indices 1 2 3 4 5 6 
#
# 1 132.0874 25.7488 26.9792 0.0000 -22.6334 0.0000
# 2 25.7488 100.5401 30.5244 0.0000 -0.8870 0.0000
# 3 26.9792 30.5244 61.4662 0.0000 -19.4762 0.0000
# 4 0.0000 0.0000 0.0000 66.6872 0.0000 1.0932
# 5 -22.6334 -0.8870 -19.4762 0.0000 36.1161 0.0000
# 6 0.0000 0.0000 0.0000 1.0932 0.0000 27.0718
#
#
#
# Elastic Compliance Matrix: (Units=1/GPa)
#
#
# Indices 1 2 3 4 5 6 
#
# 1 0.009063 -0.001804 -0.001564 0.000000 0.004792 0.000000
# 2 -0.001804 0.012436 -0.006809 0.000000 -0.004497 0.000000
# 3 -0.001564 -0.006809 0.024089 0.000000 0.011843 0.000000
# 4 0.000000 0.000000 0.000000 0.015005 0.000000 -0.000606
# 5 0.004792 -0.004497 0.011843 0.000000 0.036968 0.000000
# 6 0.000000 0.000000 0.000000 -0.000606 0.000000 0.036963
#
#
# Mechanical properties :
#
#
# Convention : Reuss Voigt Hill
#
# Bulk Modulus (GPa) = 39.62701 51.17760 45.40231
# Shear Modulus (GPa) = 30.62051 40.03109 35.32580
#
# Velocity S-wave (km/s) = 3.45270 3.94777 3.70851
# Velocity P-wave (km/s) = 5.59665 6.37999 6.00111
#
# Compressibility (1/GPa) = 0.02523531
#
# Stress axis : x y z
#
# Youngs Moduli (GPa) = 110.33964 80.41314 41.51204
#
# Poissons Ratio (x) = 0.14507 0.06491
# Poissons Ratio (y) = 0.19906 0.28264
# Poissons Ratio (z) = 0.17253 0.54751
#
# Static dielectric constant tensor:
#      x y z
#    x 2.002960 0.000000 0.103850 
#    y 0.000000 2.199950 0.000000 
#    z 0.103850 0.000000 2.234330 
# 
# From -- ./inp_files/66719.got.cif
#   From: 2010.05.17/outbox.cif.g08.bks.cpg/sg14_34_cif.got.tgz:66719.got - 2010.06.03 17:49:19.
