data_PCOD9241246
_publ_section_title
;
Structure prediction by ZEFSAII (Michael W. Deem and Ramdas Pophale) SiO2 
 PCOD9241246
Probable space group: P 21/C
;
_chemical_formula_sum "Si O2"
_cell_formula_units_Z 32
_cell_length_a 7.787583
_cell_length_b 17.723443
_cell_length_c 13.951083
_cell_angle_alpha 90.000000
_cell_angle_beta 55.607596
_cell_angle_gamma 90.000000
_cell_volume 1588.955789
_symmetry_space_group_name_H-M "P 21/C"
_symmetry_group_IT_number 14
_symmetry_cell_setting 'monoclinic'
loop_
_space_group_symop_operation_xyz
x,y,z
-x,1/2+y,1/2-z
-x,-y,-z
x,1/2-y,1/2+z
loop_
_atom_site_type_symbol
_atom_site_label
_atom_site_fract_x
_atom_site_fract_y
_atom_site_fract_z
Si Si1 0.516697 0.583572 0.269930
Si Si2 0.245497 0.702308 0.860944
Si Si3 0.779645 0.390093 0.459527
Si Si4 0.856402 0.138349 0.212849
Si Si5 0.812208 0.621148 0.535942
Si Si6 0.121029 0.723134 0.108236
Si Si7 0.656276 0.063053 0.798305
Si Si8 0.311578 0.245788 0.300675
O O1 0.407499 0.596516 0.407626
O O2 0.315903 0.577814 0.264488
O O3 0.666601 0.513058 0.233937
O O4 0.631285 0.659299 0.200888
O O5 0.183446 0.782128 0.831992
O O6 0.238222 0.632768 0.790803
O O7 0.489780 0.713430 0.806641
O O8 0.128902 0.692658 0.997573
O O9 0.759360 0.302667 0.431798
O O10 0.753602 0.439949 0.373350
O O11 0.998980 0.399507 0.448546
O O12 0.822400 0.161243 0.332465
O O13 0.081163 0.114735 0.101541
O O14 0.594601 0.577534 0.612977
O O15 0.749014 0.706399 0.586110
O O16 0.885348 0.747047 0.205998
#
# Coordination Sequence:
#
# PCOD9241246 Si02
#       8
#     4   4   4   4   4   4   4   4
#     4  10  21  38  51  87 120 148 189 235 290 357
#     4  10  19  37  56  82 115 147 192 244 276 346
#     4  10  19  35  57  84 114 142 190 253 283 331
#     4  10  19  35  58  79 114 148 187 248 285 327
#     4   9  20  36  58  88 108 144 203 236 284 345
#     4  11  19  35  59  84 109 145 200 245 283 333
#     4  11  22  36  60  83 120 159 181 235 307 336
#     4   9  18  35  57  80 114 141 190 244 275 333
#
# _framework density 20.139012000000001
#
# number of rings (size 3 to 8) (size 9 to 14) (size 15 to 20)
#    0.000    2.000    6.250    0.375    1.750    2.000 
#    2.250    1.250    0.000    0.000    0.000    0.000 
#    0.000    0.000    0.000    0.000    0.000    0.000 
#
# Total GULP energy -178390.611743 kJ/mol
# GULP energy per Si atom -5574.706617 kJ/mol
# Density = 2.009317 g / cm^3
# Si number density = 20.139012 Si / 1000 Ang^3
#
#
#
# Elastic Constant Matrix: (Units=GPa)
#
#
# Indices 1 2 3 4 5 6 
#
# 1 31.6534 6.0819 27.6611 0.0000 5.2053 0.0000
# 2 6.0819 49.5202 6.1431 0.0000 -3.1867 0.0000
# 3 27.6611 6.1431 52.2586 0.0000 8.1571 0.0000
# 4 0.0000 0.0000 0.0000 15.0225 0.0000 2.0606
# 5 5.2053 -3.1867 8.1571 0.0000 21.8079 0.0000
# 6 0.0000 0.0000 0.0000 2.0606 0.0000 18.2299
#
#
#
# Elastic Compliance Matrix: (Units=1/GPa)
#
#
# Indices 1 2 3 4 5 6 
#
# 1 0.059578 -0.003738 -0.030576 0.000000 -0.003330 0.000000
# 2 -0.003738 0.021085 -0.001189 0.000000 0.004418 0.000000
# 3 -0.030576 -0.001189 0.036477 0.000000 -0.006520 0.000000
# 4 0.000000 0.000000 0.000000 0.067615 0.000000 -0.007643
# 5 -0.003330 0.004418 -0.006520 0.000000 0.049734 0.000000
# 6 0.000000 0.000000 0.000000 -0.007643 0.000000 0.055719
#
#
# Mechanical properties :
#
#
# Convention : Reuss Voigt Hill
#
# Bulk Modulus (GPa) = 21.67679 23.68937 22.68308
# Shear Modulus (GPa) = 13.27692 17.24846 15.26269
#
# Velocity S-wave (km/s) = 2.57040 2.92973 2.75592
# Velocity P-wave (km/s) = 4.42676 4.82005 4.62758
#
# Compressibility (1/GPa) = 0.04613229
#
# Stress axis : x y z
#
# Youngs Moduli (GPa) = 16.78478 47.42753 27.41425
#
# Poissons Ratio (x) = 0.17730 0.83822
# Poissons Ratio (y) = 0.06275 0.03261
# Poissons Ratio (z) = 0.51321 0.05641
#
# Static dielectric constant tensor:
#      x y z
#    x 1.771450 0.000000 -0.009500 
#    y 0.000000 1.757350 0.000000 
#    z -0.009500 0.000000 1.717310 
# 
# From -- ./inp_files/41701.got.cif
#   From: 2010.05.17/outbox.cif.g08.bks.cpg/sg14_21_cif.got.tgz:41701.got - 2010.06.03 17:49:19.
