data_PCOD9241221
_publ_section_title
;
Structure prediction by ZEFSAII (Michael W. Deem and Ramdas Pophale) SiO2 
 PCOD9241221
Probable space group: P 21/C
;
_chemical_formula_sum "Si O2"
_cell_formula_units_Z 28
_cell_length_a 8.465265
_cell_length_b 21.309915
_cell_length_c 14.781012
_cell_angle_alpha 90.000000
_cell_angle_beta 149.784841
_cell_angle_gamma 90.000000
_cell_volume 1341.865587
_symmetry_space_group_name_H-M "P 21/C"
_symmetry_group_IT_number 14
_symmetry_cell_setting 'monoclinic'
loop_
_space_group_symop_operation_xyz
x,y,z
-x,1/2+y,1/2-z
-x,-y,-z
x,1/2-y,1/2+z
loop_
_atom_site_type_symbol
_atom_site_label
_atom_site_fract_x
_atom_site_fract_y
_atom_site_fract_z
Si Si1 0.947726 0.095579 0.818764
Si Si2 0.792562 0.341887 0.069763
Si Si3 0.340791 0.886391 0.134589
Si Si4 0.039276 0.576391 0.012937
Si Si5 0.325435 0.867257 0.834744
Si Si6 0.189481 0.970691 0.893925
Si Si7 0.504935 0.716518 0.577889
O O1 0.742762 0.133665 0.646347
O O2 0.878430 0.110251 0.887631
O O3 0.929924 0.022745 0.782491
O O4 0.310160 0.112660 0.980484
O O5 0.817014 0.399400 0.011319
O O6 0.134804 0.307131 0.239182
O O7 0.538161 0.289235 0.922336
O O8 0.690520 0.896024 0.343615
O O9 0.281729 0.943299 0.036444
O O10 0.329860 0.824202 0.068325
O O11 0.000000 0.500000 0.000000
O O12 0.221981 0.613631 0.182828
O O13 0.112009 0.912608 0.791417
O O14 0.348112 0.801790 0.902342
O O15 0.500000 0.000000 0.000000
#
# Coordination Sequence:
#
# PCOD9241221 Si02
#       7
#     4   4   4   4   4   4   4
#     4  10  19  35  56  82 107 144 185 229 280 333
#     4  10  22  39  60  79 114 152 191 240 286 349
#     4  10  21  35  57  84 115 145 186 236 280 341
#     4  11  21  37  58  87 117 152 190 237 294 343
#     4   9  19  35  57  77 108 147 184 228 281 344
#     4   9  16  33  56  78 107 145 179 216 273 338
#     4   9  21  40  56  79 108 151 193 230 288 342
#
# _framework density 20.866472999999999
#
# number of rings (size 3 to 8) (size 9 to 14) (size 15 to 20)
#    0.000    2.286    0.000    5.571    0.000    3.429 
#    0.000   11.429    0.000    0.000    0.000    0.000 
#    0.000    0.000    0.000    0.000    0.000    0.000 
#
# Total GULP energy -155996.615096 kJ/mol
# GULP energy per Si atom -5571.307682 kJ/mol
# Density = 2.081898 g / cm^3
# Si number density = 20.866473 Si / 1000 Ang^3
#
#
#
# Elastic Constant Matrix: (Units=GPa)
#
#
# Indices 1 2 3 4 5 6 
#
# 1 80.9883 2.7225 0.2878 0.0000 -23.7678 0.0000
# 2 2.7225 51.4211 14.2946 0.0000 -9.6061 0.0000
# 3 0.2878 14.2946 45.2896 0.0000 -19.7458 0.0000
# 4 0.0000 0.0000 0.0000 21.1605 0.0000 -3.8460
# 5 -23.7678 -9.6061 -19.7458 0.0000 20.3446 0.0000
# 6 0.0000 0.0000 0.0000 -3.8460 0.0000 20.2753
#
#
#
# Elastic Compliance Matrix: (Units=1/GPa)
#
#
# Indices 1 2 3 4 5 6 
#
# 1 0.030322 0.002749 0.025917 0.000000 0.061876 0.000000
# 2 0.002749 0.022017 -0.001792 0.000000 0.011868 0.000000
# 3 0.025917 -0.001792 0.061218 0.000000 0.088847 0.000000
# 4 0.000000 0.000000 0.000000 0.048945 0.000000 0.009284
# 5 0.061876 0.011868 0.088847 0.000000 0.213275 0.000000
# 6 0.000000 0.000000 0.000000 0.009284 0.000000 0.051082
#
#
# Mechanical properties :
#
#
# Convention : Reuss Voigt Hill
#
# Bulk Modulus (GPa) = 5.97716 23.58985 14.78351
# Shear Modulus (GPa) = 11.65827 23.04901 17.35364
#
# Velocity S-wave (km/s) = 2.36626 3.32715 2.88697
# Velocity P-wave (km/s) = 3.21501 5.10780 4.26766
#
# Compressibility (1/GPa) = 0.16730342
#
# Stress axis : x y z
#
# Youngs Moduli (GPa) = 32.97970 45.41937 16.33519
#
# Poissons Ratio (x) = -0.12486 -0.42336
# Poissons Ratio (y) = -0.09067 0.02928
# Poissons Ratio (z) = -0.85473 0.08141
#
# Static dielectric constant tensor:
#      x y z
#    x 1.754640 0.000000 -0.028640 
#    y 0.000000 1.825710 0.000000 
#    z -0.028640 0.000000 1.794620 
# 
# From -- ./inp_files/42114.got.cif
#   From: 2010.05.17/outbox.cif.g08.bks.cpg/sg14_22_cif.got.tgz:42114.got - 2010.06.03 17:49:19.
