data_PCOD9241592
_publ_section_title
;
Structure prediction by ZEFSAII (Michael W. Deem and Ramdas Pophale) SiO2 
 PCOD9241592
Probable space group: P 21/C
;
_chemical_formula_sum "Si O2"
_cell_formula_units_Z 28
_cell_length_a 7.111604
_cell_length_b 13.133302
_cell_length_c 18.767222
_cell_angle_alpha 90.000000
_cell_angle_beta 45.518410
_cell_angle_gamma 90.000000
_cell_volume 1250.606347
_symmetry_space_group_name_H-M "P 21/C"
_symmetry_group_IT_number 14
_symmetry_cell_setting 'monoclinic'
loop_
_space_group_symop_operation_xyz
x,y,z
-x,1/2+y,1/2-z
-x,-y,-z
x,1/2-y,1/2+z
loop_
_atom_site_type_symbol
_atom_site_label
_atom_site_fract_x
_atom_site_fract_y
_atom_site_fract_z
Si Si1 0.722769 0.303858 0.175226
Si Si2 0.294459 0.266047 0.554929
Si Si3 0.517927 0.597196 0.622302
Si Si4 0.659886 0.428601 0.682168
Si Si5 0.616162 0.092895 0.424652
Si Si6 0.922997 0.940999 0.800100
Si Si7 0.286185 0.007702 0.390619
O O1 0.572662 0.329812 0.288759
O O2 0.675788 0.189859 0.161812
O O3 0.638449 0.388671 0.140172
O O4 0.035684 0.304452 0.111420
O O5 0.332234 0.340439 0.477513
O O6 0.550631 0.194518 0.485111
O O7 0.241032 0.339681 0.635724
O O8 0.690737 0.506600 0.609914
O O9 0.263558 0.538617 0.657720
O O10 0.367524 0.451192 0.791561
O O11 0.870523 0.452488 0.688934
O O12 0.905334 0.077107 0.316537
O O13 0.500000 0.000000 0.500000
O O14 0.440128 0.085179 0.400378
O O15 0.000000 0.000000 0.500000
#
# Coordination Sequence:
#
# PCOD9241592 Si02
#       7
#     4   4   4   4   4   4   4
#     4  10  21  37  62  91 124 160 202 256 302 365
#     4  11  21  39  63  89 123 162 202 251 315 361
#     4  11  22  41  67  85 125 170 195 255 317 359
#     4   9  22  40  60  92 124 156 206 253 302 366
#     4  11  23  39  62  91 122 161 205 252 306 364
#     4  10  23  40  61  91 126 155 208 256 296 371
#     4  10  19  36  62  88 117 158 207 250 296 368
#
# _framework density 22.389139
#
# number of rings (size 3 to 8) (size 9 to 14) (size 15 to 20)
#    0.000    1.714    1.429    3.857    2.000    3.429 
#    0.000    8.571    0.000    0.000    0.000    0.000 
#    0.000    0.000    0.000    0.000    0.000    0.000 
#
# Total GULP energy -156263.329979 kJ/mol
# GULP energy per Si atom -5580.833214 kJ/mol
# Density = 2.233818 g / cm^3
# Si number density = 22.389139 Si / 1000 Ang^3
#
#
#
# Elastic Constant Matrix: (Units=GPa)
#
#
# Indices 1 2 3 4 5 6 
#
# 1 56.2612 6.7119 1.5536 0.0000 -8.2139 0.0000
# 2 6.7119 111.3816 33.9539 0.0000 8.0341 0.0000
# 3 1.5536 33.9539 127.1133 0.0000 -0.0910 0.0000
# 4 0.0000 0.0000 0.0000 39.5399 0.0000 -2.0009
# 5 -8.2139 8.0341 -0.0910 0.0000 20.1547 0.0000
# 6 0.0000 0.0000 0.0000 -2.0009 0.0000 34.9907
#
#
#
# Elastic Compliance Matrix: (Units=1/GPa)
#
#
# Indices 1 2 3 4 5 6 
#
# 1 0.019242 -0.001860 0.000268 0.000000 0.008585 0.000000
# 2 -0.001860 0.010272 -0.002724 0.000000 -0.004865 0.000000
# 3 0.000268 -0.002724 0.008592 0.000000 0.001234 0.000000
# 4 0.000000 0.000000 0.000000 0.025364 0.000000 0.001450
# 5 0.008585 -0.004865 0.001234 0.000000 0.055060 0.000000
# 6 0.000000 0.000000 0.000000 0.001450 0.000000 0.028662
#
#
# Mechanical properties :
#
#
# Convention : Reuss Voigt Hill
#
# Bulk Modulus (GPa) = 33.93029 42.13277 38.03153
# Shear Modulus (GPa) = 30.18405 35.77283 32.97844
#
# Velocity S-wave (km/s) = 3.67571 4.00156 3.84209
# Velocity P-wave (km/s) = 5.76213 6.34107 6.05852
#
# Compressibility (1/GPa) = 0.02947219
#
# Stress axis : x y z
#
# Youngs Moduli (GPa) = 51.96931 97.35469 116.38249
#
# Poissons Ratio (x) = 0.18112 -0.03118
# Poissons Ratio (y) = 0.09669 0.31708
# Poissons Ratio (z) = -0.01392 0.26524
#
# Static dielectric constant tensor:
#      x y z
#    x 2.618570 0.000000 0.782400 
#    y 0.000000 1.827950 0.000000 
#    z 0.782400 0.000000 2.723690 
# 
# From -- ./inp_files/65550.got.cif
#   From: 2010.05.17/outbox.cif.g08.bks.cpg/sg14_33_cif.got.tgz:65550.got - 2010.06.03 17:49:19.
