data_PCOD9241679
_publ_section_title
;
Structure prediction by ZEFSAII (Michael W. Deem and Ramdas Pophale) SiO2 
 PCOD9241679
Probable space group: P 21/C
;
_chemical_formula_sum "Si O2"
_cell_formula_units_Z 32
_cell_length_a 26.665083
_cell_length_b 7.878381
_cell_length_c 13.641778
_cell_angle_alpha 90.000000
_cell_angle_beta 35.740583
_cell_angle_gamma 90.000000
_cell_volume 1673.979749
_symmetry_space_group_name_H-M "P 21/C"
_symmetry_group_IT_number 14
_symmetry_cell_setting 'monoclinic'
loop_
_space_group_symop_operation_xyz
x,y,z
-x,1/2+y,1/2-z
-x,-y,-z
x,1/2-y,1/2+z
loop_
_atom_site_type_symbol
_atom_site_label
_atom_site_fract_x
_atom_site_fract_y
_atom_site_fract_z
Si Si1 0.702281 0.741072 0.947647
Si Si2 0.549972 0.615782 0.068229
Si Si3 0.399075 0.172912 0.201623
Si Si4 0.099357 0.514793 0.042519
Si Si5 0.544455 0.263797 0.599424
Si Si6 0.298669 0.955606 0.207333
Si Si7 0.101395 0.317192 0.401853
Si Si8 0.009088 0.858253 0.115469
O O1 0.695515 0.910393 0.892102
O O2 0.800539 0.683019 0.790857
O O3 0.638559 0.615677 0.990204
O O4 0.663709 0.757165 0.117618
O O5 0.482140 0.710897 0.245884
O O6 0.520252 0.424207 0.105583
O O7 0.568576 0.705529 0.936663
O O8 0.482309 0.115889 0.132462
O O9 0.344316 0.031969 0.231338
O O10 0.198913 0.568262 0.886899
O O11 0.090524 0.355454 0.981749
O O12 0.046385 0.682694 0.098000
O O13 0.063844 0.439214 0.199926
O O14 0.642634 0.300719 0.420124
O O15 0.079990 0.492152 0.492805
O O16 0.033873 0.316989 0.420413
#
# Coordination Sequence:
#
# PCOD9241679 Si02
#       8
#     4   4   4   4   4   4   4   4
#     4   9  20  38  58  82 115 150 190 237 293 338
#     4  10  21  35  58  82 114 154 193 234 287 341
#     4  10  19  37  58  82 117 155 190 235 291 342
#     4  11  22  41  63  93 122 159 202 255 302 368
#     4  11  21  36  56  83 115 154 193 236 284 346
#     4  10  22  36  57  84 117 149 195 239 289 345
#     4  10  22  40  63  89 122 161 196 255 299 368
#     4  11  22  39  66  88 121 156 206 243 317 361
#
# _framework density 19.116121
#
# number of rings (size 3 to 8) (size 9 to 14) (size 15 to 20)
#    0.000    1.750    1.250    4.125    1.750    1.000 
#    0.000    0.000    5.500    0.000    0.000    0.000 
#    0.000    0.000    0.000    0.000    0.000    0.000 
#
# Total GULP energy -178509.905418 kJ/mol
# GULP energy per Si atom -5578.434544 kJ/mol
# Density = 1.907261 g / cm^3
# Si number density = 19.116121 Si / 1000 Ang^3
#
#
#
# Elastic Constant Matrix: (Units=GPa)
#
#
# Indices 1 2 3 4 5 6 
#
# 1 40.7418 7.6473 21.3047 0.0000 9.0317 0.0000
# 2 7.6473 57.1715 21.6233 0.0000 0.4905 0.0000
# 3 21.3047 21.6233 123.1428 0.0000 6.3037 0.0000
# 4 0.0000 0.0000 0.0000 27.9443 0.0000 -4.8490
# 5 9.0317 0.4905 6.3037 0.0000 32.1838 0.0000
# 6 0.0000 0.0000 0.0000 -4.8490 0.0000 16.9043
#
#
#
# Elastic Compliance Matrix: (Units=1/GPa)
#
#
# Indices 1 2 3 4 5 6 
#
# 1 0.028762 -0.002188 -0.004223 0.000000 -0.007211 0.000000
# 2 -0.002188 0.018906 -0.002988 0.000000 0.000911 0.000000
# 3 -0.004223 -0.002988 0.009407 0.000000 -0.000612 0.000000
# 4 0.000000 0.000000 0.000000 0.037660 0.000000 0.010803
# 5 -0.007211 0.000911 -0.000612 0.000000 0.033201 0.000000
# 6 0.000000 0.000000 0.000000 0.010803 0.000000 0.062255
#
#
# Mechanical properties :
#
#
# Convention : Reuss Voigt Hill
#
# Bulk Modulus (GPa) = 26.12477 35.80075 30.96276
# Shear Modulus (GPa) = 22.54800 26.77186 24.65993
#
# Velocity S-wave (km/s) = 3.43815 3.74637 3.59556
# Velocity P-wave (km/s) = 5.42745 6.12229 5.78531
#
# Compressibility (1/GPa) = 0.03827785
#
# Stress axis : x y z
#
# Youngs Moduli (GPa) = 34.76782 52.89274 106.30152
#
# Poissons Ratio (x) = 0.11574 0.44888
# Poissons Ratio (y) = 0.07608 0.31762
# Poissons Ratio (z) = 0.14681 0.15804
#
# Static dielectric constant tensor:
#      x y z
#    x 1.666820 0.000000 0.001730 
#    y 0.000000 1.664130 0.000000 
#    z 0.001730 0.000000 1.661370 
# 
# From -- ./inp_files/33676.got.cif
#   From: 2010.05.17/outbox.cif.g08.bks.cpg/sg14_17_cif.got.tgz:33676.got - 2010.06.03 17:49:19.
