data_PCOD9241061
_publ_section_title
;
Structure prediction by ZEFSAII (Michael W. Deem and Ramdas Pophale) SiO2 
 PCOD9241061
Probable space group: P 21/C
;
_chemical_formula_sum "Si O2"
_cell_formula_units_Z 28
_cell_length_a 14.892679
_cell_length_b 13.371406
_cell_length_c 8.857990
_cell_angle_alpha 90.000000
_cell_angle_beta 138.921228
_cell_angle_gamma 90.000000
_cell_volume 1159.081350
_symmetry_space_group_name_H-M "P 21/C"
_symmetry_group_IT_number 14
_symmetry_cell_setting 'monoclinic'
loop_
_space_group_symop_operation_xyz
x,y,z
-x,1/2+y,1/2-z
-x,-y,-z
x,1/2-y,1/2+z
loop_
_atom_site_type_symbol
_atom_site_label
_atom_site_fract_x
_atom_site_fract_y
_atom_site_fract_z
Si Si1 0.722110 0.602990 0.938742
Si Si2 0.771585 0.183426 0.848895
Si Si3 0.956711 0.245416 0.835283
Si Si4 0.422656 0.337468 0.545023
Si Si5 0.678298 0.087250 0.225707
Si Si6 0.854249 0.697148 0.672328
Si Si7 0.461610 0.619614 0.765500
O O1 0.645713 0.667986 0.708668
O O2 0.765003 0.504078 0.901766
O O3 0.614197 0.578071 0.935565
O O4 0.827865 0.682280 0.136307
O O5 0.736806 0.302052 0.807480
O O6 0.636233 0.119114 0.711983
O O7 0.852382 0.174832 0.795515
O O8 0.874059 0.180627 0.120089
O O9 0.062040 0.178819 0.872603
O O10 0.043946 0.314152 0.059102
O O11 0.543962 0.412895 0.662210
O O12 0.292703 0.353486 0.488558
O O13 0.500427 0.238014 0.697481
O O14 0.627639 0.080765 0.988557
#
# Coordination Sequence:
#
# PCOD9241061 Si02
#       7
#     4   4   4   4   4   4   4
#     4  10  19  34  56  87 113 141 176 230 285 332
#     4  10  19  35  57  84 107 143 191 228 264 324
#     4  10  20  34  58  78 108 148 198 224 256 312
#     4   9  17  30  54  82 108 135 181 227 268 317
#     4  10  19  34  56  87 113 141 176 230 285 332
#     4  10  19  35  57  84 107 143 191 228 264 324
#     4   9  17  30  54  82 108 135 181 227 268 317
#
# _framework density 24.157063999999998
#
# number of rings (size 3 to 8) (size 9 to 14) (size 15 to 20)
#    0.000    2.286    2.857    1.714    0.000    0.000 
#    0.000    1.429    0.000    5.143    0.000    0.000 
#    0.000    0.000    0.000    0.000    0.000    0.000 
#
# Total GULP energy -155993.990560 kJ/mol
# GULP energy per Si atom -5571.213949 kJ/mol
# Density = 2.410208 g / cm^3
# Si number density = 24.157064 Si / 1000 Ang^3
#
#
#
# Elastic Constant Matrix: (Units=GPa)
#
#
# Indices 1 2 3 4 5 6 
#
# 1 216.2106 7.1992 2.1829 0.0000 1.5054 0.0000
# 2 7.1992 55.7868 10.1482 0.0000 -8.9046 0.0000
# 3 2.1829 10.1482 34.9478 0.0000 -4.7296 0.0000
# 4 0.0000 0.0000 0.0000 10.1385 0.0000 -4.7676
# 5 1.5054 -8.9046 -4.7296 0.0000 27.1232 0.0000
# 6 0.0000 0.0000 0.0000 -4.7676 0.0000 19.8912
#
#
#
# Elastic Compliance Matrix: (Units=1/GPa)
#
#
# Indices 1 2 3 4 5 6 
#
# 1 0.004652 -0.000649 -0.000170 0.000000 -0.000501 0.000000
# 2 -0.000649 0.019815 -0.004945 0.000000 0.005679 0.000000
# 3 -0.000170 -0.004945 0.030563 0.000000 0.003715 0.000000
# 4 0.000000 0.000000 0.000000 0.111163 0.000000 0.026644
# 5 -0.000501 0.005679 0.003715 0.000000 0.039409 0.000000
# 6 0.000000 0.000000 0.000000 0.026644 0.000000 0.056660
#
#
# Mechanical properties :
#
#
# Convention : Reuss Voigt Hill
#
# Bulk Modulus (GPa) = 22.98718 38.44509 30.71614
# Shear Modulus (GPa) = 17.34358 30.59157 23.96758
#
# Velocity S-wave (km/s) = 2.68237 3.56246 3.15327
# Velocity P-wave (km/s) = 4.37377 5.73329 5.09904
#
# Compressibility (1/GPa) = 0.04350250
#
# Stress axis : x y z
#
# Youngs Moduli (GPa) = 214.96378 50.46629 32.71881
#
# Poissons Ratio (x) = 0.03277 0.00556
# Poissons Ratio (y) = 0.13960 0.16179
# Poissons Ratio (z) = 0.03650 0.24955
#
# Static dielectric constant tensor:
#      x y z
#    x 2.021410 0.000000 0.012810 
#    y 0.000000 1.928040 0.000000 
#    z 0.012810 0.000000 1.989400 
# 
# From -- ./inp_files/16277.got.cif
#   From: 2010.05.17/outbox.cif.g08.bks.cpg/sg14_9_cif.got.tgz:16277.got - 2010.06.03 17:49:19.
