data_PCOD9241337
_publ_section_title
;
Structure prediction by ZEFSAII (Michael W. Deem and Ramdas Pophale) SiO2 
 PCOD9241337
Probable space group: P 21/C
;
_chemical_formula_sum "Si O2"
_cell_formula_units_Z 28
_cell_length_a 7.359853
_cell_length_b 11.657295
_cell_length_c 17.221460
_cell_angle_alpha 90.000000
_cell_angle_beta 52.079170
_cell_angle_gamma 90.000000
_cell_volume 1165.566937
_symmetry_space_group_name_H-M "P 21/C"
_symmetry_group_IT_number 14
_symmetry_cell_setting 'monoclinic'
loop_
_space_group_symop_operation_xyz
x,y,z
-x,1/2+y,1/2-z
-x,-y,-z
x,1/2-y,1/2+z
loop_
_atom_site_type_symbol
_atom_site_label
_atom_site_fract_x
_atom_site_fract_y
_atom_site_fract_z
Si Si1 0.273087 0.851136 0.086156
Si Si2 0.287692 0.053381 0.667635
Si Si3 0.452531 0.686106 0.153282
Si Si4 0.789903 0.892786 0.880752
Si Si5 0.114133 0.160919 0.567547
Si Si6 0.251506 0.819410 0.461914
Si Si7 0.351170 0.218764 0.231833
O O1 0.314329 0.798189 0.161010
O O2 0.169589 0.749925 0.058999
O O3 0.154515 0.975204 0.117513
O O4 0.528432 0.874259 0.982599
O O5 0.127096 0.074565 0.636029
O O6 0.248272 0.155471 0.739906
O O7 0.294777 0.926364 0.698140
O O8 0.449392 0.912193 0.428238
O O9 0.603453 0.697467 0.190859
O O10 0.635449 0.666055 0.036863
O O11 0.925385 0.789239 0.887172
O O12 0.777443 0.868107 0.791713
O O13 0.938714 0.131874 0.545440
O O14 0.391713 0.728284 0.372307
#
# Coordination Sequence:
#
# PCOD9241337 Si02
#       7
#     4   4   4   4   4   4   4
#     4   9  17  31  53  79 103 142 183 218 257 330
#     4   9  20  38  53  79 112 144 180 225 278 324
#     4  11  19  33  59  80 107 148 185 223 272 332
#     4   8  16  33  53  74 108 143 176 219 269 316
#     4  10  19  35  61  81 106 147 183 223 272 327
#     4   9  19  37  55  82 111 140 180 228 276 317
#     4   8  19  35  53  78 109 143 175 226 278 312
#
# _framework density 24.022645000000001
#
# number of rings (size 3 to 8) (size 9 to 14) (size 15 to 20)
#    0.857    2.000    2.857    0.429    2.000    1.143 
#    0.000    2.857    3.143    0.000    0.000    0.000 
#    0.000    0.000    0.000    0.000    0.000    0.000 
#
# Total GULP energy -156338.002265 kJ/mol
# GULP energy per Si atom -5583.500081 kJ/mol
# Density = 2.396797 g / cm^3
# Si number density = 24.022645 Si / 1000 Ang^3
#
#
#
# Elastic Constant Matrix: (Units=GPa)
#
#
# Indices 1 2 3 4 5 6 
#
# 1 106.0604 29.1921 25.0555 0.0000 27.0246 0.0000
# 2 29.1921 133.9696 48.3917 0.0000 15.8148 0.0000
# 3 25.0555 48.3917 90.9613 0.0000 23.3707 0.0000
# 4 0.0000 0.0000 0.0000 25.9282 0.0000 -15.0500
# 5 27.0246 15.8148 23.3707 0.0000 45.2001 0.0000
# 6 0.0000 0.0000 0.0000 -15.0500 0.0000 15.0173
#
#
#
# Elastic Compliance Matrix: (Units=1/GPa)
#
#
# Indices 1 2 3 4 5 6 
#
# 1 0.011560 -0.001509 -0.000855 0.000000 -0.005941 0.000000
# 2 -0.001509 0.009462 -0.004612 0.000000 -0.000024 0.000000
# 3 -0.000855 -0.004612 0.015149 0.000000 -0.005708 0.000000
# 4 0.000000 0.000000 0.000000 0.092204 0.000000 0.092405
# 5 -0.005941 -0.000024 -0.005708 0.000000 0.028636 0.000000
# 6 0.000000 0.000000 0.000000 0.092405 0.000000 0.159196
#
#
# Mechanical properties :
#
#
# Convention : Reuss Voigt Hill
#
# Bulk Modulus (GPa) = 45.00528 59.58557 52.29542
# Shear Modulus (GPa) = 14.81197 32.45258 23.63228
#
# Velocity S-wave (km/s) = 2.48580 3.67947 3.13988
# Velocity P-wave (km/s) = 5.19751 6.55050 5.91284
#
# Compressibility (1/GPa) = 0.02221962
#
# Stress axis : x y z
#
# Youngs Moduli (GPa) = 86.50723 105.68727 66.00917
#
# Poissons Ratio (x) = 0.15945 0.05644
# Poissons Ratio (y) = 0.13051 0.30444
# Poissons Ratio (z) = 0.07396 0.48743
#
# Static dielectric constant tensor:
#      x y z
#    x 1.939650 0.000000 -0.094160 
#    y 0.000000 1.894360 0.000000 
#    z -0.094160 0.000000 1.962170 
# 
# From -- ./inp_files/40029.got.cif
#   From: 2010.05.17/outbox.cif.g08.bks.cpg/sg14_21_cif.got.tgz:40029.got - 2010.06.03 17:49:19.
