data_PCOD9241367
_publ_section_title
;
Structure prediction by ZEFSAII (Michael W. Deem and Ramdas Pophale) SiO2 
 PCOD9241367
Probable space group: P 21/C
;
_chemical_formula_sum "Si O2"
_cell_formula_units_Z 32
_cell_length_a 9.927607
_cell_length_b 17.226913
_cell_length_c 10.053341
_cell_angle_alpha 90.000000
_cell_angle_beta 90.848063
_cell_angle_gamma 90.000000
_cell_volume 1719.154370
_symmetry_space_group_name_H-M "P 21/C"
_symmetry_group_IT_number 14
_symmetry_cell_setting 'monoclinic'
loop_
_space_group_symop_operation_xyz
x,y,z
-x,1/2+y,1/2-z
-x,-y,-z
x,1/2-y,1/2+z
loop_
_atom_site_type_symbol
_atom_site_label
_atom_site_fract_x
_atom_site_fract_y
_atom_site_fract_z
Si Si1 0.251388 0.909679 0.134198
Si Si2 0.262287 0.471442 0.407459
Si Si3 0.976276 0.236681 0.175855
Si Si4 0.747428 0.121291 0.277801
Si Si5 0.534576 0.836739 0.094472
Si Si6 0.517373 0.264025 0.668338
Si Si7 0.254260 0.855222 0.416697
Si Si8 0.042425 0.339564 0.415603
O O1 0.374076 0.853110 0.095620
O O2 0.253910 0.915348 0.293800
O O3 0.112644 0.868460 0.090999
O O4 0.266482 0.988004 0.051835
O O5 0.252646 0.541246 0.302536
O O6 0.392065 0.418229 0.385627
O O7 0.136865 0.413373 0.397661
O O8 0.877618 0.171959 0.237939
O O9 0.875502 0.300152 0.108271
O O10 0.055820 0.279102 0.294952
O O11 0.062480 0.199730 0.058957
O O12 0.617146 0.171710 0.232761
O O13 0.746599 0.111072 0.436221
O O14 0.562626 0.777945 0.214872
O O15 0.567370 0.801619 0.951408
O O16 0.615136 0.199218 0.603404
#
# Coordination Sequence:
#
# PCOD9241367 Si02
#       8
#     4   4   4   4   4   4   4   4
#     4  10  20  38  61  86 120 152 200 239 290 359
#     4  12  25  37  59  91 129 156 189 250 313 355
#     4  10  19  35  62  86 116 156 203 244 287 353
#     4  11  19  35  62  92 117 152 205 251 287 345
#     4  11  22  39  61  90 119 156 204 244 298 351
#     4  10  19  35  62  86 116 156 203 244 287 353
#     4   9  18  34  60  93 106 148 210 250 268 343
#     4  11  22  39  61  90 119 156 204 244 298 351
#
# _framework density 18.613802
#
# number of rings (size 3 to 8) (size 9 to 14) (size 15 to 20)
#    0.000    1.500    5.000    2.250    0.000    1.000 
#    0.000    7.500    0.000    0.000    0.000    0.000 
#    0.000    0.000    0.000    0.000    0.000    0.000 
#
# Total GULP energy -178720.727812 kJ/mol
# GULP energy per Si atom -5585.022744 kJ/mol
# Density = 1.857144 g / cm^3
# Si number density = 18.613802 Si / 1000 Ang^3
#
#
#
# Elastic Constant Matrix: (Units=GPa)
#
#
# Indices 1 2 3 4 5 6 
#
# 1 29.3062 13.8542 17.8507 0.0000 -5.5491 0.0000
# 2 13.8542 109.3664 83.8865 0.0000 -3.8067 0.0000
# 3 17.8507 83.8865 181.1359 0.0000 -4.3310 0.0000
# 4 0.0000 0.0000 0.0000 43.4135 0.0000 -5.3369
# 5 -5.5491 -3.8067 -4.3310 0.0000 3.6861 0.0000
# 6 0.0000 0.0000 0.0000 -5.3369 0.0000 -9.3087
#
#
#
# Elastic Compliance Matrix: (Units=1/GPa)
#
#
# Indices 1 2 3 4 5 6 
#
# 1 0.049769 -0.002154 -0.002232 0.000000 0.070077 0.000000
# 2 -0.002154 0.014459 -0.006384 0.000000 0.004189 0.000000
# 3 -0.002232 -0.006384 0.008704 0.000000 0.000274 0.000000
# 4 0.000000 0.000000 0.000000 0.021518 0.000000 -0.012337
# 5 0.070077 0.004189 0.000274 0.000000 0.381433 0.000000
# 6 0.000000 0.000000 0.000000 -0.012337 0.000000 -0.100353
#
#
# Mechanical properties :
#
#
# Convention : Reuss Voigt Hill
#
# Bulk Modulus (GPa) = 19.45781 61.22126 40.33953
# Shear Modulus (GPa) = 12.07154 21.17264 16.62209
#
# Velocity S-wave (km/s) = 2.54938 3.37630 2.99155
# Velocity P-wave (km/s) = 4.37515 6.93980 5.80098
#
# Compressibility (1/GPa) = 0.05139325
#
# Stress axis : x y z
#
# Youngs Moduli (GPa) = 20.09281 69.16342 114.89624
#
# Poissons Ratio (x) = 0.14895 0.25642
# Poissons Ratio (y) = 0.04327 0.73344
# Poissons Ratio (z) = 0.04484 0.44151
#
# Static dielectric constant tensor:
#      x y z
#    x 1.652820 0.000000 -0.003100 
#    y 0.000000 1.602600 0.000000 
#    z -0.003100 0.000000 1.659480 
# 
# From -- ./inp_files/13312.got.cif
#   From: 2010.05.17/outbox.cif.g08.bks.cpg/sg14_7_cif.got.tgz:13312.got - 2010.06.03 17:49:19.
