data_PCOD9241288
_publ_section_title
;
Structure prediction by ZEFSAII (Michael W. Deem and Ramdas Pophale) SiO2 
 PCOD9241288
Probable space group: P 21/C
;
_chemical_formula_sum "Si O2"
_cell_formula_units_Z 24
_cell_length_a 11.653450
_cell_length_b 10.111823
_cell_length_c 12.671354
_cell_angle_alpha 90.000000
_cell_angle_beta 143.104501
_cell_angle_gamma 90.000000
_cell_volume 896.431007
_symmetry_space_group_name_H-M "P 21/C"
_symmetry_group_IT_number 14
_symmetry_cell_setting 'monoclinic'
loop_
_space_group_symop_operation_xyz
x,y,z
-x,1/2+y,1/2-z
-x,-y,-z
x,1/2-y,1/2+z
loop_
_atom_site_type_symbol
_atom_site_label
_atom_site_fract_x
_atom_site_fract_y
_atom_site_fract_z
Si Si1 0.557258 0.724942 0.360844
Si Si2 0.915857 0.062703 0.793350
Si Si3 0.313073 0.687991 0.358524
Si Si4 0.666301 0.665149 0.209875
Si Si5 0.738339 0.402477 0.456463
Si Si6 0.931480 0.813373 0.279040
O O1 0.401983 0.640813 0.314361
O O2 0.593949 0.659080 0.275647
O O3 0.443434 0.859144 0.245645
O O4 0.238468 0.229782 0.928902
O O5 0.867732 0.214370 0.786889
O O6 0.964608 0.064042 0.703171
O O7 0.760300 0.958453 0.718213
O O8 0.117117 0.009868 0.985156
O O9 0.472967 0.795106 0.508283
O O10 0.308957 0.585575 0.452637
O O11 0.810519 0.791455 0.297127
O O12 0.886859 0.280452 0.571984
#
# Coordination Sequence:
#
# PCOD9241288 Si02
#       6
#     4   4   4   4   4   4
#     4  10  20  36  54  78 114 146 180 226 282 328
#     4  10  19  35  59  83 108 149 196 227 271 339
#     4   9  19  36  57  82 114 148 184 234 283 329
#     4   9  19  36  57  82 114 148 184 234 283 329
#     4   9  20  36  56  81 111 145 184 233 277 325
#     4   9  20  36  56  81 111 145 184 233 277 325
#
# _framework density 26.772836000000002
#
# number of rings (size 3 to 8) (size 9 to 14) (size 15 to 20)
#    0.000    2.667    0.000    0.500    0.000    8.000 
#    0.000   15.833    0.000   18.000    0.000    0.000 
#    0.000    0.000    0.000    0.000    0.000    0.000 
#
# Total GULP energy -133719.316452 kJ/mol
# GULP energy per Si atom -5571.638186 kJ/mol
# Density = 2.671190 g / cm^3
# Si number density = 26.772836 Si / 1000 Ang^3
#
#
#
# Elastic Constant Matrix: (Units=GPa)
#
#
# Indices 1 2 3 4 5 6 
#
# 1 209.0851 31.6449 20.8277 0.0000 4.8632 0.0000
# 2 31.6449 64.4327 24.7126 0.0000 16.6711 0.0000
# 3 20.8277 24.7126 96.6683 0.0000 16.7566 0.0000
# 4 0.0000 0.0000 0.0000 37.5379 0.0000 35.4042
# 5 4.8632 16.6711 16.7566 0.0000 33.7377 0.0000
# 6 0.0000 0.0000 0.0000 35.4042 0.0000 20.1290
#
#
#
# Elastic Compliance Matrix: (Units=1/GPa)
#
#
# Indices 1 2 3 4 5 6 
#
# 1 0.005208 -0.002530 -0.000615 0.000000 0.000805 0.000000
# 2 -0.002530 0.020048 -0.003202 0.000000 -0.007952 0.000000
# 3 -0.000615 -0.003202 0.012043 0.000000 -0.004311 0.000000
# 4 0.000000 0.000000 0.000000 -0.040431 0.000000 0.071113
# 5 0.000805 -0.007952 -0.004311 0.000000 0.035595 0.000000
# 6 0.000000 0.000000 0.000000 0.071113 0.000000 -0.075398
#
#
# Mechanical properties :
#
#
# Convention : Reuss Voigt Hill
#
# Bulk Modulus (GPa) = 40.64131 58.28408 49.46269
# Shear Modulus (GPa) = -226.86202 37.81431 -94.52386
#
# Velocity S-wave (km/s) = -9.21520 3.76229 -5.94832
# Velocity P-wave (km/s) = 9.90017 6.37889 5.35366
#
# Compressibility (1/GPa) = 0.02460551
#
# Stress axis : x y z
#
# Youngs Moduli (GPa) = 192.00361 49.87987 83.03715
#
# Poissons Ratio (x) = 0.12622 0.05105
# Poissons Ratio (y) = 0.48585 0.26586
# Poissons Ratio (z) = 0.11804 0.15970
#
# Static dielectric constant tensor:
#      x y z
#    x 2.277090 0.000000 -0.091920 
#    y 0.000000 2.282640 0.000000 
#    z -0.091920 0.000000 2.109070 
# 
# From -- ./inp_files/44486.got.cif
#   From: 2010.05.17/outbox.cif.g08.bks.cpg/sg14_23_cif.got.tgz:44486.got - 2010.06.03 17:49:19.
