data_PCOD9241722
_publ_section_title
;
Structure prediction by ZEFSAII (Michael W. Deem and Ramdas Pophale) SiO2 
 PCOD9241722
Probable space group: P 21/C
;
_chemical_formula_sum "Si O2"
_cell_formula_units_Z 28
_cell_length_a 8.311182
_cell_length_b 20.020260
_cell_length_c 8.852512
_cell_angle_alpha 90.000000
_cell_angle_beta 90.146756
_cell_angle_gamma 90.000000
_cell_volume 1472.982562
_symmetry_space_group_name_H-M "P 21/C"
_symmetry_group_IT_number 14
_symmetry_cell_setting 'monoclinic'
loop_
_space_group_symop_operation_xyz
x,y,z
-x,1/2+y,1/2-z
-x,-y,-z
x,1/2-y,1/2+z
loop_
_atom_site_type_symbol
_atom_site_label
_atom_site_fract_x
_atom_site_fract_y
_atom_site_fract_z
Si Si1 0.285495 0.766525 0.989157
Si Si2 0.820738 0.159047 0.739213
Si Si3 0.413806 0.657407 0.223632
Si Si4 0.633170 0.946844 0.567488
Si Si5 0.375626 0.543912 0.687959
Si Si6 0.069223 0.048346 0.631701
Si Si7 0.721960 0.026433 0.150136
O O1 0.172296 0.813893 0.089875
O O2 0.361910 0.714167 0.106584
O O3 0.188608 0.722134 0.869901
O O4 0.415101 0.807969 0.889321
O O5 0.653330 0.116305 0.738712
O O6 0.953755 0.108398 0.678879
O O7 0.560982 0.618119 0.148175
O O8 0.294692 0.594578 0.252775
O O9 0.762084 0.928379 0.442598
O O10 0.500000 0.000000 0.500000
O O11 0.708080 0.990576 0.702761
O O12 0.288896 0.542909 0.526254
O O13 0.559146 0.518639 0.672227
O O14 0.124066 0.010257 0.783527
O O15 0.000000 0.000000 0.500000
#
# Coordination Sequence:
#
# PCOD9241722 Si02
#       7
#     4   4   4   4   4   4   4
#     4  10  22  38  59  83 118 168 206 237 280 367
#     4  11  22  39  60  87 119 163 203 240 299 363
#     4  10  19  37  60  85 113 155 209 245 286 345
#     4  11  20  38  62  92 121 152 199 255 300 355
#     4  10  19  37  62  91 123 144 197 259 307 344
#     4  12  23  37  60  95 127 157 190 247 318 366
#     4  10  21  36  62  95 120 149 196 262 312 344
#
# _framework density 19.009049999999998
#
# number of rings (size 3 to 8) (size 9 to 14) (size 15 to 20)
#    0.000    1.429    5.714    1.714    0.000    0.571 
#    0.000    1.429    0.000    0.000    0.000    0.000 
#    0.000    0.000    0.000    0.000    0.000    0.000 
#
# Total GULP energy -155902.617124 kJ/mol
# GULP energy per Si atom -5567.950612 kJ/mol
# Density = 1.896578 g / cm^3
# Si number density = 19.009050 Si / 1000 Ang^3
#
#
#
# Elastic Constant Matrix: (Units=GPa)
#
#
# Indices 1 2 3 4 5 6 
#
# 1 52.6762 44.3138 39.1242 0.0000 -12.9715 0.0000
# 2 44.3138 109.6007 46.6589 0.0000 -12.9667 0.0000
# 3 39.1242 46.6589 121.1246 0.0000 -11.9088 0.0000
# 4 0.0000 0.0000 0.0000 50.3010 0.0000 -11.7754
# 5 -12.9715 -12.9667 -11.9088 0.0000 27.1112 0.0000
# 6 0.0000 0.0000 0.0000 -11.7754 0.0000 29.0229
#
#
#
# Elastic Compliance Matrix: (Units=1/GPa)
#
#
# Indices 1 2 3 4 5 6 
#
# 1 0.034420 -0.010178 -0.006330 0.000000 0.008820 0.000000
# 2 -0.010178 0.014256 -0.002103 0.000000 0.001025 0.000000
# 3 -0.006330 -0.002103 0.011198 0.000000 0.000884 0.000000
# 4 0.000000 0.000000 0.000000 0.021967 0.000000 0.008913
# 5 0.008820 0.001025 0.000884 0.000000 0.041983 0.000000
# 6 0.000000 0.000000 0.000000 0.008913 0.000000 0.038072
#
#
# Mechanical properties :
#
#
# Convention : Reuss Voigt Hill
#
# Bulk Modulus (GPa) = 44.14912 60.39946 52.27429
# Shear Modulus (GPa) = 24.19339 31.50733 27.85036
#
# Velocity S-wave (km/s) = 3.57140 4.07565 3.83183
# Velocity P-wave (km/s) = 6.34683 7.34785 6.86561
#
# Compressibility (1/GPa) = 0.02265051
#
# Stress axis : x y z
#
# Youngs Moduli (GPa) = 29.05311 70.14627 89.30459
#
# Poissons Ratio (x) = 0.71398 0.56528
# Poissons Ratio (y) = 0.29572 0.18782
# Poissons Ratio (z) = 0.18390 0.14753
#
# Static dielectric constant tensor:
#      x y z
#    x 1.686050 0.000000 -0.009540 
#    y 0.000000 1.682410 0.000000 
#    z -0.009540 0.000000 1.722840 
# 
# From -- ./inp_files/9449.got.cif
#   From: 2010.05.17/outbox.cif.g08.bks.cpg/sg14_5_cif.got.tgz:9449.got - 2010.06.03 17:49:19.
