data_PCOD9241879
_publ_section_title
;
Structure prediction by ZEFSAII (Michael W. Deem and Ramdas Pophale) SiO2 
 PCOD9241879
Probable space group: P 21/C
;
_chemical_formula_sum "Si O2"
_cell_formula_units_Z 28
_cell_length_a 21.559503
_cell_length_b 10.227978
_cell_length_c 17.724407
_cell_angle_alpha 90.000000
_cell_angle_beta 19.905824
_cell_angle_gamma 90.000000
_cell_volume 1330.716784
_symmetry_space_group_name_H-M "P 21/C"
_symmetry_group_IT_number 14
_symmetry_cell_setting 'monoclinic'
loop_
_space_group_symop_operation_xyz
x,y,z
-x,1/2+y,1/2-z
-x,-y,-z
x,1/2-y,1/2+z
loop_
_atom_site_type_symbol
_atom_site_label
_atom_site_fract_x
_atom_site_fract_y
_atom_site_fract_z
Si Si1 0.310569 0.968393 0.000598
Si Si2 0.208443 0.206393 0.225967
Si Si3 0.036026 0.204019 0.582681
Si Si4 0.045538 0.705741 0.608513
Si Si5 0.425325 0.794618 0.117667
Si Si6 0.092898 0.070011 0.123208
Si Si7 0.600497 0.919326 0.777930
O O1 0.164349 0.850570 0.170173
O O2 0.248782 0.069971 0.136803
O O3 0.280503 0.042855 0.955514
O O4 0.510748 0.924725 0.797933
O O5 0.078702 0.184186 0.445950
O O6 0.108077 0.292727 0.279408
O O7 0.396741 0.261694 0.043918
O O8 0.078288 0.349811 0.562431
O O9 0.194201 0.126313 0.446148
O O10 0.242472 0.717148 0.343753
O O11 0.031161 0.574296 0.672149
O O12 0.017273 0.834890 0.693236
O O13 0.403507 0.937854 0.179970
O O14 0.477281 0.823958 0.971574
#
# Coordination Sequence:
#
# PCOD9241879 Si02
#       7
#     4   4   4   4   4   4   4
#     4  10  19  38  57  90 118 161 204 239 295 368
#     4   9  20  36  64  91 114 154 207 244 307 346
#     4  11  20  38  61  90 120 157 198 261 285 360
#     4  11  22  43  58  87 123 167 191 259 291 366
#     4   9  18  35  63  90 116 149 200 253 290 351
#     4  11  24  39  60  86 129 159 205 234 315 357
#     4   9  18  35  62  92 113 151 201 246 298 346
#
# _framework density 21.041291999999999
#
# number of rings (size 3 to 8) (size 9 to 14) (size 15 to 20)
#    0.000    2.000    1.429    3.857    0.000    0.571 
#    7.714    5.714    0.000    0.000    0.000    0.000 
#    0.000    0.000    0.000    0.000    0.000    0.000 
#
# Total GULP energy -156126.094738 kJ/mol
# GULP energy per Si atom -5575.931955 kJ/mol
# Density = 2.099340 g / cm^3
# Si number density = 21.041292 Si / 1000 Ang^3
#
#
#
# Elastic Constant Matrix: (Units=GPa)
#
#
# Indices 1 2 3 4 5 6 
#
# 1 85.0985 29.7654 -2.8082 0.0000 -19.0522 0.0000
# 2 29.7654 41.9818 -4.7330 0.0000 -2.3054 0.0000
# 3 -2.8082 -4.7330 12.9290 0.0000 -2.8326 0.0000
# 4 0.0000 0.0000 0.0000 6.2221 0.0000 -0.1726
# 5 -19.0522 -2.3054 -2.8326 0.0000 26.0924 0.0000
# 6 0.0000 0.0000 0.0000 -0.1726 0.0000 24.0882
#
#
#
# Elastic Compliance Matrix: (Units=1/GPa)
#
#
# Indices 1 2 3 4 5 6 
#
# 1 0.019188 -0.012607 0.002436 0.000000 0.013161 0.000000
# 2 -0.012607 0.033402 0.008317 0.000000 -0.005351 0.000000
# 3 0.002436 0.008317 0.083455 0.000000 0.011574 0.000000
# 4 0.000000 0.000000 0.000000 0.160750 0.000000 0.001152
# 5 0.013161 -0.005351 0.011574 0.000000 0.048719 0.000000
# 6 0.000000 0.000000 0.000000 0.001152 0.000000 0.041522
#
#
# Mechanical properties :
#
#
# Convention : Reuss Voigt Hill
#
# Bulk Modulus (GPa) = 7.55646 20.49530 14.02588
# Shear Modulus (GPa) = 11.49808 19.13288 15.31548
#
# Velocity S-wave (km/s) = 2.34017 3.01873 2.70085
# Velocity P-wave (km/s) = 3.30165 4.68103 4.05049
#
# Compressibility (1/GPa) = 0.13233707
#
# Stress axis : x y z
#
# Youngs Moduli (GPa) = 52.11711 29.93837 11.98252
#
# Poissons Ratio (x) = 0.37743 -0.02919
# Poissons Ratio (y) = 0.65703 -0.09966
# Poissons Ratio (z) = -0.12696 -0.24900
#
# Static dielectric constant tensor:
#      x y z
#    x 1.788100 0.000000 0.022490 
#    y 0.000000 1.775870 0.000000 
#    z 0.022490 0.000000 1.795680 
# 
# From -- ./inp_files/61253.got.cif
#   From: 2010.05.17/outbox.cif.g08.bks.cpg/sg14_31_cif.got.tgz:61253.got - 2010.06.03 17:49:19.
