data_PCOD9241823
_publ_section_title
;
Structure prediction by ZEFSAII (Michael W. Deem and Ramdas Pophale) SiO2 
 PCOD9241823
Probable space group: P 21/C
;
_chemical_formula_sum "Si O2"
_cell_formula_units_Z 28
_cell_length_a 6.393550
_cell_length_b 17.228463
_cell_length_c 16.193160
_cell_angle_alpha 90.000000
_cell_angle_beta 123.996223
_cell_angle_gamma 90.000000
_cell_volume 1478.814602
_symmetry_space_group_name_H-M "P 21/C"
_symmetry_group_IT_number 14
_symmetry_cell_setting 'monoclinic'
loop_
_space_group_symop_operation_xyz
x,y,z
-x,1/2+y,1/2-z
-x,-y,-z
x,1/2-y,1/2+z
loop_
_atom_site_type_symbol
_atom_site_label
_atom_site_fract_x
_atom_site_fract_y
_atom_site_fract_z
Si Si1 0.298786 0.493535 0.071406
Si Si2 0.572582 0.579169 0.467410
Si Si3 0.566086 0.371516 0.024300
Si Si4 0.602767 0.503346 0.715525
Si Si5 0.024677 0.362840 0.244001
Si Si6 0.497158 0.786073 0.082301
Si Si7 0.144739 0.877923 0.108663
O O1 0.393024 0.410551 0.057115
O O2 0.380511 0.507268 0.183367
O O3 0.405534 0.560778 0.036697
O O4 0.000000 0.500000 0.000000
O O5 0.500000 0.500000 0.500000
O O6 0.432711 0.571843 0.349043
O O7 0.494952 0.649826 0.508931
O O8 0.872153 0.590618 0.521045
O O9 0.831512 0.351147 0.127079
O O10 0.476084 0.295917 0.956078
O O11 0.845211 0.552917 0.740004
O O12 0.357682 0.556689 0.644153
O O13 0.260910 0.304763 0.306427
O O14 0.882617 0.360830 0.300142
O O15 0.247473 0.803522 0.081139
#
# Coordination Sequence:
#
# PCOD9241823 Si02
#       7
#     4   4   4   4   4   4   4
#     4  11  24  42  69  89 119 172 213 270 312 383
#     4  11  20  36  62  96 126 161 213 259 311 386
#     4  11  24  46  62  92 127 165 220 260 320 386
#     4  11  20  37  62  94 120 163 217 250 321 374
#     4  10  20  40  65  86 127 168 202 264 319 378
#     4  10  24  41  59  97 128 166 209 262 325 378
#     4  10  19  37  64  90 123 167 198 260 323 364
#
# _framework density 18.934083999999999
#
# number of rings (size 3 to 8) (size 9 to 14) (size 15 to 20)
#    0.000    1.429    7.143    0.429    0.000    2.286 
#    7.714    0.000    0.000    0.000    0.000    0.000 
#    0.000    0.000    0.000    0.000    0.000    0.000 
#
# Total GULP energy -156207.192731 kJ/mol
# GULP energy per Si atom -5578.828312 kJ/mol
# Density = 1.889099 g / cm^3
# Si number density = 18.934084 Si / 1000 Ang^3
#
#
#
# Elastic Constant Matrix: (Units=GPa)
#
#
# Indices 1 2 3 4 5 6 
#
# 1 85.2290 22.9269 30.3125 0.0000 -9.6906 0.0000
# 2 22.9269 88.4140 37.0032 0.0000 -3.1687 0.0000
# 3 30.3125 37.0032 130.4463 0.0000 -8.7668 0.0000
# 4 0.0000 0.0000 0.0000 23.6314 0.0000 -1.4438
# 5 -9.6906 -3.1687 -8.7668 0.0000 32.1668 0.0000
# 6 0.0000 0.0000 0.0000 -1.4438 0.0000 14.9157
#
#
#
# Elastic Compliance Matrix: (Units=1/GPa)
#
#
# Indices 1 2 3 4 5 6 
#
# 1 0.013558 -0.002465 -0.002234 0.000000 0.003233 0.000000
# 2 -0.002465 0.013285 -0.003216 0.000000 -0.000311 0.000000
# 3 -0.002234 -0.003216 0.009200 0.000000 0.001517 0.000000
# 4 0.000000 0.000000 0.000000 0.042568 0.000000 0.004120
# 5 0.003233 -0.000311 0.001517 0.000000 0.032445 0.000000
# 6 0.000000 0.000000 0.000000 0.004120 0.000000 0.067442
#
#
# Mechanical properties :
#
#
# Convention : Reuss Voigt Hill
#
# Bulk Modulus (GPa) = 49.47706 53.84162 51.65934
# Shear Modulus (GPa) = 24.86744 28.39924 26.63334
#
# Velocity S-wave (km/s) = 3.62797 3.87706 3.75458
# Velocity P-wave (km/s) = 6.61344 6.96708 6.79256
#
# Compressibility (1/GPa) = 0.02021139
#
# Stress axis : x y z
#
# Youngs Moduli (GPa) = 73.75527 75.27477 108.70126
#
# Poissons Ratio (x) = 0.18555 0.24285
# Poissons Ratio (y) = 0.18180 0.34964
# Poissons Ratio (z) = 0.16478 0.24212
#
# Static dielectric constant tensor:
#      x y z
#    x 1.682760 0.000000 -0.013340 
#    y 0.000000 1.655880 0.000000 
#    z -0.013340 0.000000 1.692120 
# 
# From -- ./inp_files/37735.got.cif
#   From: 2010.05.17/outbox.cif.g08.bks.cpg/sg14_19_cif.got.tgz:37735.got - 2010.06.03 17:49:19.
