data_PCOD9241950
_publ_section_title
;
Structure prediction by ZEFSAII (Michael W. Deem and Ramdas Pophale) SiO2 
 PCOD9241950
Probable space group: P 21/C
;
_chemical_formula_sum "Si O2"
_cell_formula_units_Z 32
_cell_length_a 9.371078
_cell_length_b 20.604172
_cell_length_c 8.948691
_cell_angle_alpha 90.000000
_cell_angle_beta 134.484126
_cell_angle_gamma 90.000000
_cell_volume 1232.720146
_symmetry_space_group_name_H-M "P 21/C"
_symmetry_group_IT_number 14
_symmetry_cell_setting 'monoclinic'
loop_
_space_group_symop_operation_xyz
x,y,z
-x,1/2+y,1/2-z
-x,-y,-z
x,1/2-y,1/2+z
loop_
_atom_site_type_symbol
_atom_site_label
_atom_site_fract_x
_atom_site_fract_y
_atom_site_fract_z
Si Si1 0.197699 0.202552 0.169427
Si Si2 0.049022 0.766860 0.750809
Si Si3 0.778755 0.043139 0.717552
Si Si4 0.368859 0.650358 0.665846
Si Si5 0.501191 0.217727 0.148611
Si Si6 0.843559 0.133807 0.509950
Si Si7 0.230941 0.441741 0.568659
Si Si8 0.295465 0.114880 0.811995
O O1 0.405563 0.221064 0.243856
O O2 0.033658 0.251370 0.974777
O O3 0.182132 0.129720 0.094480
O O4 0.140734 0.202720 0.300184
O O5 0.318312 0.833549 0.715418
O O6 0.102995 0.694096 0.842980
O O7 0.225278 0.813357 0.940630
O O8 0.743283 0.097825 0.817271
O O9 0.737258 0.077188 0.528232
O O10 0.680400 0.980994 0.725989
O O11 0.015002 0.027271 0.873091
O O12 0.429081 0.709048 0.821764
O O13 0.553686 0.615387 0.716319
O O14 0.341704 0.185156 0.921503
O O15 0.058102 0.110265 0.602921
O O16 0.334720 0.433244 0.482574
#
# Coordination Sequence:
#
# PCOD9241950 Si02
#       8
#     4   4   4   4   4   4   4   4
#     4  11  21  39  61  95 123 165 202 262 318 370
#     4  11  20  35  59  90 130 151 206 253 312 375
#     4  10  19  38  62  90 113 167 214 252 301 377
#     4  11  23  32  59  91 121 159 204 248 320 370
#     4  10  23  34  61  87 125 155 200 244 323 374
#     4  10  20  38  60  84 122 159 199 252 310 359
#     4   9  19  38  61  85 122 160 217 250 301 372
#     4  10  21  40  53  89 119 159 197 253 312 362
#
# _framework density 25.958853999999999
#
# number of rings (size 3 to 8) (size 9 to 14) (size 15 to 20)
#    0.000    1.750    5.000    0.750    7.000    0.500 
#    0.000    2.500    0.000    0.000    0.000    9.625 
#    0.000    0.000    0.000    0.000    0.000    0.000 
#
# Total GULP energy -178701.861269 kJ/mol
# GULP energy per Si atom -5584.433165 kJ/mol
# Density = 2.589977 g / cm^3
# Si number density = 25.958854 Si / 1000 Ang^3
#
#
#
# Elastic Constant Matrix: (Units=GPa)
#
#
# Indices 1 2 3 4 5 6 
#
# 1 109.8716 -3.2696 20.2942 0.0000 17.1201 0.0000
# 2 -3.2696 19.1525 -0.6626 0.0000 6.1329 0.0000
# 3 20.2942 -0.6626 62.1028 0.0000 11.4698 0.0000
# 4 0.0000 0.0000 0.0000 8.9786 0.0000 10.7131
# 5 17.1201 6.1329 11.4698 0.0000 40.1900 0.0000
# 6 0.0000 0.0000 0.0000 10.7131 0.0000 25.6811
#
#
#
# Elastic Compliance Matrix: (Units=1/GPa)
#
#
# Indices 1 2 3 4 5 6 
#
# 1 0.010307 0.002987 -0.002577 0.000000 -0.004111 0.000000
# 2 0.002987 0.056060 0.001517 0.000000 -0.010260 0.000000
# 3 -0.002577 0.001517 0.017735 0.000000 -0.004195 0.000000
# 4 0.000000 0.000000 0.000000 0.221750 0.000000 -0.092505
# 5 -0.004111 -0.010260 -0.004195 0.000000 0.029396 0.000000
# 6 0.000000 0.000000 0.000000 -0.092505 0.000000 0.077528
#
#
# Mechanical properties :
#
#
# Convention : Reuss Voigt Hill
#
# Bulk Modulus (GPa) = 11.36931 24.87233 18.12082
# Shear Modulus (GPa) = 11.40922 26.62094 19.01508
#
# Velocity S-wave (km/s) = 2.09873 3.20582 2.70943
# Velocity P-wave (km/s) = 3.20346 4.82756 4.09679
#
# Compressibility (1/GPa) = 0.08795609
#
# Stress axis : x y z
#
# Youngs Moduli (GPa) = 97.02178 17.83795 56.38415
#
# Poissons Ratio (x) = -0.05328 0.14531
# Poissons Ratio (y) = -0.28978 -0.08554
# Poissons Ratio (z) = 0.25003 -0.02706
#
# Static dielectric constant tensor:
#      x y z
#    x 2.147700 0.000000 0.043580 
#    y 0.000000 2.038050 0.000000 
#    z 0.043580 0.000000 2.153420 
# 
# From -- ./inp_files/26481.got.cif
#   From: 2010.05.17/outbox.cif.g08.bks.cpg/sg14_14_cif.got.tgz:26481.got - 2010.06.03 17:49:19.
