data_PCOD9241600
_publ_section_title
;
Structure prediction by ZEFSAII (Michael W. Deem and Ramdas Pophale) SiO2 
 PCOD9241600
Probable space group: P 21/C
;
_chemical_formula_sum "Si O2"
_cell_formula_units_Z 28
_cell_length_a 16.549161
_cell_length_b 16.735664
_cell_length_c 9.165583
_cell_angle_alpha 90.000000
_cell_angle_beta 31.671206
_cell_angle_gamma 90.000000
_cell_volume 1332.829914
_symmetry_space_group_name_H-M "P 21/C"
_symmetry_group_IT_number 14
_symmetry_cell_setting 'monoclinic'
loop_
_space_group_symop_operation_xyz
x,y,z
-x,1/2+y,1/2-z
-x,-y,-z
x,1/2-y,1/2+z
loop_
_atom_site_type_symbol
_atom_site_label
_atom_site_fract_x
_atom_site_fract_y
_atom_site_fract_z
Si Si1 0.811980 0.905937 0.159587
Si Si2 0.586864 0.399822 0.457216
Si Si3 0.286857 0.301258 0.925793
Si Si4 0.617095 0.882045 0.190217
Si Si5 0.378481 0.525859 0.913531
Si Si6 0.075082 0.906659 0.534667
Si Si7 0.133258 0.405084 0.921214
O O1 0.762351 0.833111 0.339326
O O2 0.688622 0.924281 0.220738
O O3 0.785227 0.985619 0.297071
O O4 0.970516 0.886099 0.835085
O O5 0.453591 0.337062 0.630154
O O6 0.505728 0.454536 0.705454
O O7 0.622531 0.444223 0.250672
O O8 0.755325 0.370398 0.240766
O O9 0.322820 0.207907 0.876859
O O10 0.163511 0.341484 0.003818
O O11 0.441937 0.906308 0.425272
O O12 0.704190 0.909976 0.911118
O O13 0.984714 0.882773 0.526318
O O14 0.089845 0.003585 0.525402
#
# Coordination Sequence:
#
# PCOD9241600 Si02
#       7
#     4   4   4   4   4   4   4
#     4  10  23  34  62  95 120 156 210 261 298 360
#     4  10  19  36  65  90 118 160 205 253 310 361
#     4  11  22  38  64  87 122 168 210 249 308 371
#     4  11  20  38  62  88 121 164 213 251 302 366
#     4  10  19  36  62  92 118 155 212 261 293 354
#     4  10  20  38  64  92 121 154 202 260 314 358
#     4  10  20  37  64  86 117 167 201 245 308 377
#
# _framework density 21.007932
#
# number of rings (size 3 to 8) (size 9 to 14) (size 15 to 20)
#    0.000    1.714    2.857    3.000    0.000    2.286 
#    0.000    0.000   22.000    0.000    0.000    0.000 
#    0.000    0.000    0.000    0.000    0.000    0.000 
#
# Total GULP energy -155964.335563 kJ/mol
# GULP energy per Si atom -5570.154842 kJ/mol
# Density = 2.096012 g / cm^3
# Si number density = 21.007932 Si / 1000 Ang^3
#
#
#
# Elastic Constant Matrix: (Units=GPa)
#
#
# Indices 1 2 3 4 5 6 
#
# 1 66.9554 7.2133 26.2384 0.0000 -15.2961 0.0000
# 2 7.2133 60.0220 5.5907 0.0000 -2.7725 0.0000
# 3 26.2384 5.5907 85.4687 0.0000 -3.7711 0.0000
# 4 0.0000 0.0000 0.0000 19.3643 0.0000 -4.3087
# 5 -15.2961 -2.7725 -3.7711 0.0000 37.0371 0.0000
# 6 0.0000 0.0000 0.0000 -4.3087 0.0000 11.6635
#
#
#
# Elastic Compliance Matrix: (Units=1/GPa)
#
#
# Indices 1 2 3 4 5 6 
#
# 1 0.018820 -0.001433 -0.005370 0.000000 0.007119 0.000000
# 2 -0.001433 0.016921 -0.000640 0.000000 0.000610 0.000000
# 3 -0.005370 -0.000640 0.013351 0.000000 -0.000906 0.000000
# 4 0.000000 0.000000 0.000000 0.056267 0.000000 0.020786
# 5 0.007119 0.000610 -0.000906 0.000000 0.029893 0.000000
# 6 0.000000 0.000000 0.000000 0.020786 0.000000 0.093417
#
#
# Mechanical properties :
#
#
# Convention : Reuss Voigt Hill
#
# Bulk Modulus (GPa) = 29.23469 32.28121 30.75795
# Shear Modulus (GPa) = 19.61126 25.17322 22.39224
#
# Velocity S-wave (km/s) = 3.05867 3.46536 3.26835
# Velocity P-wave (km/s) = 5.14005 5.60457 5.37733
#
# Compressibility (1/GPa) = 0.03420593
#
# Stress axis : x y z
#
# Youngs Moduli (GPa) = 53.13418 59.09985 74.90296
#
# Poissons Ratio (x) = 0.08468 0.40222
# Poissons Ratio (y) = 0.07613 0.04794
# Poissons Ratio (z) = 0.28533 0.03783
#
# Static dielectric constant tensor:
#      x y z
#    x 1.814120 0.000000 -0.006890 
#    y 0.000000 1.829170 0.000000 
#    z -0.006890 0.000000 1.759990 
# 
# From -- ./inp_files/18156.got.cif
#   From: 2010.05.17/outbox.cif.g08.bks.cpg/sg14_10_cif.got.tgz:18156.got - 2010.06.03 17:49:19.
