data_PCOD9241084
_publ_section_title
;
Structure prediction by ZEFSAII (Michael W. Deem and Ramdas Pophale) SiO2 
 PCOD9241084
Probable space group: P 21/C
;
_chemical_formula_sum "Si O2"
_cell_formula_units_Z 28
_cell_length_a 16.750660
_cell_length_b 18.384682
_cell_length_c 5.360965
_cell_angle_alpha 90.000000
_cell_angle_beta 61.310221
_cell_angle_gamma 90.000000
_cell_volume 1448.256188
_symmetry_space_group_name_H-M "P 21/C"
_symmetry_group_IT_number 14
_symmetry_cell_setting 'monoclinic'
loop_
_space_group_symop_operation_xyz
x,y,z
-x,1/2+y,1/2-z
-x,-y,-z
x,1/2-y,1/2+z
loop_
_atom_site_type_symbol
_atom_site_label
_atom_site_fract_x
_atom_site_fract_y
_atom_site_fract_z
Si Si1 0.953932 0.920739 0.069102
Si Si2 0.503964 0.206598 0.744054
Si Si3 0.094460 0.792577 0.858310
Si Si4 0.719678 0.054800 0.920482
Si Si5 0.456041 0.035662 0.815939
Si Si6 0.899357 0.963877 0.650965
Si Si7 0.703139 0.150328 0.445291
O O1 0.894980 0.916934 0.407140
O O2 0.894980 0.916934 0.907918
O O3 0.037051 0.865824 0.944424
O O4 0.000000 0.000000 0.000000
O O5 0.476533 0.250000 0.535201
O O6 0.470824 0.122551 0.793764
O O7 0.614043 0.199911 0.578936
O O8 0.070866 0.750000 0.643699
O O9 0.202140 0.807040 0.696789
O O10 0.702491 0.101614 0.696942
O O11 0.822556 0.025349 0.766167
O O12 0.702491 0.101614 0.195583
O O13 0.649147 0.988191 0.026279
O O14 0.500000 0.000000 0.500000
O O15 0.500000 0.000000 0.000000
O O16 0.000000 0.000000 0.500000
#
# Coordination Sequence:
#
# PCOD9241084 Si02
#       7
#     4   4   4   4   4   4   4
#     4  10  20  37  58  82 118 161 209 251 294 363
#     4  12  24  40  62  89 130 173 208 261 332 393
#     4  12  24  39  59  92 133 170 202 256 326 398
#     4  12  22  38  67  95 124 167 211 281 312 372
#     4  12  23  44  64  96 125 169 225 274 318 386
#     4  10  19  34  57  91 119 154 206 257 309 358
#     4  12  22  38  60  93 132 164 208 244 334 408
#
# _framework density 19.333594999999999
#
# number of rings (size 3 to 8) (size 9 to 14) (size 15 to 20)
#    0.000    0.571    2.857    8.571    0.000    0.000 
#    0.000    0.000    0.000    5.143    0.000    0.000 
#    0.000    0.000    0.000    0.000    0.000    0.000 
#
# Total GULP energy -156508.451552 kJ/mol
# GULP energy per Si atom -5589.587555 kJ/mol
# Density = 1.928959 g / cm^3
# Si number density = 19.333595 Si / 1000 Ang^3
#
#
#
# Elastic Constant Matrix: (Units=GPa)
#
#
# Indices 1 2 3 4 5 6 
#
# 1 57.0469 32.2572 44.4799 0.0000 24.4891 0.0000
# 2 32.2572 127.8659 54.0159 0.0000 18.8446 0.0000
# 3 44.4799 54.0159 142.9451 0.0000 49.9007 0.0000
# 4 0.0000 0.0000 0.0000 36.0954 0.0000 2.6032
# 5 24.4891 18.8446 49.9007 0.0000 42.4295 0.0000
# 6 0.0000 0.0000 0.0000 2.6032 0.0000 33.0895
#
#
#
# Elastic Compliance Matrix: (Units=1/GPa)
#
#
# Indices 1 2 3 4 5 6 
#
# 1 0.026474 -0.003807 -0.003487 0.000000 -0.009488 0.000000
# 2 -0.003807 0.009854 -0.003017 0.000000 0.001369 0.000000
# 3 -0.003487 -0.003017 0.013658 0.000000 -0.012710 0.000000
# 4 0.000000 0.000000 0.000000 0.027862 0.000000 -0.002192
# 5 -0.009488 0.001369 -0.012710 0.000000 0.043385 0.000000
# 6 0.000000 0.000000 0.000000 -0.002192 0.000000 0.030394
#
#
# Mechanical properties :
#
#
# Convention : Reuss Voigt Hill
#
# Bulk Modulus (GPa) = 34.05569 65.48489 49.77029
# Shear Modulus (GPa) = 27.46698 35.46319 31.46509
#
# Velocity S-wave (km/s) = 3.77329 4.28749 4.03858
# Velocity P-wave (km/s) = 6.05282 7.64557 6.89534
#
# Compressibility (1/GPa) = 0.02936367
#
# Stress axis : x y z
#
# Youngs Moduli (GPa) = 37.77259 101.48346 73.21895
#
# Poissons Ratio (x) = 0.38638 0.25531
# Poissons Ratio (y) = 0.14381 0.22088
# Poissons Ratio (z) = 0.13171 0.30615
#
# Static dielectric constant tensor:
#      x y z
#    x 1.660530 0.000000 0.026010 
#    y 0.000000 1.660390 0.000000 
#    z 0.026010 0.000000 1.690560 
# 
# From -- ./inp_files/4131.got.cif
#   From: 2010.05.17/outbox.cif.g08.bks.cpg/sg14_3_cif.got.tgz:4131.got - 2010.06.03 17:49:19.
