data_PCOD9241461
_publ_section_title
;
Structure prediction by ZEFSAII (Michael W. Deem and Ramdas Pophale) SiO2 
 PCOD9241461
Probable space group: P 21/C
;
_chemical_formula_sum "Si O2"
_cell_formula_units_Z 32
_cell_length_a 26.666953
_cell_length_b 8.057306
_cell_length_c 15.557481
_cell_angle_alpha 90.000000
_cell_angle_beta 29.025574
_cell_angle_gamma 90.000000
_cell_volume 1621.897064
_symmetry_space_group_name_H-M "P 21/C"
_symmetry_group_IT_number 14
_symmetry_cell_setting 'monoclinic'
loop_
_space_group_symop_operation_xyz
x,y,z
-x,1/2+y,1/2-z
-x,-y,-z
x,1/2-y,1/2+z
loop_
_atom_site_type_symbol
_atom_site_label
_atom_site_fract_x
_atom_site_fract_y
_atom_site_fract_z
Si Si1 0.502012 0.770215 0.419521
Si Si2 0.007903 0.253212 0.807846
Si Si3 0.363738 0.194272 0.950400
Si Si4 0.687523 0.413640 0.353803
Si Si5 0.185743 0.921852 0.843284
Si Si6 0.106693 0.100105 0.497944
Si Si7 0.868195 0.686062 0.705638
Si Si8 0.379674 0.116885 0.600609
O O1 0.562263 0.772760 0.239563
O O2 0.413035 0.630629 0.551742
O O3 0.582589 0.771398 0.377040
O O4 0.441990 0.945364 0.513192
O O5 0.076419 0.219751 0.621530
O O6 0.068327 0.199384 0.802813
O O7 0.966059 0.439278 0.882667
O O8 0.904671 0.140574 0.959716
O O9 0.249510 0.259646 0.099834
O O10 0.401331 0.292145 0.978578
O O11 0.350346 0.005080 0.002892
O O12 0.746038 0.239566 0.282832
O O13 0.774472 0.533667 0.181520
O O14 0.138192 0.006392 0.829722
O O15 0.260597 0.058186 0.774324
O O16 0.090475 0.191228 0.431168
#
# Coordination Sequence:
#
# PCOD9241461 Si02
#       8
#     4   4   4   4   4   4   4   4
#     4  10  19  36  58  78 107 151 190 228 291 353
#     4  11  21  37  60  83 112 156 193 228 292 351
#     4  10  20  34  55  81 110 145 185 237 288 341
#     4   9  20  37  54  81 117 147 188 243 291 340
#     4   9  19  37  56  79 115 149 186 240 284 337
#     4  10  22  38  57  85 118 149 191 245 286 342
#     4  10  21  37  57  83 113 147 191 237 286 341
#     4   9  20  36  54  80 110 143 186 234 283 341
#
# _framework density 19.729982
#
# number of rings (size 3 to 8) (size 9 to 14) (size 15 to 20)
#    0.000    2.250    0.000    2.250    0.000    4.500 
#    0.000    8.750    0.000    0.000    0.000    0.000 
#    0.000    0.000    0.000    0.000    0.000    0.000 
#
# Total GULP energy -178614.216524 kJ/mol
# GULP energy per Si atom -5581.694266 kJ/mol
# Density = 1.968508 g / cm^3
# Si number density = 19.729982 Si / 1000 Ang^3
#
#
#
# Elastic Constant Matrix: (Units=GPa)
#
#
# Indices 1 2 3 4 5 6 
#
# 1 79.6937 -8.1075 26.0366 0.0000 0.0352 0.0000
# 2 -8.1075 45.4832 1.8987 0.0000 -2.8536 0.0000
# 3 26.0366 1.8987 62.6297 0.0000 8.3341 0.0000
# 4 0.0000 0.0000 0.0000 18.1365 0.0000 -1.3098
# 5 0.0352 -2.8536 8.3341 0.0000 17.7799 0.0000
# 6 0.0000 0.0000 0.0000 -1.3098 0.0000 18.7632
#
#
#
# Elastic Compliance Matrix: (Units=1/GPa)
#
#
# Indices 1 2 3 4 5 6 
#
# 1 0.015120 0.003215 -0.006877 0.000000 0.003710 0.000000
# 2 0.003215 0.022982 -0.002691 0.000000 0.004943 0.000000
# 3 -0.006877 -0.002691 0.020225 0.000000 -0.009898 0.000000
# 4 0.000000 0.000000 0.000000 0.055417 0.000000 0.003869
# 5 0.003710 0.004943 -0.009898 0.000000 0.061669 0.000000
# 6 0.000000 0.000000 0.000000 0.003869 0.000000 0.053566
#
#
# Mechanical properties :
#
#
# Convention : Reuss Voigt Hill
#
# Bulk Modulus (GPa) = 21.92000 25.27358 23.59679
# Shear Modulus (GPa) = 19.46353 22.13452 20.79903
#
# Velocity S-wave (km/s) = 3.14426 3.35307 3.25034
# Velocity P-wave (km/s) = 4.93112 5.27526 5.10609
#
# Compressibility (1/GPa) = 0.04562044
#
# Stress axis : x y z
#
# Youngs Moduli (GPa) = 66.13654 43.51287 49.44494
#
# Poissons Ratio (x) = -0.13990 0.34003
# Poissons Ratio (y) = -0.21263 0.13306
# Poissons Ratio (z) = 0.45482 0.11710
#
# Static dielectric constant tensor:
#      x y z
#    x 1.661340 0.000000 -0.035650 
#    y 0.000000 1.727360 0.000000 
#    z -0.035650 0.000000 1.690380 
# 
# From -- ./inp_files/51336.got.cif
#   From: 2010.05.17/outbox.cif.g08.bks.cpg/sg14_26_cif.got.tgz:51336.got - 2010.06.03 17:49:19.
