data_PCOD9241726
_publ_section_title
;
Structure prediction by ZEFSAII (Michael W. Deem and Ramdas Pophale) SiO2 
 PCOD9241726
Probable space group: P 21/C
;
_chemical_formula_sum "Si O2"
_cell_formula_units_Z 28
_cell_length_a 19.923986
_cell_length_b 7.144939
_cell_length_c 24.273809
_cell_angle_alpha 90.000000
_cell_angle_beta 161.821718
_cell_angle_gamma 90.000000
_cell_volume 1078.033385
_symmetry_space_group_name_H-M "P 21/C"
_symmetry_group_IT_number 14
_symmetry_cell_setting 'monoclinic'
loop_
_space_group_symop_operation_xyz
x,y,z
-x,1/2+y,1/2-z
-x,-y,-z
x,1/2-y,1/2+z
loop_
_atom_site_type_symbol
_atom_site_label
_atom_site_fract_x
_atom_site_fract_y
_atom_site_fract_z
Si Si1 0.408844 0.811009 0.364093
Si Si2 0.889892 0.818877 0.573361
Si Si3 0.578088 0.384483 0.238250
Si Si4 0.648555 0.830998 0.275560
Si Si5 0.783783 0.087680 0.011092
Si Si6 0.362880 0.250329 0.856267
Si Si7 0.862679 0.660532 0.715136
O O1 0.298448 0.792197 0.218452
O O2 0.376697 0.028655 0.353911
O O3 0.430892 0.711374 0.441329
O O4 0.645795 0.756465 0.525888
O O5 0.668476 0.860973 0.433312
O O6 0.837427 0.861758 0.467636
O O7 0.918166 0.598510 0.603939
O O8 0.084552 0.943855 0.746799
O O9 0.598796 0.609281 0.245455
O O10 0.706937 0.329794 0.393172
O O11 0.437148 0.944872 0.129215
O O12 0.664632 0.856869 0.222407
O O13 0.938605 0.238347 0.158162
O O14 0.163774 0.210842 0.740919
#
# Coordination Sequence:
#
# PCOD9241726 Si02
#       7
#     4   4   4   4   4   4   4
#     4   8  17  36  61  81 116 168 193 240 313 371
#     4  10  20  33  57  89 121 148 205 262 301 357
#     4   9  17  35  57  81 120 158 203 250 311 367
#     4   9  17  34  59  85 117 161 203 251 316 363
#     4  10  20  34  60  92 112 154 208 261 304 355
#     4   8  17  35  64  81 119 169 200 239 318 370
#     4  10  19  37  60  87 117 156 205 252 307 358
#
# _framework density 25.973222
#
# number of rings (size 3 to 8) (size 9 to 14) (size 15 to 20)
#    0.857    2.000    1.429    0.000    2.000    0.571 
#    2.571    6.429    6.286    2.571    0.000    0.000 
#    0.000    0.000    0.000    0.000    0.000    0.000 
#
# Total GULP energy -156028.435572 kJ/mol
# GULP energy per Si atom -5572.444128 kJ/mol
# Density = 2.591411 g / cm^3
# Si number density = 25.973222 Si / 1000 Ang^3
#
#
#
# Elastic Constant Matrix: (Units=GPa)
#
#
# Indices 1 2 3 4 5 6 
#
# 1 178.8211 8.9371 5.5978 0.0000 -41.1747 0.0000
# 2 8.9371 67.4826 3.4898 0.0000 9.8767 0.0000
# 3 5.5978 3.4898 -5.9441 0.0000 19.6759 0.0000
# 4 0.0000 0.0000 0.0000 24.5054 0.0000 15.8369
# 5 -41.1747 9.8767 19.6759 0.0000 11.4985 0.0000
# 6 0.0000 0.0000 0.0000 15.8369 0.0000 26.0436
#
#
#
# Elastic Compliance Matrix: (Units=1/GPa)
#
#
# Indices 1 2 3 4 5 6 
#
# 1 0.005815 -0.001698 0.011739 0.000000 0.002193 0.000000
# 2 -0.001698 0.016234 -0.008756 0.000000 -0.005042 0.000000
# 3 0.011739 -0.008756 0.000258 0.000000 0.049115 0.000000
# 4 0.000000 0.000000 0.000000 0.067226 0.000000 -0.040880
# 5 0.002193 -0.005042 0.049115 0.000000 0.015108 0.000000
# 6 0.000000 0.000000 0.000000 -0.040880 0.000000 0.063256
#
#
# Mechanical properties :
#
#
# Convention : Reuss Voigt Hill
#
# Bulk Modulus (GPa) = 40.20153 30.71211 35.45682
# Shear Modulus (GPa) = 28.79859 27.23183 28.01521
#
# Velocity S-wave (km/s) = 3.33345 3.24150 3.28780
# Velocity P-wave (km/s) = 5.50704 5.08527 5.30035
#
# Compressibility (1/GPa) = 0.02487468
#
# Stress axis : x y z
#
# Youngs Moduli (GPa) = 171.98199 61.59825 3882.11561
#
# Poissons Ratio (x) = 0.10460 -45.57034
# Poissons Ratio (y) = 0.29204 33.99297
# Poissons Ratio (z) = -2.01882 0.53937
#
# Static dielectric constant tensor:
#      x y z
#    x 2.090910 0.000000 -0.064690 
#    y 0.000000 2.073570 0.000000 
#    z -0.064690 0.000000 2.002750 
# 
# From -- ./inp_files/77930.got.cif
#   From: 2010.05.17/outbox.cif.g08.bks.cpg/sg14_39_cif.got.tgz:77930.got - 2010.06.03 17:49:19.
