data_PCOD9241286
_publ_section_title
;
Structure prediction by ZEFSAII (Michael W. Deem and Ramdas Pophale) SiO2 
 PCOD9241286
Probable space group: P 21/C
;
_chemical_formula_sum "Si O2"
_cell_formula_units_Z 28
_cell_length_a 9.705892
_cell_length_b 12.576668
_cell_length_c 14.227383
_cell_angle_alpha 90.000000
_cell_angle_beta 119.123194
_cell_angle_gamma 90.000000
_cell_volume 1517.142619
_symmetry_space_group_name_H-M "P 21/C"
_symmetry_group_IT_number 14
_symmetry_cell_setting 'monoclinic'
loop_
_space_group_symop_operation_xyz
x,y,z
-x,1/2+y,1/2-z
-x,-y,-z
x,1/2-y,1/2+z
loop_
_atom_site_type_symbol
_atom_site_label
_atom_site_fract_x
_atom_site_fract_y
_atom_site_fract_z
Si Si1 0.023460 0.503404 0.650009
Si Si2 0.919736 0.532413 0.824108
Si Si3 0.327188 0.858379 0.302922
Si Si4 0.267586 0.576455 0.990228
Si Si5 0.089025 0.168072 0.032579
Si Si6 0.315894 0.363313 0.118040
Si Si7 0.812289 0.186827 0.364478
O O1 0.193895 0.560204 0.721073
O O2 0.061668 0.385783 0.624865
O O3 0.934356 0.513278 0.718845
O O4 0.915518 0.567790 0.539917
O O5 0.773232 0.596234 0.817929
O O6 0.907760 0.417453 0.867405
O O7 0.080603 0.589130 0.909031
O O8 0.346783 0.885519 0.419986
O O9 0.496599 0.863410 0.310207
O O10 0.260561 0.743052 0.250961
O O11 0.286840 0.453308 0.027536
O O12 0.308566 0.647117 0.095121
O O13 0.235740 0.248739 0.071246
O O14 0.933962 0.232726 0.951898
#
# Coordination Sequence:
#
# PCOD9241286 Si02
#       7
#     4   4   4   4   4   4   4
#     4   9  22  37  56  84 116 148 191 238 284 337
#     4  10  19  36  61  85 106 149 195 240 269 341
#     4  10  23  36  54  88 120 150 183 235 298 334
#     4  10  19  38  58  83 112 153 192 236 276 340
#     4  10  19  36  59  81 113 149 193 233 284 335
#     4  11  20  37  59  84 116 147 191 236 286 342
#     4  10  19  35  59  82 110 148 194 233 277 337
#
# _framework density 18.455748
#
# number of rings (size 3 to 8) (size 9 to 14) (size 15 to 20)
#    0.000    2.000    2.857    1.286    2.000    3.429 
#    2.571    0.000    0.000    3.429    0.000    0.000 
#    0.000    0.000    0.000    0.000    0.000    0.000 
#
# Total GULP energy -155910.057095 kJ/mol
# GULP energy per Si atom -5568.216325 kJ/mol
# Density = 1.841374 g / cm^3
# Si number density = 18.455748 Si / 1000 Ang^3
#
#
#
# Elastic Constant Matrix: (Units=GPa)
#
#
# Indices 1 2 3 4 5 6 
#
# 1 106.1061 28.3415 28.4994 0.0000 -5.9286 0.0000
# 2 28.3415 72.4471 16.1134 0.0000 -11.3657 0.0000
# 3 28.4994 16.1134 47.8195 0.0000 -21.9108 0.0000
# 4 0.0000 0.0000 0.0000 16.0694 0.0000 -3.7357
# 5 -5.9286 -11.3657 -21.9108 0.0000 25.8675 0.0000
# 6 0.0000 0.0000 0.0000 -3.7357 0.0000 8.7054
#
#
#
# Elastic Compliance Matrix: (Units=1/GPa)
#
#
# Indices 1 2 3 4 5 6 
#
# 1 0.012575 -0.003911 -0.009223 0.000000 -0.006648 0.000000
# 2 -0.003911 0.016364 -0.000489 0.000000 0.005879 0.000000
# 3 -0.009223 -0.000489 0.041685 0.000000 0.032980 0.000000
# 4 0.000000 0.000000 0.000000 0.069126 0.000000 0.029664
# 5 -0.006648 0.005879 0.032980 0.000000 0.067653 0.000000
# 6 0.000000 0.000000 0.000000 0.029664 0.000000 0.127600
#
#
# Mechanical properties :
#
#
# Convention : Reuss Voigt Hill
#
# Bulk Modulus (GPa) = 23.05346 41.36460 32.20903
# Shear Modulus (GPa) = 13.27284 20.35636 16.81460
#
# Velocity S-wave (km/s) = 2.68465 3.32472 3.02168
# Velocity P-wave (km/s) = 4.70405 6.09917 5.44646
#
# Compressibility (1/GPa) = 0.04337743
#
# Stress axis : x y z
#
# Youngs Moduli (GPa) = 79.52359 61.10821 23.98962
#
# Poissons Ratio (x) = 0.23900 0.22125
# Poissons Ratio (y) = 0.31102 0.01174
# Poissons Ratio (z) = 0.73343 0.02991
#
# Static dielectric constant tensor:
#      x y z
#    x 1.645020 0.000000 -0.031650 
#    y 0.000000 1.668240 0.000000 
#    z -0.031650 0.000000 1.665750 
# 
# From -- ./inp_files/40212.got.cif
#   From: 2010.05.17/outbox.cif.g08.bks.cpg/sg14_21_cif.got.tgz:40212.got - 2010.06.03 17:49:19.
