data_PCOD9241777
_publ_section_title
;
Structure prediction by ZEFSAII (Michael W. Deem and Ramdas Pophale) SiO2 
 PCOD9241777
Probable space group: P 21/C
;
_chemical_formula_sum "Si O2"
_cell_formula_units_Z 24
_cell_length_a 7.805081
_cell_length_b 8.021422
_cell_length_c 14.017160
_cell_angle_alpha 90.000000
_cell_angle_beta 83.148225
_cell_angle_gamma 90.000000
_cell_volume 871.316617
_symmetry_space_group_name_H-M "P 21/C"
_symmetry_group_IT_number 14
_symmetry_cell_setting 'monoclinic'
loop_
_space_group_symop_operation_xyz
x,y,z
-x,1/2+y,1/2-z
-x,-y,-z
x,1/2-y,1/2+z
loop_
_atom_site_type_symbol
_atom_site_label
_atom_site_fract_x
_atom_site_fract_y
_atom_site_fract_z
Si Si1 0.621410 0.257881 0.541457
Si Si2 0.313437 0.351952 0.427599
Si Si3 0.821717 0.331706 0.857086
Si Si4 0.370387 0.339219 0.203485
Si Si5 0.907138 0.462419 0.243548
Si Si6 0.074824 0.181664 0.109541
O O1 0.460534 0.255918 0.478815
O O2 0.660489 0.449509 0.561205
O O3 0.775984 0.180052 0.470928
O O4 0.555981 0.169169 0.641190
O O5 0.353156 0.311631 0.315956
O O6 0.138252 0.315002 0.498240
O O7 0.714995 0.486456 0.821225
O O8 0.771418 0.160296 0.806657
O O9 0.021303 0.373210 0.818356
O O10 0.253782 0.194309 0.161093
O O11 0.003121 0.514460 0.339124
O O12 0.964913 0.333095 0.156436
#
# Coordination Sequence:
#
# PCOD9241777 Si02
#       6
#     4   4   4   4   4   4
#     4  10  21  38  60  88 120 154 189 239 303 348
#     4  10  21  38  59  88 122 154 187 245 300 347
#     4  10  19  37  62  88 113 157 197 237 294 344
#     4  10  22  36  61  91 116 153 198 241 290 354
#     4   9  18  35  63  80 116 162 192 240 290 341
#     4   9  18  38  60  86 117 159 196 238 295 341
#
# _framework density 27.544519999999999
#
# number of rings (size 3 to 8) (size 9 to 14) (size 15 to 20)
#    0.000    2.333    1.667    0.500    2.333    0.000 
#    0.000    8.333    0.000    0.000    0.000    0.000 
#    0.000    0.000    0.000    0.000    0.000    0.000 
#
# Total GULP energy -133827.818160 kJ/mol
# GULP energy per Si atom -5576.159090 kJ/mol
# Density = 2.748183 g / cm^3
# Si number density = 27.544520 Si / 1000 Ang^3
#
#
#
# Elastic Constant Matrix: (Units=GPa)
#
#
# Indices 1 2 3 4 5 6 
#
# 1 73.1730 19.3403 63.1936 0.0000 -26.6052 0.0000
# 2 19.3403 76.3457 24.3376 0.0000 7.0227 0.0000
# 3 63.1936 24.3376 287.7130 0.0000 -28.1211 0.0000
# 4 0.0000 0.0000 0.0000 35.0948 0.0000 -12.0920
# 5 -26.6052 7.0227 -28.1211 0.0000 54.6482 0.0000
# 6 0.0000 0.0000 0.0000 -12.0920 0.0000 7.8908
#
#
#
# Elastic Compliance Matrix: (Units=1/GPa)
#
#
# Indices 1 2 3 4 5 6 
#
# 1 0.021305 -0.005194 -0.003328 0.000000 0.009327 0.000000
# 2 -0.005194 0.015043 -0.000598 0.000000 -0.004769 0.000000
# 3 -0.003328 -0.000598 0.004324 0.000000 0.000681 0.000000
# 4 0.000000 0.000000 0.000000 0.060369 0.000000 0.092511
# 5 0.009327 -0.004769 0.000681 0.000000 0.023803 0.000000
# 6 0.000000 0.000000 0.000000 0.092511 0.000000 0.268495
#
#
# Mechanical properties :
#
#
# Convention : Reuss Voigt Hill
#
# Bulk Modulus (GPa) = 44.58011 72.33052 58.45532
# Shear Modulus (GPa) = 11.93155 41.55077 26.74116
#
# Velocity S-wave (km/s) = 2.08354 3.88815 3.11920
# Velocity P-wave (km/s) = 4.69128 6.81714 5.85156
#
# Compressibility (1/GPa) = 0.02243153
#
# Stress axis : x y z
#
# Youngs Moduli (GPa) = 46.93804 66.47442 231.27140
#
# Poissons Ratio (x) = 0.34526 0.76977
# Poissons Ratio (y) = 0.24379 0.13827
# Poissons Ratio (z) = 0.15623 0.03974
#
# Static dielectric constant tensor:
#      x y z
#    x 2.579560 0.000000 -0.076970 
#    y 0.000000 2.303990 0.000000 
#    z -0.076970 0.000000 2.172440 
# 
# From -- ./inp_files/28006.got.cif
#   From: 2010.05.17/outbox.cif.g08.bks.cpg/sg14_15_cif.got.tgz:28006.got - 2010.06.03 17:49:19.
