data_PCOD9241495
_publ_section_title
;
Structure prediction by ZEFSAII (Michael W. Deem and Ramdas Pophale) SiO2 
 PCOD9241495
Probable space group: P 21/C
;
_chemical_formula_sum "Si O2"
_cell_formula_units_Z 32
_cell_length_a 12.187773
_cell_length_b 5.160116
_cell_length_c 27.717217
_cell_angle_alpha 90.000000
_cell_angle_beta 52.406976
_cell_angle_gamma 90.000000
_cell_volume 1381.204988
_symmetry_space_group_name_H-M "P 21/C"
_symmetry_group_IT_number 14
_symmetry_cell_setting 'monoclinic'
loop_
_space_group_symop_operation_xyz
x,y,z
-x,1/2+y,1/2-z
-x,-y,-z
x,1/2-y,1/2+z
loop_
_atom_site_type_symbol
_atom_site_label
_atom_site_fract_x
_atom_site_fract_y
_atom_site_fract_z
Si Si1 0.530880 0.083771 0.677337
Si Si2 0.008885 0.788795 0.900089
Si Si3 0.180301 0.037354 0.418020
Si Si4 0.770767 0.545557 0.716504
Si Si5 0.000829 0.549422 0.185354
Si Si6 0.198121 0.808126 0.194361
Si Si7 0.498907 0.081893 0.877762
Si Si8 0.789747 0.035619 0.024587
O O1 0.683383 0.995895 0.652594
O O2 0.393932 0.065761 0.746531
O O3 0.526996 0.375417 0.658165
O O4 0.510580 0.875878 0.639075
O O5 0.045085 0.551092 0.925623
O O6 0.965379 0.681623 0.859934
O O7 0.155827 0.918551 0.848859
O O8 0.898342 0.977268 0.953525
O O9 0.200680 0.817167 0.453868
O O10 0.176019 0.317769 0.443620
O O11 0.784324 0.378422 0.762937
O O12 0.871389 0.791278 0.697631
O O13 0.145344 0.679912 0.159725
O O14 0.932354 0.479235 0.254834
O O15 0.343017 0.953801 0.148663
O O16 0.369409 0.024314 0.947081
#
# Coordination Sequence:
#
# PCOD9241495 Si02
#       8
#     4   4   4   4   4   4   4   4
#     4   9  18  37  58  87 114 153 198 239 302 352
#     4  11  25  37  56  93 120 159 201 254 300 355
#     4  10  22  41  64  86 117 167 203 246 294 363
#     4  10  21  36  56  84 121 148 190 251 295 359
#     4  11  21  35  58  84 122 152 199 250 305 366
#     4  10  19  36  59  86 111 160 199 240 309 362
#     4   9  18  35  63  85 112 152 204 246 281 362
#     4  10  22  41  65  85 119 164 207 243 297 360
#
# _framework density 23.168175000000002
#
# number of rings (size 3 to 8) (size 9 to 14) (size 15 to 20)
#    0.000    2.000    2.500    0.750    3.500    0.000 
#    2.250    0.625    0.000    0.750    0.000    0.000 
#    0.000    0.000    0.000    0.000    0.000    0.000 
#
# Total GULP energy -178642.491557 kJ/mol
# GULP energy per Si atom -5582.577861 kJ/mol
# Density = 2.311544 g / cm^3
# Si number density = 23.168175 Si / 1000 Ang^3
#
#
#
# Elastic Constant Matrix: (Units=GPa)
#
#
# Indices 1 2 3 4 5 6 
#
# 1 60.0439 1.7719 36.5678 0.0000 -15.8383 0.0000
# 2 1.7719 67.4578 20.6895 0.0000 -1.7155 0.0000
# 3 36.5678 20.6895 139.0751 0.0000 -35.1932 0.0000
# 4 0.0000 0.0000 0.0000 30.1513 0.0000 -5.4909
# 5 -15.8383 -1.7155 -35.1932 0.0000 23.7703 0.0000
# 6 0.0000 0.0000 0.0000 -5.4909 0.0000 29.9558
#
#
#
# Elastic Compliance Matrix: (Units=1/GPa)
#
#
# Indices 1 2 3 4 5 6 
#
# 1 0.021078 0.000699 -0.003325 0.000000 0.009172 0.000000
# 2 0.000699 0.015760 -0.003394 0.000000 -0.003422 0.000000
# 3 -0.003325 -0.003394 0.012708 0.000000 0.016355 0.000000
# 4 0.000000 0.000000 0.000000 0.034311 0.000000 0.006289
# 5 0.009172 -0.003422 0.016355 0.000000 0.072147 0.000000
# 6 0.000000 0.000000 0.000000 0.006289 0.000000 0.034535
#
#
# Mechanical properties :
#
#
# Convention : Reuss Voigt Hill
#
# Bulk Modulus (GPa) = 26.66261 42.73722 34.69991
# Shear Modulus (GPa) = 23.24685 30.61200 26.92943
#
# Velocity S-wave (km/s) = 3.17108 3.63891 3.41302
# Velocity P-wave (km/s) = 4.99409 6.01183 5.52644
#
# Compressibility (1/GPa) = 0.03750571
#
# Stress axis : x y z
#
# Youngs Moduli (GPa) = 47.44208 63.45274 78.68904
#
# Poissons Ratio (x) = -0.04438 0.26167
# Poissons Ratio (y) = -0.03319 0.26710
# Poissons Ratio (z) = 0.15776 0.21538
#
# Static dielectric constant tensor:
#      x y z
#    x 1.892280 0.000000 -0.027280 
#    y 0.000000 1.987590 0.000000 
#    z -0.027280 0.000000 1.888440 
# 
# From -- ./inp_files/79827.got.cif
#   From: 2010.05.17/outbox.cif.g08.bks.cpg/sg14_40_cif.got.tgz:79827.got - 2010.06.03 17:49:19.
