data_PCOD9241732
_publ_section_title
;
Structure prediction by ZEFSAII (Michael W. Deem and Ramdas Pophale) SiO2 
 PCOD9241732
Probable space group: P 21/C
;
_chemical_formula_sum "Si O2"
_cell_formula_units_Z 32
_cell_length_a 11.472022
_cell_length_b 15.463142
_cell_length_c 13.603552
_cell_angle_alpha 90.000000
_cell_angle_beta 33.339576
_cell_angle_gamma 90.000000
_cell_volume 1326.284715
_symmetry_space_group_name_H-M "P 21/C"
_symmetry_group_IT_number 14
_symmetry_cell_setting 'monoclinic'
loop_
_space_group_symop_operation_xyz
x,y,z
-x,1/2+y,1/2-z
-x,-y,-z
x,1/2-y,1/2+z
loop_
_atom_site_type_symbol
_atom_site_label
_atom_site_fract_x
_atom_site_fract_y
_atom_site_fract_z
Si Si1 0.862926 0.792316 0.905118
Si Si2 0.513702 0.471323 0.656241
Si Si3 0.521028 0.860029 0.015262
Si Si4 0.129086 0.411325 0.045824
Si Si5 0.144333 0.825817 0.403010
Si Si6 0.063211 0.903099 0.121168
Si Si7 0.769036 0.682900 0.680614
Si Si8 0.720905 0.284794 0.982533
O O1 0.735173 0.812771 0.896120
O O2 0.830592 0.689685 0.951117
O O3 0.105120 0.819334 0.716298
O O4 0.769363 0.840766 0.065200
O O5 0.483708 0.397985 0.590990
O O6 0.505202 0.557761 0.599162
O O7 0.737714 0.458534 0.552196
O O8 0.336141 0.457288 0.862460
O O9 0.321600 0.803451 0.195187
O O10 0.969323 0.407249 0.066595
O O11 0.016380 0.446493 0.221758
O O12 0.252982 0.833385 0.431585
O O13 0.952952 0.757187 0.550151
O O14 0.869480 0.886070 0.184494
O O15 0.177224 0.810341 0.065960
O O16 0.525965 0.710708 0.874115
#
# Coordination Sequence:
#
# PCOD9241732 Si02
#       8
#     4   4   4   4   4   4   4   4
#     4  10  21  39  63  94 121 165 215 258 313 377
#     4  11  24  41  63  92 134 167 206 266 316 377
#     4  11  23  42  65  94 130 171 207 256 329 379
#     4  10  21  38  62  92 120 164 206 263 313 369
#     4  10  19  37  60  91 120 157 203 257 312 373
#     4  10  21  38  57  89 123 160 208 257 315 373
#     4  10  21  36  61  94 120 157 207 264 314 369
#     4  10  20  37  62  89 124 156 204 268 316 364
#
# _framework density 24.127549999999999
#
# number of rings (size 3 to 8) (size 9 to 14) (size 15 to 20)
#    0.000    1.750    2.500    2.250    1.750    4.500 
#    2.250    0.625    0.000    1.500    0.000    0.000 
#    0.000    0.000    0.000    0.000    0.000    0.000 
#
# Total GULP energy -178730.494049 kJ/mol
# GULP energy per Si atom -5585.327939 kJ/mol
# Density = 2.407263 g / cm^3
# Si number density = 24.127550 Si / 1000 Ang^3
#
#
#
# Elastic Constant Matrix: (Units=GPa)
#
#
# Indices 1 2 3 4 5 6 
#
# 1 97.9993 18.9424 28.2818 0.0000 -23.7619 0.0000
# 2 18.9424 38.0861 8.4895 0.0000 -8.6033 0.0000
# 3 28.2818 8.4895 166.7116 0.0000 -24.0156 0.0000
# 4 0.0000 0.0000 0.0000 11.2143 0.0000 6.4711
# 5 -23.7619 -8.6033 -24.0156 0.0000 37.3177 0.0000
# 6 0.0000 0.0000 0.0000 6.4711 0.0000 13.7105
#
#
#
# Elastic Compliance Matrix: (Units=1/GPa)
#
#
# Indices 1 2 3 4 5 6 
#
# 1 0.013002 -0.004765 -0.001024 0.000000 0.006522 0.000000
# 2 -0.004765 0.029490 -0.000166 0.000000 0.003657 0.000000
# 3 -0.001024 -0.000166 0.006702 0.000000 0.003623 0.000000
# 4 0.000000 0.000000 0.000000 0.122549 0.000000 -0.057841
# 5 0.006522 0.003657 0.003623 0.000000 0.034124 0.000000
# 6 0.000000 0.000000 0.000000 -0.057841 0.000000 0.100237
#
#
# Mechanical properties :
#
#
# Convention : Reuss Voigt Hill
#
# Bulk Modulus (GPa) = 26.82163 46.02492 36.42327
# Shear Modulus (GPa) = 15.13119 28.92071 22.02595
#
# Velocity S-wave (km/s) = 2.50698 3.46592 3.02470
# Velocity P-wave (km/s) = 4.41822 5.92739 5.22755
#
# Compressibility (1/GPa) = 0.03728335
#
# Stress axis : x y z
#
# Youngs Moduli (GPa) = 76.91168 33.91027 149.19938
#
# Poissons Ratio (x) = 0.16159 0.15272
# Poissons Ratio (y) = 0.36650 0.02484
# Poissons Ratio (z) = 0.07873 0.00564
#
# Static dielectric constant tensor:
#      x y z
#    x 1.963030 0.000000 -0.007860 
#    y 0.000000 2.029070 0.000000 
#    z -0.007860 0.000000 1.953400 
# 
# From -- ./inp_files/45417.got.cif
#   From: 2010.05.17/outbox.cif.g08.bks.cpg/sg14_23_cif.got.tgz:45417.got - 2010.06.03 17:49:19.
