data_PCOD9241955
_publ_section_title
;
Structure prediction by ZEFSAII (Michael W. Deem and Ramdas Pophale) SiO2 
 PCOD9241955
Probable space group: P 21/C
;
_chemical_formula_sum "Si O2"
_cell_formula_units_Z 22
_cell_length_a 8.319380
_cell_length_b 6.838003
_cell_length_c 21.115260
_cell_angle_alpha 90.000000
_cell_angle_beta 134.769698
_cell_angle_gamma 90.000000
_cell_volume 852.786556
_symmetry_space_group_name_H-M "P 21/C"
_symmetry_group_IT_number 14
_symmetry_cell_setting 'monoclinic'
loop_
_space_group_symop_operation_xyz
x,y,z
-x,1/2+y,1/2-z
-x,-y,-z
x,1/2-y,1/2+z
loop_
_atom_site_type_symbol
_atom_site_label
_atom_site_fract_x
_atom_site_fract_y
_atom_site_fract_z
Si Si1 0.865347 0.205410 0.174810
Si Si2 0.000000 0.500000 0.000000
Si Si3 0.702831 0.408007 0.414792
Si Si4 0.295541 0.269572 0.365852
Si Si5 0.894669 0.733435 0.390500
Si Si6 0.387573 0.296324 0.030814
O O1 0.641943 0.332787 0.127879
O O2 0.052807 0.183947 0.280822
O O3 0.996722 0.253326 0.146918
O O4 0.766217 0.992786 0.135737
O O5 0.794772 0.566642 0.888152
O O6 0.820840 0.571149 0.007822
O O7 0.473514 0.287448 0.357511
O O8 0.762246 0.532695 0.368711
O O9 0.684399 0.580243 0.462627
O O10 0.912361 0.270661 0.496344
O O11 0.411726 0.198674 0.461869
#
# Coordination Sequence:
#
# PCOD9241955 Si02
#       6
#     4   2   4   4   4   4
#     4  11  23  39  67  93 127 170 223 271 332 400
#     4  10  24  34  66  92 126 168 212 276 328 382
#     4   9  18  39  66  83 119 173 211 254 334 391
#     4  11  22  40  64  97 125 170 220 274 328 402
#     4  10  19  38  62  92 121 168 216 262 329 394
#     4  10  20  43  64  91 129 170 217 267 329 397
#
# _framework density 25.797777
#
# number of rings (size 3 to 8) (size 9 to 14) (size 15 to 20)
#    0.000    1.818    3.636    1.091    2.545    2.182 
#    0.000    7.273    4.000    0.000    0.000    0.000 
#    0.000    0.000    0.000    0.000    0.000    0.000 
#
# Total GULP energy -122542.304755 kJ/mol
# GULP energy per Si atom -5570.104762 kJ/mol
# Density = 2.573906 g / cm^3
# Si number density = 25.797777 Si / 1000 Ang^3
#
#
#
# Elastic Constant Matrix: (Units=GPa)
#
#
# Indices 1 2 3 4 5 6 
#
# 1 124.3368 17.7276 25.1974 0.0000 16.1909 0.0000
# 2 17.7276 83.8332 12.0565 0.0000 11.6202 0.0000
# 3 25.1974 12.0565 90.9340 0.0000 35.0918 0.0000
# 4 0.0000 0.0000 0.0000 -15.6534 0.0000 -32.1851
# 5 16.1909 11.6202 35.0918 0.0000 28.5917 0.0000
# 6 0.0000 0.0000 0.0000 -32.1851 0.0000 12.8174
#
#
#
# Elastic Compliance Matrix: (Units=1/GPa)
#
#
# Indices 1 2 3 4 5 6 
#
# 1 0.008855 -0.001277 -0.001044 0.000000 -0.003214 0.000000
# 2 -0.001277 0.012841 0.000734 0.000000 -0.005396 0.000000
# 3 -0.001044 0.000734 0.021042 0.000000 -0.025533 0.000000
# 4 0.000000 0.000000 0.000000 -0.010366 0.000000 -0.026029
# 5 -0.003214 -0.005396 -0.025533 0.000000 0.070326 0.000000
# 6 0.000000 0.000000 0.000000 -0.026029 0.000000 0.012659
#
#
# Mechanical properties :
#
#
# Convention : Reuss Voigt Hill
#
# Bulk Modulus (GPa) = 25.27569 45.45190 35.36380
# Shear Modulus (GPa) = 37.95936 21.42598 29.69267
#
# Velocity S-wave (km/s) = 3.84007 2.88503 3.39629
# Velocity P-wave (km/s) = 5.42959 5.36233 5.39607
#
# Compressibility (1/GPa) = 0.03956370
#
# Stress axis : x y z
#
# Youngs Moduli (GPa) = 112.93290 77.87616 47.52329
#
# Poissons Ratio (x) = 0.09943 0.04962
# Poissons Ratio (y) = 0.14420 -0.03487
# Poissons Ratio (z) = 0.11791 -0.05714
#
# Static dielectric constant tensor:
#      x y z
#    x 2.093030 0.000000 0.047170 
#    y 0.000000 2.722100 0.000000 
#    z 0.047170 0.000000 2.275800 
# 
# From -- ./inp_files/38783.got.cif
#   From: 2010.05.17/outbox.cif.g08.bks.cpg/sg14_20_cif.got.tgz:38783.got - 2010.06.03 17:49:19.
