data_PCOD9241861
_publ_section_title
;
Structure prediction by ZEFSAII (Michael W. Deem and Ramdas Pophale) SiO2 
 PCOD9241861
Probable space group: P 21/C
;
_chemical_formula_sum "Si O2"
_cell_formula_units_Z 28
_cell_length_a 8.466658
_cell_length_b 8.914413
_cell_length_c 13.786543
_cell_angle_alpha 90.000000
_cell_angle_beta 74.292821
_cell_angle_gamma 90.000000
_cell_volume 1001.687137
_symmetry_space_group_name_H-M "P 21/C"
_symmetry_group_IT_number 14
_symmetry_cell_setting 'monoclinic'
loop_
_space_group_symop_operation_xyz
x,y,z
-x,1/2+y,1/2-z
-x,-y,-z
x,1/2-y,1/2+z
loop_
_atom_site_type_symbol
_atom_site_label
_atom_site_fract_x
_atom_site_fract_y
_atom_site_fract_z
Si Si1 0.916795 0.004030 0.373037
Si Si2 0.523245 0.634360 0.708187
Si Si3 0.903826 0.949445 0.898374
Si Si4 0.573325 0.823178 0.870264
Si Si5 0.831047 0.236710 0.684406
Si Si6 0.168975 0.214863 0.436700
Si Si7 0.270222 0.753175 0.527112
O O1 0.760926 0.112841 0.393111
O O2 0.055577 0.129486 0.378050
O O3 0.846583 0.901021 0.472696
O O4 0.920690 0.100995 0.175346
O O5 0.574368 0.668121 0.810721
O O6 0.512845 0.462685 0.673570
O O7 0.338326 0.695615 0.737684
O O8 0.654316 0.739951 0.632394
O O9 0.970693 0.120208 0.697351
O O10 0.836602 0.114241 0.920720
O O11 0.756229 0.869037 0.864455
O O12 0.456848 0.798894 0.982137
O O13 0.791195 0.210236 0.574549
O O14 0.105931 0.369761 0.494341
#
# Coordination Sequence:
#
# PCOD9241861 Si02
#       7
#     4   4   4   4   4   4   4
#     4  10  19  37  67  97 129 167 217 266 310 391
#     4  11  24  43  66  89 135 179 211 258 345 396
#     4  11  22  41  67  99 128 161 231 276 306 380
#     4  11  26  42  66  94 132 169 218 279 326 390
#     4  10  21  40  65  94 134 175 210 263 327 395
#     4  10  19  38  69  94 128 169 215 270 313 382
#     4  11  19  37  68  97 122 171 215 269 318 387
#
# _framework density 27.952840999999999
#
# number of rings (size 3 to 8) (size 9 to 14) (size 15 to 20)
#    0.000    1.429    5.714    1.714    2.000    0.000 
#    0.000   11.429    0.000    0.000    0.000    0.000 
#    0.000    0.000    0.000    0.000    0.000    0.000 
#
# Total GULP energy -156616.300252 kJ/mol
# GULP energy per Si atom -5593.439295 kJ/mol
# Density = 2.788922 g / cm^3
# Si number density = 27.952841 Si / 1000 Ang^3
#
#
#
# Elastic Constant Matrix: (Units=GPa)
#
#
# Indices 1 2 3 4 5 6 
#
# 1 49.7513 36.3730 27.4836 0.0000 -10.0135 0.0000
# 2 36.3730 130.8391 49.4712 0.0000 -23.4499 0.0000
# 3 27.4836 49.4712 130.1038 0.0000 -49.6718 0.0000
# 4 0.0000 0.0000 0.0000 35.5759 0.0000 0.5739
# 5 -10.0135 -23.4499 -49.6718 0.0000 63.1338 0.0000
# 6 0.0000 0.0000 0.0000 0.5739 0.0000 48.1796
#
#
#
# Elastic Compliance Matrix: (Units=1/GPa)
#
#
# Indices 1 2 3 4 5 6 
#
# 1 0.026390 -0.006144 -0.003590 0.000000 -0.000921 0.000000
# 2 -0.006144 0.010394 -0.002219 0.000000 0.001140 0.000000
# 3 -0.003590 -0.002219 0.012516 0.000000 0.008453 0.000000
# 4 0.000000 0.000000 0.000000 0.028114 0.000000 -0.000335
# 5 -0.000921 0.001140 0.008453 0.000000 0.022768 0.000000
# 6 0.000000 0.000000 0.000000 -0.000335 0.000000 0.020760
#
#
# Mechanical properties :
#
#
# Convention : Reuss Voigt Hill
#
# Bulk Modulus (GPa) = 39.38025 59.70554 49.54290
# Shear Modulus (GPa) = 32.61318 42.53562 37.57440
#
# Velocity S-wave (km/s) = 3.41944 3.90512 3.67032
# Velocity P-wave (km/s) = 5.45057 6.46057 5.97695
#
# Compressibility (1/GPa) = 0.02539344
#
# Stress axis : x y z
#
# Youngs Moduli (GPa) = 37.89372 96.20528 79.89945
#
# Poissons Ratio (x) = 0.59107 0.28685
# Poissons Ratio (y) = 0.23281 0.17731
# Poissons Ratio (z) = 0.13604 0.21350
#
# Static dielectric constant tensor:
#      x y z
#    x 2.302820 0.000000 0.156830 
#    y 0.000000 2.170870 0.000000 
#    z 0.156830 0.000000 2.299390 
# 
# From -- ./inp_files/44340.got.cif
#   From: 2010.05.17/outbox.cif.g08.bks.cpg/sg14_23_cif.got.tgz:44340.got - 2010.06.03 17:49:19.
