data_PCOD9241469
_publ_section_title
;
Structure prediction by ZEFSAII (Michael W. Deem and Ramdas Pophale) SiO2 
 PCOD9241469
Probable space group: P 21/C
;
_chemical_formula_sum "Si O2"
_cell_formula_units_Z 28
_cell_length_a 8.438915
_cell_length_b 14.599630
_cell_length_c 14.228981
_cell_angle_alpha 90.000000
_cell_angle_beta 124.884100
_cell_angle_gamma 90.000000
_cell_volume 1438.071883
_symmetry_space_group_name_H-M "P 21/C"
_symmetry_group_IT_number 14
_symmetry_cell_setting 'monoclinic'
loop_
_space_group_symop_operation_xyz
x,y,z
-x,1/2+y,1/2-z
-x,-y,-z
x,1/2-y,1/2+z
loop_
_atom_site_type_symbol
_atom_site_label
_atom_site_fract_x
_atom_site_fract_y
_atom_site_fract_z
Si Si1 0.413685 0.013390 0.105729
Si Si2 0.037563 0.467861 0.813674
Si Si3 0.279059 0.118016 0.549341
Si Si4 0.583546 0.954538 0.682723
Si Si5 0.536340 0.725084 0.058432
Si Si6 0.241144 0.132130 0.746902
Si Si7 0.713893 0.383779 0.583510
O O1 0.358115 0.051615 0.188068
O O2 0.521442 0.086541 0.076449
O O3 0.576322 0.936382 0.180458
O O4 0.259878 0.959057 0.990387
O O5 0.230690 0.474499 0.818058
O O6 0.937289 0.566803 0.787616
O O7 0.891716 0.397440 0.713224
O O8 0.096661 0.426451 0.934228
O O9 0.380303 0.187601 0.511463
O O10 0.229165 0.159575 0.633682
O O11 0.429536 0.035179 0.616957
O O12 0.496952 0.860665 0.612867
O O13 0.703090 0.785119 0.165984
O O14 0.345036 0.785919 0.977418
#
# Coordination Sequence:
#
# PCOD9241469 Si02
#       7
#     4   4   4   4   4   4   4
#     4   8  17  35  59  79 108 156 185 226 294 338
#     4  10  19  36  58  84 115 147 191 235 292 339
#     4  10  21  40  59  80 117 161 185 230 291 349
#     4  10  21  38  58  81 117 157 189 229 291 350
#     4  10  20  35  57  85 114 146 195 234 283 332
#     4   9  19  36  61  84 107 149 199 232 276 343
#     4   9  18  34  58  83 112 145 192 242 275 337
#
# _framework density 19.470516
#
# number of rings (size 3 to 8) (size 9 to 14) (size 15 to 20)
#    0.000    2.571    0.000    3.000    2.000    0.571 
#   10.286    0.000    0.000    0.000    0.000    0.000 
#    0.000    0.000    0.000    0.000    0.000    0.000 
#
# Total GULP energy -156161.711761 kJ/mol
# GULP energy per Si atom -5577.203991 kJ/mol
# Density = 1.942620 g / cm^3
# Si number density = 19.470516 Si / 1000 Ang^3
#
#
#
# Elastic Constant Matrix: (Units=GPa)
#
#
# Indices 1 2 3 4 5 6 
#
# 1 24.4390 21.0559 34.9761 0.0000 -14.5031 0.0000
# 2 21.0559 82.4523 38.5201 0.0000 -8.3760 0.0000
# 3 34.9761 38.5201 123.8905 0.0000 -16.8318 0.0000
# 4 0.0000 0.0000 0.0000 -20.8783 0.0000 -9.8671
# 5 -14.5031 -8.3760 -16.8318 0.0000 38.0142 0.0000
# 6 0.0000 0.0000 0.0000 -9.8671 0.0000 9.6637
#
#
#
# Elastic Compliance Matrix: (Units=1/GPa)
#
#
# Indices 1 2 3 4 5 6 
#
# 1 0.093764 -0.012453 -0.019271 0.000000 0.024496 0.000000
# 2 -0.012453 0.015899 -0.001699 0.000000 -0.002000 0.000000
# 3 -0.019271 -0.001699 0.013822 0.000000 -0.001606 0.000000
# 4 0.000000 0.000000 0.000000 -0.032307 0.000000 -0.032987
# 5 0.024496 -0.002000 -0.001606 0.000000 0.034499 0.000000
# 6 0.000000 0.000000 0.000000 -0.032987 0.000000 0.069798
#
#
# Mechanical properties :
#
#
# Convention : Reuss Voigt Hill
#
# Bulk Modulus (GPa) = 17.65590 46.65403 32.15496
# Shear Modulus (GPa) = 17.78074 14.44192 16.11133
#
# Velocity S-wave (km/s) = 3.02522 2.72643 2.87970
# Velocity P-wave (km/s) = 4.61414 5.82449 5.25428
#
# Compressibility (1/GPa) = 0.05663829
#
# Stress axis : x y z
#
# Youngs Moduli (GPa) = 10.66506 62.89651 72.34705
#
# Poissons Ratio (x) = 0.78326 1.39420
# Poissons Ratio (y) = 0.13281 0.12295
# Poissons Ratio (z) = 0.20553 0.10689
#
# Static dielectric constant tensor:
#      x y z
#    x 1.667460 0.000000 -0.010900 
#    y 0.000000 1.715980 0.000000 
#    z -0.010900 0.000000 1.735890 
# 
# From -- ./inp_files/41268.got.cif
#   From: 2010.05.17/outbox.cif.g08.bks.cpg/sg14_21_cif.got.tgz:41268.got - 2010.06.03 17:49:19.
