data_PCOD9241917
_publ_section_title
;
Structure prediction by ZEFSAII (Michael W. Deem and Ramdas Pophale) SiO2 
 PCOD9241917
Probable space group: P 21/C
;
_chemical_formula_sum "Si O2"
_cell_formula_units_Z 28
_cell_length_a 11.125559
_cell_length_b 6.777388
_cell_length_c 16.421428
_cell_angle_alpha 90.000000
_cell_angle_beta 111.291220
_cell_angle_gamma 90.000000
_cell_volume 1153.700441
_symmetry_space_group_name_H-M "P 21/C"
_symmetry_group_IT_number 14
_symmetry_cell_setting 'monoclinic'
loop_
_space_group_symop_operation_xyz
x,y,z
-x,1/2+y,1/2-z
-x,-y,-z
x,1/2-y,1/2+z
loop_
_atom_site_type_symbol
_atom_site_label
_atom_site_fract_x
_atom_site_fract_y
_atom_site_fract_z
Si Si1 0.589466 0.623809 0.748303
Si Si2 0.892305 0.917684 0.036197
Si Si3 0.352360 0.028965 0.434123
Si Si4 0.909494 0.147440 0.334142
Si Si5 0.757125 0.960552 0.151788
Si Si6 0.678042 0.066249 0.752513
Si Si7 0.764846 0.933930 0.432746
O O1 0.637864 0.494010 0.684578
O O2 0.438535 0.644957 0.720958
O O3 0.639831 0.541704 0.846083
O O4 0.664392 0.830746 0.759284
O O5 0.813446 0.050506 0.081521
O O6 0.957245 0.757445 0.115090
O O7 0.793978 0.794464 0.956987
O O8 0.000000 0.000000 0.000000
O O9 0.304083 0.251346 0.398056
O O10 0.263831 0.969459 0.488206
O O11 0.500000 0.000000 0.500000
O O12 0.335157 0.907397 0.347765
O O13 0.809335 0.329353 0.308213
O O14 0.874232 0.010107 0.246961
O O15 0.878823 0.020917 0.406749
#
# Coordination Sequence:
#
# PCOD9241917 Si02
#       7
#     4   4   4   4   4   4   4
#     4  10  19  38  60  90 125 160 210 254 317 389
#     4  11  24  42  65  91 125 165 219 270 316 368
#     4  10  20  39  62  92 126 162 201 258 321 375
#     4  11  24  41  61  93 123 169 212 254 318 387
#     4   9  23  39  63  88 124 165 212 262 319 382
#     4  11  22  36  63  90 126 166 202 255 322 386
#     4  10  21  40  64  92 125 164 206 264 318 370
#
# _framework density 24.269732000000001
#
# number of rings (size 3 to 8) (size 9 to 14) (size 15 to 20)
#    0.000    1.714    1.429    3.000    2.000    6.857 
#    0.000    0.714    0.000    0.000    0.000    0.000 
#    0.000    0.000    0.000    0.000    0.000    0.000 
#
# Total GULP energy -155921.483799 kJ/mol
# GULP energy per Si atom -5568.624421 kJ/mol
# Density = 2.421449 g / cm^3
# Si number density = 24.269732 Si / 1000 Ang^3
#
#
#
# Elastic Constant Matrix: (Units=GPa)
#
#
# Indices 1 2 3 4 5 6 
#
# 1 104.8264 10.1106 52.3008 0.0000 -28.9499 0.0000
# 2 10.1106 83.6213 46.6862 0.0000 -13.0772 0.0000
# 3 52.3008 46.6862 101.0121 0.0000 -28.5276 0.0000
# 4 0.0000 0.0000 0.0000 31.8661 0.0000 2.1749
# 5 -28.9499 -13.0772 -28.5276 0.0000 64.0532 0.0000
# 6 0.0000 0.0000 0.0000 2.1749 0.0000 27.1628
#
#
#
# Elastic Compliance Matrix: (Units=1/GPa)
#
#
# Indices 1 2 3 4 5 6 
#
# 1 0.014088 0.003187 -0.007762 0.000000 0.003561 0.000000
# 2 0.003187 0.016839 -0.009214 0.000000 0.000775 0.000000
# 3 -0.007762 -0.009214 0.019051 0.000000 0.003096 0.000000
# 4 0.000000 0.000000 0.000000 0.031554 0.000000 -0.002526
# 5 0.003561 0.000775 0.003096 0.000000 0.018759 0.000000
# 6 0.000000 0.000000 0.000000 -0.002526 0.000000 0.037017
#
#
# Mechanical properties :
#
#
# Convention : Reuss Voigt Hill
#
# Bulk Modulus (GPa) = 44.64089 56.40612 50.52351
# Shear Modulus (GPa) = 29.01042 36.64057 32.82549
#
# Velocity S-wave (km/s) = 3.46111 3.88973 3.68166
# Velocity P-wave (km/s) = 5.86566 6.59281 6.23984
#
# Compressibility (1/GPa) = 0.02240099
#
# Stress axis : x y z
#
# Youngs Moduli (GPa) = 70.98150 59.38727 52.48979
#
# Poissons Ratio (x) = -0.18926 0.40740
# Poissons Ratio (y) = -0.22621 0.48363
# Poissons Ratio (z) = 0.55093 0.54719
#
# Static dielectric constant tensor:
#      x y z
#    x 1.967670 0.000000 -0.030050 
#    y 0.000000 2.097070 0.000000 
#    z -0.030050 0.000000 1.924810 
# 
# From -- ./inp_files/43817.got.cif
#   From: 2010.05.17/outbox.cif.g08.bks.cpg/sg14_22_cif.got.tgz:43817.got - 2010.06.03 17:49:19.
