data_PCOD9241557
_publ_section_title
;
Structure prediction by ZEFSAII (Michael W. Deem and Ramdas Pophale) SiO2 
 PCOD9241557
Probable space group: P 21/C
;
_chemical_formula_sum "Si O2"
_cell_formula_units_Z 32
_cell_length_a 12.905243
_cell_length_b 15.638024
_cell_length_c 18.064138
_cell_angle_alpha 90.000000
_cell_angle_beta 158.317198
_cell_angle_gamma 90.000000
_cell_volume 1346.920486
_symmetry_space_group_name_H-M "P 21/C"
_symmetry_group_IT_number 14
_symmetry_cell_setting 'monoclinic'
loop_
_space_group_symop_operation_xyz
x,y,z
-x,1/2+y,1/2-z
-x,-y,-z
x,1/2-y,1/2+z
loop_
_atom_site_type_symbol
_atom_site_label
_atom_site_fract_x
_atom_site_fract_y
_atom_site_fract_z
Si Si1 0.218639 0.946676 0.826759
Si Si2 0.177974 0.911016 0.419489
Si Si3 0.623777 0.134311 0.915740
Si Si4 0.630993 0.124587 0.605822
Si Si5 0.804728 0.416488 0.379244
Si Si6 0.061695 0.278325 0.895935
Si Si7 0.314968 0.287566 0.705075
Si Si8 0.146932 0.243697 0.286188
O O1 0.256178 0.923791 0.938573
O O2 0.149009 0.858991 0.736616
O O3 0.948122 0.004421 0.629557
O O4 0.500000 0.000000 0.000000
O O5 0.263256 0.933866 0.391217
O O6 0.446141 0.860853 0.630460
O O7 0.914476 0.844291 0.249620
O O8 0.630543 0.086095 0.840981
O O9 0.856388 0.207780 0.063634
O O10 0.371357 0.194348 0.782015
O O11 0.377399 0.181445 0.403929
O O12 0.868389 0.196030 0.768261
O O13 0.623687 0.086067 0.683124
O O14 0.020530 0.335568 0.522869
O O15 0.000000 0.500000 0.500000
O O16 0.189975 0.283625 0.900102
O O17 0.296376 0.255993 0.111107
#
# Coordination Sequence:
#
# PCOD9241557 Si02
#       8
#     4   4   4   4   4   4   4   4
#     4  11  23  41  64  92 126 163 211 267 318 379
#     4  10  21  36  61  91 117 159 208 257 312 373
#     4  10  22  39  61  88 123 168 211 256 321 394
#     4  10  19  36  61  87 121 164 207 252 313 382
#     4  11  23  38  60  93 128 162 206 271 323 367
#     4   9  20  37  57  87 122 165 208 248 311 382
#     4  10  22  40  60  85 124 165 209 257 316 387
#     4   9  18  35  58  83 117 160 206 250 302 376
#
# _framework density 23.757898000000001
#
# number of rings (size 3 to 8) (size 9 to 14) (size 15 to 20)
#    0.000    2.000    0.000    3.750    0.000    5.000 
#    0.000    7.500    0.000    0.000    0.000    0.000 
#    0.000    0.000    0.000    0.000    0.000    0.000 
#
# Total GULP energy -178141.085648 kJ/mol
# GULP energy per Si atom -5566.908926 kJ/mol
# Density = 2.370382 g / cm^3
# Si number density = 23.757898 Si / 1000 Ang^3
#
#
#
# Elastic Constant Matrix: (Units=GPa)
#
#
# Indices 1 2 3 4 5 6 
#
# 1 69.8868 46.0863 12.1772 0.0000 -16.1904 0.0000
# 2 46.0863 60.1952 21.9662 0.0000 -12.9244 0.0000
# 3 12.1772 21.9662 73.4238 0.0000 -11.6250 0.0000
# 4 0.0000 0.0000 0.0000 47.3765 0.0000 10.1505
# 5 -16.1904 -12.9244 -11.6250 0.0000 27.6001 0.0000
# 6 0.0000 0.0000 0.0000 10.1505 0.0000 14.0182
#
#
#
# Elastic Compliance Matrix: (Units=1/GPa)
#
#
# Indices 1 2 3 4 5 6 
#
# 1 0.030900 -0.022925 0.003111 0.000000 0.008702 0.000000
# 2 -0.022925 0.036944 -0.007115 0.000000 0.000855 0.000000
# 3 0.003111 -0.007115 0.016065 0.000000 0.005260 0.000000
# 4 0.000000 0.000000 0.000000 0.024983 0.000000 -0.018090
# 5 0.008702 0.000855 0.005260 0.000000 0.043952 0.000000
# 6 0.000000 0.000000 0.000000 -0.018090 0.000000 0.084435
#
#
# Mechanical properties :
#
#
# Convention : Reuss Voigt Hill
#
# Bulk Modulus (GPa) = 33.27530 40.44058 36.85794
# Shear Modulus (GPa) = 16.60284 26.01739 21.31012
#
# Velocity S-wave (km/s) = 2.64642 3.31283 2.99819
# Velocity P-wave (km/s) = 4.83471 5.62956 5.24721
#
# Compressibility (1/GPa) = 0.03005232
#
# Stress axis : x y z
#
# Youngs Moduli (GPa) = 32.36244 27.06792 62.24729
#
# Poissons Ratio (x) = 0.62052 -0.19367
# Poissons Ratio (y) = 0.74190 0.44290
# Poissons Ratio (z) = -0.10069 0.19259
#
# Static dielectric constant tensor:
#      x y z
#    x 2.016070 0.000000 0.005360 
#    y 0.000000 1.920670 0.000000 
#    z 0.005360 0.000000 2.035670 
# 
# From -- ./inp_files/68657.got.cif
#   From: 2010.05.17/outbox.cif.g08.bks.cpg/sg14_35_cif.got.tgz:68657.got - 2010.06.03 17:49:19.
