data_PCOD9241342
_publ_section_title
;
Structure prediction by ZEFSAII (Michael W. Deem and Ramdas Pophale) SiO2 
 PCOD9241342
Probable space group: P 21/C
;
_chemical_formula_sum "Si O2"
_cell_formula_units_Z 20
_cell_length_a 7.234321
_cell_length_b 6.206634
_cell_length_c 19.853322
_cell_angle_alpha 90.000000
_cell_angle_beta 126.354247
_cell_angle_gamma 90.000000
_cell_volume 717.928426
_symmetry_space_group_name_H-M "P 21/C"
_symmetry_group_IT_number 14
_symmetry_cell_setting 'monoclinic'
loop_
_space_group_symop_operation_xyz
x,y,z
-x,1/2+y,1/2-z
-x,-y,-z
x,1/2-y,1/2+z
loop_
_atom_site_type_symbol
_atom_site_label
_atom_site_fract_x
_atom_site_fract_y
_atom_site_fract_z
Si Si1 0.611936 0.377455 0.282433
Si Si2 0.293563 0.206540 0.555500
Si Si3 0.223976 0.477855 0.813020
Si Si4 0.546495 0.158586 0.920080
Si Si5 0.070448 0.608532 0.915954
O O1 0.468835 0.619187 0.252464
O O2 0.803938 0.444385 0.269267
O O3 0.666400 0.341977 0.371991
O O4 0.510895 0.057075 0.618510
O O5 0.418551 0.412800 0.555010
O O6 0.142959 0.210871 0.591281
O O7 0.119783 0.120785 0.461683
O O8 0.287129 0.233606 0.847906
O O9 0.064942 0.584520 0.834906
O O10 0.699566 0.275676 0.008814
#
# Coordination Sequence:
#
# PCOD9241342 Si02
#       5
#     4   4   4   4   4
#     4  10  20  38  63  88 122 169 207 254 319 377
#     4  10  19  37  58  83 121 157 193 259 315 371
#     4  10  21  37  59  88 118 159 211 256 308 378
#     4  10  19  35  61  84 119 161 204 250 319 371
#     4  10  22  35  59  90 120 153 209 257 311 373
#
# _framework density 27.85793
#
# number of rings (size 3 to 8) (size 9 to 14) (size 15 to 20)
#    0.000    2.000    2.000    3.000    0.000    3.200 
#    0.000    0.000   17.600    0.000    0.000    0.000 
#    0.000    0.000    0.000    0.000    0.000    0.000 
#
# Total GULP energy -111393.176879 kJ/mol
# GULP energy per Si atom -5569.658844 kJ/mol
# Density = 2.779452 g / cm^3
# Si number density = 27.857930 Si / 1000 Ang^3
#
#
#
# Elastic Constant Matrix: (Units=GPa)
#
#
# Indices 1 2 3 4 5 6 
#
# 1 153.0224 44.4990 56.1154 0.0000 -42.5144 0.0000
# 2 44.4990 133.1532 36.6066 0.0000 -1.0358 0.0000
# 3 56.1154 36.6066 58.0423 0.0000 -23.4119 0.0000
# 4 0.0000 0.0000 0.0000 26.3144 0.0000 8.8099
# 5 -42.5144 -1.0358 -23.4119 0.0000 55.4704 0.0000
# 6 0.0000 0.0000 0.0000 8.8099 0.0000 22.1607
#
#
#
# Elastic Compliance Matrix: (Units=1/GPa)
#
#
# Indices 1 2 3 4 5 6 
#
# 1 0.011357 -0.001612 -0.007791 0.000000 0.005386 0.000000
# 2 -0.001612 0.009665 -0.005981 0.000000 -0.003579 0.000000
# 3 -0.007791 -0.005981 0.031431 0.000000 0.007183 0.000000
# 4 0.000000 0.000000 0.000000 0.043837 0.000000 -0.017427
# 5 0.005386 -0.003579 0.007183 0.000000 0.025120 0.000000
# 6 0.000000 0.000000 0.000000 -0.017427 0.000000 0.052053
#
#
# Mechanical properties :
#
#
# Convention : Reuss Voigt Hill
#
# Bulk Modulus (GPa) = 46.11479 68.74000 57.42740
# Shear Modulus (GPa) = 23.64511 34.58889 29.11700
#
# Velocity S-wave (km/s) = 2.91653 3.52748 3.23646
# Velocity P-wave (km/s) = 5.28498 6.42803 5.88433
#
# Compressibility (1/GPa) = 0.02168502
#
# Stress axis : x y z
#
# Youngs Moduli (GPa) = 88.04961 103.46282 31.81581
#
# Poissons Ratio (x) = 0.16675 0.24788
# Poissons Ratio (y) = 0.14191 0.19030
# Poissons Ratio (z) = 0.68601 0.61885
#
# Static dielectric constant tensor:
#      x y z
#    x 2.119950 0.000000 -0.039730 
#    y 0.000000 2.868140 0.000000 
#    z -0.039730 0.000000 2.182600 
# 
# From -- ./inp_files/64202.got.cif
#   From: 2010.05.17/outbox.cif.g08.bks.cpg/sg14_33_cif.got.tgz:64202.got - 2010.06.03 17:49:19.
