data_PCOD9241456
_publ_section_title
;
Structure prediction by ZEFSAII (Michael W. Deem and Ramdas Pophale) SiO2 
 PCOD9241456
Probable space group: P 21/C
;
_chemical_formula_sum "Si O2"
_cell_formula_units_Z 32
_cell_length_a 10.416157
_cell_length_b 9.381999
_cell_length_c 23.570517
_cell_angle_alpha 90.000000
_cell_angle_beta 40.066674
_cell_angle_gamma 90.000000
_cell_volume 1482.658332
_symmetry_space_group_name_H-M "P 21/C"
_symmetry_group_IT_number 14
_symmetry_cell_setting 'monoclinic'
loop_
_space_group_symop_operation_xyz
x,y,z
-x,1/2+y,1/2-z
-x,-y,-z
x,1/2-y,1/2+z
loop_
_atom_site_type_symbol
_atom_site_label
_atom_site_fract_x
_atom_site_fract_y
_atom_site_fract_z
Si Si1 0.623917 0.995839 0.600016
Si Si2 0.537542 0.147760 0.018147
Si Si3 0.313342 0.740996 0.209211
Si Si4 0.583013 0.998976 0.115739
Si Si5 0.706686 0.075685 0.447026
Si Si6 0.869207 0.707688 0.871729
Si Si7 0.889664 0.759598 0.000369
Si Si8 0.643787 0.243360 0.169853
O O1 0.435719 0.896204 0.647273
O O2 0.791877 0.880837 0.561388
O O3 0.706806 0.070431 0.515426
O O4 0.568558 0.112892 0.665265
O O5 0.686760 0.259518 0.937385
O O6 0.323708 0.227548 0.093714
O O7 0.619924 0.105090 0.051350
O O8 0.500000 0.000000 0.000000
O O9 0.410785 0.888449 0.155798
O O10 0.354021 0.748677 0.263352
O O11 0.078516 0.733183 0.279514
O O12 0.772221 0.897187 0.062163
O O13 0.535271 0.101657 0.184274
O O14 0.500000 0.000000 0.500000
O O15 0.869301 0.965058 0.369230
O O16 0.847691 0.745801 0.946362
O O17 0.124781 0.768194 0.927527
#
# Coordination Sequence:
#
# PCOD9241456 Si02
#       8
#     4   4   4   4   4   4   4   4
#     4  10  19  36  57  86 111 151 190 227 288 341
#     4  11  20  37  62  87 111 140 193 247 281 330
#     4  10  23  38  55  79 122 158 180 227 294 342
#     4  11  21  37  57  85 114 151 188 235 291 333
#     4   9  19  36  62  82 108 147 192 236 279 333
#     4   9  19  39  57  82 115 149 188 232 284 343
#     4   9  19  34  59  83 111 147 186 240 287 325
#     4  11  20  36  57  82 114 146 198 233 271 343
#
# _framework density 21.582854999999999
#
# number of rings (size 3 to 8) (size 9 to 14) (size 15 to 20)
#    0.000    2.000    2.500    1.500    1.750    0.000 
#    4.500    1.250    0.000    0.000    0.000    0.000 
#    0.000    0.000    0.000    0.000    0.000    0.000 
#
# Total GULP energy -178660.207971 kJ/mol
# GULP energy per Si atom -5583.131499 kJ/mol
# Density = 2.153373 g / cm^3
# Si number density = 21.582855 Si / 1000 Ang^3
#
#
#
# Elastic Constant Matrix: (Units=GPa)
#
#
# Indices 1 2 3 4 5 6 
#
# 1 36.1637 16.4940 -5.8334 0.0000 3.0089 0.0000
# 2 16.4940 146.4390 19.2328 0.0000 -1.6667 0.0000
# 3 -5.8334 19.2328 41.9928 0.0000 -12.7435 0.0000
# 4 0.0000 0.0000 0.0000 24.0723 0.0000 6.2199
# 5 3.0089 -1.6667 -12.7435 0.0000 30.0921 0.0000
# 6 0.0000 0.0000 0.0000 6.2199 0.0000 23.1832
#
#
#
# Elastic Compliance Matrix: (Units=1/GPa)
#
#
# Indices 1 2 3 4 5 6 
#
# 1 0.030611 -0.004239 0.005960 0.000000 -0.000772 0.000000
# 2 -0.004239 0.007888 -0.004522 0.000000 -0.001054 0.000000
# 3 0.005960 -0.004522 0.030357 0.000000 0.012009 0.000000
# 4 0.000000 0.000000 0.000000 0.044636 0.000000 -0.011975
# 5 -0.000772 -0.001054 0.012009 0.000000 0.038336 0.000000
# 6 0.000000 0.000000 0.000000 -0.011975 0.000000 0.046348
#
#
# Mechanical properties :
#
#
# Convention : Reuss Voigt Hill
#
# Bulk Modulus (GPa) = 15.80932 31.59802 23.70367
# Shear Modulus (GPa) = 22.23586 28.44968 25.34277
#
# Velocity S-wave (km/s) = 3.21324 3.63459 3.43039
# Velocity P-wave (km/s) = 4.59428 5.68206 5.16687
#
# Compressibility (1/GPa) = 0.06325382
#
# Stress axis : x y z
#
# Youngs Moduli (GPa) = 32.66787 126.77278 32.94151
#
# Poissons Ratio (x) = 0.53744 -0.19632
# Poissons Ratio (y) = 0.13849 0.14895
# Poissons Ratio (z) = -0.19469 0.57321
#
# Static dielectric constant tensor:
#      x y z
#    x 1.798870 0.000000 0.037700 
#    y 0.000000 1.813140 0.000000 
#    z 0.037700 0.000000 1.787850 
# 
# From -- ./inp_files/73101.got.cif
#   From: 2010.05.17/outbox.cif.g08.bks.cpg/sg14_37_cif.got.tgz:73101.got - 2010.06.03 17:49:19.
