data_PCOD9241793
_publ_section_title
;
Structure prediction by ZEFSAII (Michael W. Deem and Ramdas Pophale) SiO2 
 PCOD9241793
Probable space group: P 21/C
;
_chemical_formula_sum "Si O2"
_cell_formula_units_Z 28
_cell_length_a 22.127279
_cell_length_b 7.827967
_cell_length_c 16.098754
_cell_angle_alpha 90.000000
_cell_angle_beta 24.186322
_cell_angle_gamma 90.000000
_cell_volume 1142.459512
_symmetry_space_group_name_H-M "P 21/C"
_symmetry_group_IT_number 14
_symmetry_cell_setting 'monoclinic'
loop_
_space_group_symop_operation_xyz
x,y,z
-x,1/2+y,1/2-z
-x,-y,-z
x,1/2-y,1/2+z
loop_
_atom_site_type_symbol
_atom_site_label
_atom_site_fract_x
_atom_site_fract_y
_atom_site_fract_z
Si Si1 0.438168 0.114975 0.751347
Si Si2 0.339273 0.088243 0.188289
Si Si3 0.278179 0.718577 0.662351
Si Si4 0.250282 0.592822 0.953858
Si Si5 0.949156 0.412975 0.650134
Si Si6 0.572590 0.758981 0.573231
Si Si7 0.780521 0.439644 0.601480
O O1 0.541773 0.951653 0.635210
O O2 0.335228 0.050082 0.806166
O O3 0.557055 0.262047 0.581071
O O4 0.352898 0.164648 0.942250
O O5 0.255907 0.964631 0.229301
O O6 0.260254 0.058945 0.374205
O O7 0.500000 0.000000 0.000000
O O8 0.361146 0.251687 0.102662
O O9 0.145430 0.753436 0.765449
O O10 0.277577 0.850392 0.741028
O O11 0.414365 0.663819 0.765067
O O12 0.176833 0.768574 0.007189
O O13 0.172448 0.519064 0.132479
O O14 0.000000 0.500000 0.500000
O O15 0.091760 0.431662 0.529352
#
# Coordination Sequence:
#
# PCOD9241793 Si02
#       7
#     4   4   4   4   4   4   4
#     4  11  20  36  59  91 124 155 208 264 307 367
#     4   9  19  35  59  93 120 162 200 249 318 375
#     4  10  19  37  63  85 122 159 205 256 307 371
#     4   9  18  38  57  81 122 160 200 256 315 369
#     4  10  20  38  60  85 115 166 212 247 309 374
#     4  10  20  33  58  90 124 159 201 254 321 373
#     4   9  21  35  56  87 118 158 206 252 311 370
#
# _framework density 24.508528999999999
#
# number of rings (size 3 to 8) (size 9 to 14) (size 15 to 20)
#    0.000    2.286    1.429    2.143    2.000    0.000 
#    2.571    2.857    0.000    0.857    0.000    0.000 
#    0.000    0.000    0.000    0.000    0.000    0.000 
#
# Total GULP energy -156139.721441 kJ/mol
# GULP energy per Si atom -5576.418623 kJ/mol
# Density = 2.445275 g / cm^3
# Si number density = 24.508529 Si / 1000 Ang^3
#
#
#
# Elastic Constant Matrix: (Units=GPa)
#
#
# Indices 1 2 3 4 5 6 
#
# 1 140.1846 28.3857 39.7688 0.0000 0.2671 0.0000
# 2 28.3857 64.9736 11.4275 0.0000 8.5959 0.0000
# 3 39.7688 11.4275 96.4826 0.0000 25.9839 0.0000
# 4 0.0000 0.0000 0.0000 11.0007 0.0000 3.5595
# 5 0.2671 8.5959 25.9839 0.0000 57.8438 0.0000
# 6 0.0000 0.0000 0.0000 3.5595 0.0000 28.7216
#
#
#
# Elastic Compliance Matrix: (Units=1/GPa)
#
#
# Indices 1 2 3 4 5 6 
#
# 1 0.008938 -0.003519 -0.003865 0.000000 0.002218 0.000000
# 2 -0.003519 0.017253 0.000106 0.000000 -0.002595 0.000000
# 3 -0.003865 0.000106 0.013588 0.000000 -0.006102 0.000000
# 4 0.000000 0.000000 0.000000 0.094700 0.000000 -0.011736
# 5 0.002218 -0.002595 -0.006102 0.000000 0.020404 0.000000
# 6 0.000000 0.000000 0.000000 -0.011736 0.000000 0.036271
#
#
# Mechanical properties :
#
#
# Convention : Reuss Voigt Hill
#
# Bulk Modulus (GPa) = 39.64432 51.20050 45.42241
# Shear Modulus (GPa) = 23.35160 34.31717 28.83438
#
# Velocity S-wave (km/s) = 3.09009 3.74600 3.43374
# Velocity P-wave (km/s) = 5.37981 6.29653 5.85613
#
# Compressibility (1/GPa) = 0.02522429
#
# Stress axis : x y z
#
# Youngs Moduli (GPa) = 111.88135 57.96166 73.59285
#
# Poissons Ratio (x) = 0.20394 0.28441
# Poissons Ratio (y) = 0.39366 -0.00778
# Poissons Ratio (z) = 0.43238 -0.00613
#
# Static dielectric constant tensor:
#      x y z
#    x 1.995140 0.000000 0.012170 
#    y 0.000000 2.019490 0.000000 
#    z 0.012170 0.000000 2.011460 
# 
# From -- ./inp_files/50020.got.cif
#   From: 2010.05.17/outbox.cif.g08.bks.cpg/sg14_26_cif.got.tgz:50020.got - 2010.06.03 17:49:19.
