data_PCOD9241335
_publ_section_title
;
Structure prediction by ZEFSAII (Michael W. Deem and Ramdas Pophale) SiO2 
 PCOD9241335
Probable space group: P 21/C
;
_chemical_formula_sum "Si O2"
_cell_formula_units_Z 28
_cell_length_a 9.237059
_cell_length_b 19.827924
_cell_length_c 14.859143
_cell_angle_alpha 90.000000
_cell_angle_beta 156.689830
_cell_angle_gamma 90.000000
_cell_volume 1076.911779
_symmetry_space_group_name_H-M "P 21/C"
_symmetry_group_IT_number 14
_symmetry_cell_setting 'monoclinic'
loop_
_space_group_symop_operation_xyz
x,y,z
-x,1/2+y,1/2-z
-x,-y,-z
x,1/2-y,1/2+z
loop_
_atom_site_type_symbol
_atom_site_label
_atom_site_fract_x
_atom_site_fract_y
_atom_site_fract_z
Si Si1 0.224927 0.462855 0.952170
Si Si2 0.628437 0.643193 0.404773
Si Si3 0.276432 0.083694 0.220512
Si Si4 0.255257 0.166970 0.368408
Si Si5 0.529679 0.096193 0.992350
Si Si6 0.663908 0.274471 0.252474
Si Si7 0.425247 0.395470 0.239627
O O1 0.486865 0.525769 0.098905
O O2 0.413423 0.399139 0.010558
O O3 0.185208 0.436381 0.031302
O O4 0.825808 0.464229 0.678764
O O5 0.612180 0.587653 0.318927
O O6 0.655889 0.614159 0.520003
O O7 0.295364 0.695890 0.202835
O O8 0.968274 0.689409 0.568407
O O9 0.339752 0.153538 0.312634
O O10 0.839482 0.072783 0.976568
O O11 0.408970 0.225680 0.516975
O O12 0.822083 0.156914 0.136052
O O13 0.294196 0.095000 0.767370
O O14 0.503134 0.321176 0.240971
#
# Coordination Sequence:
#
# PCOD9241335 Si02
#       7
#     4   4   4   4   4   4   4
#     4   9  18  35  63  85 128 152 192 238 289 348
#     4  11  23  38  58  84 118 151 203 247 295 348
#     4  10  19  35  60  93 116 157 198 235 291 359
#     4   8  18  36  59  85 114 157 191 231 292 343
#     4   9  20  37  58  86 118 155 192 235 289 353
#     4  10  21  39  58  82 117 151 196 255 287 349
#     4   9  19  36  61  89 116 158 197 231 296 346
#
# _framework density 26.000271999999999
#
# number of rings (size 3 to 8) (size 9 to 14) (size 15 to 20)
#    0.857    1.714    0.000    1.714    0.000    1.714 
#    2.571    3.571    0.000    0.000    0.000    0.000 
#    0.000    0.000    0.000    0.000    0.000    0.000 
#
# Total GULP energy -156450.687452 kJ/mol
# GULP energy per Si atom -5587.524552 kJ/mol
# Density = 2.594109 g / cm^3
# Si number density = 26.000272 Si / 1000 Ang^3
#
#
#
# Elastic Constant Matrix: (Units=GPa)
#
#
# Indices 1 2 3 4 5 6 
#
# 1 178.6978 20.4250 23.5964 0.0000 -40.6220 0.0000
# 2 20.4250 63.5382 10.1704 0.0000 -5.8040 0.0000
# 3 23.5964 10.1704 70.9733 0.0000 -9.2176 0.0000
# 4 0.0000 0.0000 0.0000 25.4934 0.0000 -3.2204
# 5 -40.6220 -5.8040 -9.2176 0.0000 49.7529 0.0000
# 6 0.0000 0.0000 0.0000 -3.2204 0.0000 22.8495
#
#
#
# Elastic Compliance Matrix: (Units=1/GPa)
#
#
# Indices 1 2 3 4 5 6 
#
# 1 0.007204 -0.001586 -0.001463 0.000000 0.005426 0.000000
# 2 -0.001586 0.016565 -0.001807 0.000000 0.000303 0.000000
# 3 -0.001463 -0.001807 0.015014 0.000000 0.001376 0.000000
# 4 0.000000 0.000000 0.000000 0.039937 0.000000 0.005629
# 5 0.005426 0.000303 0.001376 0.000000 0.024820 0.000000
# 6 0.000000 0.000000 0.000000 0.005629 0.000000 0.044558
#
#
# Mechanical properties :
#
#
# Convention : Reuss Voigt Hill
#
# Bulk Modulus (GPa) = 34.39903 46.84366 40.62135
# Shear Modulus (GPa) = 29.85069 36.88700 33.36884
#
# Velocity S-wave (km/s) = 3.39203 3.77067 3.58635
# Velocity P-wave (km/s) = 5.34791 6.08383 5.72770
#
# Compressibility (1/GPa) = 0.02907058
#
# Stress axis : x y z
#
# Youngs Moduli (GPa) = 138.81358 60.36716 66.60467
#
# Poissons Ratio (x) = 0.09574 0.09745
# Poissons Ratio (y) = 0.22015 0.12037
# Poissons Ratio (z) = 0.20310 0.10910
#
# Static dielectric constant tensor:
#      x y z
#    x 2.064650 0.000000 0.012570 
#    y 0.000000 2.161790 0.000000 
#    z 0.012570 0.000000 2.107210 
# 
# From -- ./inp_files/42121.got.cif
#   From: 2010.05.17/outbox.cif.g08.bks.cpg/sg14_22_cif.got.tgz:42121.got - 2010.06.03 17:49:19.
