data_PCOD9241968
_publ_section_title
;
Structure prediction by ZEFSAII (Michael W. Deem and Ramdas Pophale) SiO2 
 PCOD9241968
Probable space group: P 21/C
;
_chemical_formula_sum "Si O2"
_cell_formula_units_Z 20
_cell_length_a 20.255757
_cell_length_b 7.525659
_cell_length_c 14.201731
_cell_angle_alpha 90.000000
_cell_angle_beta 155.478428
_cell_angle_gamma 90.000000
_cell_volume 898.503706
_symmetry_space_group_name_H-M "P 21/C"
_symmetry_group_IT_number 14
_symmetry_cell_setting 'monoclinic'
loop_
_space_group_symop_operation_xyz
x,y,z
-x,1/2+y,1/2-z
-x,-y,-z
x,1/2-y,1/2+z
loop_
_atom_site_type_symbol
_atom_site_label
_atom_site_fract_x
_atom_site_fract_y
_atom_site_fract_z
Si Si1 0.795928 0.861884 0.490682
Si Si2 0.628481 0.348864 0.050459
Si Si3 0.862616 0.477612 0.498861
Si Si4 0.500089 0.554600 0.720419
Si Si5 0.622313 0.299039 0.731361
O O1 0.831238 0.681172 0.482874
O O2 0.659172 0.841320 0.392184
O O3 0.726067 0.025254 0.338247
O O4 0.955707 0.928965 0.748417
O O5 0.530696 0.494131 0.865990
O O6 0.641639 0.179993 0.998227
O O7 0.791038 0.426364 0.303627
O O8 0.541472 0.277469 0.032355
O O9 0.755212 0.348823 0.426458
O O10 0.512041 0.377758 0.669836
#
# Coordination Sequence:
#
# PCOD9241968 Si02
#       5
#     4   4   4   4   4
#     4  10  19  38  63  88 122 156 200 246 296 359
#     4  10  22  39  60  89 122 159 201 249 292 357
#     4  10  19  38  63  90 119 160 196 247 300 353
#     4  10  22  39  59  90 125 153 206 245 290 362
#     4   8  21  38  62  86 119 158 193 247 299 350
#
# _framework density 22.259231
#
# number of rings (size 3 to 8) (size 9 to 14) (size 15 to 20)
#    2.400    0.000    2.000    0.600    0.000    4.800 
#    0.000    0.000    0.000    6.000    0.000    0.000 
#    0.000    0.000    0.000    0.000    0.000    0.000 
#
# Total GULP energy -111381.435333 kJ/mol
# GULP energy per Si atom -5569.071767 kJ/mol
# Density = 2.220857 g / cm^3
# Si number density = 22.259231 Si / 1000 Ang^3
#
#
#
# Elastic Constant Matrix: (Units=GPa)
#
#
# Indices 1 2 3 4 5 6 
#
# 1 53.0347 20.1136 54.7784 0.0000 -19.6395 0.0000
# 2 20.1136 135.8534 64.7229 0.0000 -9.1380 0.0000
# 3 54.7784 64.7229 131.7227 0.0000 -19.6205 0.0000
# 4 0.0000 0.0000 0.0000 47.0069 0.0000 -11.7844
# 5 -19.6395 -9.1380 -19.6205 0.0000 32.7080 0.0000
# 6 0.0000 0.0000 0.0000 -11.7844 0.0000 26.6544
#
#
#
# Elastic Compliance Matrix: (Units=1/GPa)
#
#
# Indices 1 2 3 4 5 6 
#
# 1 0.039355 0.002500 -0.015341 0.000000 0.015126 0.000000
# 2 0.002500 0.009770 -0.005721 0.000000 0.000799 0.000000
# 3 -0.015341 -0.005721 0.016661 0.000000 -0.000815 0.000000
# 4 0.000000 0.000000 0.000000 0.023925 0.000000 0.010578
# 5 0.015126 0.000799 -0.000815 0.000000 0.039390 0.000000
# 6 0.000000 0.000000 0.000000 0.010578 0.000000 0.042194
#
#
# Mechanical properties :
#
#
# Convention : Reuss Voigt Hill
#
# Bulk Modulus (GPa) = 34.89130 66.64894 50.77012
# Shear Modulus (GPa) = 22.93852 33.34026 28.13939
#
# Velocity S-wave (km/s) = 3.21365 3.87436 3.55937
# Velocity P-wave (km/s) = 5.42946 7.07258 6.30478
#
# Compressibility (1/GPa) = 0.02866044
#
# Stress axis : x y z
#
# Youngs Moduli (GPa) = 25.41002 102.35218 60.01968
#
# Poissons Ratio (x) = -0.25584 0.92077
# Poissons Ratio (y) = -0.06352 0.34339
# Poissons Ratio (z) = 0.38982 0.58558
#
# Static dielectric constant tensor:
#      x y z
#    x 1.878660 0.000000 -0.030540 
#    y 0.000000 1.918350 0.000000 
#    z -0.030540 0.000000 1.804290 
# 
# From -- ./inp_files/62423.got.cif
#   From: 2010.05.17/outbox.cif.g08.bks.cpg/sg14_32_cif.got.tgz:62423.got - 2010.06.03 17:49:19.
