data_PCOD9241742
_publ_section_title
;
Structure prediction by ZEFSAII (Michael W. Deem and Ramdas Pophale) SiO2 
 PCOD9241742
Probable space group: P 21/C
;
_chemical_formula_sum "Si O2"
_cell_formula_units_Z 16
_cell_length_a 7.270771
_cell_length_b 8.536755
_cell_length_c 14.833221
_cell_angle_alpha 90.000000
_cell_angle_beta 43.035706
_cell_angle_gamma 90.000000
_cell_volume 628.321808
_symmetry_space_group_name_H-M "P 21/C"
_symmetry_group_IT_number 14
_symmetry_cell_setting 'monoclinic'
loop_
_space_group_symop_operation_xyz
x,y,z
-x,1/2+y,1/2-z
-x,-y,-z
x,1/2-y,1/2+z
loop_
_atom_site_type_symbol
_atom_site_label
_atom_site_fract_x
_atom_site_fract_y
_atom_site_fract_z
Si Si1 0.600349 0.994344 0.193222
Si Si2 0.682662 0.055006 0.519099
Si Si3 0.438281 0.144732 0.085789
Si Si4 0.915523 0.730213 0.443116
O O1 0.390203 0.080371 0.202355
O O2 0.490477 0.939235 0.327261
O O3 0.720098 0.854146 0.087538
O O4 0.818522 0.128671 0.138730
O O5 0.701315 0.240750 0.491994
O O6 0.500000 0.000000 0.500000
O O7 0.897905 0.917423 0.459800
O O8 0.183967 0.213791 0.124711
O O9 0.500000 0.000000 0.000000
#
# Coordination Sequence:
#
# PCOD9241742 Si02
#       4
#     4   4   4   4
#     4  10  19  37  61  84 119 161 200 250 306 357
#     4  10  20  37  59  88 121 157 204 252 301 367
#     4   9  19  37  59  85 119 155 197 250 303 359
#     4   9  20  37  58  86 119 157 202 251 302 360
#
# _framework density 25.464658
#
# number of rings (size 3 to 8) (size 9 to 14) (size 15 to 20)
#    0.000    2.500    0.000    1.500    0.000    1.000 
#    0.000   45.000    0.000    0.000    0.000    0.000 
#    0.000    0.000    0.000    0.000    0.000    0.000 
#
# Total GULP energy -89250.176114 kJ/mol
# GULP energy per Si atom -5578.136007 kJ/mol
# Density = 2.540670 g / cm^3
# Si number density = 25.464658 Si / 1000 Ang^3
#
#
#
# Elastic Constant Matrix: (Units=GPa)
#
#
# Indices 1 2 3 4 5 6 
#
# 1 90.2124 51.7052 46.8194 0.0000 36.3597 0.0000
# 2 51.7052 198.1182 32.5290 0.0000 1.3826 0.0000
# 3 46.8194 32.5290 113.0569 0.0000 31.3082 0.0000
# 4 0.0000 0.0000 0.0000 35.3473 0.0000 16.7104
# 5 36.3597 1.3826 31.3082 0.0000 39.1651 0.0000
# 6 0.0000 0.0000 0.0000 16.7104 0.0000 54.7551
#
#
#
# Elastic Compliance Matrix: (Units=1/GPa)
#
#
# Indices 1 2 3 4 5 6 
#
# 1 0.023543 -0.005554 -0.002765 0.000000 -0.019450 0.000000
# 2 -0.005554 0.006662 -0.001258 0.000000 0.005927 0.000000
# 3 -0.002765 -0.001258 0.012367 0.000000 -0.007274 0.000000
# 4 0.000000 0.000000 0.000000 0.033061 0.000000 -0.010090
# 5 -0.019450 0.005927 -0.007274 0.000000 0.049195 0.000000
# 6 0.000000 0.000000 0.000000 -0.010090 0.000000 0.021342
#
#
# Mechanical properties :
#
#
# Convention : Reuss Voigt Hill
#
# Bulk Modulus (GPa) = 42.70573 73.72164 58.21369
# Shear Modulus (GPa) = 28.87990 43.87573 36.37782
#
# Velocity S-wave (km/s) = 3.37132 4.15541 3.78373
# Velocity P-wave (km/s) = 5.65344 7.21365 6.48067
#
# Compressibility (1/GPa) = 0.02341606
#
# Stress axis : x y z
#
# Youngs Moduli (GPa) = 42.47581 150.09836 80.86277
#
# Poissons Ratio (x) = 0.83372 0.22362
# Poissons Ratio (y) = 0.23593 0.10173
# Poissons Ratio (z) = 0.11746 0.18882
#
# Static dielectric constant tensor:
#      x y z
#    x 2.150510 0.000000 -0.037140 
#    y 0.000000 2.165210 0.000000 
#    z -0.037140 0.000000 1.969120 
# 
# From -- ./inp_files/22854.got.cif
#   From: 2010.05.17/outbox.cif.g08.bks.cpg/sg14_12_cif.got.tgz:22854.got - 2010.06.03 17:49:19.
