data_PCOD9241356
_publ_section_title
;
Structure prediction by ZEFSAII (Michael W. Deem and Ramdas Pophale) SiO2 
 PCOD9241356
Probable space group: P 21/C
;
_chemical_formula_sum "Si O2"
_cell_formula_units_Z 32
_cell_length_a 13.562221
_cell_length_b 14.017663
_cell_length_c 12.035994
_cell_angle_alpha 90.000000
_cell_angle_beta 144.179016
_cell_angle_gamma 90.000000
_cell_volume 1339.162531
_symmetry_space_group_name_H-M "P 21/C"
_symmetry_group_IT_number 14
_symmetry_cell_setting 'monoclinic'
loop_
_space_group_symop_operation_xyz
x,y,z
-x,1/2+y,1/2-z
-x,-y,-z
x,1/2-y,1/2+z
loop_
_atom_site_type_symbol
_atom_site_label
_atom_site_fract_x
_atom_site_fract_y
_atom_site_fract_z
Si Si1 0.556102 0.454199 0.669410
Si Si2 0.225037 0.412237 0.460686
Si Si3 0.614630 0.097144 0.594747
Si Si4 0.260477 0.865216 0.045047
Si Si5 0.100133 0.146365 0.291145
Si Si6 0.390515 0.338699 0.203302
Si Si7 0.845273 0.073450 0.585564
Si Si8 0.276556 0.191932 0.239816
O O1 0.500000 0.500000 0.500000
O O2 0.398750 0.388353 0.556513
O O3 0.578289 0.548603 0.766458
O O4 0.734330 0.407721 0.871687
O O5 0.239911 0.528069 0.476597
O O6 0.249199 0.371418 0.605518
O O7 0.036622 0.386658 0.249417
O O8 0.713631 0.116059 0.799737
O O9 0.733809 0.099065 0.594392
O O10 0.465907 0.173311 0.452457
O O11 0.500000 0.000000 0.500000
O O12 0.418433 0.806870 0.141411
O O13 0.084909 0.816100 0.854610
O O14 0.264309 0.194462 0.492780
O O15 0.135984 0.156244 0.194559
O O16 0.115555 0.038893 0.351748
O O17 0.287006 0.302365 0.214843
#
# Coordination Sequence:
#
# PCOD9241356 Si02
#       8
#     4   4   4   4   4   4   4   4
#     4  10  21  40  61  80 114 162 205 234 277 343
#     4  10  20  35  61  91 110 144 195 242 286 347
#     4  12  17  33  62  92 117 144 185 240 302 343
#     4  10  19  38  62  83 116 153 189 228 293 350
#     4  10  20  38  60  82 114 155 189 237 293 345
#     4  10  23  40  55  80 122 158 188 237 291 346
#     4  10  19  35  61  91 114 140 194 251 287 335
#     4  12  21  35  61  89 120 150 187 244 303 341
#
# _framework density 23.895530999999998
#
# number of rings (size 3 to 8) (size 9 to 14) (size 15 to 20)
#    0.000    1.500    5.000    1.500    0.000    3.500 
#    4.500    0.000    0.000    0.000    0.000    0.000 
#    0.000    0.000    0.000    0.000    0.000    0.000 
#
# Total GULP energy -178240.762965 kJ/mol
# GULP energy per Si atom -5570.023843 kJ/mol
# Density = 2.384114 g / cm^3
# Si number density = 23.895531 Si / 1000 Ang^3
#
#
#
# Elastic Constant Matrix: (Units=GPa)
#
#
# Indices 1 2 3 4 5 6 
#
# 1 52.0172 -13.6655 68.8445 0.0000 18.6343 0.0000
# 2 -13.6655 48.1611 2.0829 0.0000 9.0920 0.0000
# 3 68.8445 2.0829 148.9283 0.0000 47.5049 0.0000
# 4 0.0000 0.0000 0.0000 5.0954 0.0000 -7.1520
# 5 18.6343 9.0920 47.5049 0.0000 44.1564 0.0000
# 6 0.0000 0.0000 0.0000 -7.1520 0.0000 16.8416
#
#
#
# Elastic Compliance Matrix: (Units=1/GPa)
#
#
# Indices 1 2 3 4 5 6 
#
# 1 0.063590 0.019017 -0.030225 0.000000 0.001765 0.000000
# 2 0.019017 0.027577 -0.007316 0.000000 -0.005833 0.000000
# 3 -0.030225 -0.007316 0.024724 0.000000 -0.012338 0.000000
# 4 0.000000 0.000000 0.000000 0.485858 0.000000 0.206325
# 5 0.001765 -0.005833 -0.012338 0.000000 0.036376 0.000000
# 6 0.000000 0.000000 0.000000 0.206325 0.000000 0.146995
#
#
# Mechanical properties :
#
#
# Convention : Reuss Voigt Hill
#
# Bulk Modulus (GPa) = 12.68318 40.40336 26.54327
# Shear Modulus (GPa) = 5.89310 26.00833 15.95071
#
# Velocity S-wave (km/s) = 1.57212 3.30270 2.58644
# Velocity P-wave (km/s) = 2.93508 5.61149 4.47792
#
# Compressibility (1/GPa) = 0.07884458
#
# Stress axis : x y z
#
# Youngs Moduli (GPa) = 15.72570 36.26175 40.44615
#
# Poissons Ratio (x) = -0.68960 1.22247
# Poissons Ratio (y) = -0.29906 0.29591
# Poissons Ratio (z) = 0.47530 0.26530
#
# Static dielectric constant tensor:
#      x y z
#    x 1.966710 0.000000 -0.014420 
#    y 0.000000 2.005300 0.000000 
#    z -0.014420 0.000000 2.014380 
# 
# From -- ./inp_files/33048.got.cif
#   From: 2010.05.17/outbox.cif.g08.bks.cpg/sg14_17_cif.got.tgz:33048.got - 2010.06.03 17:49:19.
