data_PCOD9241767
_publ_section_title
;
Structure prediction by ZEFSAII (Michael W. Deem and Ramdas Pophale) SiO2 
 PCOD9241767
Probable space group: P 21/C
;
_chemical_formula_sum "Si O2"
_cell_formula_units_Z 32
_cell_length_a 18.796400
_cell_length_b 17.020178
_cell_length_c 12.017698
_cell_angle_alpha 90.000000
_cell_angle_beta 21.902945
_cell_angle_gamma 90.000000
_cell_volume 1434.201572
_symmetry_space_group_name_H-M "P 21/C"
_symmetry_group_IT_number 14
_symmetry_cell_setting 'monoclinic'
loop_
_space_group_symop_operation_xyz
x,y,z
-x,1/2+y,1/2-z
-x,-y,-z
x,1/2-y,1/2+z
loop_
_atom_site_type_symbol
_atom_site_label
_atom_site_fract_x
_atom_site_fract_y
_atom_site_fract_z
Si Si1 0.127220 0.421572 0.415948
Si Si2 0.923361 0.361539 0.053192
Si Si3 0.235402 0.198989 0.932781
Si Si4 0.564569 0.144407 0.775314
Si Si5 0.791871 0.023934 0.568532
Si Si6 0.669302 0.235952 0.304653
Si Si7 0.808327 0.402197 0.713072
Si Si8 0.859297 0.852899 0.542855
O O1 0.248906 0.357858 0.305104
O O2 0.225203 0.505121 0.252617
O O3 0.953957 0.441606 0.751336
O O4 0.019292 0.393104 0.460944
O O5 0.114872 0.342810 0.703954
O O6 0.978100 0.365654 0.101907
O O7 0.831997 0.439898 0.132243
O O8 0.779288 0.290946 0.233003
O O9 0.446711 0.225678 0.657559
O O10 0.119442 0.275422 0.061458
O O11 0.605210 0.064991 0.788186
O O12 0.667853 0.214760 0.692341
O O13 0.659884 0.130380 0.519120
O O14 0.341028 0.160173 0.100719
O O15 0.821213 0.931446 0.528039
O O16 0.767221 0.150592 0.165567
#
# Coordination Sequence:
#
# PCOD9241767 Si02
#       8
#     4   4   4   4   4   4   4   4
#     4   9  20  37  59  87 115 156 197 241 294 350
#     4  10  21  37  58  84 120 153 192 249 297 347
#     4  10  22  39  57  86 121 151 201 247 291 352
#     4   9  20  37  57  86 121 154 194 245 292 348
#     4   9  19  36  57  86 116 152 194 241 296 356
#     4  10  21  36  59  85 116 157 194 243 297 344
#     4  10  19  37  62  81 120 155 196 241 292 352
#     4  11  20  35  63  83 117 157 195 240 299 353
#
# _framework density 22.312065
#
# number of rings (size 3 to 8) (size 9 to 14) (size 15 to 20)
#    0.000    2.250    0.000    3.000    1.750    0.500 
#    2.250    0.000   13.750    0.000    0.000    0.000 
#    0.000    0.000    0.000    0.000    0.000    0.000 
#
# Total GULP energy -178826.676058 kJ/mol
# GULP energy per Si atom -5588.333627 kJ/mol
# Density = 2.226128 g / cm^3
# Si number density = 22.312065 Si / 1000 Ang^3
#
#
#
# Elastic Constant Matrix: (Units=GPa)
#
#
# Indices 1 2 3 4 5 6 
#
# 1 78.9863 21.3001 3.2464 0.0000 -13.9445 0.0000
# 2 21.3001 75.7850 -8.8350 0.0000 -2.9644 0.0000
# 3 3.2464 -8.8350 47.9222 0.0000 -3.3292 0.0000
# 4 0.0000 0.0000 0.0000 17.2488 0.0000 4.7160
# 5 -13.9445 -2.9644 -3.3292 0.0000 22.8633 0.0000
# 6 0.0000 0.0000 0.0000 4.7160 0.0000 26.3269
#
#
#
# Elastic Compliance Matrix: (Units=1/GPa)
#
#
# Indices 1 2 3 4 5 6 
#
# 1 0.015347 -0.004114 -0.001197 0.000000 0.008652 0.000000
# 2 -0.004114 0.014692 0.002975 0.000000 -0.000171 0.000000
# 3 -0.001197 0.002975 0.021692 0.000000 0.002814 0.000000
# 4 0.000000 0.000000 0.000000 0.060961 0.000000 -0.010920
# 5 0.008652 -0.000171 0.002814 0.000000 0.049403 0.000000
# 6 0.000000 0.000000 0.000000 -0.010920 0.000000 0.039940
#
#
# Mechanical properties :
#
#
# Convention : Reuss Voigt Hill
#
# Bulk Modulus (GPa) = 21.25012 26.01295 23.63154
# Shear Modulus (GPa) = 22.48269 25.75324 24.11797
#
# Velocity S-wave (km/s) = 3.17779 3.40108 3.29133
# Velocity P-wave (km/s) = 4.79679 5.20645 5.00581
#
# Compressibility (1/GPa) = 0.04705855
#
# Stress axis : x y z
#
# Youngs Moduli (GPa) = 65.16077 68.06512 46.09926
#
# Poissons Ratio (x) = 0.28005 0.05519
# Poissons Ratio (y) = 0.26810 -0.13717
# Poissons Ratio (z) = 0.07800 -0.20252
#
# Static dielectric constant tensor:
#      x y z
#    x 1.826240 0.000000 0.011940 
#    y 0.000000 1.837290 0.000000 
#    z 0.011940 0.000000 1.853600 
# 
# From -- ./inp_files/50660.got.cif
#   From: 2010.05.17/outbox.cif.g08.bks.cpg/sg14_26_cif.got.tgz:50660.got - 2010.06.03 17:49:19.
