data_PCOD9241506
_publ_section_title
;
Structure prediction by ZEFSAII (Michael W. Deem and Ramdas Pophale) SiO2 
 PCOD9241506
Probable space group: P 21/C
;
_chemical_formula_sum "Si O2"
_cell_formula_units_Z 32
_cell_length_a 12.470340
_cell_length_b 14.266474
_cell_length_c 8.140437
_cell_angle_alpha 90.000000
_cell_angle_beta 112.370691
_cell_angle_gamma 90.000000
_cell_volume 1339.253234
_symmetry_space_group_name_H-M "P 21/C"
_symmetry_group_IT_number 14
_symmetry_cell_setting 'monoclinic'
loop_
_space_group_symop_operation_xyz
x,y,z
-x,1/2+y,1/2-z
-x,-y,-z
x,1/2-y,1/2+z
loop_
_atom_site_type_symbol
_atom_site_label
_atom_site_fract_x
_atom_site_fract_y
_atom_site_fract_z
Si Si1 0.427386 0.972164 0.615431
Si Si2 0.497245 0.632166 0.619076
Si Si3 0.885376 0.216583 0.422591
Si Si4 0.735794 0.718927 0.733481
Si Si5 0.380938 0.718110 0.248532
Si Si6 0.977872 0.454615 0.805648
Si Si7 0.768297 0.609084 0.087562
Si Si8 0.032380 0.349348 0.309221
O O1 0.412297 0.862802 0.635840
O O2 0.500000 0.000000 0.500000
O O3 0.484325 0.027193 0.803765
O O4 0.302358 0.018244 0.507506
O O5 0.618258 0.667513 0.611829
O O6 0.401739 0.664041 0.432143
O O7 0.465622 0.695129 0.761011
O O8 0.752763 0.247918 0.347699
O O9 0.896159 0.133792 0.292168
O O10 0.979909 0.296448 0.434815
O O11 0.929407 0.170531 0.617170
O O12 0.720835 0.830777 0.711891
O O13 0.850293 0.692746 0.698001
O O14 0.755466 0.678855 0.925737
O O15 0.099221 0.415878 0.813372
O O16 0.942639 0.540064 0.669001
O O17 0.000000 0.500000 0.000000
#
# Coordination Sequence:
#
# PCOD9241506 Si02
#       8
#     4   4   4   4   4   4   4   4
#     4  11  24  42  67  96 130 173 224 273 332 393
#     4  11  25  41  66  94 132 177 222 271 329 389
#     4  11  23  39  65  90 126 168 211 262 331 382
#     4  11  20  38  64  91 123 157 214 261 323 376
#     4  12  24  44  63  95 134 175 223 267 328 402
#     4  10  19  36  59  90 117 162 206 247 320 379
#     4  11  21  38  65  92 126 162 211 269 322 395
#     4  11  21  39  65  92 123 163 210 267 318 389
#
# _framework density 23.893913999999999
#
# number of rings (size 3 to 8) (size 9 to 14) (size 15 to 20)
#    0.000    1.000    3.750    5.625    1.750    1.000 
#    0.000    0.625    0.000    0.000    0.000    0.000 
#    0.000    0.000    0.000    0.000    0.000    0.000 
#
# Total GULP energy -179005.146291 kJ/mol
# GULP energy per Si atom -5593.910822 kJ/mol
# Density = 2.383953 g / cm^3
# Si number density = 23.893914 Si / 1000 Ang^3
#
#
#
# Elastic Constant Matrix: (Units=GPa)
#
#
# Indices 1 2 3 4 5 6 
#
# 1 100.3140 0.0774 14.3271 0.0000 7.8408 0.0000
# 2 0.0774 87.3386 -11.4390 0.0000 -8.9627 0.0000
# 3 14.3271 -11.4390 38.1910 0.0000 3.1376 0.0000
# 4 0.0000 0.0000 0.0000 29.4893 0.0000 -6.3922
# 5 7.8408 -8.9627 3.1376 0.0000 30.2285 0.0000
# 6 0.0000 0.0000 0.0000 -6.3922 0.0000 30.6258
#
#
#
# Elastic Compliance Matrix: (Units=1/GPa)
#
#
# Indices 1 2 3 4 5 6 
#
# 1 0.010753 -0.000809 -0.004062 0.000000 -0.002607 0.000000
# 2 -0.000809 0.012291 0.003700 0.000000 0.003470 0.000000
# 3 -0.004062 0.003700 0.028886 0.000000 -0.000848 0.000000
# 4 0.000000 0.000000 0.000000 0.035517 0.000000 0.007413
# 5 -0.002607 0.003470 -0.000848 0.000000 0.034874 0.000000
# 6 0.000000 0.000000 0.000000 0.007413 0.000000 0.034199
#
#
# Mechanical properties :
#
#
# Convention : Reuss Voigt Hill
#
# Bulk Modulus (GPa) = 20.16636 25.75272 22.95954
# Shear Modulus (GPa) = 28.50730 32.92728 30.71729
#
# Velocity S-wave (km/s) = 3.45784 3.71625 3.58937
# Velocity P-wave (km/s) = 4.93969 5.40513 5.17764
#
# Compressibility (1/GPa) = 0.04958753
#
# Stress axis : x y z
#
# Youngs Moduli (GPa) = 92.99475 81.35971 34.61894
#
# Poissons Ratio (x) = 0.06583 0.14063
# Poissons Ratio (y) = 0.07525 -0.12809
# Poissons Ratio (z) = 0.37776 -0.30102
#
# Static dielectric constant tensor:
#      x y z
#    x 1.893870 0.000000 -0.011610 
#    y 0.000000 1.078890 0.000000 
#    z -0.011610 0.000000 2.050600 
# 
# From -- ./inp_files/13396.got.cif
#   From: 2010.05.17/outbox.cif.g08.bks.cpg/sg14_7_cif.got.tgz:13396.got - 2010.06.03 17:49:19.
