data_PCOD9241249
_publ_section_title
;
Structure prediction by ZEFSAII (Michael W. Deem and Ramdas Pophale) SiO2 
 PCOD9241249
Probable space group: P 21/C
;
_chemical_formula_sum "Si O2"
_cell_formula_units_Z 30
_cell_length_a 18.917669
_cell_length_b 13.913918
_cell_length_c 5.348565
_cell_angle_alpha 90.000000
_cell_angle_beta 125.389901
_cell_angle_gamma 90.000000
_cell_volume 1147.715993
_symmetry_space_group_name_H-M "P 21/C"
_symmetry_group_IT_number 14
_symmetry_cell_setting 'monoclinic'
loop_
_space_group_symop_operation_xyz
x,y,z
-x,1/2+y,1/2-z
-x,-y,-z
x,1/2-y,1/2+z
loop_
_atom_site_type_symbol
_atom_site_label
_atom_site_fract_x
_atom_site_fract_y
_atom_site_fract_z
Si Si1 0.500000 0.000000 0.500000
Si Si2 0.197085 0.598756 0.163943
Si Si3 0.003427 0.368861 0.158138
Si Si4 0.259778 0.124235 0.793894
Si Si5 0.487133 0.805562 0.752644
Si Si6 0.353957 0.409400 0.987448
Si Si7 0.927826 0.654400 0.202817
Si Si8 0.708286 0.132393 0.640930
O O1 0.487091 0.085688 0.262731
O O2 0.452277 0.069510 0.608479
O O3 0.226672 0.487210 0.225617
O O4 0.240617 0.644893 0.497081
O O5 0.234024 0.644124 0.986327
O O6 0.094797 0.610923 0.974258
O O7 0.019547 0.253659 0.160731
O O8 0.064790 0.398203 0.515618
O O9 0.031578 0.405205 0.942956
O O10 0.322586 0.134386 0.684431
O O11 0.170332 0.180049 0.569341
O O12 0.305779 0.140286 0.152994
O O13 0.513690 0.759342 0.069554
O O14 0.381592 0.810401 0.543679
O O15 0.318536 0.519630 0.915371
#
# Coordination Sequence:
#
# PCOD9241249 Si02
#       8
#     2   4   4   4   4   4   4   4
#     4  10  24  46  78  98 152 178 218 300 346 400
#     4  10  19  35  57  85 118 155 209 262 319 393
#     4  10  21  36  53  77 112 159 202 252 327 358
#     4  10  20  36  61  85 117 152 215 255 308 394
#     4  11  24  43  67 104 140 185 227 270 346 430
#     4   9  20  37  65  95 115 166 202 251 336 396
#     4  10  21  37  52  75 114 154 198 259 297 382
#     4   9  19  37  56  89 128 160 200 262 328 391
#
# _framework density 26.138870000000001
#
# number of rings (size 3 to 8) (size 9 to 14) (size 15 to 20)
#    0.000    2.133    0.000    2.400    0.000    6.400 
#   14.400    0.000   17.600    0.000    0.000    0.000 
#    0.000    0.000    0.000    0.000    0.000    0.000 
#
# Total GULP energy -167475.294225 kJ/mol
# GULP energy per Si atom -5582.509807 kJ/mol
# Density = 2.607938 g / cm^3
# Si number density = 26.138870 Si / 1000 Ang^3
#
#
#
# Elastic Constant Matrix: (Units=GPa)
#
#
# Indices 1 2 3 4 5 6 
#
# 1 136.7106 30.4724 36.7271 0.0000 -29.2213 0.0000
# 2 30.4724 116.7048 15.9076 0.0000 -1.2069 0.0000
# 3 36.7271 15.9076 109.1979 0.0000 -39.8864 0.0000
# 4 0.0000 0.0000 0.0000 23.9963 0.0000 0.4397
# 5 -29.2213 -1.2069 -39.8864 0.0000 56.7780 0.0000
# 6 0.0000 0.0000 0.0000 0.4397 0.0000 31.6060
#
#
#
# Elastic Compliance Matrix: (Units=1/GPa)
#
#
# Indices 1 2 3 4 5 6 
#
# 1 0.008920 -0.002103 -0.001390 0.000000 0.003570 0.000000
# 2 -0.002103 0.009276 -0.001301 0.000000 -0.001799 0.000000
# 3 -0.001390 -0.001301 0.012837 0.000000 0.008275 0.000000
# 4 0.000000 0.000000 0.000000 0.041684 0.000000 -0.000580
# 5 0.003570 -0.001799 0.008275 0.000000 0.025225 0.000000
# 6 0.000000 0.000000 0.000000 -0.000580 0.000000 0.031648
#
#
# Mechanical properties :
#
#
# Convention : Reuss Voigt Hill
#
# Bulk Modulus (GPa) = 46.62901 58.75860 52.69381
# Shear Modulus (GPa) = 34.17029 41.10980 37.64005
#
# Velocity S-wave (km/s) = 3.61953 3.97009 3.79885
# Velocity P-wave (km/s) = 5.94522 6.59876 6.28050
#
# Compressibility (1/GPa) = 0.02144588
#
# Stress axis : x y z
#
# Youngs Moduli (GPa) = 112.11064 107.80022 77.89734
#
# Poissons Ratio (x) = 0.22667 0.10827
# Poissons Ratio (y) = 0.23573 0.10137
# Poissons Ratio (z) = 0.15582 0.14028
#
# Static dielectric constant tensor:
#      x y z
#    x 2.003450 0.000000 -0.014430 
#    y 0.000000 2.253220 0.000000 
#    z -0.014430 0.000000 2.069030 
# 
# From -- ./inp_files/4212.got.cif
#   From: 2010.05.17/outbox.cif.g08.bks.cpg/sg14_3_cif.got.tgz:4212.got - 2010.06.03 17:49:19.
