data_PCOD9241556
_publ_section_title
;
Structure prediction by ZEFSAII (Michael W. Deem and Ramdas Pophale) SiO2 
 PCOD9241556
Probable space group: P 21/C
;
_chemical_formula_sum "Si O2"
_cell_formula_units_Z 28
_cell_length_a 13.016040
_cell_length_b 8.869398
_cell_length_c 11.991539
_cell_angle_alpha 90.000000
_cell_angle_beta 66.149961
_cell_angle_gamma 90.000000
_cell_volume 1266.141980
_symmetry_space_group_name_H-M "P 21/C"
_symmetry_group_IT_number 14
_symmetry_cell_setting 'monoclinic'
loop_
_space_group_symop_operation_xyz
x,y,z
-x,1/2+y,1/2-z
-x,-y,-z
x,1/2-y,1/2+z
loop_
_atom_site_type_symbol
_atom_site_label
_atom_site_fract_x
_atom_site_fract_y
_atom_site_fract_z
Si Si1 0.849016 0.493023 0.654548
Si Si2 0.471442 0.736365 0.022994
Si Si3 0.921235 0.483272 0.874231
Si Si4 0.607649 0.403744 0.728625
Si Si5 0.589056 0.969455 0.838380
Si Si6 0.012714 0.251583 0.995451
Si Si7 0.317515 0.907123 0.414001
O O1 0.910337 0.496198 0.747175
O O2 0.715035 0.490692 0.727826
O O3 0.886592 0.635576 0.566048
O O4 0.902310 0.347688 0.569467
O O5 0.477124 0.657738 0.140048
O O6 0.396823 0.886906 0.086505
O O7 0.576056 0.814501 0.913349
O O8 0.410725 0.616742 0.969788
O O9 0.997722 0.349481 0.889951
O O10 0.965367 0.634557 0.913169
O O11 0.798295 0.443597 0.976056
O O12 0.532522 0.488117 0.670441
O O13 0.664484 0.256213 0.650240
O O14 0.670329 0.980261 0.696993
#
# Coordination Sequence:
#
# PCOD9241556 Si02
#       7
#     4   4   4   4   4   4   4
#     4  11  21  41  64  91 121 164 205 254 315 374
#     4   9  18  37  58  82 120 157 199 246 306 355
#     4  11  21  41  64  91 121 164 205 254 315 374
#     4  10  19  36  61  87 117 162 205 248 307 370
#     4   9  20  35  54  88 122 155 204 251 298 366
#     4  10  24  40  62  92 128 154 206 266 308 370
#     4  10  19  36  61  87 117 162 205 248 307 370
#
# _framework density 22.114424
#
# number of rings (size 3 to 8) (size 9 to 14) (size 15 to 20)
#    0.000    2.000    2.857    0.857    0.000    0.571 
#    7.714    0.000   15.714    0.000    0.000    0.000 
#    0.000    0.000    0.000    0.000    0.000    0.000 
#
# Total GULP energy -156137.206752 kJ/mol
# GULP energy per Si atom -5576.328813 kJ/mol
# Density = 2.206409 g / cm^3
# Si number density = 22.114424 Si / 1000 Ang^3
#
#
#
# Elastic Constant Matrix: (Units=GPa)
#
#
# Indices 1 2 3 4 5 6 
#
# 1 26.1009 22.2541 -7.6332 0.0000 9.7304 0.0000
# 2 22.2541 89.2670 20.6400 0.0000 -7.7768 0.0000
# 3 -7.6332 20.6400 69.7219 0.0000 12.3083 0.0000
# 4 0.0000 0.0000 0.0000 21.9364 0.0000 11.4972
# 5 9.7304 -7.7768 12.3083 0.0000 27.1606 0.0000
# 6 0.0000 0.0000 0.0000 11.4972 0.0000 -1.9774
#
#
#
# Elastic Compliance Matrix: (Units=1/GPa)
#
#
# Indices 1 2 3 4 5 6 
#
# 1 0.109532 -0.041567 0.036223 0.000000 -0.067557 0.000000
# 2 -0.041567 0.028605 -0.018580 0.000000 0.031502 0.000000
# 3 0.036223 -0.018580 0.029390 0.000000 -0.031615 0.000000
# 4 0.000000 0.000000 0.000000 0.011263 0.000000 0.065488
# 5 -0.067557 0.031502 -0.031615 0.000000 0.084368 0.000000
# 6 0.000000 0.000000 0.000000 0.065488 0.000000 -0.124949
#
#
# Mechanical properties :
#
#
# Convention : Reuss Voigt Hill
#
# Bulk Modulus (GPa) = 8.35566 28.40129 18.37847
# Shear Modulus (GPa) = 22.12872 19.41252 20.77062
#
# Velocity S-wave (km/s) = 3.16673 2.96602 3.06802
# Velocity P-wave (km/s) = 4.14216 4.95988 4.56935
#
# Compressibility (1/GPa) = 0.11967934
#
# Stress axis : x y z
#
# Youngs Moduli (GPa) = 9.12973 34.95853 34.02532
#
# Poissons Ratio (x) = 1.45312 -1.23250
# Poissons Ratio (y) = 0.37950 0.63219
# Poissons Ratio (z) = -0.33071 0.64953
#
# Static dielectric constant tensor:
#      x y z
#    x 1.815230 0.000000 0.016980 
#    y 0.000000 1.826480 0.000000 
#    z 0.016980 0.000000 1.809380 
# 
# From -- ./inp_files/31448.got.cif
#   From: 2010.05.17/outbox.cif.g08.bks.cpg/sg14_16_cif.got.tgz:31448.got - 2010.06.03 17:49:19.
