data_PCOD9241314
_publ_section_title
;
Structure prediction by ZEFSAII (Michael W. Deem and Ramdas Pophale) SiO2 
 PCOD9241314
Probable space group: P 21/C
;
_chemical_formula_sum "Si O2"
_cell_formula_units_Z 28
_cell_length_a 9.196038
_cell_length_b 14.542036
_cell_length_c 9.989273
_cell_angle_alpha 90.000000
_cell_angle_beta 111.214630
_cell_angle_gamma 90.000000
_cell_volume 1245.327554
_symmetry_space_group_name_H-M "P 21/C"
_symmetry_group_IT_number 14
_symmetry_cell_setting 'monoclinic'
loop_
_space_group_symop_operation_xyz
x,y,z
-x,1/2+y,1/2-z
-x,-y,-z
x,1/2-y,1/2+z
loop_
_atom_site_type_symbol
_atom_site_label
_atom_site_fract_x
_atom_site_fract_y
_atom_site_fract_z
Si Si1 0.407312 0.711220 0.638534
Si Si2 0.050322 0.146307 0.694627
Si Si3 0.177170 0.239626 0.983729
Si Si4 0.626015 0.587273 0.032701
Si Si5 0.586322 0.609266 0.307030
Si Si6 0.352359 0.455516 0.260005
Si Si7 0.710918 0.162612 0.622165
O O1 0.494241 0.800856 0.725818
O O2 0.540136 0.633255 0.669792
O O3 0.293908 0.679785 0.720513
O O4 0.321768 0.744247 0.475238
O O5 0.061064 0.210358 0.828881
O O6 0.101471 0.208011 0.584398
O O7 0.178487 0.065521 0.753435
O O8 0.870986 0.118400 0.625463
O O9 0.298450 0.311640 0.960440
O O10 0.273496 0.149964 0.060577
O O11 0.657346 0.561686 0.197032
O O12 0.671741 0.539351 0.909161
O O13 0.440147 0.600911 0.958583
O O14 0.459773 0.542346 0.332263
#
# Coordination Sequence:
#
# PCOD9241314 Si02
#       7
#     4   4   4   4   4   4   4
#     4  10  20  39  58  83 112 154 192 224 285 349
#     4  11  21  35  56  89 111 147 191 239 280 335
#     4  11  19  36  59  83 113 144 194 233 279 334
#     4   9  18  37  57  82 113 153 189 228 280 353
#     4  11  19  35  64  86 111 150 194 239 284 327
#     4  10  21  35  61  89 114 145 198 239 278 334
#     4  10  19  35  60  76 116 155 180 231 290 335
#
# _framework density 22.484044999999998
#
# number of rings (size 3 to 8) (size 9 to 14) (size 15 to 20)
#    0.000    1.714    5.714    2.143    0.000    0.571 
#    0.000    2.857    6.286    4.286    0.000    0.000 
#    0.000    0.000    0.000    0.000    0.000    0.000 
#
# Total GULP energy -156356.040350 kJ/mol
# GULP energy per Si atom -5584.144298 kJ/mol
# Density = 2.243287 g / cm^3
# Si number density = 22.484045 Si / 1000 Ang^3
#
#
#
# Elastic Constant Matrix: (Units=GPa)
#
#
# Indices 1 2 3 4 5 6 
#
# 1 111.2142 -9.0418 23.1794 0.0000 14.8840 0.0000
# 2 -9.0418 48.8649 -10.2808 0.0000 5.4368 0.0000
# 3 23.1794 -10.2808 58.8572 0.0000 -14.2901 0.0000
# 4 0.0000 0.0000 0.0000 23.6686 0.0000 -6.8513
# 5 14.8840 5.4368 -14.2901 0.0000 30.2561 0.0000
# 6 0.0000 0.0000 0.0000 -6.8513 0.0000 15.6706
#
#
#
# Elastic Compliance Matrix: (Units=1/GPa)
#
#
# Indices 1 2 3 4 5 6 
#
# 1 0.011729 0.001818 -0.006531 0.000000 -0.009181 0.000000
# 2 0.001818 0.021674 0.002154 0.000000 -0.003771 0.000000
# 3 -0.006531 0.002154 0.023296 0.000000 0.013829 0.000000
# 4 0.000000 0.000000 0.000000 0.048372 0.000000 0.021148
# 5 -0.009181 -0.003771 0.013829 0.000000 0.044777 0.000000
# 6 0.000000 0.000000 0.000000 0.021148 0.000000 0.073060
#
#
# Mechanical properties :
#
#
# Convention : Reuss Voigt Hill
#
# Bulk Modulus (GPa) = 19.38676 25.18331 22.28503
# Shear Modulus (GPa) = 20.38992 28.25771 24.32381
#
# Velocity S-wave (km/s) = 3.01468 3.54897 3.29268
# Velocity P-wave (km/s) = 4.55619 5.29324 4.93849
#
# Compressibility (1/GPa) = 0.05158160
#
# Stress axis : x y z
#
# Youngs Moduli (GPa) = 85.25592 46.13864 42.92568
#
# Poissons Ratio (x) = -0.08387 0.28035
# Poissons Ratio (y) = -0.15498 -0.09247
# Poissons Ratio (z) = 0.55680 -0.09939
#
# Static dielectric constant tensor:
#      x y z
#    x 1.838870 0.000000 -0.046140 
#    y 0.000000 1.915170 0.000000 
#    z -0.046140 0.000000 1.860210 
# 
# From -- ./inp_files/25580.got.cif
#   From: 2010.05.17/outbox.cif.g08.bks.cpg/sg14_13_cif.got.tgz:25580.got - 2010.06.03 17:49:19.
