data_PCOD9241203
_publ_section_title
;
Structure prediction by ZEFSAII (Michael W. Deem and Ramdas Pophale) SiO2 
 PCOD9241203
Probable space group: P 21/C
;
_chemical_formula_sum "Si O2"
_cell_formula_units_Z 24
_cell_length_a 14.903896
_cell_length_b 9.133363
_cell_length_c 15.910474
_cell_angle_alpha 90.000000
_cell_angle_beta 29.720988
_cell_angle_gamma 90.000000
_cell_volume 1073.741821
_symmetry_space_group_name_H-M "P 21/C"
_symmetry_group_IT_number 14
_symmetry_cell_setting 'monoclinic'
loop_
_space_group_symop_operation_xyz
x,y,z
-x,1/2+y,1/2-z
-x,-y,-z
x,1/2-y,1/2+z
loop_
_atom_site_type_symbol
_atom_site_label
_atom_site_fract_x
_atom_site_fract_y
_atom_site_fract_z
Si Si1 0.035957 0.169192 0.940987
Si Si2 0.633848 0.237455 0.231605
Si Si3 0.434427 0.832768 0.535814
Si Si4 0.468170 0.569285 0.840025
Si Si5 0.890436 0.588683 0.796558
Si Si6 0.004101 0.697332 0.349624
O O1 0.849828 0.248702 0.065676
O O2 0.094931 0.236629 0.982626
O O3 0.150375 0.161935 0.761784
O O4 0.000000 0.000000 0.000000
O O5 0.537298 0.254680 0.400993
O O6 0.554850 0.346401 0.227573
O O7 0.601508 0.068230 0.231673
O O8 0.509951 0.813990 0.380627
O O9 0.216754 0.814344 0.701555
O O10 0.500000 0.000000 0.500000
O O11 0.279403 0.491754 0.021945
O O12 0.035171 0.464095 0.654113
O O13 0.969039 0.695625 0.801813
#
# Coordination Sequence:
#
# PCOD9241203 Si02
#       6
#     4   4   4   4   4   4
#     4   9  18  33  56  80 108 148 184 215 273 348
#     4  10  20  37  58  82 110 146 191 231 275 333
#     4   8  16  34  57  76 106 149 184 215 272 342
#     4  10  21  37  58  82 111 149 186 231 278 331
#     4  10  19  35  55  83 113 142 185 232 279 328
#     4   9  18  32  55  83 110 146 185 228 275 330
#
# _framework density 22.351742000000002
#
# number of rings (size 3 to 8) (size 9 to 14) (size 15 to 20)
#    0.000    2.667    0.000    3.000    0.000    2.667 
#    0.000    8.333    0.000    0.000    0.000    0.000 
#    0.000    0.000    0.000    0.000    0.000    0.000 
#
# Total GULP energy -133699.181059 kJ/mol
# GULP energy per Si atom -5570.799211 kJ/mol
# Density = 2.230087 g / cm^3
# Si number density = 22.351742 Si / 1000 Ang^3
#
#
#
# Elastic Constant Matrix: (Units=GPa)
#
#
# Indices 1 2 3 4 5 6 
#
# 1 128.8238 49.1628 65.2774 0.0000 56.8265 0.0000
# 2 49.1628 34.5341 32.1891 0.0000 25.8581 0.0000
# 3 65.2774 32.1891 112.5162 0.0000 16.2694 0.0000
# 4 0.0000 0.0000 0.0000 24.2932 0.0000 12.5825
# 5 56.8265 25.8581 16.2694 0.0000 45.1498 0.0000
# 6 0.0000 0.0000 0.0000 12.5825 0.0000 47.0096
#
#
#
# Elastic Compliance Matrix: (Units=1/GPa)
#
#
# Indices 1 2 3 4 5 6 
#
# 1 0.028436 -0.013450 -0.009060 0.000000 -0.024822 0.000000
# 2 -0.013450 0.073838 -0.010184 0.000000 -0.021690 0.000000
# 3 -0.009060 -0.010184 0.015366 0.000000 0.011699 0.000000
# 4 0.000000 0.000000 0.000000 0.047789 0.000000 -0.012791
# 5 -0.024822 -0.021690 0.011699 0.000000 0.061596 0.000000
# 6 0.000000 0.000000 0.000000 -0.012791 0.000000 0.024696
#
#
# Mechanical properties :
#
#
# Convention : Reuss Voigt Hill
#
# Bulk Modulus (GPa) = 19.13873 63.23697 41.18785
# Shear Modulus (GPa) = 14.94642 31.90685 23.42663
#
# Velocity S-wave (km/s) = 2.58871 3.78231 3.24093
# Velocity P-wave (km/s) = 4.18525 6.88677 5.69842
#
# Compressibility (1/GPa) = 0.05225008
#
# Stress axis : x y z
#
# Youngs Moduli (GPa) = 35.16648 13.54312 65.07887
#
# Poissons Ratio (x) = 0.18216 0.58964
# Poissons Ratio (y) = 0.47301 0.66278
# Poissons Ratio (z) = 0.31862 0.13793
#
# Static dielectric constant tensor:
#      x y z
#    x 1.910380 0.000000 -0.009290 
#    y 0.000000 1.824710 0.000000 
#    z -0.009290 0.000000 1.935760 
# 
# From -- ./inp_files/46382.got.cif
#   From: 2010.05.17/outbox.cif.g08.bks.cpg/sg14_24_cif.got.tgz:46382.got - 2010.06.03 17:49:19.
