data_PCOD9241985
_publ_section_title
;
Structure prediction by ZEFSAII (Michael W. Deem and Ramdas Pophale) SiO2 
 PCOD9241985
Probable space group: P 21/C
;
_chemical_formula_sum "Si O2"
_cell_formula_units_Z 20
_cell_length_a 11.777999
_cell_length_b 7.120716
_cell_length_c 8.719832
_cell_angle_alpha 90.000000
_cell_angle_beta 82.600262
_cell_angle_gamma 90.000000
_cell_volume 725.222447
_symmetry_space_group_name_H-M "P 21/C"
_symmetry_group_IT_number 14
_symmetry_cell_setting 'monoclinic'
loop_
_space_group_symop_operation_xyz
x,y,z
-x,1/2+y,1/2-z
-x,-y,-z
x,1/2-y,1/2+z
loop_
_atom_site_type_symbol
_atom_site_label
_atom_site_fract_x
_atom_site_fract_y
_atom_site_fract_z
Si Si1 0.009931 0.828999 0.379719
Si Si2 0.834429 0.140221 0.927162
Si Si3 0.630618 0.039383 0.136655
Si Si4 0.236292 0.077890 0.596705
Si Si5 0.420117 0.525756 0.858877
O O1 0.083091 0.659604 0.439057
O O2 0.084101 0.904698 0.227292
O O3 0.876661 0.797397 0.368240
O O4 0.000000 0.000000 0.500000
O O5 0.798629 0.357162 0.904589
O O6 0.719530 0.022205 0.979925
O O7 0.628948 0.265757 0.153882
O O8 0.686938 0.924851 0.265576
O O9 0.495647 0.003064 0.191889
O O10 0.313766 0.102553 0.430854
O O11 0.500000 0.500000 0.000000
#
# Coordination Sequence:
#
# PCOD9241985 Si02
#       5
#     4   4   4   4   4
#     4  10  21  38  62  92 125 169 215 265 322 402
#     4  10  19  38  64  89 128 170 211 265 334 386
#     4  10  19  39  67  92 128 176 218 271 332 387
#     4   9  19  38  61  86 130 167 210 270 321 385
#     4   9  20  39  63  92 129 171 218 271 326 390
#
# _framework density 27.577746999999999
#
# number of rings (size 3 to 8) (size 9 to 14) (size 15 to 20)
#    0.000    2.400    2.000    0.000    0.000    0.800 
#    7.200    9.000    0.000    0.000    0.000    0.000 
#    0.000    0.000    0.000    0.000    0.000    0.000 
#
# Total GULP energy -111715.394796 kJ/mol
# GULP energy per Si atom -5585.769740 kJ/mol
# Density = 2.751498 g / cm^3
# Si number density = 27.577747 Si / 1000 Ang^3
#
#
#
# Elastic Constant Matrix: (Units=GPa)
#
#
# Indices 1 2 3 4 5 6 
#
# 1 184.5767 42.5974 103.9512 0.0000 -56.0244 0.0000
# 2 42.5974 69.3912 34.6255 0.0000 -4.7600 0.0000
# 3 103.9512 34.6255 177.3049 0.0000 -77.5812 0.0000
# 4 0.0000 0.0000 0.0000 36.3958 0.0000 -13.7337
# 5 -56.0244 -4.7600 -77.5812 0.0000 80.6576 0.0000
# 6 0.0000 0.0000 0.0000 -13.7337 0.0000 51.1943
#
#
#
# Elastic Compliance Matrix: (Units=1/GPa)
#
#
# Indices 1 2 3 4 5 6 
#
# 1 0.008994 -0.003674 -0.003310 0.000000 0.002847 0.000000
# 2 -0.003674 0.018080 -0.003499 0.000000 -0.004851 0.000000
# 3 -0.003310 -0.003499 0.012376 0.000000 0.009399 0.000000
# 4 0.000000 0.000000 0.000000 0.030570 0.000000 0.008201
# 5 0.002847 -0.004851 0.009399 0.000000 0.023129 0.000000
# 6 0.000000 0.000000 0.000000 0.008201 0.000000 0.021733
#
#
# Mechanical properties :
#
#
# Convention : Reuss Voigt Hill
#
# Bulk Modulus (GPa) = 54.10185 88.18009 71.14097
# Shear Modulus (GPa) = 35.20855 50.32280 42.76567
#
# Velocity S-wave (km/s) = 3.57697 4.27636 3.94220
# Velocity P-wave (km/s) = 6.05972 7.51182 6.82450
#
# Compressibility (1/GPa) = 0.01848366
#
# Stress axis : x y z
#
# Youngs Moduli (GPa) = 111.18684 55.31015 80.79897
#
# Poissons Ratio (x) = 0.20322 0.26743
# Poissons Ratio (y) = 0.40853 0.28273
# Poissons Ratio (z) = 0.36801 0.19354
#
# Static dielectric constant tensor:
#      x y z
#    x 2.355460 0.000000 0.013710 
#    y 0.000000 2.155930 0.000000 
#    z 0.013710 0.000000 2.179360 
# 
# From -- ./inp_files/11806.got.cif
#   From: 2010.05.17/outbox.cif.g08.bks.cpg/sg14_6_cif.got.tgz:11806.got - 2010.06.03 17:49:19.
