data_PCOD9241135
_publ_section_title
;
Structure prediction by ZEFSAII (Michael W. Deem and Ramdas Pophale) SiO2 
 PCOD9241135
Probable space group: P 21/C
;
_chemical_formula_sum "Si O2"
_cell_formula_units_Z 32
_cell_length_a 8.040209
_cell_length_b 16.261914
_cell_length_c 9.833468
_cell_angle_alpha 90.000000
_cell_angle_beta 66.945042
_cell_angle_gamma 90.000000
_cell_volume 1183.027196
_symmetry_space_group_name_H-M "P 21/C"
_symmetry_group_IT_number 14
_symmetry_cell_setting 'monoclinic'
loop_
_space_group_symop_operation_xyz
x,y,z
-x,1/2+y,1/2-z
-x,-y,-z
x,1/2-y,1/2+z
loop_
_atom_site_type_symbol
_atom_site_label
_atom_site_fract_x
_atom_site_fract_y
_atom_site_fract_z
Si Si1 0.196233 0.564878 0.302841
Si Si2 0.272698 0.780486 0.625023
Si Si3 0.985729 0.362951 0.230979
Si Si4 0.212265 0.013629 0.085423
Si Si5 0.717422 0.699016 0.661536
Si Si6 0.383315 0.177371 0.085646
Si Si7 0.287811 0.054520 0.520269
Si Si8 0.404684 0.605263 0.889536
O O1 0.283910 0.653219 0.244597
O O2 0.256233 0.524524 0.424257
O O3 0.246465 0.506273 0.160825
O O4 0.977965 0.563601 0.370133
O O5 0.118589 0.721298 0.728645
O O6 0.428911 0.719867 0.518324
O O7 0.244208 0.837935 0.499207
O O8 0.843899 0.435891 0.305060
O O9 0.127707 0.351752 0.311080
O O10 0.110093 0.391233 0.065150
O O11 0.358230 0.079513 0.089172
O O12 0.747080 0.709722 0.493869
O O13 0.529500 0.646883 0.737252
O O14 0.681361 0.783006 0.753149
O O15 0.454455 0.106206 0.525797
O O16 0.346212 0.988827 0.389261
#
# Coordination Sequence:
#
# PCOD9241135 Si02
#       8
#     4   4   4   4   4   4   4   4
#     4   9  17  32  55  82 113 158 213 251 297 378
#     4  10  21  34  53  87 125 161 199 257 320 373
#     4  10  20  34  57  89 123 158 207 261 314 368
#     4  10  19  34  60  89 120 165 214 259 307 374
#     4  10  21  39  63  91 122 164 213 261 309 370
#     4  11  23  40  63  92 128 165 209 261 317 375
#     4   8  14  28  52  78 106 147 202 252 288 350
#     4   8  15  30  53  79 109 149 199 244 296 363
#
# _framework density 27.049254000000001
#
# number of rings (size 3 to 8) (size 9 to 14) (size 15 to 20)
#    0.000    2.500    0.000    3.750    0.000    2.500 
#    0.000    0.000    0.000    1.500    0.000    1.750 
#    0.000    0.000    0.000    0.000    0.000    0.000 
#
# Total GULP energy -178985.555371 kJ/mol
# GULP energy per Si atom -5593.298605 kJ/mol
# Density = 2.698769 g / cm^3
# Si number density = 27.049254 Si / 1000 Ang^3
#
#
#
# Elastic Constant Matrix: (Units=GPa)
#
#
# Indices 1 2 3 4 5 6 
#
# 1 65.9958 24.0625 23.7129 0.0000 -10.2052 0.0000
# 2 24.0625 125.3872 37.4255 0.0000 -30.9280 0.0000
# 3 23.7129 37.4255 88.9425 0.0000 -16.7023 0.0000
# 4 0.0000 0.0000 0.0000 48.3684 0.0000 -16.3242
# 5 -10.2052 -30.9280 -16.7023 0.0000 28.2849 0.0000
# 6 0.0000 0.0000 0.0000 -16.3242 0.0000 38.8281
#
#
#
# Elastic Compliance Matrix: (Units=1/GPa)
#
#
# Indices 1 2 3 4 5 6 
#
# 1 0.017390 -0.001724 -0.003472 0.000000 0.002339 0.000000
# 2 -0.001724 0.011675 -0.002443 0.000000 0.010701 0.000000
# 3 -0.003472 -0.002443 0.014014 0.000000 0.004351 0.000000
# 4 0.000000 0.000000 0.000000 0.024093 0.000000 0.010129
# 5 0.002339 0.010701 0.004351 0.000000 0.050469 0.000000
# 6 0.000000 0.000000 0.000000 0.010129 0.000000 0.030013
#
#
# Mechanical properties :
#
#
# Convention : Reuss Voigt Hill
#
# Bulk Modulus (GPa) = 35.97015 50.08079 43.02547
# Shear Modulus (GPa) = 29.03607 36.10460 32.57034
#
# Velocity S-wave (km/s) = 3.27991 3.65742 3.47380
# Velocity P-wave (km/s) = 5.26029 6.03245 5.65955
#
# Compressibility (1/GPa) = 0.02780083
#
# Stress axis : x y z
#
# Youngs Moduli (GPa) = 57.50369 85.65315 71.35710
#
# Poissons Ratio (x) = 0.14767 0.24773
# Poissons Ratio (y) = 0.09914 0.17436
# Poissons Ratio (z) = 0.19963 0.20929
#
# Static dielectric constant tensor:
#      x y z
#    x 2.193610 0.000000 -0.026060 
#    y 0.000000 2.138390 0.000000 
#    z -0.026060 0.000000 2.108430 
# 
# From -- ./inp_files/26263.got.cif
#   From: 2010.05.17/outbox.cif.g08.bks.cpg/sg14_14_cif.got.tgz:26263.got - 2010.06.03 17:49:19.
