data_PCOD9241566
_publ_section_title
;
Structure prediction by ZEFSAII (Michael W. Deem and Ramdas Pophale) SiO2 
 PCOD9241566
Probable space group: P 21/C
;
_chemical_formula_sum "Si O2"
_cell_formula_units_Z 28
_cell_length_a 10.202529
_cell_length_b 8.481013
_cell_length_c 15.562745
_cell_angle_alpha 90.000000
_cell_angle_beta 105.364498
_cell_angle_gamma 90.000000
_cell_volume 1298.481642
_symmetry_space_group_name_H-M "P 21/C"
_symmetry_group_IT_number 14
_symmetry_cell_setting 'monoclinic'
loop_
_space_group_symop_operation_xyz
x,y,z
-x,1/2+y,1/2-z
-x,-y,-z
x,1/2-y,1/2+z
loop_
_atom_site_type_symbol
_atom_site_label
_atom_site_fract_x
_atom_site_fract_y
_atom_site_fract_z
Si Si1 0.686530 0.231125 0.127307
Si Si2 0.545355 0.994805 0.872912
Si Si3 0.777118 0.710373 0.485857
Si Si4 0.478141 0.198200 0.456576
Si Si5 0.637876 0.516939 0.209927
Si Si6 0.136456 0.233909 0.186907
Si Si7 0.085810 0.036725 0.836252
O O1 0.551542 0.156448 0.146464
O O2 0.734086 0.382362 0.188050
O O3 0.793062 0.092051 0.142346
O O4 0.623118 0.297348 0.028311
O O5 0.689497 0.941358 0.937414
O O6 0.472819 0.126306 0.916431
O O7 0.568390 0.052945 0.781480
O O8 0.658195 0.814626 0.509423
O O9 0.843590 0.779795 0.410147
O O10 0.881746 0.654339 0.578039
O O11 0.467652 0.070024 0.380648
O O12 0.719353 0.671922 0.252067
O O13 0.086322 0.365008 0.246684
O O14 0.043089 0.076824 0.172337
#
# Coordination Sequence:
#
# PCOD9241566 Si02
#       7
#     4   4   4   4   4   4   4
#     4  11  21  35  62  89 123 168 194 254 316 359
#     4  10  19  36  61  91 119 167 206 242 313 367
#     4  10  20  40  67  88 121 162 208 247 315 366
#     4  11  19  39  62  90 127 162 202 257 309 365
#     4  11  22  36  58  94 129 157 210 255 302 366
#     4  11  25  40  68  90 116 171 206 256 310 364
#     4  12  22  45  64  88 129 157 215 257 302 377
#
# _framework density 21.563647
#
# number of rings (size 3 to 8) (size 9 to 14) (size 15 to 20)
#    0.000    1.143    4.286    3.429    0.000    2.286 
#    0.000    2.143    3.143    0.000    0.000    0.000 
#    0.000    0.000    0.000    0.000    0.000    0.000 
#
# Total GULP energy -156226.281863 kJ/mol
# GULP energy per Si atom -5579.510067 kJ/mol
# Density = 2.151457 g / cm^3
# Si number density = 21.563647 Si / 1000 Ang^3
#
#
#
# Elastic Constant Matrix: (Units=GPa)
#
#
# Indices 1 2 3 4 5 6 
#
# 1 56.3899 -4.3830 35.6696 0.0000 -3.1946 0.0000
# 2 -4.3830 43.6240 28.0750 0.0000 -5.0022 0.0000
# 3 35.6696 28.0750 127.3556 0.0000 -21.8717 0.0000
# 4 0.0000 0.0000 0.0000 22.7411 0.0000 11.0100
# 5 -3.1946 -5.0022 -21.8717 0.0000 30.7230 0.0000
# 6 0.0000 0.0000 0.0000 11.0100 0.0000 12.2294
#
#
#
# Elastic Compliance Matrix: (Units=1/GPa)
#
#
# Indices 1 2 3 4 5 6 
#
# 1 0.023760 0.007760 -0.008800 0.000000 -0.002531 0.000000
# 2 0.007760 0.029249 -0.008732 0.000000 -0.000648 0.000000
# 3 -0.008800 -0.008732 0.013490 0.000000 0.007266 0.000000
# 4 0.000000 0.000000 0.000000 0.077949 0.000000 -0.070177
# 5 -0.002531 -0.000648 0.007266 0.000000 0.037353 0.000000
# 6 0.000000 0.000000 0.000000 -0.070177 0.000000 0.144950
#
#
# Mechanical properties :
#
#
# Convention : Reuss Voigt Hill
#
# Bulk Modulus (GPa) = 21.29738 38.45474 29.87606
# Shear Modulus (GPa) = 13.81423 24.33923 19.07673
#
# Velocity S-wave (km/s) = 2.53380 3.36328 2.97757
# Velocity P-wave (km/s) = 4.29630 5.74056 5.07012
#
# Compressibility (1/GPa) = 0.04695413
#
# Stress axis : x y z
#
# Youngs Moduli (GPa) = 42.08758 34.18977 74.13072
#
# Poissons Ratio (x) = -0.26533 0.65235
# Poissons Ratio (y) = -0.32662 0.64734
# Poissons Ratio (z) = 0.37037 0.29856
#
# Static dielectric constant tensor:
#      x y z
#    x 1.795530 0.000000 0.008020 
#    y 0.000000 1.769580 0.000000 
#    z 0.008020 0.000000 1.870870 
# 
# From -- ./inp_files/43172.got.cif
#   From: 2010.05.17/outbox.cif.g08.bks.cpg/sg14_22_cif.got.tgz:43172.got - 2010.06.03 17:49:19.
