data_PCOD9241101
_publ_section_title
;
Structure prediction by ZEFSAII (Michael W. Deem and Ramdas Pophale) SiO2 
 PCOD9241101
Probable space group: P 21/C
;
_chemical_formula_sum "Si O2"
_cell_formula_units_Z 28
_cell_length_a 13.950309
_cell_length_b 15.196689
_cell_length_c 9.237051
_cell_angle_alpha 90.000000
_cell_angle_beta 37.376916
_cell_angle_gamma 90.000000
_cell_volume 1188.761429
_symmetry_space_group_name_H-M "P 21/C"
_symmetry_group_IT_number 14
_symmetry_cell_setting 'monoclinic'
loop_
_space_group_symop_operation_xyz
x,y,z
-x,1/2+y,1/2-z
-x,-y,-z
x,1/2-y,1/2+z
loop_
_atom_site_type_symbol
_atom_site_label
_atom_site_fract_x
_atom_site_fract_y
_atom_site_fract_z
Si Si1 0.067019 0.951269 0.061412
Si Si2 0.408061 0.926554 0.520352
Si Si3 0.314943 0.614873 0.836315
Si Si4 0.506768 0.796033 0.603709
Si Si5 0.249573 0.902443 0.090588
Si Si6 0.956669 0.276346 0.686130
Si Si7 0.847726 0.810002 0.329027
O O1 0.230848 0.913369 0.793872
O O2 0.155955 0.975794 0.107626
O O3 0.904844 0.905553 0.313681
O O4 0.000000 0.000000 0.000000
O O5 0.393771 0.943583 0.367354
O O6 0.497171 0.836584 0.453696
O O7 0.500000 0.000000 0.500000
O O8 0.426445 0.701124 0.690760
O O9 0.284768 0.575729 0.714617
O O10 0.152650 0.654132 0.099157
O O11 0.680523 0.798352 0.459128
O O12 0.405534 0.862900 0.826166
O O13 0.138174 0.815013 0.215934
O O14 0.017807 0.300988 0.455676
O O15 0.110909 0.258687 0.597206
#
# Coordination Sequence:
#
# PCOD9241101 Si02
#       7
#     4   4   4   4   4   4   4
#     4  10  21  41  62  84 121 167 210 250 313 387
#     4  11  23  41  65  90 125 174 215 256 321 391
#     4  11  20  39  61  91 127 170 208 262 317 374
#     4  10  22  36  61  93 130 167 209 251 313 381
#     4   9  20  37  58  87 121 162 200 256 308 367
#     4  10  19  34  58  88 124 157 202 253 315 358
#     4  11  21  34  59  93 126 155 205 261 306 368
#
# _framework density 23.553927000000002
#
# number of rings (size 3 to 8) (size 9 to 14) (size 15 to 20)
#    0.000    1.714    2.857    3.429    4.000    0.000 
#    0.000    3.571    0.000    0.000    0.000    0.000 
#    0.000    0.000    0.000    0.000    0.000    0.000 
#
# Total GULP energy -156031.188028 kJ/mol
# GULP energy per Si atom -5572.542430 kJ/mol
# Density = 2.350032 g / cm^3
# Si number density = 23.553927 Si / 1000 Ang^3
#
#
#
# Elastic Constant Matrix: (Units=GPa)
#
#
# Indices 1 2 3 4 5 6 
#
# 1 228.0027 31.4973 33.5859 0.0000 7.6820 0.0000
# 2 31.4973 30.6935 1.8364 0.0000 -6.6624 0.0000
# 3 33.5859 1.8364 49.3971 0.0000 -10.4104 0.0000
# 4 0.0000 0.0000 0.0000 9.3496 0.0000 -2.6108
# 5 7.6820 -6.6624 -10.4104 0.0000 52.5091 0.0000
# 6 0.0000 0.0000 0.0000 -2.6108 0.0000 37.9779
#
#
#
# Elastic Compliance Matrix: (Units=1/GPa)
#
#
# Indices 1 2 3 4 5 6 
#
# 1 0.006012 -0.006465 -0.004389 0.000000 -0.002570 0.000000
# 2 -0.006465 0.040461 0.004355 0.000000 0.006943 0.000000
# 3 -0.004389 0.004355 0.024335 0.000000 0.006019 0.000000
# 4 0.000000 0.000000 0.000000 0.109050 0.000000 0.007497
# 5 -0.002570 0.006943 0.006019 0.000000 0.021495 0.000000
# 6 0.000000 0.000000 0.000000 0.007497 0.000000 0.026846
#
#
# Mechanical properties :
#
#
# Convention : Reuss Voigt Hill
#
# Bulk Modulus (GPa) = 17.29829 49.10362 33.20095
# Shear Modulus (GPa) = 19.19626 36.04555 27.62090
#
# Velocity S-wave (km/s) = 2.85790 3.91620 3.42814
# Velocity P-wave (km/s) = 4.27203 6.42973 5.45855
#
# Compressibility (1/GPa) = 0.05780920
#
# Stress axis : x y z
#
# Youngs Moduli (GPa) = 166.33127 24.71533 41.09322
#
# Poissons Ratio (x) = 0.15978 0.18036
# Poissons Ratio (y) = 1.07530 -0.17894
# Poissons Ratio (z) = 0.73003 -0.10762
#
# Static dielectric constant tensor:
#      x y z
#    x 1.936190 0.000000 0.034920 
#    y 0.000000 2.178500 0.000000 
#    z 0.034920 0.000000 1.885470 
# 
# From -- ./inp_files/14270.got.cif
#   From: 2010.05.17/outbox.cif.g08.bks.cpg/sg14_8_cif.got.tgz:14270.got - 2010.06.03 17:49:19.
