data_PCOD9241158
_publ_section_title
;
Structure prediction by ZEFSAII (Michael W. Deem and Ramdas Pophale) SiO2 
 PCOD9241158
Probable space group: P 21/C
;
_chemical_formula_sum "Si O2"
_cell_formula_units_Z 32
_cell_length_a 23.313384
_cell_length_b 15.018619
_cell_length_c 15.589425
_cell_angle_alpha 90.000000
_cell_angle_beta 17.831666
_cell_angle_gamma 90.000000
_cell_volume 1671.479526
_symmetry_space_group_name_H-M "P 21/C"
_symmetry_group_IT_number 14
_symmetry_cell_setting 'monoclinic'
loop_
_space_group_symop_operation_xyz
x,y,z
-x,1/2+y,1/2-z
-x,-y,-z
x,1/2-y,1/2+z
loop_
_atom_site_type_symbol
_atom_site_label
_atom_site_fract_x
_atom_site_fract_y
_atom_site_fract_z
Si Si1 0.188642 0.677050 0.982450
Si Si2 0.953624 0.682601 0.150838
Si Si3 0.053688 0.390440 0.336700
Si Si4 0.867739 0.071765 0.737276
Si Si5 0.584533 0.596953 0.406947
Si Si6 0.614365 0.572733 0.566821
Si Si7 0.204119 0.927898 0.635896
Si Si8 0.990035 0.128309 0.746285
O O1 0.161473 0.616404 0.105155
O O2 0.069313 0.649603 0.068777
O O3 0.108746 0.775019 0.117367
O O4 0.410244 0.665588 0.645543
O O5 0.904757 0.786227 0.228868
O O6 0.762496 0.629856 0.408843
O O7 0.083443 0.662115 0.882708
O O8 0.212087 0.465547 0.111976
O O9 0.939063 0.410616 0.412243
O O10 0.944800 0.404167 0.580158
O O11 0.920368 0.077508 0.761395
O O12 0.000000 0.000000 0.500000
O O13 0.663550 0.030273 0.015156
O O14 0.500000 0.500000 0.500000
O O15 0.635451 0.589721 0.435180
O O16 0.780810 0.625378 0.083502
O O17 0.405022 0.601016 0.884110
#
# Coordination Sequence:
#
# PCOD9241158 Si02
#       8
#     4   4   4   4   4   4   4   4
#     4  10  23  38  64  93 124 168 204 268 321 366
#     4  10  20  39  60  94 121 153 210 264 315 356
#     4  10  23  40  61  83 129 175 203 248 321 379
#     4  10  19  34  64  89 121 152 199 273 315 356
#     4  11  21  38  67  95 124 162 216 265 315 385
#     4  10  21  37  63  95 118 157 214 260 317 367
#     4  10  22  43  60  85 126 174 205 243 318 400
#     4  11  21  40  60  97 129 158 214 270 312 375
#
# _framework density 19.144717
#
# number of rings (size 3 to 8) (size 9 to 14) (size 15 to 20)
#    0.000    1.750    2.500    3.000    5.250    0.000 
#   15.750    0.625    0.000    0.000    0.000    0.000 
#    0.000    0.000    0.000    0.000    0.000    0.000 
#
# Total GULP energy -178266.022857 kJ/mol
# GULP energy per Si atom -5570.813214 kJ/mol
# Density = 1.910114 g / cm^3
# Si number density = 19.144717 Si / 1000 Ang^3
#
#
#
# Elastic Constant Matrix: (Units=GPa)
#
#
# Indices 1 2 3 4 5 6 
#
# 1 111.3240 15.6440 17.5924 0.0000 -19.6048 0.0000
# 2 15.6440 70.0114 23.8601 0.0000 -14.8728 0.0000
# 3 17.5924 23.8601 53.4522 0.0000 -22.7380 0.0000
# 4 0.0000 0.0000 0.0000 18.0138 0.0000 -1.3780
# 5 -19.6048 -14.8728 -22.7380 0.0000 30.8507 0.0000
# 6 0.0000 0.0000 0.0000 -1.3780 0.0000 30.5383
#
#
#
# Elastic Compliance Matrix: (Units=1/GPa)
#
#
# Indices 1 2 3 4 5 6 
#
# 1 0.010188 -0.000889 -0.000560 0.000000 0.005633 0.000000
# 2 -0.000889 0.017228 -0.005980 0.000000 0.003333 0.000000
# 3 -0.000560 -0.005980 0.029403 0.000000 0.018432 0.000000
# 4 0.000000 0.000000 0.000000 0.055705 0.000000 0.002514
# 5 0.005633 0.003333 0.018432 0.000000 0.051186 0.000000
# 6 0.000000 0.000000 0.000000 0.002514 0.000000 0.032859
#
#
# Mechanical properties :
#
#
# Convention : Reuss Voigt Hill
#
# Bulk Modulus (GPa) = 23.83162 38.77560 31.30361
# Shear Modulus (GPa) = 22.18143 27.72666 24.95404
#
# Velocity S-wave (km/s) = 3.40754 3.80974 3.61424
# Velocity P-wave (km/s) = 5.28743 6.29683 5.81408
#
# Compressibility (1/GPa) = 0.04196106
#
# Stress axis : x y z
#
# Youngs Moduli (GPa) = 98.15245 58.04486 34.01055
#
# Poissons Ratio (x) = 0.05160 0.01905
# Poissons Ratio (y) = 0.08726 0.20337
# Poissons Ratio (z) = 0.05498 0.34709
#
# Static dielectric constant tensor:
#      x y z
#    x 1.674890 0.000000 0.019400 
#    y 0.000000 1.727630 0.000000 
#    z 0.019400 0.000000 1.704130 
# 
# From -- ./inp_files/50620.got.cif
#   From: 2010.05.17/outbox.cif.g08.bks.cpg/sg14_26_cif.got.tgz:50620.got - 2010.06.03 17:49:19.
