data_PCOD9241613
_publ_section_title
;
Structure prediction by ZEFSAII (Michael W. Deem and Ramdas Pophale) SiO2 
 PCOD9241613
Probable space group: P 21/C
;
_chemical_formula_sum "Si O2"
_cell_formula_units_Z 32
_cell_length_a 25.304282
_cell_length_b 8.905406
_cell_length_c 19.501032
_cell_angle_alpha 90.000000
_cell_angle_beta 160.758632
_cell_angle_gamma 90.000000
_cell_volume 1448.186704
_symmetry_space_group_name_H-M "P 21/C"
_symmetry_group_IT_number 14
_symmetry_cell_setting 'monoclinic'
loop_
_space_group_symop_operation_xyz
x,y,z
-x,1/2+y,1/2-z
-x,-y,-z
x,1/2-y,1/2+z
loop_
_atom_site_type_symbol
_atom_site_label
_atom_site_fract_x
_atom_site_fract_y
_atom_site_fract_z
Si Si1 0.333722 0.969817 0.903231
Si Si2 0.423294 0.784459 0.779543
Si Si3 0.112986 0.278189 0.124708
Si Si4 0.181175 0.789479 0.145787
Si Si5 0.641974 0.264703 0.952123
Si Si6 0.056062 0.664997 0.862374
Si Si7 0.997381 0.173237 0.336163
Si Si8 0.369770 0.474724 0.951872
O O1 0.287956 0.860226 0.785130
O O2 0.173228 0.061992 0.727616
O O3 0.398613 0.869575 0.045200
O O4 0.461209 0.096898 0.042969
O O5 0.457358 0.778703 0.739487
O O6 0.242677 0.837656 0.568766
O O7 0.465851 0.616865 0.857248
O O8 0.238091 0.153947 0.301977
O O9 0.940572 0.225033 0.939483
O O10 0.111008 0.296802 0.040218
O O11 0.298080 0.927987 0.301520
O O12 0.068837 0.779672 0.942041
O O13 0.822012 0.226170 0.147114
O O14 0.625333 0.413993 0.977352
O O15 0.962162 0.731736 0.682488
O O16 0.998808 0.502244 0.817109
#
# Coordination Sequence:
#
# PCOD9241613 Si02
#       8
#     4   4   4   4   4   4   4   4
#     4  10  19  36  63  87 117 165 207 256 305 375
#     4  10  23  40  56  89 132 165 196 253 320 389
#     4  11  20  38  66  93 121 156 216 264 309 361
#     4  11  21  37  63  92 120 159 212 262 306 369
#     4  10  20  39  65  90 124 153 215 265 308 363
#     4  11  26  41  61  90 131 167 204 258 324 383
#     4  11  23  42  62  91 127 165 206 263 318 374
#     4  10  22  36  64  95 116 164 204 259 312 366
#
# _framework density 22.096596999999999
#
# number of rings (size 3 to 8) (size 9 to 14) (size 15 to 20)
#    0.000    1.500    3.750    2.250    1.750    2.000 
#    0.000    6.250    0.000    0.000    0.000    0.000 
#    0.000    0.000    0.000    0.000    0.000    0.000 
#
# Total GULP energy -178664.455460 kJ/mol
# GULP energy per Si atom -5583.264233 kJ/mol
# Density = 2.204630 g / cm^3
# Si number density = 22.096597 Si / 1000 Ang^3
#
#
#
# Elastic Constant Matrix: (Units=GPa)
#
#
# Indices 1 2 3 4 5 6 
#
# 1 67.0480 9.3607 7.2456 0.0000 -26.8027 0.0000
# 2 9.3607 97.8988 13.2396 0.0000 -2.2629 0.0000
# 3 7.2456 13.2396 54.0545 0.0000 -12.6940 0.0000
# 4 0.0000 0.0000 0.0000 25.7206 0.0000 -13.0008
# 5 -26.8027 -2.2629 -12.6940 0.0000 32.5344 0.0000
# 6 0.0000 0.0000 0.0000 -13.0008 0.0000 9.3512
#
#
#
# Elastic Compliance Matrix: (Units=1/GPa)
#
#
# Indices 1 2 3 4 5 6 
#
# 1 0.022713 -0.001993 0.001987 0.000000 0.019348 0.000000
# 2 -0.001993 0.010742 -0.002834 0.000000 -0.002001 0.000000
# 3 0.001987 -0.002834 0.021209 0.000000 0.009715 0.000000
# 4 0.000000 0.000000 0.000000 0.130791 0.000000 0.181835
# 5 0.019348 -0.002001 0.009715 0.000000 0.050328 0.000000
# 6 0.000000 0.000000 0.000000 0.181835 0.000000 0.359740
#
#
# Mechanical properties :
#
#
# Convention : Reuss Voigt Hill
#
# Bulk Modulus (GPa) = 20.41454 30.96591 25.69023
# Shear Modulus (GPa) = 8.09679 26.13161 17.11420
#
# Velocity S-wave (km/s) = 1.91630 3.44264 2.78603
# Velocity P-wave (km/s) = 3.76233 5.46321 4.69051
#
# Compressibility (1/GPa) = 0.04898468
#
# Stress axis : x y z
#
# Youngs Moduli (GPa) = 44.02838 93.09079 47.14971
#
# Poissons Ratio (x) = 0.18555 -0.09370
# Poissons Ratio (y) = 0.08776 0.13361
# Poissons Ratio (z) = -0.08750 0.26379
#
# Static dielectric constant tensor:
#      x y z
#    x 1.857050 0.000000 -0.010350 
#    y 0.000000 1.805300 0.000000 
#    z -0.010350 0.000000 1.829180 
# 
# From -- ./inp_files/70725.got.cif
#   From: 2010.05.17/outbox.cif.g08.bks.cpg/sg14_36_cif.got.tgz:70725.got - 2010.06.03 17:49:19.
