data_PCOD9241699
_publ_section_title
;
Structure prediction by ZEFSAII (Michael W. Deem and Ramdas Pophale) SiO2 
 PCOD9241699
Probable space group: P 21/C
;
_chemical_formula_sum "Si O2"
_cell_formula_units_Z 32
_cell_length_a 11.134392
_cell_length_b 9.093217
_cell_length_c 21.668735
_cell_angle_alpha 90.000000
_cell_angle_beta 143.517170
_cell_angle_gamma 90.000000
_cell_volume 1304.455536
_symmetry_space_group_name_H-M "P 21/C"
_symmetry_group_IT_number 14
_symmetry_cell_setting 'monoclinic'
loop_
_space_group_symop_operation_xyz
x,y,z
-x,1/2+y,1/2-z
-x,-y,-z
x,1/2-y,1/2+z
loop_
_atom_site_type_symbol
_atom_site_label
_atom_site_fract_x
_atom_site_fract_y
_atom_site_fract_z
Si Si1 0.141107 0.586956 0.950255
Si Si2 0.003527 0.856012 0.938280
Si Si3 0.816377 0.126780 0.286663
Si Si4 0.277923 0.894125 0.165689
Si Si5 0.216888 0.971109 0.348649
Si Si6 0.518866 0.719109 0.426727
Si Si7 0.715005 0.873308 0.391150
Si Si8 0.151763 0.216192 0.840221
O O1 0.263813 0.531643 0.941547
O O2 0.120992 0.761005 0.936646
O O3 0.918751 0.517673 0.853773
O O4 0.217553 0.523823 0.046984
O O5 0.868889 0.735573 0.920006
O O6 0.854912 0.982709 0.853370
O O7 0.177156 0.909270 0.057060
O O8 0.759223 0.236984 0.318087
O O9 0.629477 0.099889 0.164499
O O10 0.993136 0.210154 0.322597
O O11 0.516996 0.912896 0.269497
O O12 0.367837 0.855000 0.380387
O O13 0.987681 0.907832 0.247805
O O14 0.220618 0.140828 0.328933
O O15 0.653348 0.776507 0.425715
O O16 0.655845 0.668854 0.539977
#
# Coordination Sequence:
#
# PCOD9241699 Si02
#       8
#     4   4   4   4   4   4   4   4
#     4  11  22  40  60  87 127 158 196 253 304 350
#     4  11  24  41  61  91 127 154 200 259 296 360
#     4   9  19  37  60  89 116 159 199 236 305 358
#     4  10  23  40  63  92 118 162 205 244 304 359
#     4  10  22  37  60  90 115 160 201 244 300 357
#     4  10  19  37  65  85 117 158 204 239 289 370
#     4  11  22  37  66  87 119 160 203 239 306 360
#     4  10  19  37  59  84 119 154 200 246 295 353
#
# _framework density 24.531307000000002
#
# number of rings (size 3 to 8) (size 9 to 14) (size 15 to 20)
#    0.000    1.750    3.750    0.750    1.750    4.000 
#    0.000    5.625    0.000    0.000    0.000    0.000 
#    0.000    0.000    0.000    0.000    0.000    0.000 
#
# Total GULP energy -178806.556719 kJ/mol
# GULP energy per Si atom -5587.704897 kJ/mol
# Density = 2.447547 g / cm^3
# Si number density = 24.531307 Si / 1000 Ang^3
#
#
#
# Elastic Constant Matrix: (Units=GPa)
#
#
# Indices 1 2 3 4 5 6 
#
# 1 35.5733 -3.7771 -5.7342 0.0000 -1.1641 0.0000
# 2 -3.7771 48.3440 27.6630 0.0000 -6.9582 0.0000
# 3 -5.7342 27.6630 176.3057 0.0000 7.7513 0.0000
# 4 0.0000 0.0000 0.0000 33.4059 0.0000 1.8047
# 5 -1.1641 -6.9582 7.7513 0.0000 17.6623 0.0000
# 6 0.0000 0.0000 0.0000 1.8047 0.0000 31.2000
#
#
#
# Elastic Compliance Matrix: (Units=1/GPa)
#
#
# Indices 1 2 3 4 5 6 
#
# 1 0.028517 0.002350 0.000444 0.000000 0.002610 0.000000
# 2 0.002350 0.025103 -0.004389 0.000000 0.011970 0.000000
# 3 0.000444 -0.004389 0.006577 0.000000 -0.004586 0.000000
# 4 0.000000 0.000000 0.000000 0.030029 0.000000 -0.001737
# 5 0.002610 0.011970 -0.004586 0.000000 0.063518 0.000000
# 6 0.000000 0.000000 0.000000 -0.001737 0.000000 0.032152
#
#
# Mechanical properties :
#
#
# Convention : Reuss Voigt Hill
#
# Bulk Modulus (GPa) = 17.54167 32.94737 25.24452
# Shear Modulus (GPa) = 24.02840 32.59174 28.31007
#
# Velocity S-wave (km/s) = 3.13309 3.64892 3.40080
# Velocity P-wave (km/s) = 4.50051 5.58683 5.07284
#
# Compressibility (1/GPa) = 0.05700713
#
# Stress axis : x y z
#
# Youngs Moduli (GPa) = 35.06627 39.83635 152.05417
#
# Poissons Ratio (x) = -0.09360 -0.06752
# Poissons Ratio (y) = -0.08239 0.66730
# Poissons Ratio (z) = -0.01557 0.17482
#
# Static dielectric constant tensor:
#      x y z
#    x 1.994850 0.000000 -0.010750 
#    y 0.000000 2.024670 0.000000 
#    z -0.010750 0.000000 1.965500 
# 
# From -- ./inp_files/77529.got.cif
#   From: 2010.05.17/outbox.cif.g08.bks.cpg/sg14_39_cif.got.tgz:77529.got - 2010.06.03 17:49:19.
