data_PCOD9241387
_publ_section_title
;
Structure prediction by ZEFSAII (Michael W. Deem and Ramdas Pophale) SiO2 
 PCOD9241387
Probable space group: P 21/C
;
_chemical_formula_sum "Si O2"
_cell_formula_units_Z 32
_cell_length_a 10.684839
_cell_length_b 9.999296
_cell_length_c 19.354875
_cell_angle_alpha 90.000000
_cell_angle_beta 42.386119
_cell_angle_gamma 90.000000
_cell_volume 1394.014275
_symmetry_space_group_name_H-M "P 21/C"
_symmetry_group_IT_number 14
_symmetry_cell_setting 'monoclinic'
loop_
_space_group_symop_operation_xyz
x,y,z
-x,1/2+y,1/2-z
-x,-y,-z
x,1/2-y,1/2+z
loop_
_atom_site_type_symbol
_atom_site_label
_atom_site_fract_x
_atom_site_fract_y
_atom_site_fract_z
Si Si1 0.436970 0.347458 0.191055
Si Si2 0.944939 0.930845 0.695316
Si Si3 0.791081 0.224794 0.978458
Si Si4 0.304292 0.221991 0.376390
Si Si5 0.938661 0.194146 0.776429
Si Si6 0.948345 0.329253 0.555403
Si Si7 0.692243 0.119119 0.277913
Si Si8 0.248049 0.954978 0.346666
O O1 0.305223 0.262546 0.294654
O O2 0.362665 0.469993 0.175814
O O3 0.549291 0.419333 0.208497
O O4 0.584982 0.260165 0.088222
O O5 0.776423 0.991069 0.720309
O O6 0.100967 0.866683 0.580707
O O7 0.909101 0.802480 0.758895
O O8 0.011394 0.061539 0.710048
O O9 0.822535 0.154034 0.892419
O O10 0.889917 0.146347 0.000338
O O11 0.506942 0.194867 0.325773
O O12 0.202391 0.077835 0.415584
O O13 0.169085 0.321665 0.471638
O O14 0.802223 0.285304 0.785204
O O15 0.832023 0.411519 0.657570
O O16 0.866163 0.180302 0.601975
#
# Coordination Sequence:
#
# PCOD9241387 Si02
#       8
#     4   4   4   4   4   4   4   4
#     4  10  22  37  58  93 124 163 208 259 317 368
#     4  10  20  38  64  90 120 173 202 263 312 378
#     4   9  21  39  64  89 123 170 210 264 309 388
#     4  11  20  34  64  90 121 164 204 257 322 362
#     4  10  22  38  61  93 132 164 211 259 321 378
#     4  11  20  38  65  95 115 161 218 261 305 381
#     4  11  23  36  61  93 130 155 207 274 303 376
#     4  10  19  35  63  88 115 154 215 257 301 374
#
# _framework density 22.955290000000002
#
# number of rings (size 3 to 8) (size 9 to 14) (size 15 to 20)
#    0.750    1.000    5.000    0.375    3.500    3.000 
#    0.000    0.000    5.500    0.750    0.000    0.000 
#    0.000    0.000    0.000    0.000    0.000    0.000 
#
# Total GULP energy -178282.662703 kJ/mol
# GULP energy per Si atom -5571.333209 kJ/mol
# Density = 2.290304 g / cm^3
# Si number density = 22.955290 Si / 1000 Ang^3
#
#
#
# Elastic Constant Matrix: (Units=GPa)
#
#
# Indices 1 2 3 4 5 6 
#
# 1 57.0183 -10.2418 11.5373 0.0000 12.8526 0.0000
# 2 -10.2418 42.2911 -18.6803 0.0000 -8.0457 0.0000
# 3 11.5373 -18.6803 63.0803 0.0000 -13.6379 0.0000
# 4 0.0000 0.0000 0.0000 33.3418 0.0000 5.8502
# 5 12.8526 -8.0457 -13.6379 0.0000 26.8313 0.0000
# 6 0.0000 0.0000 0.0000 5.8502 0.0000 20.5306
#
#
#
# Elastic Compliance Matrix: (Units=1/GPa)
#
#
# Indices 1 2 3 4 5 6 
#
# 1 0.022214 -0.000681 -0.007425 0.000000 -0.014619 0.000000
# 2 -0.000681 0.032653 0.013461 0.000000 0.016960 0.000000
# 3 -0.007425 0.013461 0.025658 0.000000 0.020635 0.000000
# 4 0.000000 0.000000 0.000000 0.031571 0.000000 -0.008996
# 5 -0.014619 0.016960 0.020635 0.000000 0.059847 0.000000
# 6 0.000000 0.000000 0.000000 -0.008996 0.000000 0.051271
#
#
# Mechanical properties :
#
#
# Convention : Reuss Voigt Hill
#
# Bulk Modulus (GPa) = 10.96089 14.18002 12.57046
# Shear Modulus (GPa) = 20.58320 28.12571 24.35446
#
# Velocity S-wave (km/s) = 2.99769 3.50414 3.26076
# Velocity P-wave (km/s) = 4.09472 4.75001 4.43449
#
# Compressibility (1/GPa) = 0.09123348
#
# Stress axis : x y z
#
# Youngs Moduli (GPa) = 45.01739 30.62507 38.97357
#
# Poissons Ratio (x) = 0.02087 0.28939
# Poissons Ratio (y) = 0.03068 -0.52462
# Poissons Ratio (z) = 0.33427 -0.41224
#
# Static dielectric constant tensor:
#      x y z
#    x 1.927570 0.000000 0.005440 
#    y 0.000000 1.999560 0.000000 
#    z 0.005440 0.000000 1.877600 
# 
# From -- ./inp_files/67252.got.cif
#   From: 2010.05.17/outbox.cif.g08.bks.cpg/sg14_34_cif.got.tgz:67252.got - 2010.06.03 17:49:19.
