data_PCOD9241837
_publ_section_title
;
Structure prediction by ZEFSAII (Michael W. Deem and Ramdas Pophale) SiO2 
 PCOD9241837
Probable space group: P 21/C
;
_chemical_formula_sum "Si O2"
_cell_formula_units_Z 28
_cell_length_a 8.549720
_cell_length_b 11.376673
_cell_length_c 24.421300
_cell_angle_alpha 90.000000
_cell_angle_beta 145.299697
_cell_angle_gamma 90.000000
_cell_volume 1352.274398
_symmetry_space_group_name_H-M "P 21/C"
_symmetry_group_IT_number 14
_symmetry_cell_setting 'monoclinic'
loop_
_space_group_symop_operation_xyz
x,y,z
-x,1/2+y,1/2-z
-x,-y,-z
x,1/2-y,1/2+z
loop_
_atom_site_type_symbol
_atom_site_label
_atom_site_fract_x
_atom_site_fract_y
_atom_site_fract_z
Si Si1 0.467988 0.721192 0.114787
Si Si2 0.390453 0.016595 0.658340
Si Si3 0.965050 0.851376 0.011561
Si Si4 0.040436 0.750591 0.829014
Si Si5 0.580013 0.834926 0.439149
Si Si6 0.818137 0.065951 0.549918
Si Si7 0.143404 0.437575 0.630720
O O1 0.398560 0.612292 0.134480
O O2 0.789150 0.743630 0.214369
O O3 0.273686 0.826615 0.078776
O O4 0.371519 0.670732 0.028792
O O5 0.488371 0.104044 0.638671
O O6 0.082683 0.049231 0.586796
O O7 0.601152 0.006401 0.769137
O O8 0.854170 0.739498 0.011147
O O9 0.788412 0.864386 0.904723
O O10 0.952529 0.962342 0.048278
O O11 0.339503 0.753027 0.887986
O O12 0.050438 0.619751 0.857976
O O13 0.980080 0.849659 0.858531
O O14 0.651896 0.944242 0.499723
#
# Coordination Sequence:
#
# PCOD9241837 Si02
#       7
#     4   4   4   4   4   4   4
#     4  10  19  37  65  87 123 165 208 265 305 370
#     4  10  19  39  66  93 117 161 221 268 300 369
#     4  11  20  41  64  88 121 169 222 251 312 375
#     4  11  23  38  59  95 135 162 202 257 333 370
#     4  11  22  39  63  94 124 164 210 264 311 382
#     4  11  19  41  67  90 122 168 219 265 305 375
#     4  10  23  38  62  92 126 166 209 261 315 377
#
# _framework density 20.705855
#
# number of rings (size 3 to 8) (size 9 to 14) (size 15 to 20)
#    0.000    1.429    4.286    2.143    0.000    1.714 
#    2.571   12.857    0.000    0.000    0.000    0.000 
#    0.000    0.000    0.000    0.000    0.000    0.000 
#
# Total GULP energy -156098.437020 kJ/mol
# GULP energy per Si atom -5574.944179 kJ/mol
# Density = 2.065873 g / cm^3
# Si number density = 20.705855 Si / 1000 Ang^3
#
#
#
# Elastic Constant Matrix: (Units=GPa)
#
#
# Indices 1 2 3 4 5 6 
#
# 1 40.8455 11.8926 27.6814 0.0000 11.1197 0.0000
# 2 11.8926 85.7553 29.9000 0.0000 4.3542 0.0000
# 3 27.6814 29.9000 98.9679 0.0000 4.3311 0.0000
# 4 0.0000 0.0000 0.0000 30.3306 0.0000 4.0142
# 5 11.1197 4.3542 4.3311 0.0000 28.2019 0.0000
# 6 0.0000 0.0000 0.0000 4.0142 0.0000 26.0860
#
#
#
# Elastic Compliance Matrix: (Units=1/GPa)
#
#
# Indices 1 2 3 4 5 6 
#
# 1 0.033876 -0.001087 -0.008627 0.000000 -0.011864 0.000000
# 2 -0.001087 0.013125 -0.003616 0.000000 -0.001042 0.000000
# 3 -0.008627 -0.003616 0.013527 0.000000 0.001882 0.000000
# 4 0.000000 0.000000 0.000000 0.033655 0.000000 -0.005179
# 5 -0.011864 -0.001042 0.001882 0.000000 0.040008 0.000000
# 6 0.000000 0.000000 0.000000 -0.005179 0.000000 0.039132
#
#
# Mechanical properties :
#
#
# Convention : Reuss Voigt Hill
#
# Bulk Modulus (GPa) = 29.52666 40.50188 35.01427
# Shear Modulus (GPa) = 23.66592 27.33001 25.49797
#
# Velocity S-wave (km/s) = 3.38443 3.63701 3.51299
# Velocity P-wave (km/s) = 5.43724 6.10247 5.77943
#
# Compressibility (1/GPa) = 0.03386770
#
# Stress axis : x y z
#
# Youngs Moduli (GPa) = 29.51954 76.18764 73.92429
#
# Poissons Ratio (x) = 0.08285 0.63777
# Poissons Ratio (y) = 0.03210 0.26729
# Poissons Ratio (z) = 0.25468 0.27547
#
# Static dielectric constant tensor:
#      x y z
#    x 1.781460 0.000000 -0.026250 
#    y 0.000000 1.770050 0.000000 
#    z -0.026250 0.000000 1.775920 
# 
# From -- ./inp_files/76669.got.cif
#   From: 2010.05.17/outbox.cif.g08.bks.cpg/sg14_39_cif.got.tgz:76669.got - 2010.06.03 17:49:19.
