data_PCOD9241224
_publ_section_title
;
Structure prediction by ZEFSAII (Michael W. Deem and Ramdas Pophale) SiO2 
 PCOD9241224
Probable space group: P 21/C
;
_chemical_formula_sum "Si O2"
_cell_formula_units_Z 30
_cell_length_a 22.743268
_cell_length_b 8.885434
_cell_length_c 14.422368
_cell_angle_alpha 90.000000
_cell_angle_beta 28.443671
_cell_angle_gamma 90.000000
_cell_volume 1388.173314
_symmetry_space_group_name_H-M "P 21/C"
_symmetry_group_IT_number 14
_symmetry_cell_setting 'monoclinic'
loop_
_space_group_symop_operation_xyz
x,y,z
-x,1/2+y,1/2-z
-x,-y,-z
x,1/2-y,1/2+z
loop_
_atom_site_type_symbol
_atom_site_label
_atom_site_fract_x
_atom_site_fract_y
_atom_site_fract_z
Si Si1 0.897131 0.996652 0.508834
Si Si2 0.168573 0.041872 0.183012
Si Si3 0.500000 0.000000 0.000000
Si Si4 0.575247 0.402993 0.097636
Si Si5 0.652050 0.791422 0.520730
Si Si6 0.292466 0.246980 0.272958
Si Si7 0.643263 0.454953 0.708400
Si Si8 0.305231 0.785723 0.214274
O O1 0.828106 0.150105 0.576454
O O2 0.043391 0.015176 0.300181
O O3 0.863325 0.982183 0.665261
O O4 0.831945 0.854462 0.549646
O O5 0.237244 0.203616 0.082151
O O6 0.273492 0.931622 0.998041
O O7 0.406769 0.146222 0.150655
O O8 0.392915 0.929812 0.081811
O O9 0.476855 0.297300 0.285355
O O10 0.632547 0.536742 0.078402
O O11 0.489863 0.488689 0.139630
O O12 0.679559 0.314408 0.897470
O O13 0.685184 0.782525 0.366530
O O14 0.294635 0.407812 0.320918
O O15 0.642889 0.307389 0.770625
#
# Coordination Sequence:
#
# PCOD9241224 Si02
#       8
#     4   4   2   4   4   4   4   4
#     4   9  21  40  61  79 112 153 203 228 289 342
#     4   9  21  41  60  79 112 157 194 242 281 346
#     4  10  20  32  52  82 116 142 184 222 288 338
#     4  11  22  35  55  87 117 152 184 237 289 356
#     4  10  22  35  57  79 116 152 190 231 291 342
#     4  10  19  35  56  82 110 151 182 241 282 343
#     4  11  21  36  59  84 119 146 189 242 301 328
#     4  11  21  36  58  86 117 151 188 242 286 349
#
# _framework density 21.611135000000001
#
# number of rings (size 3 to 8) (size 9 to 14) (size 15 to 20)
#    0.000    1.867    2.667    1.200    7.467    1.067 
#    0.000    0.667    0.000    0.000    0.000    0.000 
#    0.000    0.000    0.000    0.000    0.000    0.000 
#
# Total GULP energy -167076.302220 kJ/mol
# GULP energy per Si atom -5569.210074 kJ/mol
# Density = 2.156195 g / cm^3
# Si number density = 21.611135 Si / 1000 Ang^3
#
#
#
# Elastic Constant Matrix: (Units=GPa)
#
#
# Indices 1 2 3 4 5 6 
#
# 1 44.4496 0.0248 1.2147 0.0000 -13.2466 0.0000
# 2 0.0248 66.8310 14.1422 0.0000 -3.7660 0.0000
# 3 1.2147 14.1422 50.1737 0.0000 -15.0808 0.0000
# 4 0.0000 0.0000 0.0000 15.8234 0.0000 1.2534
# 5 -13.2466 -3.7660 -15.0808 0.0000 33.4986 0.0000
# 6 0.0000 0.0000 0.0000 1.2534 0.0000 30.1624
#
#
#
# Elastic Compliance Matrix: (Units=1/GPa)
#
#
# Indices 1 2 3 4 5 6 
#
# 1 0.025846 0.000042 0.002817 0.000000 0.011493 0.000000
# 2 0.000042 0.015914 -0.004561 0.000000 -0.000248 0.000000
# 3 0.002817 -0.004561 0.024667 0.000000 0.011706 0.000000
# 4 0.000000 0.000000 0.000000 0.063406 0.000000 -0.002635
# 5 0.011493 -0.000248 0.011706 0.000000 0.039639 0.000000
# 6 0.000000 0.000000 0.000000 -0.002635 0.000000 0.033263
#
#
# Mechanical properties :
#
#
# Convention : Reuss Voigt Hill
#
# Bulk Modulus (GPa) = 15.86742 21.35749 18.61246
# Shear Modulus (GPa) = 22.01221 25.63507 23.82364
#
# Velocity S-wave (km/s) = 3.19495 3.44786 3.32381
# Velocity P-wave (km/s) = 4.57913 5.07488 4.83337
#
# Compressibility (1/GPa) = 0.06302223
#
# Stress axis : x y z
#
# Youngs Moduli (GPa) = 38.69139 62.83640 40.54052
#
# Poissons Ratio (x) = -0.00264 -0.11420
# Poissons Ratio (y) = -0.00162 0.18491
# Poissons Ratio (z) = -0.10899 0.28661
#
# Static dielectric constant tensor:
#      x y z
#    x 1.815130 0.000000 0.039710 
#    y 0.000000 1.865640 0.000000 
#    z 0.039710 0.000000 1.807400 
# 
# From -- ./inp_files/46594.got.cif
#   From: 2010.05.17/outbox.cif.g08.bks.cpg/sg14_24_cif.got.tgz:46594.got - 2010.06.03 17:49:19.
