data_PCOD9241343
_publ_section_title
;
Structure prediction by ZEFSAII (Michael W. Deem and Ramdas Pophale) SiO2 
 PCOD9241343
Probable space group: P 21/C
;
_chemical_formula_sum "Si O2"
_cell_formula_units_Z 32
_cell_length_a 27.247741
_cell_length_b 13.208786
_cell_length_c 13.891328
_cell_angle_alpha 90.000000
_cell_angle_beta 160.901713
_cell_angle_gamma 90.000000
_cell_volume 1635.824566
_symmetry_space_group_name_H-M "P 21/C"
_symmetry_group_IT_number 14
_symmetry_cell_setting 'monoclinic'
loop_
_space_group_symop_operation_xyz
x,y,z
-x,1/2+y,1/2-z
-x,-y,-z
x,1/2-y,1/2+z
loop_
_atom_site_type_symbol
_atom_site_label
_atom_site_fract_x
_atom_site_fract_y
_atom_site_fract_z
Si Si1 0.562206 0.578289 0.401719
Si Si2 0.557808 0.753287 0.042651
Si Si3 0.894818 0.813643 0.224594
Si Si4 0.403869 0.381972 0.064153
Si Si5 0.190425 0.208961 0.719174
Si Si6 0.631505 0.175293 0.632247
Si Si7 0.835328 0.005908 0.998404
Si Si8 0.930231 0.290970 0.598754
O O1 0.533937 0.638059 0.448744
O O2 0.516698 0.460984 0.321943
O O3 0.728778 0.611764 0.678523
O O4 0.463858 0.627254 0.131978
O O5 0.521898 0.673989 0.889863
O O6 0.462401 0.730400 0.960356
O O7 0.733511 0.732432 0.391585
O O8 0.910062 0.924210 0.205301
O O9 0.884329 0.817964 0.319079
O O10 0.026974 0.744175 0.427812
O O11 0.320479 0.294305 0.969894
O O12 0.267288 0.447235 0.767877
O O13 0.062290 0.250663 0.411173
O O14 0.720365 0.079330 0.843314
O O15 0.765519 0.238960 0.830991
O O16 0.933016 0.087953 0.121994
#
# Coordination Sequence:
#
# PCOD9241343 Si02
#       8
#     4   4   4   4   4   4   4   4
#     4  10  19  35  61  85 116 151 193 240 276 355
#     4  10  19  35  62  85 112 155 195 236 288 342
#     4  11  20  37  62  82 119 158 189 238 296 348
#     4   9  19  37  59  86 116 152 196 230 296 350
#     4  11  21  36  64  87 116 159 194 234 293 350
#     4   9  20  35  59  86 112 143 200 240 285 338
#     4   8  19  36  58  81 116 146 190 238 295 337
#     4  10  21  39  54  89 120 147 192 249 288 344
#
# _framework density 19.562000000000001
#
# number of rings (size 3 to 8) (size 9 to 14) (size 15 to 20)
#    0.750    1.500    5.000    0.000    1.750    3.000 
#    0.000    5.000    0.000    0.000    0.000    0.000 
#    0.000    0.000    0.000    0.000    0.000    0.000 
#
# Total GULP energy -178136.211679 kJ/mol
# GULP energy per Si atom -5566.756615 kJ/mol
# Density = 1.951748 g / cm^3
# Si number density = 19.562000 Si / 1000 Ang^3
#
#
#
# Elastic Constant Matrix: (Units=GPa)
#
#
# Indices 1 2 3 4 5 6 
#
# 1 66.9345 18.4770 9.6143 0.0000 29.0095 0.0000
# 2 18.4770 58.4308 4.7359 0.0000 15.6331 0.0000
# 3 9.6143 4.7359 37.8740 0.0000 20.8521 0.0000
# 4 0.0000 0.0000 0.0000 33.1151 0.0000 2.6213
# 5 29.0095 15.6331 20.8521 0.0000 31.0661 0.0000
# 6 0.0000 0.0000 0.0000 2.6213 0.0000 13.1289
#
#
#
# Elastic Compliance Matrix: (Units=1/GPa)
#
#
# Indices 1 2 3 4 5 6 
#
# 1 0.027988 -0.000855 0.011348 0.000000 -0.033321 0.000000
# 2 -0.000855 0.020361 0.004557 0.000000 -0.012506 0.000000
# 3 0.011348 0.004557 0.047663 0.000000 -0.044882 0.000000
# 4 0.000000 0.000000 0.000000 0.030683 0.000000 -0.006126
# 5 -0.033321 -0.012506 -0.044882 0.000000 0.099724 0.000000
# 6 0.000000 0.000000 0.000000 -0.006126 0.000000 0.077391
#
#
# Mechanical properties :
#
#
# Convention : Reuss Voigt Hill
#
# Bulk Modulus (GPa) = 7.92948 25.43262 16.68105
# Shear Modulus (GPa) = 15.83540 24.15616 19.99578
#
# Velocity S-wave (km/s) = 2.84825 3.51786 3.20062
# Velocity P-wave (km/s) = 3.85734 5.43412 4.71215
#
# Compressibility (1/GPa) = 0.12611164
#
# Stress axis : x y z
#
# Youngs Moduli (GPa) = 35.73021 49.11260 20.98043
#
# Poissons Ratio (x) = 0.04198 -0.23808
# Poissons Ratio (y) = 0.03054 -0.09560
# Poissons Ratio (z) = -0.40546 -0.22378
#
# Static dielectric constant tensor:
#      x y z
#    x 1.667540 0.000000 -0.010010 
#    y 0.000000 1.728280 0.000000 
#    z -0.010010 0.000000 1.731190 
# 
# From -- ./inp_files/52093.got.cif
#   From: 2010.05.17/outbox.cif.g08.bks.cpg/sg14_27_cif.got.tgz:52093.got - 2010.06.03 17:49:19.
