data_PCOD9241159
_publ_section_title
;
Structure prediction by ZEFSAII (Michael W. Deem and Ramdas Pophale) SiO2 
 PCOD9241159
Probable space group: P 21/C
;
_chemical_formula_sum "Si O2"
_cell_formula_units_Z 28
_cell_length_a 12.028572
_cell_length_b 18.739847
_cell_length_c 7.773249
_cell_angle_alpha 90.000000
_cell_angle_beta 38.798590
_cell_angle_gamma 90.000000
_cell_volume 1097.899107
_symmetry_space_group_name_H-M "P 21/C"
_symmetry_group_IT_number 14
_symmetry_cell_setting 'monoclinic'
loop_
_space_group_symop_operation_xyz
x,y,z
-x,1/2+y,1/2-z
-x,-y,-z
x,1/2-y,1/2+z
loop_
_atom_site_type_symbol
_atom_site_label
_atom_site_fract_x
_atom_site_fract_y
_atom_site_fract_z
Si Si1 0.420260 0.903911 0.132302
Si Si2 0.744721 0.185447 0.368062
Si Si3 0.829682 0.865865 0.663256
Si Si4 0.760068 0.725353 0.912548
Si Si5 0.621193 0.183343 0.137112
Si Si6 0.094694 0.003679 0.609919
Si Si7 0.103740 0.400115 0.434253
O O1 0.337986 0.844201 0.356587
O O2 0.283347 0.967693 0.335190
O O3 0.630038 0.898861 0.922301
O O4 0.403482 0.885394 0.950957
O O5 0.642993 0.173853 0.311933
O O6 0.777491 0.268803 0.366842
O O7 0.919665 0.140146 0.127067
O O8 0.849443 0.802095 0.776821
O O9 0.832122 0.818077 0.486687
O O10 0.953020 0.933314 0.467102
O O11 0.765952 0.667129 0.748440
O O12 0.550882 0.731885 0.195739
O O13 0.936917 0.947541 0.847009
O O14 0.135256 0.044125 0.742154
#
# Coordination Sequence:
#
# PCOD9241159 Si02
#       7
#     4   4   4   4   4   4   4
#     4  10  20  36  63  89 121 162 203 255 302 359
#     4  11  20  35  61  90 122 161 197 256 305 358
#     4  10  19  34  64  90 117 157 206 251 305 357
#     4  10  20  36  60  92 118 155 198 264 300 357
#     4  11  20  36  61  94 123 152 210 254 305 354
#     4   9  19  39  60  82 120 172 201 235 309 382
#     4   9  21  38  62  85 123 163 203 245 313 364
#
# _framework density 25.503254999999999
#
# number of rings (size 3 to 8) (size 9 to 14) (size 15 to 20)
#    0.000    2.000    2.857    1.286    0.000    2.286 
#    0.000    0.714   15.714   25.714    0.000    0.000 
#    0.000    0.000    0.000    0.000    0.000    0.000 
#
# Total GULP energy -156321.984519 kJ/mol
# GULP energy per Si atom -5582.928019 kJ/mol
# Density = 2.544521 g / cm^3
# Si number density = 25.503255 Si / 1000 Ang^3
#
#
#
# Elastic Constant Matrix: (Units=GPa)
#
#
# Indices 1 2 3 4 5 6 
#
# 1 53.5865 -14.7068 15.6139 0.0000 13.5998 0.0000
# 2 -14.7068 116.6327 30.8815 0.0000 -9.9689 0.0000
# 3 15.6139 30.8815 100.0884 0.0000 10.0499 0.0000
# 4 0.0000 0.0000 0.0000 41.0064 0.0000 1.1577
# 5 13.5998 -9.9689 10.0499 0.0000 44.0189 0.0000
# 6 0.0000 0.0000 0.0000 1.1577 0.0000 19.3076
#
#
#
# Elastic Compliance Matrix: (Units=1/GPa)
#
#
# Indices 1 2 3 4 5 6 
#
# 1 0.022054 0.003393 -0.003971 0.000000 -0.005139 0.000000
# 2 0.003393 0.010218 -0.003899 0.000000 0.002156 0.000000
# 3 -0.003971 -0.003899 0.012055 0.000000 -0.002408 0.000000
# 4 0.000000 0.000000 0.000000 0.024428 0.000000 -0.001465
# 5 -0.005139 0.002156 -0.002408 0.000000 0.025343 0.000000
# 6 0.000000 0.000000 0.000000 -0.001465 0.000000 0.051881
#
#
# Mechanical properties :
#
#
# Convention : Reuss Voigt Hill
#
# Bulk Modulus (GPa) = 28.26927 37.09833 32.68380
# Shear Modulus (GPa) = 29.98957 36.76783 33.37870
#
# Velocity S-wave (km/s) = 3.43288 3.80108 3.62166
# Velocity P-wave (km/s) = 5.17895 5.81742 5.50744
#
# Compressibility (1/GPa) = 0.03537410
#
# Stress axis : x y z
#
# Youngs Moduli (GPa) = 45.34326 97.86349 82.95027
#
# Poissons Ratio (x) = -0.33207 0.32943
# Poissons Ratio (y) = -0.15386 0.32339
# Poissons Ratio (z) = 0.18008 0.38153
#
# Static dielectric constant tensor:
#      x y z
#    x 1.978510 0.000000 0.006390 
#    y 0.000000 2.180140 0.000000 
#    z 0.006390 0.000000 2.169310 
# 
# From -- ./inp_files/16637.got.cif
#   From: 2010.05.17/outbox.cif.g08.bks.cpg/sg14_9_cif.got.tgz:16637.got - 2010.06.03 17:49:19.
