data_PCOD9241322
_publ_section_title
;
Structure prediction by ZEFSAII (Michael W. Deem and Ramdas Pophale) SiO2 
 PCOD9241322
Probable space group: P 21/C
;
_chemical_formula_sum "Si O2"
_cell_formula_units_Z 28
_cell_length_a 10.470969
_cell_length_b 11.064954
_cell_length_c 22.376809
_cell_angle_alpha 90.000000
_cell_angle_beta 145.837026
_cell_angle_gamma 90.000000
_cell_volume 1455.868433
_symmetry_space_group_name_H-M "P 21/C"
_symmetry_group_IT_number 14
_symmetry_cell_setting 'monoclinic'
loop_
_space_group_symop_operation_xyz
x,y,z
-x,1/2+y,1/2-z
-x,-y,-z
x,1/2-y,1/2+z
loop_
_atom_site_type_symbol
_atom_site_label
_atom_site_fract_x
_atom_site_fract_y
_atom_site_fract_z
Si Si1 0.316370 0.766226 0.921592
Si Si2 0.362957 0.148656 0.366422
Si Si3 0.139643 0.922913 0.630500
Si Si4 0.641880 0.975759 0.396521
Si Si5 0.234777 0.802740 0.252228
Si Si6 0.911218 0.503060 0.679251
Si Si7 0.148766 0.360200 0.224421
O O1 0.301269 0.741402 0.844943
O O2 0.266923 0.906976 0.915449
O O3 0.105518 0.693760 0.869293
O O4 0.543967 0.715034 0.039099
O O5 0.315632 0.246233 0.295844
O O6 0.126207 0.079100 0.284106
O O7 0.544029 0.051791 0.414007
O O8 0.182560 0.810940 0.690620
O O9 0.881762 0.916973 0.506606
O O10 0.306327 0.935468 0.638603
O O11 0.168719 0.048857 0.677679
O O12 0.446088 0.878478 0.307958
O O13 0.022567 0.895363 0.179727
O O14 0.815125 0.565546 0.700682
#
# Coordination Sequence:
#
# PCOD9241322 Si02
#       7
#     4   4   4   4   4   4   4
#     4  10  19  35  60  85 118 147 187 242 299 352
#     4  10  21  36  59  85 116 152 195 233 298 354
#     4  11  22  42  59  82 118 155 204 237 283 349
#     4  10  24  40  63  83 112 165 198 236 288 350
#     4  10  22  37  62  88 117 155 193 248 290 349
#     4   9  20  36  54  90 115 152 183 244 297 336
#     4  10  20  34  57  82 114 150 188 243 280 342
#
# _framework density 19.232507999999999
#
# number of rings (size 3 to 8) (size 9 to 14) (size 15 to 20)
#    0.000    2.000    2.857    0.000    4.000    2.286 
#    2.571    0.000    0.000    1.714    0.000    0.000 
#    0.000    0.000    0.000    0.000    0.000    0.000 
#
# Total GULP energy -156303.222624 kJ/mol
# GULP energy per Si atom -5582.257951 kJ/mol
# Density = 1.918873 g / cm^3
# Si number density = 19.232508 Si / 1000 Ang^3
#
#
#
# Elastic Constant Matrix: (Units=GPa)
#
#
# Indices 1 2 3 4 5 6 
#
# 1 49.1991 6.9160 13.3676 0.0000 5.5518 0.0000
# 2 6.9160 74.0733 22.8771 0.0000 -2.5280 0.0000
# 3 13.3676 22.8771 39.9915 0.0000 -8.1027 0.0000
# 4 0.0000 0.0000 0.0000 25.1435 0.0000 -4.3509
# 5 5.5518 -2.5280 -8.1027 0.0000 17.2055 0.0000
# 6 0.0000 0.0000 0.0000 -4.3509 0.0000 26.7864
#
#
#
# Elastic Compliance Matrix: (Units=1/GPa)
#
#
# Indices 1 2 3 4 5 6 
#
# 1 0.024820 0.000756 -0.011419 0.000000 -0.013275 0.000000
# 2 0.000756 0.016497 -0.010224 0.000000 -0.002635 0.000000
# 3 -0.011419 -0.010224 0.038817 0.000000 0.020463 0.000000
# 4 0.000000 0.000000 0.000000 0.040922 0.000000 0.006647
# 5 -0.013275 -0.002635 0.020463 0.000000 0.071654 0.000000
# 6 0.000000 0.000000 0.000000 0.006647 0.000000 0.038412
#
#
# Mechanical properties :
#
#
# Convention : Reuss Voigt Hill
#
# Bulk Modulus (GPa) = 26.06804 27.73169 26.89987
# Shear Modulus (GPa) = 17.50203 21.83396 19.66800
#
# Velocity S-wave (km/s) = 3.01993 3.37302 3.20135
# Velocity P-wave (km/s) = 5.07381 5.44244 5.26136
#
# Compressibility (1/GPa) = 0.03836115
#
# Stress axis : x y z
#
# Youngs Moduli (GPa) = 40.29044 60.61642 25.76216
#
# Poissons Ratio (x) = -0.04584 0.29417
# Poissons Ratio (y) = -0.03047 0.26339
# Poissons Ratio (z) = 0.46006 0.61973
#
# Static dielectric constant tensor:
#      x y z
#    x 1.637160 0.000000 0.009090 
#    y 0.000000 1.707720 0.000000 
#    z 0.009090 0.000000 1.687580 
# 
# From -- ./inp_files/73231.got.cif
#   From: 2010.05.17/outbox.cif.g08.bks.cpg/sg14_37_cif.got.tgz:73231.got - 2010.06.03 17:49:19.
