data_PCOD9241373
_publ_section_title
;
Structure prediction by ZEFSAII (Michael W. Deem and Ramdas Pophale) SiO2 
 PCOD9241373
Probable space group: P 21/C
;
_chemical_formula_sum "Si O2"
_cell_formula_units_Z 24
_cell_length_a 8.878621
_cell_length_b 8.355071
_cell_length_c 18.674039
_cell_angle_alpha 90.000000
_cell_angle_beta 119.711042
_cell_angle_gamma 90.000000
_cell_volume 1203.155485
_symmetry_space_group_name_H-M "P 21/C"
_symmetry_group_IT_number 14
_symmetry_cell_setting 'monoclinic'
loop_
_space_group_symop_operation_xyz
x,y,z
-x,1/2+y,1/2-z
-x,-y,-z
x,1/2-y,1/2+z
loop_
_atom_site_type_symbol
_atom_site_label
_atom_site_fract_x
_atom_site_fract_y
_atom_site_fract_z
Si Si1 0.786586 0.337222 0.988649
Si Si2 0.418043 0.163836 0.568021
Si Si3 0.121047 0.224050 0.830530
Si Si4 0.189716 0.603104 0.839031
Si Si5 0.525025 0.851137 0.058565
Si Si6 0.914227 0.661442 0.509643
O O1 0.826318 0.337299 0.082813
O O2 0.686070 0.499824 0.947045
O O3 0.649447 0.194220 0.942366
O O4 0.960504 0.303493 0.987031
O O5 0.615157 0.147938 0.641043
O O6 0.441458 0.202781 0.488682
O O7 0.283236 0.300543 0.561941
O O8 0.157705 0.412814 0.832586
O O9 0.302401 0.135448 0.853966
O O10 0.088060 0.169053 0.904700
O O11 0.958594 0.179640 0.744187
O O12 0.500000 0.000000 0.000000
O O13 0.000000 0.500000 0.500000
#
# Coordination Sequence:
#
# PCOD9241373 Si02
#       6
#     4   4   4   4   4   4
#     4  11  19  40  67  85 119 169 211 250 307 379
#     4  10  20  40  62  88 122 166 213 251 305 383
#     4  11  24  41  60  95 130 155 211 262 316 371
#     4  11  23  40  63  95 122 164 210 263 313 368
#     4  10  19  35  62  91 120 160 213 257 296 370
#     4  11  24  40  64  95 126 162 210 260 311 376
#
# _framework density 19.947548000000001
#
# number of rings (size 3 to 8) (size 9 to 14) (size 15 to 20)
#    0.000    1.333    5.000    3.500    7.000    0.000 
#    0.000    3.333    0.000    0.000    0.000    0.000 
#    0.000    0.000    0.000    0.000    0.000    0.000 
#
# Total GULP energy -133912.362443 kJ/mol
# GULP energy per Si atom -5579.681768 kJ/mol
# Density = 1.990215 g / cm^3
# Si number density = 19.947548 Si / 1000 Ang^3
#
#
#
# Elastic Constant Matrix: (Units=GPa)
#
#
# Indices 1 2 3 4 5 6 
#
# 1 83.8722 19.9813 47.6673 0.0000 34.2961 0.0000
# 2 19.9813 84.6905 35.9649 0.0000 18.3598 0.0000
# 3 47.6673 35.9649 138.6148 0.0000 50.1637 0.0000
# 4 0.0000 0.0000 0.0000 25.0756 0.0000 7.3246
# 5 34.2961 18.3598 50.1637 0.0000 35.6501 0.0000
# 6 0.0000 0.0000 0.0000 7.3246 0.0000 41.5601
#
#
#
# Elastic Compliance Matrix: (Units=1/GPa)
#
#
# Indices 1 2 3 4 5 6 
#
# 1 0.019687 -0.000643 0.000267 0.000000 -0.018984 0.000000
# 2 -0.000643 0.013585 -0.002029 0.000000 -0.003523 0.000000
# 3 0.000267 -0.002029 0.015004 0.000000 -0.020324 0.000000
# 4 0.000000 0.000000 0.000000 0.042044 0.000000 -0.007410
# 5 -0.018984 -0.003523 -0.020324 0.000000 0.076726 0.000000
# 6 0.000000 0.000000 0.000000 -0.007410 0.000000 0.025367
#
#
# Mechanical properties :
#
#
# Convention : Reuss Voigt Hill
#
# Bulk Modulus (GPa) = 23.00612 57.15604 40.08108
# Shear Modulus (GPa) = 23.61711 34.02810 28.82260
#
# Velocity S-wave (km/s) = 3.44461 4.13471 3.80533
# Velocity P-wave (km/s) = 5.23247 7.17703 6.28047
#
# Compressibility (1/GPa) = 0.04346669
#
# Stress axis : x y z
#
# Youngs Moduli (GPa) = 50.79503 73.61278 66.64856
#
# Poissons Ratio (x) = 0.04731 -0.01778
# Poissons Ratio (y) = 0.03265 0.13520
# Poissons Ratio (z) = -0.01355 0.14933
#
# Static dielectric constant tensor:
#      x y z
#    x 1.728850 0.000000 0.047630 
#    y 0.000000 1.789930 0.000000 
#    z 0.047630 0.000000 1.694090 
# 
# From -- ./inp_files/54519.got.cif
#   From: 2010.05.17/outbox.cif.g08.bks.cpg/sg14_28_cif.got.tgz:54519.got - 2010.06.03 17:49:19.
