data_PCOD9241771
_publ_section_title
;
Structure prediction by ZEFSAII (Michael W. Deem and Ramdas Pophale) SiO2 
 PCOD9241771
Probable space group: P 21/C
;
_chemical_formula_sum "Si O2"
_cell_formula_units_Z 28
_cell_length_a 6.843307
_cell_length_b 12.724697
_cell_length_c 13.664738
_cell_angle_alpha 90.000000
_cell_angle_beta 106.970108
_cell_angle_gamma 90.000000
_cell_volume 1138.099690
_symmetry_space_group_name_H-M "P 21/C"
_symmetry_group_IT_number 14
_symmetry_cell_setting 'monoclinic'
loop_
_space_group_symop_operation_xyz
x,y,z
-x,1/2+y,1/2-z
-x,-y,-z
x,1/2-y,1/2+z
loop_
_atom_site_type_symbol
_atom_site_label
_atom_site_fract_x
_atom_site_fract_y
_atom_site_fract_z
Si Si1 0.555542 0.780754 0.581250
Si Si2 0.624206 0.543779 0.613451
Si Si3 0.066374 0.576182 0.594119
Si Si4 0.262227 0.449724 0.768768
Si Si5 0.169613 0.860037 0.751321
Si Si6 0.201558 0.844991 0.381334
Si Si7 0.983500 0.693779 0.029973
O O1 0.541456 0.661853 0.617600
O O2 0.373849 0.810464 0.482858
O O3 0.758557 0.796799 0.543404
O O4 0.579871 0.862017 0.674354
O O5 0.500000 0.500000 0.500000
O O6 0.866595 0.575807 0.633976
O O7 0.660734 0.442201 0.687880
O O8 0.079970 0.690386 0.551194
O O9 0.000000 0.500000 0.500000
O O10 0.262508 0.522288 0.672451
O O11 0.245075 0.538855 0.849425
O O12 0.046845 0.388719 0.729006
O O13 0.204712 0.740446 0.793937
O O14 0.115631 0.870048 0.628975
O O15 0.999626 0.843587 0.420659
#
# Coordination Sequence:
#
# PCOD9241771 Si02
#       7
#     4   4   4   4   4   4   4
#     4  10  23  40  64  96 128 164 217 264 314 383
#     4  10  19  37  62  85 125 162 205 269 308 368
#     4  10  20  38  64  92 119 168 214 257 319 381
#     4  10  22  40  67  90 131 166 208 270 321 374
#     4  10  21  39  64  90 122 170 210 257 316 382
#     4  12  22  43  69  90 131 170 204 266 328 372
#     4  10  22  41  64  93 125 167 215 254 322 385
#
# _framework density 24.602412000000001
#
# number of rings (size 3 to 8) (size 9 to 14) (size 15 to 20)
#    0.000    1.714    2.857    2.143    2.000    2.286 
#    2.571    2.857    3.143    0.000    0.000    0.000 
#    0.000    0.000    0.000    0.000    0.000    0.000 
#
# Total GULP energy -156412.058643 kJ/mol
# GULP energy per Si atom -5586.144952 kJ/mol
# Density = 2.454642 g / cm^3
# Si number density = 24.602412 Si / 1000 Ang^3
#
#
#
# Elastic Constant Matrix: (Units=GPa)
#
#
# Indices 1 2 3 4 5 6 
#
# 1 73.2159 5.4780 -1.9957 0.0000 12.0803 0.0000
# 2 5.4780 163.8443 31.2131 0.0000 -2.6441 0.0000
# 3 -1.9957 31.2131 67.0574 0.0000 -10.1965 0.0000
# 4 0.0000 0.0000 0.0000 50.7406 0.0000 3.6747
# 5 12.0803 -2.6441 -10.1965 0.0000 37.8197 0.0000
# 6 0.0000 0.0000 0.0000 3.6747 0.0000 31.6825
#
#
#
# Elastic Compliance Matrix: (Units=1/GPa)
#
#
# Indices 1 2 3 4 5 6 
#
# 1 0.014469 -0.000555 -0.000020 0.000000 -0.004666 0.000000
# 2 -0.000555 0.006724 -0.003178 0.000000 -0.000209 0.000000
# 3 -0.000020 -0.003178 0.017058 0.000000 0.004383 0.000000
# 4 0.000000 0.000000 0.000000 0.019875 0.000000 -0.002305
# 5 -0.004666 -0.000209 0.004383 0.000000 0.029099 0.000000
# 6 0.000000 0.000000 0.000000 -0.002305 0.000000 0.031831
#
#
# Mechanical properties :
#
#
# Convention : Reuss Voigt Hill
#
# Bulk Modulus (GPa) = 32.52742 41.50093 37.01417
# Shear Modulus (GPa) = 36.54685 42.01004 39.27845
#
# Velocity S-wave (km/s) = 3.85840 4.13674 3.99999
# Velocity P-wave (km/s) = 5.75322 6.30255 6.03414
#
# Compressibility (1/GPa) = 0.03074330
#
# Stress axis : x y z
#
# Youngs Moduli (GPa) = 69.11287 148.72114 58.62406
#
# Poissons Ratio (x) = 0.08256 0.00120
# Poissons Ratio (y) = 0.03837 0.18632
# Poissons Ratio (z) = 0.00142 0.47266
#
# Static dielectric constant tensor:
#      x y z
#    x 2.010710 0.000000 -0.066550 
#    y 0.000000 1.933690 0.000000 
#    z -0.066550 0.000000 1.947010 
# 
# From -- ./inp_files/40191.got.cif
#   From: 2010.05.17/outbox.cif.g08.bks.cpg/sg14_21_cif.got.tgz:40191.got - 2010.06.03 17:49:19.
