data_PCOD9241734
_publ_section_title
;
Structure prediction by ZEFSAII (Michael W. Deem and Ramdas Pophale) SiO2 
 PCOD9241734
Probable space group: P 21/C
;
_chemical_formula_sum "Si O2"
_cell_formula_units_Z 32
_cell_length_a 18.036312
_cell_length_b 10.605196
_cell_length_c 26.343138
_cell_angle_alpha 90.000000
_cell_angle_beta 160.389786
_cell_angle_gamma 90.000000
_cell_volume 1691.146128
_symmetry_space_group_name_H-M "P 21/C"
_symmetry_group_IT_number 14
_symmetry_cell_setting 'monoclinic'
loop_
_space_group_symop_operation_xyz
x,y,z
-x,1/2+y,1/2-z
-x,-y,-z
x,1/2-y,1/2+z
loop_
_atom_site_type_symbol
_atom_site_label
_atom_site_fract_x
_atom_site_fract_y
_atom_site_fract_z
Si Si1 0.961319 0.270386 0.590320
Si Si2 0.893423 0.115932 0.154363
Si Si3 0.443185 0.312699 0.095999
Si Si4 0.212889 0.565756 0.612999
Si Si5 0.611047 0.426805 0.902456
Si Si6 0.547077 0.736461 0.613656
Si Si7 0.412597 0.635986 0.925120
Si Si8 0.045094 0.159631 0.826589
O O1 0.990786 0.344253 0.662499
O O2 0.854492 0.366766 0.481832
O O3 0.794720 0.157599 0.495341
O O4 0.191445 0.219293 0.716420
O O5 0.978413 0.222416 0.247956
O O6 0.953231 0.971463 0.203231
O O7 0.626487 0.130277 0.981140
O O8 0.668811 0.331429 0.273449
O O9 0.307429 0.436749 0.026489
O O10 0.498484 0.329002 0.072533
O O11 0.287442 0.192872 0.003726
O O12 0.404529 0.460023 0.732994
O O13 0.000000 0.500000 0.500000
O O14 0.516193 0.354106 0.890683
O O15 0.492524 0.769139 0.520304
O O16 0.146545 0.641933 0.755524
O O17 0.500000 0.500000 0.000000
#
# Coordination Sequence:
#
# PCOD9241734 Si02
#       8
#     4   4   4   4   4   4   4   4
#     4  11  20  39  65  87 126 170 203 266 319 363
#     4  10  25  37  63  95 128 165 212 251 315 383
#     4  10  22  40  57  93 121 158 211 268 304 373
#     4  10  21  39  62  89 122 163 222 262 299 382
#     4   9  21  37  61  92 120 157 216 259 310 371
#     4  10  19  37  60  94 124 161 205 256 315 381
#     4  11  19  36  64  90 121 167 207 245 313 377
#     4  11  23  41  63  93 131 166 207 266 308 386
#
# _framework density 18.922079
#
# number of rings (size 3 to 8) (size 9 to 14) (size 15 to 20)
#    0.750    1.000    2.500    2.250    5.250    1.000 
#    2.250    1.875    0.000    2.250    0.000    0.000 
#    0.000    0.000    0.000    0.000    0.000    0.000 
#
# Total GULP energy -178373.356180 kJ/mol
# GULP energy per Si atom -5574.167381 kJ/mol
# Density = 1.887901 g / cm^3
# Si number density = 18.922079 Si / 1000 Ang^3
#
#
#
# Elastic Constant Matrix: (Units=GPa)
#
#
# Indices 1 2 3 4 5 6 
#
# 1 52.2867 8.7637 14.7784 0.0000 11.4645 0.0000
# 2 8.7637 81.4574 22.5453 0.0000 16.1685 0.0000
# 3 14.7784 22.5453 87.9740 0.0000 18.4591 0.0000
# 4 0.0000 0.0000 0.0000 35.0354 0.0000 -1.9964
# 5 11.4645 16.1685 18.4591 0.0000 25.2214 0.0000
# 6 0.0000 0.0000 0.0000 -1.9964 0.0000 21.1060
#
#
#
# Elastic Compliance Matrix: (Units=1/GPa)
#
#
# Indices 1 2 3 4 5 6 
#
# 1 0.021494 -0.000153 -0.001822 0.000000 -0.008339 0.000000
# 2 -0.000153 0.014379 -0.002055 0.000000 -0.007644 0.000000
# 3 -0.001822 -0.002055 0.013881 0.000000 -0.008014 0.000000
# 4 0.000000 0.000000 0.000000 0.028697 0.000000 0.002715
# 5 -0.008339 -0.007644 -0.008014 0.000000 0.054205 0.000000
# 6 0.000000 0.000000 0.000000 0.002715 0.000000 0.047637
#
#
# Mechanical properties :
#
#
# Convention : Reuss Voigt Hill
#
# Bulk Modulus (GPa) = 23.98419 34.87697 29.43058
# Shear Modulus (GPa) = 24.72168 27.98128 26.35148
#
# Velocity S-wave (km/s) = 3.61847 3.84964 3.73585
# Velocity P-wave (km/s) = 5.49186 6.18317 5.84774
#
# Compressibility (1/GPa) = 0.04169413
#
# Stress axis : x y z
#
# Youngs Moduli (GPa) = 46.52393 69.54611 72.03977
#
# Poissons Ratio (x) = 0.01065 0.13124
# Poissons Ratio (y) = 0.00712 0.14806
# Poissons Ratio (z) = 0.08476 0.14294
#
# Static dielectric constant tensor:
#      x y z
#    x 1.628260 0.000000 -0.001020 
#    y 0.000000 1.662900 0.000000 
#    z -0.001020 0.000000 1.731290 
# 
# From -- ./inp_files/77822.got.cif
#   From: 2010.05.17/outbox.cif.g08.bks.cpg/sg14_39_cif.got.tgz:77822.got - 2010.06.03 17:49:19.
