data_PCOD9241331
_publ_section_title
;
Structure prediction by ZEFSAII (Michael W. Deem and Ramdas Pophale) SiO2 
 PCOD9241331
Probable space group: P 21/C
;
_chemical_formula_sum "Si O2"
_cell_formula_units_Z 32
_cell_length_a 18.432232
_cell_length_b 17.178062
_cell_length_c 18.911165
_cell_angle_alpha 90.000000
_cell_angle_beta 15.662661
_cell_angle_gamma 90.000000
_cell_volume 1616.555919
_symmetry_space_group_name_H-M "P 21/C"
_symmetry_group_IT_number 14
_symmetry_cell_setting 'monoclinic'
loop_
_space_group_symop_operation_xyz
x,y,z
-x,1/2+y,1/2-z
-x,-y,-z
x,1/2-y,1/2+z
loop_
_atom_site_type_symbol
_atom_site_label
_atom_site_fract_x
_atom_site_fract_y
_atom_site_fract_z
Si Si1 0.915881 0.590128 0.247968
Si Si2 0.405651 0.378403 0.057897
Si Si3 0.663896 0.022299 0.745548
Si Si4 0.915877 0.090124 0.247968
Si Si5 0.151822 0.270557 0.784805
Si Si6 0.151853 0.770557 0.784775
Si Si7 0.405671 0.878404 0.057875
Si Si8 0.336098 0.022292 0.754454
O O1 0.000009 0.592523 0.249993
O O2 0.604954 0.564516 0.531980
O O3 0.978370 0.672841 0.150742
O O4 0.096746 0.529361 0.034207
O O5 0.230684 0.314353 0.181613
O O6 0.259342 0.432808 0.253347
O O7 0.600875 0.323797 0.921052
O O8 0.575573 0.435863 0.849807
O O9 0.575559 0.935870 0.849815
O O10 0.740641 0.067198 0.746667
O O11 0.978358 0.172837 0.150749
O O12 0.604957 0.064506 0.531970
O O13 0.096755 0.029357 0.034199
O O14 0.399072 0.323801 0.579007
O O15 0.999971 0.249998 0.000025
O O16 0.230698 0.685647 0.681599
#
# Coordination Sequence:
#
# PCOD9241331 Si02
#       8
#     4   4   4   4   4   4   4   4
#     4  11  23  39  59  82 121 163 198 239 303 364
#     4   9  20  34  59  91 113 145 198 254 294 339
#     4  10  21  37  61  86 114 153 198 246 293 353
#     4  11  23  39  59  82 121 163 198 239 303 364
#     4  10  19  35  60  89 117 150 198 249 298 352
#     4  10  19  35  60  89 117 150 198 249 298 352
#     4   9  20  34  59  91 113 145 198 254 294 339
#     4  10  21  37  61  86 114 153 198 246 293 353
#
# _framework density 19.795171
#
# number of rings (size 3 to 8) (size 9 to 14) (size 15 to 20)
#    0.000    2.000    2.500    0.750    3.500    3.000 
#    0.000    1.250    5.500    0.000    0.000    0.000 
#    0.000    0.000    0.000    0.000    0.000    0.000 
#
# Total GULP energy -178477.842898 kJ/mol
# GULP energy per Si atom -5577.432591 kJ/mol
# Density = 1.975012 g / cm^3
# Si number density = 19.795171 Si / 1000 Ang^3
#
#
#
# Elastic Constant Matrix: (Units=GPa)
#
#
# Indices 1 2 3 4 5 6 
#
# 1 87.7226 30.8063 11.0273 0.0000 10.8305 0.0000
# 2 30.8063 123.6267 -4.6280 0.0000 8.6093 0.0000
# 3 11.0273 -4.6280 47.0737 0.0000 7.0793 0.0000
# 4 0.0000 0.0000 0.0000 24.1392 0.0000 1.9885
# 5 10.8305 8.6093 7.0793 0.0000 24.6142 0.0000
# 6 0.0000 0.0000 0.0000 1.9885 0.0000 19.1363
#
#
#
# Elastic Compliance Matrix: (Units=1/GPa)
#
#
# Indices 1 2 3 4 5 6 
#
# 1 0.013355 -0.003159 -0.002844 0.000000 -0.003953 0.000000
# 2 -0.003159 0.009116 0.001993 0.000000 -0.002372 0.000000
# 3 -0.002844 0.001993 0.023018 0.000000 -0.006066 0.000000
# 4 0.000000 0.000000 0.000000 0.041784 0.000000 -0.004342
# 5 -0.003953 -0.002372 -0.006066 0.000000 0.044940 0.000000
# 6 0.000000 0.000000 0.000000 -0.004342 0.000000 0.052708
#
#
# Mechanical properties :
#
#
# Convention : Reuss Voigt Hill
#
# Bulk Modulus (GPa) = 26.69018 36.98159 31.83588
# Shear Modulus (GPa) = 24.33912 28.32577 26.33244
#
# Velocity S-wave (km/s) = 3.51030 3.78688 3.65121
# Velocity P-wave (km/s) = 5.47193 6.15169 5.82174
#
# Compressibility (1/GPa) = 0.03746696
#
# Stress axis : x y z
#
# Youngs Moduli (GPa) = 74.88071 109.69948 43.44479
#
# Poissons Ratio (x) = 0.34654 0.12358
# Poissons Ratio (y) = 0.23655 -0.08658
# Poissons Ratio (z) = 0.21300 -0.21862
#
# Static dielectric constant tensor:
#      x y z
#    x 1.700040 0.000000 -0.033620 
#    y 0.000000 1.759540 0.000000 
#    z -0.033620 0.000000 1.766060 
# 
# From -- ./inp_files/60782.got.cif
#   From: 2010.05.17/outbox.cif.g08.bks.cpg/sg14_31_cif.got.tgz:60782.got - 2010.06.03 17:49:19.
