data_PCOD9241518
_publ_section_title
;
Structure prediction by ZEFSAII (Michael W. Deem and Ramdas Pophale) SiO2 
 PCOD9241518
Probable space group: P 21/C
;
_chemical_formula_sum "Si O2"
_cell_formula_units_Z 32
_cell_length_a 9.092849
_cell_length_b 23.082963
_cell_length_c 16.197917
_cell_angle_alpha 90.000000
_cell_angle_beta 30.740733
_cell_angle_gamma 90.000000
_cell_volume 1737.810972
_symmetry_space_group_name_H-M "P 21/C"
_symmetry_group_IT_number 14
_symmetry_cell_setting 'monoclinic'
loop_
_space_group_symop_operation_xyz
x,y,z
-x,1/2+y,1/2-z
-x,-y,-z
x,1/2-y,1/2+z
loop_
_atom_site_type_symbol
_atom_site_label
_atom_site_fract_x
_atom_site_fract_y
_atom_site_fract_z
Si Si1 0.910344 0.541515 0.967382
Si Si2 0.390618 0.759436 0.252510
Si Si3 0.161277 0.428620 0.487154
Si Si4 0.949108 0.681368 0.555004
Si Si5 0.845489 0.670278 0.957354
Si Si6 0.082004 0.124403 0.757440
Si Si7 0.388063 0.556650 0.599734
Si Si8 0.673437 0.519836 0.761888
O O1 0.605806 0.517018 0.084105
O O2 0.872581 0.611049 0.998643
O O3 0.000000 0.500000 0.000000
O O4 0.145290 0.537303 0.782117
O O5 0.633285 0.799278 0.176980
O O6 0.191349 0.727525 0.415801
O O7 0.151615 0.795822 0.316925
O O8 0.583457 0.711637 0.111358
O O9 0.987854 0.376163 0.529606
O O10 0.365794 0.413079 0.464444
O O11 0.347879 0.452655 0.319965
O O12 0.949400 0.478335 0.621359
O O13 0.937529 0.667701 0.656807
O O14 0.804542 0.650536 0.882562
O O15 0.268303 0.070478 0.701214
O O16 0.766441 0.099348 0.889018
O O17 0.500000 0.500000 0.500000
#
# Coordination Sequence:
#
# PCOD9241518 Si02
#       8
#     4   4   4   4   4   4   4   4
#     4  11  22  37  62  90 125 158 197 244 304 367
#     4  10  22  42  63  82 113 159 213 241 303 352
#     4  10  19  36  60  84 119 162 196 231 297 363
#     4  10  21  38  62  83 110 157 203 251 284 360
#     4  10  23  40  62  89 118 157 198 258 298 351
#     4  10  22  37  61  88 124 149 197 248 303 345
#     4  11  21  36  53  86 124 159 187 234 296 357
#     4  10  20  35  59  88 121 160 193 233 292 373
#
# _framework density 18.413971
#
# number of rings (size 3 to 8) (size 9 to 14) (size 15 to 20)
#    0.000    1.750    2.500    2.250    1.750    4.000 
#    2.250    0.000    0.000    0.000    0.000    0.000 
#    0.000    0.000    0.000    0.000    0.000    0.000 
#
# Total GULP energy -178491.634410 kJ/mol
# GULP energy per Si atom -5577.863575 kJ/mol
# Density = 1.837206 g / cm^3
# Si number density = 18.413971 Si / 1000 Ang^3
#
#
#
# Elastic Constant Matrix: (Units=GPa)
#
#
# Indices 1 2 3 4 5 6 
#
# 1 99.2229 39.6777 38.3658 0.0000 3.6888 0.0000
# 2 39.6777 90.0662 35.1825 0.0000 7.1085 0.0000
# 3 38.3658 35.1825 64.0711 0.0000 -4.3875 0.0000
# 4 0.0000 0.0000 0.0000 35.8562 0.0000 4.0767
# 5 3.6888 7.1085 -4.3875 0.0000 21.2840 0.0000
# 6 0.0000 0.0000 0.0000 4.0767 0.0000 23.4290
#
#
#
# Elastic Compliance Matrix: (Units=1/GPa)
#
#
# Indices 1 2 3 4 5 6 
#
# 1 0.014161 -0.003357 -0.006824 0.000000 -0.002740 0.000000
# 2 -0.003357 0.015849 -0.007116 0.000000 -0.006179 0.000000
# 3 -0.006824 -0.007116 0.024187 0.000000 0.008545 0.000000
# 4 0.000000 0.000000 0.000000 0.028452 0.000000 -0.004951
# 5 -0.002740 -0.006179 0.008545 0.000000 0.051284 0.000000
# 6 0.000000 0.000000 0.000000 -0.004951 0.000000 0.043544
#
#
# Mechanical properties :
#
#
# Convention : Reuss Voigt Hill
#
# Bulk Modulus (GPa) = 51.01229 53.31250 52.16239
# Shear Modulus (GPa) = 22.87238 25.45611 24.16424
#
# Velocity S-wave (km/s) = 3.52820 3.72214 3.62647
# Velocity P-wave (km/s) = 6.66039 6.89112 6.77673
#
# Compressibility (1/GPa) = 0.01960312
#
# Stress axis : x y z
#
# Youngs Moduli (GPa) = 70.61617 63.09524 41.34493
#
# Poissons Ratio (x) = 0.21178 0.28214
# Poissons Ratio (y) = 0.23703 0.29422
# Poissons Ratio (z) = 0.48190 0.44900
#
# Static dielectric constant tensor:
#      x y z
#    x 1.645630 0.000000 -0.017100 
#    y 0.000000 1.681580 0.000000 
#    z -0.017100 0.000000 1.613070 
# 
# From -- ./inp_files/42196.got.cif
#   From: 2010.05.17/outbox.cif.g08.bks.cpg/sg14_22_cif.got.tgz:42196.got - 2010.06.03 17:49:19.
