data_PCOD9241093
_publ_section_title
;
Structure prediction by ZEFSAII (Michael W. Deem and Ramdas Pophale) SiO2 
 PCOD9241093
Probable space group: P 21/C
;
_chemical_formula_sum "Si O2"
_cell_formula_units_Z 24
_cell_length_a 30.940323
_cell_length_b 5.296594
_cell_length_c 22.624016
_cell_angle_alpha 90.000000
_cell_angle_beta 160.956613
_cell_angle_gamma 90.000000
_cell_volume 1209.726161
_symmetry_space_group_name_H-M "P 21/C"
_symmetry_group_IT_number 14
_symmetry_cell_setting 'monoclinic'
loop_
_space_group_symop_operation_xyz
x,y,z
-x,1/2+y,1/2-z
-x,-y,-z
x,1/2-y,1/2+z
loop_
_atom_site_type_symbol
_atom_site_label
_atom_site_fract_x
_atom_site_fract_y
_atom_site_fract_z
Si Si1 0.510394 0.420095 0.611756
Si Si2 0.755088 0.855114 0.737145
Si Si3 0.430499 0.113227 0.683842
Si Si4 0.987463 0.982560 0.554346
Si Si5 0.858822 0.977349 0.742304
Si Si6 0.379169 0.804430 0.350691
O O1 0.393402 0.220203 0.475619
O O2 0.555019 0.561890 0.727755
O O3 0.434231 0.601814 0.468003
O O4 0.630251 0.307780 0.727395
O O5 0.829776 0.962612 0.775900
O O6 0.738322 0.049795 0.769001
O O7 0.838266 0.617510 0.869412
O O8 0.517095 0.890968 0.765071
O O9 0.280558 0.074857 0.468917
O O10 0.081916 0.750748 0.695683
O O11 0.040725 0.251344 0.644745
O O12 0.000000 0.000000 0.500000
O O13 0.500000 0.000000 0.500000
#
# Coordination Sequence:
#
# PCOD9241093 Si02
#       6
#     4   4   4   4   4   4
#     4  10  21  36  58  90 119 153 201 250 304 357
#     4  10  19  34  58  83 120 153 200 249 295 351
#     4  12  24  38  61  89 127 162 189 243 315 384
#     4  10  22  35  56  86 121 157 196 248 290 350
#     4  11  22  37  54  92 124 155 195 238 306 363
#     4   9  20  36  56  89 112 153 204 254 299 341
#
# _framework density 19.839200000000002
#
# number of rings (size 3 to 8) (size 9 to 14) (size 15 to 20)
#    0.000    1.667    1.667    4.000   11.667    0.000 
#    0.000    0.000    0.000    0.000   13.000    0.000 
#    0.000    0.000    0.000    0.000    0.000    0.000 
#
# Total GULP energy -133924.140424 kJ/mol
# GULP energy per Si atom -5580.172518 kJ/mol
# Density = 1.979405 g / cm^3
# Si number density = 19.839200 Si / 1000 Ang^3
#
#
#
# Elastic Constant Matrix: (Units=GPa)
#
#
# Indices 1 2 3 4 5 6 
#
# 1 92.9497 17.5312 12.5336 0.0000 2.8774 0.0000
# 2 17.5312 72.2553 2.8061 0.0000 16.3503 0.0000
# 3 12.5336 2.8061 82.3974 0.0000 13.5612 0.0000
# 4 0.0000 0.0000 0.0000 35.2557 0.0000 14.6404
# 5 2.8774 16.3503 13.5612 0.0000 19.9008 0.0000
# 6 0.0000 0.0000 0.0000 14.6404 0.0000 33.9491
#
#
#
# Elastic Compliance Matrix: (Units=1/GPa)
#
#
# Indices 1 2 3 4 5 6 
#
# 1 0.011578 -0.003275 -0.002046 0.000000 0.002411 0.000000
# 2 -0.003275 0.018206 0.002548 0.000000 -0.016221 0.000000
# 3 -0.002046 0.002548 0.014255 0.000000 -0.011512 0.000000
# 4 0.000000 0.000000 0.000000 0.034552 0.000000 -0.014900
# 5 0.002411 -0.016221 -0.011512 0.000000 0.071072 0.000000
# 6 0.000000 0.000000 0.000000 -0.014900 0.000000 0.035882
#
#
# Mechanical properties :
#
#
# Convention : Reuss Voigt Hill
#
# Bulk Modulus (GPa) = 25.97996 34.81605 30.39800
# Shear Modulus (GPa) = 24.51916 32.13655 28.32786
#
# Velocity S-wave (km/s) = 3.51934 4.02910 3.78282
# Velocity P-wave (km/s) = 5.44408 6.26355 5.86814
#
# Compressibility (1/GPa) = 0.03849121
#
# Stress axis : x y z
#
# Youngs Moduli (GPa) = 86.37404 54.92691 70.14872
#
# Poissons Ratio (x) = 0.17990 0.14355
# Poissons Ratio (y) = 0.28290 -0.17873
# Poissons Ratio (z) = 0.17676 -0.13994
#
# Static dielectric constant tensor:
#      x y z
#    x 1.730370 0.000000 0.049830 
#    y 0.000000 1.790210 0.000000 
#    z 0.049830 0.000000 1.707250 
# 
# From -- ./inp_files/66352.got.cif
#   From: 2010.05.17/outbox.cif.g08.bks.cpg/sg14_34_cif.got.tgz:66352.got - 2010.06.03 17:49:19.
