data_PCOD9241000
_publ_section_title
;
Structure prediction by ZEFSAII (Michael W. Deem and Ramdas Pophale) SiO2 
 PCOD9241000
Probable space group: P 21/C
;
_chemical_formula_sum "Si O2"
_cell_formula_units_Z 20
_cell_length_a 10.890127
_cell_length_b 18.533336
_cell_length_c 5.388378
_cell_angle_alpha 90.000000
_cell_angle_beta 110.371360
_cell_angle_gamma 90.000000
_cell_volume 1019.519513
_symmetry_space_group_name_H-M "P 21/C"
_symmetry_group_IT_number 14
_symmetry_cell_setting 'monoclinic'
loop_
_space_group_symop_operation_xyz
x,y,z
-x,1/2+y,1/2-z
-x,-y,-z
x,1/2-y,1/2+z
loop_
_atom_site_type_symbol
_atom_site_label
_atom_site_fract_x
_atom_site_fract_y
_atom_site_fract_z
Si Si1 0.616260 0.457878 0.941873
Si Si2 0.443775 0.709719 0.149073
Si Si3 0.751515 0.926432 0.249988
Si Si4 0.267031 0.232105 0.663860
Si Si5 0.140767 0.473215 0.681130
O O1 0.585186 0.375167 0.867458
O O2 0.748632 0.465313 0.200038
O O3 0.500000 0.500000 0.000000
O O4 0.654198 0.506692 0.729018
O O5 0.396650 0.748845 0.863308
O O6 0.601684 0.720065 0.252345
O O7 0.688766 0.850494 0.278589
O O8 0.859677 0.937165 0.545476
O O9 0.804734 0.925723 0.009155
O O10 0.191985 0.245617 0.357687
O O11 0.000000 0.500000 0.500000
#
# Coordination Sequence:
#
# PCOD9241000 Si02
#       5
#     4   4   4   4   4
#     4  10  23  37  63  97 120 158 207 253 302 366
#     4  10  22  34  54  83 130 158 187 240 317 359
#     4  10  22  37  66  88 123 159 216 246 305 359
#     4  10  19  34  54  85 126 157 191 246 309 354
#     4  10  23  41  64  90 121 160 208 262 305 353
#
# _framework density 19.617083999999998
#
# number of rings (size 3 to 8) (size 9 to 14) (size 15 to 20)
#    1.200    0.800    0.000    4.200    8.400    0.800 
#    0.000    0.000    0.000    7.200    0.000    0.000 
#    0.000    0.000    0.000    0.000    0.000    0.000 
#
# Total GULP energy -111355.955908 kJ/mol
# GULP energy per Si atom -5567.797795 kJ/mol
# Density = 1.957243 g / cm^3
# Si number density = 19.617084 Si / 1000 Ang^3
#
#
#
# Elastic Constant Matrix: (Units=GPa)
#
#
# Indices 1 2 3 4 5 6 
#
# 1 39.1759 14.4593 10.1336 0.0000 14.4621 0.0000
# 2 14.4593 138.0196 26.8336 0.0000 0.0104 0.0000
# 3 10.1336 26.8336 114.5171 0.0000 -19.6721 0.0000
# 4 0.0000 0.0000 0.0000 28.1690 0.0000 -6.3705
# 5 14.4621 0.0104 -19.6721 0.0000 40.9353 0.0000
# 6 0.0000 0.0000 0.0000 -6.3705 0.0000 5.3797
#
#
#
# Elastic Compliance Matrix: (Units=1/GPa)
#
#
# Indices 1 2 3 4 5 6 
#
# 1 0.032774 -0.002522 -0.004685 0.000000 -0.013830 0.000000
# 2 -0.002522 0.007818 -0.001587 0.000000 0.000126 0.000000
# 3 -0.004685 -0.001587 0.010685 0.000000 0.006791 0.000000
# 4 0.000000 0.000000 0.000000 0.048485 0.000000 0.057415
# 5 -0.013830 0.000126 0.006791 0.000000 0.032578 0.000000
# 6 0.000000 0.000000 0.000000 0.057415 0.000000 0.253874
#
#
# Mechanical properties :
#
#
# Convention : Reuss Voigt Hill
#
# Bulk Modulus (GPa) = 29.68260 43.84062 36.76161
# Shear Modulus (GPa) = 12.04730 30.91586 21.48158
#
# Velocity S-wave (km/s) = 2.48084 3.97415 3.31274
# Velocity P-wave (km/s) = 4.83424 6.59206 5.78036
#
# Compressibility (1/GPa) = 0.03368977
#
# Stress axis : x y z
#
# Youngs Moduli (GPa) = 30.51224 127.90879 93.58660
#
# Poissons Ratio (x) = 0.32253 0.43845
# Poissons Ratio (y) = 0.07694 0.14853
# Poissons Ratio (z) = 0.14295 0.20301
#
# Static dielectric constant tensor:
#      x y z
#    x 1.670180 0.000000 -0.046760 
#    y 0.000000 1.701510 0.000000 
#    z -0.046760 0.000000 1.826750 
# 
# From -- ./inp_files/1430.got.cif
#   From: 2010.05.17/outbox.cif.g08.bks.cpg/sg14_1_cif.got.tgz:1430.got - 2010.06.03 17:49:19.
