data_PCOD9241445
_publ_section_title
;
Structure prediction by ZEFSAII (Michael W. Deem and Ramdas Pophale) SiO2 
 PCOD9241445
Probable space group: P 21/C
;
_chemical_formula_sum "Si O2"
_cell_formula_units_Z 28
_cell_length_a 7.243323
_cell_length_b 14.940271
_cell_length_c 14.107933
_cell_angle_alpha 90.000000
_cell_angle_beta 132.949918
_cell_angle_gamma 90.000000
_cell_volume 1117.482849
_symmetry_space_group_name_H-M "P 21/C"
_symmetry_group_IT_number 14
_symmetry_cell_setting 'monoclinic'
loop_
_space_group_symop_operation_xyz
x,y,z
-x,1/2+y,1/2-z
-x,-y,-z
x,1/2-y,1/2+z
loop_
_atom_site_type_symbol
_atom_site_label
_atom_site_fract_x
_atom_site_fract_y
_atom_site_fract_z
Si Si1 0.875698 0.281772 0.301198
Si Si2 0.909182 0.976840 0.325805
Si Si3 0.514246 0.124349 0.191904
Si Si4 0.224590 0.367701 0.876424
Si Si5 0.199155 0.437692 0.430934
Si Si6 0.214916 0.815713 0.454235
Si Si7 0.961642 0.373831 0.585987
O O1 0.651881 0.218179 0.257302
O O2 0.817603 0.303648 0.170787
O O3 0.126457 0.219573 0.397870
O O4 0.953978 0.377145 0.371237
O O5 0.816242 0.948135 0.187671
O O6 0.999479 0.886751 0.408848
O O7 0.693499 0.043193 0.288068
O O8 0.159607 0.039634 0.405396
O O9 0.239987 0.121779 0.140152
O O10 0.449461 0.109887 0.057531
O O11 0.028996 0.370224 0.721233
O O12 0.504771 0.353868 0.937193
O O13 0.183503 0.533502 0.475733
O O14 0.174475 0.718794 0.485854
#
# Coordination Sequence:
#
# PCOD9241445 Si02
#       7
#     4   4   4   4   4   4   4
#     4   9  20  34  56  81 100 136 186 223 265 311
#     4   9  20  35  58  82 101 139 187 221 263 311
#     4  11  21  36  54  80 112 139 175 223 266 319
#     4   9  18  36  54  77 109 138 178 228 262 308
#     4  10  20  37  55  77 107 141 177 222 266 312
#     4  10  19  36  57  79 106 143 181 221 264 312
#     4  10  23  34  51  82 112 144 178 210 268 329
#
# _framework density 25.056314
#
# number of rings (size 3 to 8) (size 9 to 14) (size 15 to 20)
#    0.000    2.286    0.000    3.000    0.000    5.714 
#    0.000    0.714    0.000    0.000    0.000    0.000 
#    0.000    0.000    0.000    0.000    0.000    0.000 
#
# Total GULP energy -156545.490916 kJ/mol
# GULP energy per Si atom -5590.910390 kJ/mol
# Density = 2.499928 g / cm^3
# Si number density = 25.056314 Si / 1000 Ang^3
#
#
#
# Elastic Constant Matrix: (Units=GPa)
#
#
# Indices 1 2 3 4 5 6 
#
# 1 44.7554 21.9983 18.8050 0.0000 14.3949 0.0000
# 2 21.9983 141.7128 62.8102 0.0000 2.8561 0.0000
# 3 18.8050 62.8102 104.8219 0.0000 17.2520 0.0000
# 4 0.0000 0.0000 0.0000 39.1260 0.0000 7.1934
# 5 14.3949 2.8561 17.2520 0.0000 35.6695 0.0000
# 6 0.0000 0.0000 0.0000 7.1934 0.0000 17.4476
#
#
#
# Elastic Compliance Matrix: (Units=1/GPa)
#
#
# Indices 1 2 3 4 5 6 
#
# 1 0.027962 -0.003634 -0.001118 0.000000 -0.010452 0.000000
# 2 -0.003634 0.010241 -0.006074 0.000000 0.003585 0.000000
# 3 -0.001118 -0.006074 0.014370 0.000000 -0.006012 0.000000
# 4 0.000000 0.000000 0.000000 0.027655 0.000000 -0.011402
# 5 -0.010452 0.003585 -0.006012 0.000000 0.034874 0.000000
# 6 0.000000 0.000000 0.000000 -0.011402 0.000000 0.062015
#
#
# Mechanical properties :
#
#
# Convention : Reuss Voigt Hill
#
# Bulk Modulus (GPa) = 32.34297 55.39078 43.86688
# Shear Modulus (GPa) = 23.91471 30.96040 27.43755
#
# Velocity S-wave (km/s) = 3.09275 3.51897 3.31272
# Velocity P-wave (km/s) = 5.06849 6.21815 5.67252
#
# Compressibility (1/GPa) = 0.03091862
#
# Stress axis : x y z
#
# Youngs Moduli (GPa) = 35.76319 97.64979 69.58958
#
# Poissons Ratio (x) = 0.35488 0.07783
# Poissons Ratio (y) = 0.12997 0.42271
# Poissons Ratio (z) = 0.04000 0.59315
#
# Static dielectric constant tensor:
#      x y z
#    x 2.067300 0.000000 -0.085670 
#    y 0.000000 2.040680 0.000000 
#    z -0.085670 0.000000 1.961440 
# 
# From -- ./inp_files/55959.got.cif
#   From: 2010.05.17/outbox.cif.g08.bks.cpg/sg14_28_cif.got.tgz:55959.got - 2010.06.03 17:49:19.
