data_PCOD9241526
_publ_section_title
;
Structure prediction by ZEFSAII (Michael W. Deem and Ramdas Pophale) SiO2 
 PCOD9241526
Probable space group: P 21/C
;
_chemical_formula_sum "Si O2"
_cell_formula_units_Z 32
_cell_length_a 10.745413
_cell_length_b 12.805793
_cell_length_c 13.483960
_cell_angle_alpha 90.000000
_cell_angle_beta 137.817322
_cell_angle_gamma 90.000000
_cell_volume 1245.922014
_symmetry_space_group_name_H-M "P 21/C"
_symmetry_group_IT_number 14
_symmetry_cell_setting 'monoclinic'
loop_
_space_group_symop_operation_xyz
x,y,z
-x,1/2+y,1/2-z
-x,-y,-z
x,1/2-y,1/2+z
loop_
_atom_site_type_symbol
_atom_site_label
_atom_site_fract_x
_atom_site_fract_y
_atom_site_fract_z
Si Si1 0.184889 0.299065 0.863816
Si Si2 0.750814 0.183216 0.572550
Si Si3 0.448762 0.916438 0.386829
Si Si4 0.845474 0.086469 0.433967
Si Si5 0.095542 0.904433 0.918672
Si Si6 0.632281 0.767810 0.216917
Si Si7 0.460685 0.510804 0.676216
Si Si8 0.970167 0.704209 0.538089
O O1 0.374985 0.340398 0.023885
O O2 0.237504 0.227054 0.802094
O O3 0.087539 0.402700 0.757630
O O4 0.063911 0.228011 0.865648
O O5 0.725184 0.148252 0.671795
O O6 0.835058 0.099445 0.546722
O O7 0.822972 0.296379 0.579984
O O8 0.535813 0.194406 0.412356
O O9 0.414912 0.973314 0.264325
O O10 0.500000 0.000000 0.500000
O O11 0.917116 0.193742 0.430760
O O12 0.636062 0.066024 0.270279
O O13 0.000000 0.000000 0.500000
O O14 0.256461 0.991636 0.004593
O O15 0.044856 0.883747 0.004531
O O16 0.552064 0.879625 0.196434
O O17 0.757669 0.717593 0.374644
#
# Coordination Sequence:
#
# PCOD9241526 Si02
#       8
#     4   4   4   4   4   4   4   4
#     4  10  20  37  58  84 117 149 200 239 286 355
#     4   9  20  34  54  87 117 149 194 244 292 346
#     4  11  20  34  60  87 113 153 198 239 284 355
#     4  11  19  33  58  85 115 150 196 244 294 345
#     4   9  22  37  57  83 124 152 190 245 302 346
#     4   9  18  36  57  83 116 149 191 243 291 340
#     4  11  20  37  56  87 119 152 193 247 298 347
#     4  10  19  36  60  86 109 157 193 241 291 352
#
# _framework density 25.683789000000001
#
# number of rings (size 3 to 8) (size 9 to 14) (size 15 to 20)
#    0.000    2.000    3.750    0.000    1.750    0.000 
#    0.000    1.250    0.000    0.000    0.000    0.000 
#    0.000    0.000    0.000    0.000    0.000    0.000 
#
# Total GULP energy -178740.295037 kJ/mol
# GULP energy per Si atom -5585.634220 kJ/mol
# Density = 2.562533 g / cm^3
# Si number density = 25.683789 Si / 1000 Ang^3
#
#
#
# Elastic Constant Matrix: (Units=GPa)
#
#
# Indices 1 2 3 4 5 6 
#
# 1 145.0249 32.6369 36.3234 0.0000 2.0848 0.0000
# 2 32.6369 75.2197 -3.7763 0.0000 1.0447 0.0000
# 3 36.3234 -3.7763 25.7593 0.0000 -3.0377 0.0000
# 4 0.0000 0.0000 0.0000 27.8637 0.0000 5.1598
# 5 2.0848 1.0447 -3.0377 0.0000 39.0798 0.0000
# 6 0.0000 0.0000 0.0000 5.1598 0.0000 27.5557
#
#
#
# Elastic Compliance Matrix: (Units=1/GPa)
#
#
# Indices 1 2 3 4 5 6 
#
# 1 0.013595 -0.006895 -0.020433 0.000000 -0.002129 0.000000
# 2 -0.006895 0.016892 0.012302 0.000000 0.000873 0.000000
# 3 -0.020433 0.012302 0.070170 0.000000 0.006215 0.000000
# 4 0.000000 0.000000 0.000000 0.037178 0.000000 -0.006962
# 5 -0.002129 0.000873 0.006215 0.000000 0.026162 0.000000
# 6 0.000000 0.000000 0.000000 -0.006962 0.000000 0.037594
#
#
# Mechanical properties :
#
#
# Convention : Reuss Voigt Hill
#
# Bulk Modulus (GPa) = 14.16332 41.81910 27.99121
# Shear Modulus (GPa) = 19.59422 30.95451 25.27437
#
# Velocity S-wave (km/s) = 2.76507 3.47539 3.14037
# Velocity P-wave (km/s) = 3.96492 5.69404 4.90625
#
# Compressibility (1/GPa) = 0.07060491
#
# Stress axis : x y z
#
# Youngs Moduli (GPa) = 73.55477 59.20124 14.25114
#
# Poissons Ratio (x) = 0.40820 0.29119
# Poissons Ratio (y) = 0.50716 -0.17532
# Poissons Ratio (z) = 1.50293 -0.72829
#
# Static dielectric constant tensor:
#      x y z
#    x 2.049460 0.000000 0.048440 
#    y 0.000000 1.986080 0.000000 
#    z 0.048440 0.000000 2.179000 
# 
# From -- ./inp_files/45128.got.cif
#   From: 2010.05.17/outbox.cif.g08.bks.cpg/sg14_23_cif.got.tgz:45128.got - 2010.06.03 17:49:19.
