data_PCOD9241227
_publ_section_title
;
Structure prediction by ZEFSAII (Michael W. Deem and Ramdas Pophale) SiO2 
 PCOD9241227
Probable space group: P 21/C
;
_chemical_formula_sum "Si O2"
_cell_formula_units_Z 28
_cell_length_a 10.020661
_cell_length_b 12.729647
_cell_length_c 18.859469
_cell_angle_alpha 90.000000
_cell_angle_beta 33.481559
_cell_angle_gamma 90.000000
_cell_volume 1327.151278
_symmetry_space_group_name_H-M "P 21/C"
_symmetry_group_IT_number 14
_symmetry_cell_setting 'monoclinic'
loop_
_space_group_symop_operation_xyz
x,y,z
-x,1/2+y,1/2-z
-x,-y,-z
x,1/2-y,1/2+z
loop_
_atom_site_type_symbol
_atom_site_label
_atom_site_fract_x
_atom_site_fract_y
_atom_site_fract_z
Si Si1 0.948505 0.854825 0.349559
Si Si2 0.321639 0.783652 0.422570
Si Si3 0.853902 0.558465 0.292432
Si Si4 0.770031 0.339488 0.769464
Si Si5 0.466178 0.270318 0.522725
Si Si6 0.644908 0.967802 0.606147
Si Si7 0.200980 0.168526 0.335639
O O1 0.772420 0.804491 0.368296
O O2 0.797931 0.923295 0.471987
O O3 0.059583 0.751526 0.337866
O O4 0.131864 0.936034 0.231940
O O5 0.368314 0.752044 0.483469
O O6 0.540578 0.727485 0.283507
O O7 0.035607 0.765341 0.535628
O O8 0.360980 0.907764 0.395338
O O9 0.628456 0.610999 0.432643
O O10 0.855654 0.620953 0.216859
O O11 0.081544 0.589247 0.240713
O O12 0.617833 0.413711 0.785994
O O13 0.590038 0.268732 0.896563
O O14 0.764485 0.926095 0.624739
#
# Coordination Sequence:
#
# PCOD9241227 Si02
#       7
#     4   4   4   4   4   4   4
#     4  10  20  34  62  84 119 154 202 247 294 354
#     4  11  22  42  65  88 120 161 199 247 296 361
#     4  10  19  35  56  85 113 157 199 242 295 355
#     4  10  20  36  56  87 119 152 198 248 294 347
#     4   9  19  35  56  86 117 152 198 248 292 352
#     4  11  23  38  62  87 117 160 200 243 302 358
#     4  11  24  38  65  89 120 154 205 246 295 356
#
# _framework density 21.097821
#
# number of rings (size 3 to 8) (size 9 to 14) (size 15 to 20)
#    0.000    1.714    2.857    1.286    2.000    2.857 
#    0.000    0.714    6.286    0.000    0.000    0.000 
#    0.000    0.000    0.000    0.000    0.000    0.000 
#
# Total GULP energy -156257.452322 kJ/mol
# GULP energy per Si atom -5580.623297 kJ/mol
# Density = 2.104980 g / cm^3
# Si number density = 21.097821 Si / 1000 Ang^3
#
#
#
# Elastic Constant Matrix: (Units=GPa)
#
#
# Indices 1 2 3 4 5 6 
#
# 1 64.8360 -4.4966 12.2911 0.0000 -10.4614 0.0000
# 2 -4.4966 57.2408 10.1519 0.0000 1.1792 0.0000
# 3 12.2911 10.1519 45.3625 0.0000 -20.3032 0.0000
# 4 0.0000 0.0000 0.0000 30.7056 0.0000 -7.0357
# 5 -10.4614 1.1792 -20.3032 0.0000 19.4986 0.0000
# 6 0.0000 0.0000 0.0000 -7.0357 0.0000 18.4738
#
#
#
# Elastic Compliance Matrix: (Units=1/GPa)
#
#
# Indices 1 2 3 4 5 6 
#
# 1 0.017022 0.001485 -0.001680 0.000000 0.007293 0.000000
# 2 0.001485 0.019426 -0.009212 0.000000 -0.009971 0.000000
# 3 -0.001680 -0.009212 0.045711 0.000000 0.047253 0.000000
# 4 0.000000 0.000000 0.000000 0.035681 0.000000 0.013589
# 5 0.007293 -0.009971 0.047253 0.000000 0.105005 0.000000
# 6 0.000000 0.000000 0.000000 0.013589 0.000000 0.059306
#
#
# Mechanical properties :
#
#
# Convention : Reuss Voigt Hill
#
# Bulk Modulus (GPa) = 15.78696 22.59247 19.18972
# Shear Modulus (GPa) = 15.52410 23.70179 19.61294
#
# Velocity S-wave (km/s) = 2.71553 3.35539 3.05227
# Velocity P-wave (km/s) = 4.16307 5.07377 4.64082
#
# Compressibility (1/GPa) = 0.06334341
#
# Stress axis : x y z
#
# Youngs Moduli (GPa) = 58.74820 51.47751 21.87666
#
# Poissons Ratio (x) = -0.07644 0.03675
# Poissons Ratio (y) = -0.08723 0.20154
# Poissons Ratio (z) = 0.09870 0.47423
#
# Static dielectric constant tensor:
#      x y z
#    x 1.748530 0.000000 -0.038150 
#    y 0.000000 1.731620 0.000000 
#    z -0.038150 0.000000 1.862770 
# 
# From -- ./inp_files/28687.got.cif
#   From: 2010.05.17/outbox.cif.g08.bks.cpg/sg14_15_cif.got.tgz:28687.got - 2010.06.03 17:49:19.
