data_PCOD9241211
_publ_section_title
;
Structure prediction by ZEFSAII (Michael W. Deem and Ramdas Pophale) SiO2 
 PCOD9241211
Probable space group: P 21/C
;
_chemical_formula_sum "Si O2"
_cell_formula_units_Z 32
_cell_length_a 15.459643
_cell_length_b 14.162569
_cell_length_c 14.128085
_cell_angle_alpha 90.000000
_cell_angle_beta 31.997574
_cell_angle_gamma 90.000000
_cell_volume 1639.098591
_symmetry_space_group_name_H-M "P 21/C"
_symmetry_group_IT_number 14
_symmetry_cell_setting 'monoclinic'
loop_
_space_group_symop_operation_xyz
x,y,z
-x,1/2+y,1/2-z
-x,-y,-z
x,1/2-y,1/2+z
loop_
_atom_site_type_symbol
_atom_site_label
_atom_site_fract_x
_atom_site_fract_y
_atom_site_fract_z
Si Si1 0.301379 0.418055 0.010426
Si Si2 0.946443 0.866609 0.605171
Si Si3 0.351530 0.267885 0.107647
Si Si4 0.971213 0.940266 0.374350
Si Si5 0.671264 0.344772 0.266137
Si Si6 0.581670 0.747482 0.732515
Si Si7 0.298790 0.871440 0.042662
Si Si8 0.475139 0.049539 0.793620
O O1 0.305643 0.369221 0.107586
O O2 0.139943 0.458743 0.112792
O O3 0.338615 0.332005 0.901405
O O4 0.432953 0.500514 0.878894
O O5 0.904302 0.897961 0.535826
O O6 0.134485 0.825883 0.431255
O O7 0.800562 0.800409 0.775795
O O8 0.952152 0.961377 0.661749
O O9 0.365405 0.262246 0.207886
O O10 0.527948 0.235399 0.900047
O O11 0.106338 0.866251 0.214464
O O12 0.662238 0.380867 0.382170
O O13 0.607946 0.422963 0.251022
O O14 0.604690 0.647247 0.662285
O O15 0.392774 0.781618 0.913741
O O16 0.360037 0.967388 0.938338
#
# Coordination Sequence:
#
# PCOD9241211 Si02
#       8
#     4   4   4   4   4   4   4   4
#     4  11  22  37  59  87 120 156 203 243 297 362
#     4  10  20  34  60  89 120 146 188 258 302 346
#     4  11  22  39  62  86 119 164 196 240 306 356
#     4  10  19  35  55  90 118 142 194 254 305 344
#     4  10  19  35  61  90 114 150 196 252 302 337
#     4  10  22  39  58  86 117 156 204 245 293 362
#     4   9  21  34  59  88 114 152 198 250 298 356
#     4  11  20  37  58  84 122 154 198 247 297 352
#
# _framework density 19.522925999999998
#
# number of rings (size 3 to 8) (size 9 to 14) (size 15 to 20)
#    0.000    1.750    3.750    1.125    0.000    1.500 
#    0.000    0.000    0.000    0.750    0.000    0.000 
#    0.000    0.000    0.000    0.000    0.000    0.000 
#
# Total GULP energy -178278.318946 kJ/mol
# GULP energy per Si atom -5571.197467 kJ/mol
# Density = 1.947849 g / cm^3
# Si number density = 19.522926 Si / 1000 Ang^3
#
#
#
# Elastic Constant Matrix: (Units=GPa)
#
#
# Indices 1 2 3 4 5 6 
#
# 1 26.9002 -12.1810 3.5247 0.0000 -1.6910 0.0000
# 2 -12.1810 35.4686 -6.1271 0.0000 0.4891 0.0000
# 3 3.5247 -6.1271 38.2148 0.0000 -5.2227 0.0000
# 4 0.0000 0.0000 0.0000 25.1109 0.0000 8.6146
# 5 -1.6910 0.4891 -5.2227 0.0000 15.1679 0.0000
# 6 0.0000 0.0000 0.0000 8.6146 0.0000 25.4344
#
#
#
# Elastic Compliance Matrix: (Units=1/GPa)
#
#
# Indices 1 2 3 4 5 6 
#
# 1 0.044364 0.014984 -0.001133 0.000000 0.004073 0.000000
# 2 0.014984 0.034065 0.004363 0.000000 0.002074 0.000000
# 3 -0.001133 0.004363 0.028266 0.000000 0.009466 0.000000
# 4 0.000000 0.000000 0.000000 0.045059 0.000000 -0.015262
# 5 0.004073 0.002074 0.009466 0.000000 0.069575 0.000000
# 6 0.000000 0.000000 0.000000 -0.015262 0.000000 0.044486
#
#
# Mechanical properties :
#
#
# Convention : Reuss Voigt Hill
#
# Bulk Modulus (GPa) = 6.98698 7.89077 7.43887
# Shear Modulus (GPa) = 18.04445 20.83377 19.43911
#
# Velocity S-wave (km/s) = 3.04348 3.27026 3.15891
# Velocity P-wave (km/s) = 3.99211 4.27902 4.13806
#
# Compressibility (1/GPa) = 0.14312338
#
# Stress axis : x y z
#
# Youngs Moduli (GPa) = 22.54082 29.35564 35.37878
#
# Poissons Ratio (x) = -0.43987 0.04008
# Poissons Ratio (y) = -0.33775 -0.15436
# Poissons Ratio (z) = 0.02553 -0.12808
#
# Static dielectric constant tensor:
#      x y z
#    x 1.709330 0.000000 -0.028630 
#    y 0.000000 1.668970 0.000000 
#    z -0.028630 0.000000 1.735690 
# 
# From -- ./inp_files/49009.got.cif
#   From: 2010.05.17/outbox.cif.g08.bks.cpg/sg14_25_cif.got.tgz:49009.got - 2010.06.03 17:49:19.
