data_PCOD9241678
_publ_section_title
;
Structure prediction by ZEFSAII (Michael W. Deem and Ramdas Pophale) SiO2 
 PCOD9241678
Probable space group: P 21/C
;
_chemical_formula_sum "Si O2"
_cell_formula_units_Z 28
_cell_length_a 8.968754
_cell_length_b 12.076665
_cell_length_c 15.129578
_cell_angle_alpha 90.000000
_cell_angle_beta 57.189783
_cell_angle_gamma 90.000000
_cell_volume 1377.298767
_symmetry_space_group_name_H-M "P 21/C"
_symmetry_group_IT_number 14
_symmetry_cell_setting 'monoclinic'
loop_
_space_group_symop_operation_xyz
x,y,z
-x,1/2+y,1/2-z
-x,-y,-z
x,1/2-y,1/2+z
loop_
_atom_site_type_symbol
_atom_site_label
_atom_site_fract_x
_atom_site_fract_y
_atom_site_fract_z
Si Si1 0.714987 0.479014 0.329924
Si Si2 0.866982 0.448626 0.615858
Si Si3 0.740248 0.237575 0.040097
Si Si4 0.908509 0.753883 0.873379
Si Si5 0.962317 0.650325 0.676193
Si Si6 0.134047 0.565294 0.894873
Si Si7 0.451109 0.328437 0.495629
O O1 0.878996 0.423226 0.330407
O O2 0.769283 0.504814 0.212538
O O3 0.558614 0.387571 0.383367
O O4 0.641097 0.578608 0.412579
O O5 0.727376 0.370077 0.609332
O O6 0.000000 0.500000 0.500000
O O7 0.977562 0.362758 0.640768
O O8 0.822534 0.559447 0.685058
O O9 0.738083 0.354216 0.090273
O O10 0.593772 0.231882 0.011303
O O11 0.934896 0.219384 0.932532
O O12 0.716289 0.758031 0.979888
O O13 0.890011 0.730347 0.775165
O O14 0.017184 0.653060 0.878022
O O15 0.000000 0.500000 0.000000
#
# Coordination Sequence:
#
# PCOD9241678 Si02
#       7
#     4   4   4   4   4   4   4
#     4   9  19  35  59  79 110 152 181 234 282 336
#     4   9  17  33  52  78 110 142 195 233 271 334
#     4   9  20  35  54  81 113 147 180 238 283 337
#     4  10  20  34  60  84 107 155 195 227 279 346
#     4   9  17  32  57  81 105 148 196 228 266 338
#     4  10  22  40  56  83 117 150 185 231 295 332
#     4  10  19  37  58  82 110 146 196 229 279 338
#
# _framework density 20.329647999999999
#
# number of rings (size 3 to 8) (size 9 to 14) (size 15 to 20)
#    0.000    2.571    1.429    0.000    4.000    0.000 
#    5.143    0.714    0.000    0.000    0.000    0.000 
#    0.000    0.000    0.000    0.000    0.000    0.000 
#
# Total GULP energy -156037.731704 kJ/mol
# GULP energy per Si atom -5572.776132 kJ/mol
# Density = 2.028338 g / cm^3
# Si number density = 20.329648 Si / 1000 Ang^3
#
#
#
# Elastic Constant Matrix: (Units=GPa)
#
#
# Indices 1 2 3 4 5 6 
#
# 1 19.8977 -10.0142 -11.1035 0.0000 -3.7186 0.0000
# 2 -10.0142 42.1296 11.2122 0.0000 8.3083 0.0000
# 3 -11.1035 11.2122 83.6809 0.0000 9.7296 0.0000
# 4 0.0000 0.0000 0.0000 33.1795 0.0000 0.7851
# 5 -3.7186 8.3083 9.7296 0.0000 22.8693 0.0000
# 6 0.0000 0.0000 0.0000 0.7851 0.0000 14.1844
#
#
#
# Elastic Compliance Matrix: (Units=1/GPa)
#
#
# Indices 1 2 3 4 5 6 
#
# 1 0.060276 0.012166 0.006041 0.000000 0.002811 0.000000
# 2 0.012166 0.028517 -0.001296 0.000000 -0.007831 0.000000
# 3 0.006041 -0.001296 0.013420 0.000000 -0.004256 0.000000
# 4 0.000000 0.000000 0.000000 0.030179 0.000000 -0.001670
# 5 0.002811 -0.007831 -0.004256 0.000000 0.048839 0.000000
# 6 0.000000 0.000000 0.000000 -0.001670 0.000000 0.070592
#
#
# Mechanical properties :
#
#
# Convention : Reuss Voigt Hill
#
# Bulk Modulus (GPa) = 7.35107 13.98859 10.66983
# Shear Modulus (GPa) = 18.98624 24.42090 21.70357
#
# Velocity S-wave (km/s) = 3.05932 3.46966 3.27093
# Velocity P-wave (km/s) = 4.01286 4.79032 4.41872
#
# Compressibility (1/GPa) = 0.13603469
#
# Stress axis : x y z
#
# Youngs Moduli (GPa) = 16.59023 35.06651 74.51393
#
# Poissons Ratio (x) = -0.42660 -0.45015
# Poissons Ratio (y) = -0.20183 0.09659
# Poissons Ratio (z) = -0.10022 0.04546
#
# Static dielectric constant tensor:
#      x y z
#    x 1.763670 0.000000 0.015620 
#    y 0.000000 1.755230 0.000000 
#    z 0.015620 0.000000 1.775990 
# 
# From -- ./inp_files/39942.got.cif
#   From: 2010.05.17/outbox.cif.g08.bks.cpg/sg14_20_cif.got.tgz:39942.got - 2010.06.03 17:49:19.
