data_PCOD9241030
_publ_section_title
;
Structure prediction by ZEFSAII (Michael W. Deem and Ramdas Pophale) SiO2 
 PCOD9241030
Probable space group: P 21/C
;
_chemical_formula_sum "Si O2"
_cell_formula_units_Z 32
_cell_length_a 5.289962
_cell_length_b 31.778376
_cell_length_c 9.102607
_cell_angle_alpha 90.000000
_cell_angle_beta 58.343176
_cell_angle_gamma 90.000000
_cell_volume 1302.522251
_symmetry_space_group_name_H-M "P 21/C"
_symmetry_group_IT_number 14
_symmetry_cell_setting 'monoclinic'
loop_
_space_group_symop_operation_xyz
x,y,z
-x,1/2+y,1/2-z
-x,-y,-z
x,1/2-y,1/2+z
loop_
_atom_site_type_symbol
_atom_site_label
_atom_site_fract_x
_atom_site_fract_y
_atom_site_fract_z
Si Si1 0.081804 0.631596 0.735531
Si Si2 0.672058 0.827718 0.134496
Si Si3 0.894122 0.294271 0.923827
Si Si4 0.999811 0.121619 0.226329
Si Si5 0.145955 0.451668 0.121883
Si Si6 0.736884 0.743985 0.937010
Si Si7 0.462311 0.995051 0.268543
Si Si8 0.594537 0.421324 0.622704
O O1 0.350510 0.651238 0.744866
O O2 0.237018 0.602958 0.559978
O O3 0.882564 0.665651 0.710432
O O4 0.881459 0.598430 0.883397
O O5 0.643551 0.781354 0.077786
O O6 0.837600 0.853420 0.954882
O O7 0.061911 0.266511 0.747137
O O8 0.080252 0.287421 0.014865
O O9 0.894450 0.342096 0.867890
O O10 0.562977 0.275980 0.035497
O O11 0.741965 0.095433 0.227619
O O12 0.249553 0.091468 0.217167
O O13 0.309483 0.463467 0.223742
O O14 0.814396 0.470308 0.213451
O O15 0.326360 0.475205 0.938862
O O16 0.614793 0.028348 0.114059
#
# Coordination Sequence:
#
# PCOD9241030 Si02
#       8
#     4   4   4   4   4   4   4   4
#     4  10  19  34  56  79 101 134 181 223 263 317
#     4   9  19  35  55  78 108 143 176 221 279 327
#     4  11  22  39  61  86 118 155 194 237 289 345
#     4   9  19  35  55  78 108 143 176 221 279 327
#     4  10  21  36  52  73 105 140 169 207 267 325
#     4  11  22  39  61  86 118 155 194 237 289 345
#     4  10  21  36  52  73 105 140 169 207 267 325
#     4  10  19  34  56  79 101 134 181 223 263 317
#
# _framework density 24.567715
#
# number of rings (size 3 to 8) (size 9 to 14) (size 15 to 20)
#    0.000    2.000    0.000    3.750    0.000    5.000 
#    0.000    7.500    0.000    0.000    0.000    0.000 
#    0.000    0.000    0.000    0.000    0.000    0.000 
#
# Total GULP energy -179377.802324 kJ/mol
# GULP energy per Si atom -5605.556323 kJ/mol
# Density = 2.451180 g / cm^3
# Si number density = 24.567715 Si / 1000 Ang^3
#
#
#
# Elastic Constant Matrix: (Units=GPa)
#
#
# Indices 1 2 3 4 5 6 
#
# 1 167.3330 20.2190 30.4982 0.0000 3.2029 0.0000
# 2 20.2190 56.4877 5.5191 0.0000 -1.8532 0.0000
# 3 30.4982 5.5191 93.8604 0.0000 0.7520 0.0000
# 4 0.0000 0.0000 0.0000 44.5014 0.0000 -4.9296
# 5 3.2029 -1.8532 0.7520 0.0000 26.6717 0.0000
# 6 0.0000 0.0000 0.0000 -4.9296 0.0000 47.9953
#
#
#
# Elastic Compliance Matrix: (Units=1/GPa)
#
#
# Indices 1 2 3 4 5 6 
#
# 1 0.006627 -0.002204 -0.002017 0.000000 -0.000892 0.000000
# 2 -0.002204 0.018581 -0.000389 0.000000 0.001567 0.000000
# 3 -0.002017 -0.000389 0.011333 0.000000 -0.000104 0.000000
# 4 0.000000 0.000000 0.000000 0.022730 0.000000 0.002335
# 5 -0.000892 0.001567 -0.000104 0.000000 0.037712 0.000000
# 6 0.000000 0.000000 0.000000 0.002335 0.000000 0.021075
#
#
# Mechanical properties :
#
#
# Convention : Reuss Voigt Hill
#
# Bulk Modulus (GPa) = 36.60066 47.79485 42.19776
# Shear Modulus (GPa) = 36.66085 41.26334 38.96209
#
# Velocity S-wave (km/s) = 3.86714 4.10271 3.98666
# Velocity P-wave (km/s) = 5.90507 6.47607 6.19715
#
# Compressibility (1/GPa) = 0.02732191
#
# Stress axis : x y z
#
# Youngs Moduli (GPa) = 150.89622 53.81736 88.23735
#
# Poissons Ratio (x) = 0.11863 0.17794
# Poissons Ratio (y) = 0.33262 0.03432
# Poissons Ratio (z) = 0.30429 0.02093
#
# Static dielectric constant tensor:
#      x y z
#    x 1.859910 0.000000 0.019240 
#    y 0.000000 1.919930 0.000000 
#    z 0.019240 0.000000 1.985610 
# 
# From -- ./inp_files/22343.got.cif
#   From: 2010.05.17/outbox.cif.g08.bks.cpg/sg14_12_cif.got.tgz:22343.got - 2010.06.03 17:49:19.
