data_PCOD9241785
_publ_section_title
;
Structure prediction by ZEFSAII (Michael W. Deem and Ramdas Pophale) SiO2 
 PCOD9241785
Probable space group: P 21/C
;
_chemical_formula_sum "Si O2"
_cell_formula_units_Z 26
_cell_length_a 9.260466
_cell_length_b 7.192256
_cell_length_c 24.917326
_cell_angle_alpha 90.000000
_cell_angle_beta 44.921205
_cell_angle_gamma 90.000000
_cell_volume 1171.888621
_symmetry_space_group_name_H-M "P 21/C"
_symmetry_group_IT_number 14
_symmetry_cell_setting 'monoclinic'
loop_
_space_group_symop_operation_xyz
x,y,z
-x,1/2+y,1/2-z
-x,-y,-z
x,1/2-y,1/2+z
loop_
_atom_site_type_symbol
_atom_site_label
_atom_site_fract_x
_atom_site_fract_y
_atom_site_fract_z
Si Si1 0.500000 0.500000 0.000000
Si Si2 0.781111 0.766958 0.761523
Si Si3 0.426410 0.874796 0.209338
Si Si4 0.758053 0.245427 0.852334
Si Si5 0.768571 0.445864 0.676455
Si Si6 0.232117 0.076706 0.060141
Si Si7 0.472062 0.730363 0.440624
O O1 0.666520 0.410107 0.911012
O O2 0.354327 0.585118 0.986383
O O3 0.773459 0.591549 0.724507
O O4 0.607826 0.761914 0.852811
O O5 0.007705 0.781010 0.726482
O O6 0.730812 0.954277 0.742904
O O7 0.376987 0.792224 0.164246
O O8 0.371443 0.724094 0.268345
O O9 0.653975 0.952047 0.158047
O O10 0.764645 0.061783 0.888902
O O11 0.001132 0.381934 0.606377
O O12 0.377699 0.245247 0.043543
O O13 0.343000 0.954767 0.985292
#
# Coordination Sequence:
#
# PCOD9241785 Si02
#       7
#     2   4   4   4   4   4   4
#     4  10  22  36  62 100 128 160 208 286 326 378
#     4  11  23  41  65  95 127 168 224 271 317 392
#     4  12  23  40  64  97 129 176 213 271 327 391
#     4  10  22  38  65  96 123 166 220 270 326 379
#     4  11  24  41  62  91 133 175 213 263 332 388
#     4   9  20  38  61  86 125 168 207 267 324 381
#     4  10  19  37  62  91 126 160 220 271 321 378
#
# _framework density 22.186406999999999
#
# number of rings (size 3 to 8) (size 9 to 14) (size 15 to 20)
#    0.000    1.538    3.077    1.846    6.462    0.000 
#    0.000    0.769    3.385    3.692    0.000    0.000 
#    0.000    0.000    0.000    0.000    0.000    0.000 
#
# Total GULP energy -144864.661240 kJ/mol
# GULP energy per Si atom -5571.717740 kJ/mol
# Density = 2.213591 g / cm^3
# Si number density = 22.186407 Si / 1000 Ang^3
#
#
#
# Elastic Constant Matrix: (Units=GPa)
#
#
# Indices 1 2 3 4 5 6 
#
# 1 111.8534 0.9137 27.7429 0.0000 -12.3005 0.0000
# 2 0.9137 74.4904 9.3485 0.0000 5.4130 0.0000
# 3 27.7429 9.3485 86.9918 0.0000 -2.0492 0.0000
# 4 0.0000 0.0000 0.0000 32.1602 0.0000 2.8811
# 5 -12.3005 5.4130 -2.0492 0.0000 22.4800 0.0000
# 6 0.0000 0.0000 0.0000 2.8811 0.0000 24.5001
#
#
#
# Elastic Compliance Matrix: (Units=1/GPa)
#
#
# Indices 1 2 3 4 5 6 
#
# 1 0.010315 -0.000123 -0.003149 0.000000 0.005386 0.000000
# 2 -0.000123 0.013877 -0.001536 0.000000 -0.003548 0.000000
# 3 -0.003149 -0.001536 0.012660 0.000000 -0.000199 0.000000
# 4 0.000000 0.000000 0.000000 0.031425 0.000000 -0.003696
# 5 0.005386 -0.003548 -0.000199 0.000000 0.048268 0.000000
# 6 0.000000 0.000000 0.000000 -0.003696 0.000000 0.041251
#
#
# Mechanical properties :
#
#
# Convention : Reuss Voigt Hill
#
# Bulk Modulus (GPa) = 36.71639 38.81621 37.76630
# Shear Modulus (GPa) = 28.33031 31.51677 29.92354
#
# Velocity S-wave (km/s) = 3.57728 3.77310 3.67649
# Velocity P-wave (km/s) = 5.80065 6.04278 5.92295
#
# Compressibility (1/GPa) = 0.02723579
#
# Stress axis : x y z
#
# Youngs Moduli (GPa) = 96.94827 72.06359 78.98848
#
# Poissons Ratio (x) = 0.00884 0.24877
# Poissons Ratio (y) = 0.01189 0.12130
# Poissons Ratio (z) = 0.30533 0.11067
#
# Static dielectric constant tensor:
#      x y z
#    x 1.855050 0.000000 -0.014370 
#    y 0.000000 2.846360 0.000000 
#    z -0.014370 0.000000 1.894290 
# 
# From -- ./inp_files/64904.got.cif
#   From: 2010.05.17/outbox.cif.g08.bks.cpg/sg14_33_cif.got.tgz:64904.got - 2010.06.03 17:49:19.
