data_PCOD9241802
_publ_section_title
;
Structure prediction by ZEFSAII (Michael W. Deem and Ramdas Pophale) SiO2 
 PCOD9241802
Probable space group: P 21/C
;
_chemical_formula_sum "Si O2"
_cell_formula_units_Z 28
_cell_length_a 12.882044
_cell_length_b 14.162731
_cell_length_c 8.063240
_cell_angle_alpha 90.000000
_cell_angle_beta 52.612327
_cell_angle_gamma 90.000000
_cell_volume 1168.853339
_symmetry_space_group_name_H-M "P 21/C"
_symmetry_group_IT_number 14
_symmetry_cell_setting 'monoclinic'
loop_
_space_group_symop_operation_xyz
x,y,z
-x,1/2+y,1/2-z
-x,-y,-z
x,1/2-y,1/2+z
loop_
_atom_site_type_symbol
_atom_site_label
_atom_site_fract_x
_atom_site_fract_y
_atom_site_fract_z
Si Si1 0.214820 0.135004 0.497688
Si Si2 0.807847 0.376181 0.620082
Si Si3 0.251680 0.062927 0.987527
Si Si4 0.859998 0.037908 0.585685
Si Si5 0.905302 0.803408 0.060435
Si Si6 0.545562 0.608883 0.476254
Si Si7 0.276572 0.703956 0.653074
O O1 0.177118 0.023952 0.537420
O O2 0.110947 0.195990 0.487180
O O3 0.202257 0.177405 0.692503
O O4 0.351887 0.139326 0.267604
O O5 0.764190 0.483932 0.638676
O O6 0.734568 0.315890 0.828438
O O7 0.761723 0.328986 0.492560
O O8 0.960213 0.349557 0.503781
O O9 0.225875 0.006587 0.182236
O O10 0.385250 0.114779 0.909376
O O11 0.139184 0.137064 0.056577
O O12 0.828078 0.147859 0.626901
O O13 0.000000 0.000000 0.500000
O O14 0.500000 0.500000 0.500000
O O15 0.417197 0.670710 0.576955
#
# Coordination Sequence:
#
# PCOD9241802 Si02
#       7
#     4   4   4   4   4   4   4
#     4  11  23  38  67  90 128 178 210 278 323 392
#     4  11  23  41  64  97 136 169 213 281 329 395
#     4  10  23  42  67  94 132 177 214 282 325 385
#     4  10  19  37  63  91 123 173 218 261 338 387
#     4  12  24  42  64 102 133 170 230 271 341 396
#     4  11  21  48  68  87 134 172 226 268 325 405
#     4  11  24  40  66  94 129 176 213 272 335 385
#
# _framework density 23.955100000000002
#
# number of rings (size 3 to 8) (size 9 to 14) (size 15 to 20)
#    0.000    1.143    4.286    5.571    0.000    4.571 
#    0.000    0.714    0.000    0.000    0.000    0.000 
#    0.000    0.000    0.000    0.000    0.000    0.000 
#
# Total GULP energy -156270.328084 kJ/mol
# GULP energy per Si atom -5581.083146 kJ/mol
# Density = 2.390058 g / cm^3
# Si number density = 23.955100 Si / 1000 Ang^3
#
#
#
# Elastic Constant Matrix: (Units=GPa)
#
#
# Indices 1 2 3 4 5 6 
#
# 1 152.3850 15.0666 25.4909 0.0000 -20.2288 0.0000
# 2 15.0666 52.8113 -4.9382 0.0000 2.2389 0.0000
# 3 25.4909 -4.9382 28.8808 0.0000 -2.1726 0.0000
# 4 0.0000 0.0000 0.0000 30.5644 0.0000 6.2218
# 5 -20.2288 2.2389 -2.1726 0.0000 47.9357 0.0000
# 6 0.0000 0.0000 0.0000 6.2218 0.0000 33.9682
#
#
#
# Elastic Compliance Matrix: (Units=1/GPa)
#
#
# Indices 1 2 3 4 5 6 
#
# 1 0.008692 -0.003373 -0.007988 0.000000 0.003463 0.000000
# 2 -0.003373 0.020579 0.006339 0.000000 -0.002097 0.000000
# 3 -0.007988 0.006339 0.042629 0.000000 -0.001735 0.000000
# 4 0.000000 0.000000 0.000000 0.033985 0.000000 -0.006225
# 5 0.003463 -0.002097 -0.001735 0.000000 0.022342 0.000000
# 6 0.000000 0.000000 0.000000 -0.006225 0.000000 0.030579
#
#
# Mechanical properties :
#
#
# Convention : Reuss Voigt Hill
#
# Bulk Modulus (GPa) = 16.16704 33.92395 25.04550
# Shear Modulus (GPa) = 26.38934 35.72418 31.05676
#
# Velocity S-wave (km/s) = 3.32266 3.86592 3.60454
# Velocity P-wave (km/s) = 4.63505 5.84118 5.27271
#
# Compressibility (1/GPa) = 0.06185423
#
# Stress axis : x y z
#
# Youngs Moduli (GPa) = 115.05037 48.59230 23.45836
#
# Poissons Ratio (x) = 0.16392 0.18738
# Poissons Ratio (y) = 0.38812 -0.14869
# Poissons Ratio (z) = 0.91901 -0.30800
#
# Static dielectric constant tensor:
#      x y z
#    x 1.977950 0.000000 -0.034020 
#    y 0.000000 1.963990 0.000000 
#    z -0.034020 0.000000 2.077370 
# 
# From -- ./inp_files/13206.got.cif
#   From: 2010.05.17/outbox.cif.g08.bks.cpg/sg14_7_cif.got.tgz:13206.got - 2010.06.03 17:49:19.
