data_PCOD9241982
_publ_section_title
;
Structure prediction by ZEFSAII (Michael W. Deem and Ramdas Pophale) SiO2 
 PCOD9241982
Probable space group: P 21/C
;
_chemical_formula_sum "Si O2"
_cell_formula_units_Z 32
_cell_length_a 20.359407
_cell_length_b 11.090699
_cell_length_c 8.375404
_cell_angle_alpha 90.000000
_cell_angle_beta 128.638082
_cell_angle_gamma 90.000000
_cell_volume 1477.200951
_symmetry_space_group_name_H-M "P 21/C"
_symmetry_group_IT_number 14
_symmetry_cell_setting 'monoclinic'
loop_
_space_group_symop_operation_xyz
x,y,z
-x,1/2+y,1/2-z
-x,-y,-z
x,1/2-y,1/2+z
loop_
_atom_site_type_symbol
_atom_site_label
_atom_site_fract_x
_atom_site_fract_y
_atom_site_fract_z
Si Si1 0.363492 0.996548 0.865140
Si Si2 0.676584 0.748519 0.268191
Si Si3 0.986030 0.634784 0.431851
Si Si4 0.207021 0.379509 0.812374
Si Si5 0.311730 0.603740 0.947088
Si Si6 0.901701 0.291064 0.667122
Si Si7 0.408490 0.499130 0.785023
Si Si8 0.783372 0.150313 0.240624
O O1 0.366321 0.933774 0.690631
O O2 0.268259 0.963123 0.775283
O O3 0.381711 0.139439 0.874954
O O4 0.410381 0.956464 0.102041
O O5 0.744637 0.824906 0.466227
O O6 0.735825 0.679554 0.235764
O O7 0.626198 0.639001 0.272318
O O8 0.888970 0.659226 0.321313
O O9 0.000000 0.500000 0.500000
O O10 0.049821 0.712647 0.630924
O O11 0.022053 0.647697 0.309842
O O12 0.226769 0.521949 0.830860
O O13 0.353971 0.570626 0.839273
O O14 0.282058 0.741971 0.901879
O O15 0.844048 0.206272 0.467856
O O16 0.838499 0.377199 0.667971
O O17 0.500000 0.500000 0.000000
#
# Coordination Sequence:
#
# PCOD9241982 Si02
#       8
#     4   4   4   4   4   4   4   4
#     4  11  23  42  72 101 129 181 228 271 347 404
#     4  10  21  41  67  95 124 177 226 269 336 416
#     4  11  23  38  57  93 133 176 223 290 354 388
#     4  10  19  38  64  85 132 174 226 275 326 415
#     4  10  23  42  71  98 127 181 231 273 339 417
#     4  10  22  38  59  94 132 173 223 287 346 394
#     4  11  25  47  69 103 138 171 219 288 348 414
#     4  11  20  42  65  94 130 172 233 281 326 422
#
# _framework density 21.662590000000002
#
# number of rings (size 3 to 8) (size 9 to 14) (size 15 to 20)
#    0.000    1.500    2.500    3.000    1.750    1.500 
#    4.500    1.250    0.000    0.000    0.000    0.000 
#    0.000    0.000    0.000    0.000    0.000    0.000 
#
# Total GULP energy -178225.081967 kJ/mol
# GULP energy per Si atom -5569.533811 kJ/mol
# Density = 2.161328 g / cm^3
# Si number density = 21.662590 Si / 1000 Ang^3
#
#
#
# Elastic Constant Matrix: (Units=GPa)
#
#
# Indices 1 2 3 4 5 6 
#
# 1 48.0203 8.4315 3.3281 0.0000 -2.1460 0.0000
# 2 8.4315 74.4647 -4.2563 0.0000 -4.8442 0.0000
# 3 3.3281 -4.2563 91.1560 0.0000 -8.9718 0.0000
# 4 0.0000 0.0000 0.0000 8.5771 0.0000 3.6680
# 5 -2.1460 -4.8442 -8.9718 0.0000 38.6475 0.0000
# 6 0.0000 0.0000 0.0000 3.6680 0.0000 19.4413
#
#
#
# Elastic Compliance Matrix: (Units=1/GPa)
#
#
# Indices 1 2 3 4 5 6 
#
# 1 0.021337 -0.002418 -0.000824 0.000000 0.000690 0.000000
# 2 -0.002418 0.013873 0.000915 0.000000 0.001817 0.000000
# 3 -0.000824 0.000915 0.011308 0.000000 0.002694 0.000000
# 4 0.000000 0.000000 0.000000 0.126822 0.000000 -0.023928
# 5 0.000690 0.001817 0.002694 0.000000 0.026766 0.000000
# 6 0.000000 0.000000 0.000000 -0.023928 0.000000 0.055952
#
#
# Mechanical properties :
#
#
# Convention : Reuss Voigt Hill
#
# Bulk Modulus (GPa) = 23.88672 25.40531 24.64602
# Shear Modulus (GPa) = 18.20381 27.07568 22.63974
#
# Velocity S-wave (km/s) = 2.90200 3.53920 3.23632
# Velocity P-wave (km/s) = 4.72011 5.33427 5.03656
#
# Compressibility (1/GPa) = 0.04186427
#
# Stress axis : x y z
#
# Youngs Moduli (GPa) = 46.86681 72.07990 88.43167
#
# Poissons Ratio (x) = 0.17430 0.07287
# Poissons Ratio (y) = 0.11333 -0.08091
# Poissons Ratio (z) = 0.03862 -0.06595
#
# Static dielectric constant tensor:
#      x y z
#    x -11.005860 0.000000 -9.312760 
#    y 0.000000 1.781180 0.000000 
#    z -9.312760 0.000000 -4.843500 
# 
# From -- ./inp_files/18964.got.cif
#   From: 2010.05.17/outbox.cif.g08.bks.cpg/sg14_10_cif.got.tgz:18964.got - 2010.06.03 17:49:19.
