data_PCOD9241562
_publ_section_title
;
Structure prediction by ZEFSAII (Michael W. Deem and Ramdas Pophale) SiO2 
 PCOD9241562
Probable space group: P 21/C
;
_chemical_formula_sum "Si O2"
_cell_formula_units_Z 28
_cell_length_a 11.635114
_cell_length_b 9.737710
_cell_length_c 13.401092
_cell_angle_alpha 90.000000
_cell_angle_beta 62.486473
_cell_angle_gamma 90.000000
_cell_volume 1346.614236
_symmetry_space_group_name_H-M "P 21/C"
_symmetry_group_IT_number 14
_symmetry_cell_setting 'monoclinic'
loop_
_space_group_symop_operation_xyz
x,y,z
-x,1/2+y,1/2-z
-x,-y,-z
x,1/2-y,1/2+z
loop_
_atom_site_type_symbol
_atom_site_label
_atom_site_fract_x
_atom_site_fract_y
_atom_site_fract_z
Si Si1 0.297785 0.058245 0.301812
Si Si2 0.499866 0.784274 0.064613
Si Si3 0.972870 0.278455 0.229249
Si Si4 0.566370 0.084499 0.118685
Si Si5 0.219862 0.214796 0.516145
Si Si6 0.727620 0.246053 0.193750
Si Si7 0.140159 0.458952 0.664048
O O1 0.442085 0.117518 0.237923
O O2 0.215605 0.155018 0.407170
O O3 0.247695 0.049314 0.207684
O O4 0.294690 0.900656 0.339617
O O5 0.631791 0.694995 0.006555
O O6 0.377480 0.728435 0.174873
O O7 0.545792 0.924805 0.101479
O O8 0.450884 0.831010 0.976091
O O9 0.870332 0.246072 0.183102
O O10 0.904903 0.386331 0.328858
O O11 0.023088 0.135530 0.252025
O O12 0.104089 0.345717 0.130273
O O13 0.692717 0.133141 0.126093
O O14 0.186958 0.376088 0.548595
#
# Coordination Sequence:
#
# PCOD9241562 Si02
#       7
#     4   4   4   4   4   4   4
#     4  10  19  38  63  83 120 163 191 246 304 352
#     4  10  20  37  62  84 117 160 197 239 310 349
#     4   9  21  41  60  88 122 155 199 250 296 353
#     4  10  19  36  61  88 116 156 198 248 291 356
#     4  10  20  39  62  85 115 160 204 233 307 360
#     4  10  21  38  58  90 120 150 203 249 294 354
#     4   9  20  40  61  82 121 158 199 244 299 352
#
# _framework density 20.79289
#
# number of rings (size 3 to 8) (size 9 to 14) (size 15 to 20)
#    0.857    1.429    2.857    0.000    2.000    2.286 
#    7.714    3.571    0.000    0.000    0.000    0.000 
#    0.000    0.000    0.000    0.000    0.000    0.000 
#
# Total GULP energy -155891.210628 kJ/mol
# GULP energy per Si atom -5567.543237 kJ/mol
# Density = 2.074556 g / cm^3
# Si number density = 20.792890 Si / 1000 Ang^3
#
#
#
# Elastic Constant Matrix: (Units=GPa)
#
#
# Indices 1 2 3 4 5 6 
#
# 1 9.5160 -14.8440 -14.0564 0.0000 -28.7835 0.0000
# 2 -14.8440 21.9103 -7.9838 0.0000 -2.5111 0.0000
# 3 -14.0564 -7.9838 37.3286 0.0000 -19.2119 0.0000
# 4 0.0000 0.0000 0.0000 27.3012 0.0000 0.5403
# 5 -28.7835 -2.5111 -19.2119 0.0000 19.5558 0.0000
# 6 0.0000 0.0000 0.0000 0.5403 0.0000 26.5470
#
#
#
# Elastic Compliance Matrix: (Units=1/GPa)
#
#
# Indices 1 2 3 4 5 6 
#
# 1 -0.004077 -0.011060 -0.015615 0.000000 -0.022761 0.000000
# 2 -0.011060 0.033810 -0.006225 0.000000 -0.018053 0.000000
# 3 -0.015615 -0.006225 0.014843 0.000000 -0.009201 0.000000
# 4 0.000000 0.000000 0.000000 0.036643 0.000000 -0.000746
# 5 -0.022761 -0.018053 -0.009201 0.000000 0.006278 0.000000
# 6 0.000000 0.000000 0.000000 -0.000746 0.000000 0.037684
#
#
# Mechanical properties :
#
#
# Convention : Reuss Voigt Hill
#
# Bulk Modulus (GPa) = -47.11770 -0.55706 -23.83738
# Shear Modulus (GPa) = 27.18763 21.72342 24.45552
#
# Velocity S-wave (km/s) = 3.61992 3.23577 3.43322
# Velocity P-wave (km/s) = 2.28865 3.70024 2.05595
#
# Compressibility (1/GPa) = -0.02122345
#
# Stress axis : x y z
#
# Youngs Moduli (GPa) = -245.30366 29.57692 67.37357
#
# Poissons Ratio (x) = 0.32713 1.05202
# Poissons Ratio (y) = -2.71311 0.41939
# Poissons Ratio (z) = -3.83036 0.18411
#
# Static dielectric constant tensor:
#      x y z
#    x 1.764960 0.000000 -0.058790 
#    y 0.000000 1.765490 0.000000 
#    z -0.058790 0.000000 1.792670 
# 
# From -- ./inp_files/44024.got.cif
#   From: 2010.05.17/outbox.cif.g08.bks.cpg/sg14_23_cif.got.tgz:44024.got - 2010.06.03 17:49:19.
