data_PCOD9241560
_publ_section_title
;
Structure prediction by ZEFSAII (Michael W. Deem and Ramdas Pophale) SiO2 
 PCOD9241560
Probable space group: P 21/C
;
_chemical_formula_sum "Si O2"
_cell_formula_units_Z 32
_cell_length_a 15.122749
_cell_length_b 11.095104
_cell_length_c 17.879959
_cell_angle_alpha 90.000000
_cell_angle_beta 27.370904
_cell_angle_gamma 90.000000
_cell_volume 1379.270077
_symmetry_space_group_name_H-M "P 21/C"
_symmetry_group_IT_number 14
_symmetry_cell_setting 'monoclinic'
loop_
_space_group_symop_operation_xyz
x,y,z
-x,1/2+y,1/2-z
-x,-y,-z
x,1/2-y,1/2+z
loop_
_atom_site_type_symbol
_atom_site_label
_atom_site_fract_x
_atom_site_fract_y
_atom_site_fract_z
Si Si1 0.954381 0.186624 0.162104
Si Si2 0.530089 0.940529 0.073036
Si Si3 0.592025 0.370864 0.185324
Si Si4 0.036223 0.742725 0.012194
Si Si5 0.671791 0.204914 0.994954
Si Si6 0.815909 0.590532 0.963480
Si Si7 0.961666 0.911944 0.197460
Si Si8 0.180625 0.036345 0.265782
O O1 0.772405 0.227101 0.350002
O O2 0.130279 0.277571 0.048041
O O3 0.999545 0.050074 0.149440
O O4 0.918193 0.199809 0.101251
O O5 0.313457 0.934608 0.203617
O O6 0.550402 0.880957 0.137968
O O7 0.557037 0.085536 0.058902
O O8 0.685119 0.898244 0.896430
O O9 0.558001 0.295261 0.135456
O O10 0.644915 0.509251 0.124330
O O11 0.775949 0.304997 0.085205
O O12 0.901266 0.624722 0.109991
O O13 0.928184 0.837150 0.147434
O O14 0.853081 0.149706 0.903726
O O15 0.806457 0.592257 0.880737
O O16 0.005842 0.516691 0.848692
#
# Coordination Sequence:
#
# PCOD9241560 Si02
#       8
#     4   4   4   4   4   4   4   4
#     4  11  19  35  61  86 114 148 190 244 288 340
#     4  11  21  37  58  85 120 153 184 242 291 340
#     4  10  21  39  59  84 114 151 196 240 286 341
#     4  10  22  37  60  89 112 147 197 239 289 348
#     4  10  22  39  56  87 119 155 193 239 294 344
#     4  10  19  36  61  88 108 146 198 245 281 329
#     4  10  20  36  60  84 118 148 187 241 291 335
#     4  10  21  37  58  88 116 144 195 242 287 337
#
# _framework density 23.200678
#
# number of rings (size 3 to 8) (size 9 to 14) (size 15 to 20)
#    0.000    1.750    3.750    1.875    3.500    2.000 
#    6.750    0.000    0.000    0.750    0.000    0.000 
#    0.000    0.000    0.000    0.000    0.000    0.000 
#
# Total GULP energy -178833.879806 kJ/mol
# GULP energy per Si atom -5588.558744 kJ/mol
# Density = 2.314787 g / cm^3
# Si number density = 23.200678 Si / 1000 Ang^3
#
#
#
# Elastic Constant Matrix: (Units=GPa)
#
#
# Indices 1 2 3 4 5 6 
#
# 1 54.0982 9.1756 34.4709 0.0000 32.9382 0.0000
# 2 9.1756 61.8592 11.9533 0.0000 26.5637 0.0000
# 3 34.4709 11.9533 79.3203 0.0000 33.2252 0.0000
# 4 0.0000 0.0000 0.0000 30.7581 0.0000 12.5748
# 5 32.9382 26.5637 33.2252 0.0000 42.1770 0.0000
# 6 0.0000 0.0000 0.0000 12.5748 0.0000 31.6032
#
#
#
# Elastic Compliance Matrix: (Units=1/GPa)
#
#
# Indices 1 2 3 4 5 6 
#
# 1 0.040560 0.009421 -0.004914 0.000000 -0.033737 0.000000
# 2 0.009421 0.025116 0.002729 0.000000 -0.025326 0.000000
# 3 -0.004914 0.002729 0.020065 0.000000 -0.013687 0.000000
# 4 0.000000 0.000000 0.000000 0.038828 0.000000 -0.015449
# 5 -0.033737 -0.025326 -0.013687 0.000000 0.076789 0.000000
# 6 0.000000 0.000000 0.000000 -0.015449 0.000000 0.037790
#
#
# Mechanical properties :
#
#
# Convention : Reuss Voigt Hill
#
# Bulk Modulus (GPa) = 9.97883 34.05305 22.01594
# Shear Modulus (GPa) = 19.37383 30.21954 24.79668
#
# Velocity S-wave (km/s) = 2.89287 3.61297 3.27278
# Velocity P-wave (km/s) = 3.93302 5.66694 4.87765
#
# Compressibility (1/GPa) = 0.10021211
#
# Stress axis : x y z
#
# Youngs Moduli (GPa) = 24.65511 39.81447 49.83886
#
# Poissons Ratio (x) = -0.37509 0.24493
# Poissons Ratio (y) = -0.23227 -0.13603
# Poissons Ratio (z) = 0.12117 -0.10867
#
# Static dielectric constant tensor:
#      x y z
#    x 1.897300 0.000000 -0.004030 
#    y 0.000000 1.871140 0.000000 
#    z -0.004030 0.000000 1.920330 
# 
# From -- ./inp_files/60523.got.cif
#   From: 2010.05.17/outbox.cif.g08.bks.cpg/sg14_31_cif.got.tgz:60523.got - 2010.06.03 17:49:19.
