data_PCOD9241642
_publ_section_title
;
Structure prediction by ZEFSAII (Michael W. Deem and Ramdas Pophale) SiO2 
 PCOD9241642
Probable space group: P 21/C
;
_chemical_formula_sum "Si O2"
_cell_formula_units_Z 22
_cell_length_a 6.818564
_cell_length_b 6.767134
_cell_length_c 17.382454
_cell_angle_alpha 90.000000
_cell_angle_beta 112.086673
_cell_angle_gamma 90.000000
_cell_volume 743.205022
_symmetry_space_group_name_H-M "P 21/C"
_symmetry_group_IT_number 14
_symmetry_cell_setting 'monoclinic'
loop_
_space_group_symop_operation_xyz
x,y,z
-x,1/2+y,1/2-z
-x,-y,-z
x,1/2-y,1/2+z
loop_
_atom_site_type_symbol
_atom_site_label
_atom_site_fract_x
_atom_site_fract_y
_atom_site_fract_z
Si Si1 0.203768 0.866342 0.468529
Si Si2 0.500000 0.000000 0.000000
Si Si3 0.622612 0.414648 0.680405
Si Si4 0.733034 0.123235 0.356669
Si Si5 0.873688 0.941852 0.859460
Si Si6 0.262465 0.045160 0.319795
O O1 0.416444 0.730679 0.495875
O O2 0.207022 0.967029 0.552508
O O3 0.193154 0.022695 0.397748
O O4 0.026548 0.696323 0.430651
O O5 0.350372 0.015507 0.898316
O O6 0.730413 0.490141 0.775210
O O7 0.367911 0.404000 0.650535
O O8 0.683847 0.184789 0.688739
O O9 0.870772 0.322805 0.372561
O O10 0.479908 0.158376 0.330709
O O11 0.900160 0.901552 0.772208
#
# Coordination Sequence:
#
# PCOD9241642 Si02
#       6
#     4   2   4   4   4   4
#     4  11  21  38  64  94 127 171 227 272 336 402
#     4  10  20  36  62  88 122 172 222 258 334 414
#     4   9  19  37  61  89 125 175 217 265 336 406
#     4  10  19  36  65  89 130 167 219 273 335 394
#     4  10  20  39  63  92 125 177 222 268 329 413
#     4   9  21  39  59  93 132 170 212 279 333 394
#
# _framework density 29.601523
#
# number of rings (size 3 to 8) (size 9 to 14) (size 15 to 20)
#    0.000    2.182    1.818    1.091    0.000    0.000 
#    6.545    0.909    0.000    0.000    0.000    0.000 
#    0.000    0.000    0.000    0.000    0.000    0.000 
#
# Total GULP energy -122666.338210 kJ/mol
# GULP energy per Si atom -5575.742646 kJ/mol
# Density = 2.953415 g / cm^3
# Si number density = 29.601523 Si / 1000 Ang^3
#
#
#
# Elastic Constant Matrix: (Units=GPa)
#
#
# Indices 1 2 3 4 5 6 
#
# 1 82.1173 48.6749 19.9182 0.0000 -2.5550 0.0000
# 2 48.6749 143.5396 33.0327 0.0000 -1.3143 0.0000
# 3 19.9182 33.0327 259.1080 0.0000 -10.5746 0.0000
# 4 0.0000 0.0000 0.0000 51.5061 0.0000 9.1097
# 5 -2.5550 -1.3143 -10.5746 0.0000 46.0959 0.0000
# 6 0.0000 0.0000 0.0000 9.1097 0.0000 57.2066
#
#
#
# Elastic Compliance Matrix: (Units=1/GPa)
#
#
# Indices 1 2 3 4 5 6 
#
# 1 0.015328 -0.005076 -0.000507 0.000000 0.000589 0.000000
# 2 -0.005076 0.008858 -0.000747 0.000000 -0.000200 0.000000
# 3 -0.000507 -0.000747 0.004029 0.000000 0.000875 0.000000
# 4 0.000000 0.000000 0.000000 0.019978 0.000000 -0.003181
# 5 0.000589 -0.000200 0.000875 0.000000 0.021922 0.000000
# 6 0.000000 0.000000 0.000000 -0.003181 0.000000 0.017987
#
#
# Mechanical properties :
#
#
# Convention : Reuss Voigt Hill
#
# Bulk Modulus (GPa) = 64.28834 76.44625 70.36729
# Shear Modulus (GPa) = 47.19370 56.50432 51.84901
#
# Velocity S-wave (km/s) = 3.99720 4.37376 4.18971
# Velocity P-wave (km/s) = 6.56266 7.16851 6.87226
#
# Compressibility (1/GPa) = 0.01555492
#
# Stress axis : x y z
#
# Youngs Moduli (GPa) = 65.24201 112.89242 248.17851
#
# Poissons Ratio (x) = 0.57299 0.12587
# Poissons Ratio (y) = 0.33114 0.18546
# Poissons Ratio (z) = 0.03309 0.08436
#
# Static dielectric constant tensor:
#      x y z
#    x 2.477870 0.000000 -0.077250 
#    y 0.000000 2.292950 0.000000 
#    z -0.077250 0.000000 2.321690 
# 
# From -- ./inp_files/54693.got.cif
#   From: 2010.05.17/outbox.cif.g08.bks.cpg/sg14_28_cif.got.tgz:54693.got - 2010.06.03 17:49:19.
