data_PCOD9241208
_publ_section_title
;
Structure prediction by ZEFSAII (Michael W. Deem and Ramdas Pophale) SiO2 
 PCOD9241208
Probable space group: P 21/C
;
_chemical_formula_sum "Si O2"
_cell_formula_units_Z 32
_cell_length_a 20.187836
_cell_length_b 5.205207
_cell_length_c 19.717265
_cell_angle_alpha 90.000000
_cell_angle_beta 140.657133
_cell_angle_gamma 90.000000
_cell_volume 1313.518125
_symmetry_space_group_name_H-M "P 21/C"
_symmetry_group_IT_number 14
_symmetry_cell_setting 'monoclinic'
loop_
_space_group_symop_operation_xyz
x,y,z
-x,1/2+y,1/2-z
-x,-y,-z
x,1/2-y,1/2+z
loop_
_atom_site_type_symbol
_atom_site_label
_atom_site_fract_x
_atom_site_fract_y
_atom_site_fract_z
Si Si1 0.897678 0.806893 0.334015
Si Si2 0.824690 0.286866 0.104510
Si Si3 0.718232 0.411635 0.902787
Si Si4 0.866811 0.827300 0.955924
Si Si5 0.519509 0.416273 0.804530
Si Si6 0.651747 0.404705 0.237723
Si Si7 0.969305 0.860703 0.654132
Si Si8 0.240112 0.692910 0.804754
O O1 0.927273 0.744296 0.435012
O O2 0.832784 0.561253 0.256615
O O3 0.992311 0.903696 0.362923
O O4 0.820045 0.056220 0.271741
O O5 0.932312 0.170822 0.218190
O O6 0.745359 0.263640 0.103881
O O7 0.867938 0.570965 0.118454
O O8 0.775421 0.196583 0.994512
O O9 0.804797 0.586956 0.938076
O O10 0.638214 0.523861 0.895578
O O11 0.647826 0.344672 0.782057
O O12 0.768802 0.999109 0.853085
O O13 0.947658 0.864053 0.082012
O O14 0.469173 0.622534 0.711788
O O15 0.445388 0.431636 0.811456
O O16 0.661787 0.357874 0.166251
#
# Coordination Sequence:
#
# PCOD9241208 Si02
#       8
#     4   4   4   4   4   4   4   4
#     4  10  20  38  56  84 112 154 197 242 286 336
#     4  10  22  37  55  84 120 159 199 236 295 344
#     4  10  20  37  57  87 116 151 198 240 296 347
#     4  10  19  35  55  86 112 148 200 240 295 334
#     4  10  20  36  61  91 116 145 191 245 298 344
#     4  10  20  36  62  85 115 149 194 243 298 338
#     4  10  21  35  55  79 119 156 202 233 292 341
#     4  10  21  38  59  82 118 154 193 237 294 343
#
# _framework density 24.362053
#
# number of rings (size 3 to 8) (size 9 to 14) (size 15 to 20)
#    0.000    2.000    2.500    1.125    1.750    0.000 
#    4.500    6.250    0.000    0.000    0.000   12.250 
#    0.000    0.000    0.000    0.000    0.000    0.000 
#
# Total GULP energy -178185.531082 kJ/mol
# GULP energy per Si atom -5568.297846 kJ/mol
# Density = 2.430660 g / cm^3
# Si number density = 24.362053 Si / 1000 Ang^3
#
#
#
# Elastic Constant Matrix: (Units=GPa)
#
#
# Indices 1 2 3 4 5 6 
#
# 1 147.6490 2.6061 19.4494 0.0000 -19.1160 0.0000
# 2 2.6061 78.5806 -3.9165 0.0000 0.0866 0.0000
# 3 19.4494 -3.9165 32.3242 0.0000 -13.3254 0.0000
# 4 0.0000 0.0000 0.0000 20.5273 0.0000 7.7248
# 5 -19.1160 0.0866 -13.3254 0.0000 38.6386 0.0000
# 6 0.0000 0.0000 0.0000 7.7248 0.0000 27.1945
#
#
#
# Elastic Compliance Matrix: (Units=1/GPa)
#
#
# Indices 1 2 3 4 5 6 
#
# 1 0.007577 -0.000432 -0.003574 0.000000 0.002517 0.000000
# 2 -0.000432 0.012839 0.002000 0.000000 0.000447 0.000000
# 3 -0.003574 0.002000 0.038001 0.000000 0.011333 0.000000
# 4 0.000000 0.000000 0.000000 0.054546 0.000000 -0.015494
# 5 0.002517 0.000447 0.011333 0.000000 0.031034 0.000000
# 6 0.000000 0.000000 0.000000 -0.015494 0.000000 0.041173
#
#
# Mechanical properties :
#
#
# Convention : Reuss Voigt Hill
#
# Bulk Modulus (GPa) = 18.38048 32.75911 25.56980
# Shear Modulus (GPa) = 24.11755 33.29974 28.70864
#
# Velocity S-wave (km/s) = 3.14978 3.70113 3.43653
# Velocity P-wave (km/s) = 4.55953 5.63387 5.12493
#
# Compressibility (1/GPa) = 0.05440554
#
# Stress axis : x y z
#
# Youngs Moduli (GPa) = 131.97637 77.88584 26.31501
#
# Poissons Ratio (x) = 0.03366 0.09405
# Poissons Ratio (y) = 0.05704 -0.05263
# Poissons Ratio (z) = 0.47166 -0.15577
#
# Static dielectric constant tensor:
#      x y z
#    x 1.999350 0.000000 0.040850 
#    y 0.000000 2.090080 0.000000 
#    z 0.040850 0.000000 2.075730 
# 
# From -- ./inp_files/69606.got.cif
#   From: 2010.05.17/outbox.cif.g08.bks.cpg/sg14_35_cif.got.tgz:69606.got - 2010.06.03 17:49:19.
