data_PCOD9241150
_publ_section_title
;
Structure prediction by ZEFSAII (Michael W. Deem and Ramdas Pophale) SiO2 
 PCOD9241150
Probable space group: P 21/C
;
_chemical_formula_sum "Si O2"
_cell_formula_units_Z 28
_cell_length_a 22.078513
_cell_length_b 5.303991
_cell_length_c 17.270109
_cell_angle_alpha 90.000000
_cell_angle_beta 38.920838
_cell_angle_gamma 90.000000
_cell_volume 1270.566641
_symmetry_space_group_name_H-M "P 21/C"
_symmetry_group_IT_number 14
_symmetry_cell_setting 'monoclinic'
loop_
_space_group_symop_operation_xyz
x,y,z
-x,1/2+y,1/2-z
-x,-y,-z
x,1/2-y,1/2+z
loop_
_atom_site_type_symbol
_atom_site_label
_atom_site_fract_x
_atom_site_fract_y
_atom_site_fract_z
Si Si1 0.791224 0.388407 0.385958
Si Si2 0.009974 0.837352 0.790531
Si Si3 0.339978 0.210384 0.061873
Si Si4 0.349093 0.511493 0.203200
Si Si5 0.808800 0.689243 0.526683
Si Si6 0.342891 0.990236 0.403902
Si Si7 0.456727 0.010322 0.146296
O O1 0.757584 0.548603 0.346033
O O2 0.816966 0.557524 0.434642
O O3 0.695993 0.248079 0.511486
O O4 0.883157 0.210575 0.282147
O O5 0.994693 0.619345 0.739935
O O6 0.920563 0.783906 0.937297
O O7 0.331496 0.433409 0.132205
O O8 0.354944 0.310852 0.960176
O O9 0.434616 0.047942 0.985154
O O10 0.254193 0.467155 0.349803
O O11 0.391827 0.787174 0.173751
O O12 0.423697 0.293809 0.158881
O O13 0.743790 0.931543 0.569260
O O14 0.436283 0.972524 0.258159
#
# Coordination Sequence:
#
# PCOD9241150 Si02
#       7
#     4   4   4   4   4   4   4
#     4  10  20  37  57  91 119 154 205 257 303 353
#     4  10  19  34  62  89 117 154 204 257 304 360
#     4  11  26  37  62  89 128 162 200 258 310 360
#     4  11  24  43  61  90 124 165 205 246 306 376
#     4   9  19  38  60  89 117 160 201 251 299 366
#     4  10  21  37  60  88 119 153 202 253 295 349
#     4  11  25  42  63  87 122 167 210 245 299 373
#
# _framework density 22.037410000000001
#
# number of rings (size 3 to 8) (size 9 to 14) (size 15 to 20)
#    0.000    1.714    2.857    0.857    6.000    0.000 
#    0.000    0.714    0.000    0.857    0.000    0.000 
#    0.000    0.000    0.000    0.000    0.000    0.000 
#
# Total GULP energy -156304.769790 kJ/mol
# GULP energy per Si atom -5582.313207 kJ/mol
# Density = 2.198725 g / cm^3
# Si number density = 22.037410 Si / 1000 Ang^3
#
#
#
# Elastic Constant Matrix: (Units=GPa)
#
#
# Indices 1 2 3 4 5 6 
#
# 1 46.3235 8.0208 33.7199 0.0000 10.1752 0.0000
# 2 8.0208 73.0187 6.7451 0.0000 7.0622 0.0000
# 3 33.7199 6.7451 86.2438 0.0000 1.4716 0.0000
# 4 0.0000 0.0000 0.0000 30.2011 0.0000 3.7941
# 5 10.1752 7.0622 1.4716 0.0000 13.5218 0.0000
# 6 0.0000 0.0000 0.0000 3.7941 0.0000 15.2651
#
#
#
# Elastic Compliance Matrix: (Units=1/GPa)
#
#
# Indices 1 2 3 4 5 6 
#
# 1 0.038010 -0.000244 -0.014383 0.000000 -0.026910 0.000000
# 2 -0.000244 0.014512 -0.000915 0.000000 -0.007296 0.000000
# 3 -0.014383 -0.000915 0.017129 0.000000 0.009437 0.000000
# 4 0.000000 0.000000 0.000000 0.034179 0.000000 -0.008495
# 5 -0.026910 -0.007296 0.009437 0.000000 0.096988 0.000000
# 6 0.000000 0.000000 0.000000 -0.008495 0.000000 0.067620
#
#
# Mechanical properties :
#
#
# Convention : Reuss Voigt Hill
#
# Bulk Modulus (GPa) = 25.92877 33.61750 29.77313
# Shear Modulus (GPa) = 16.00622 22.27096 19.13859
#
# Velocity S-wave (km/s) = 2.69796 3.18244 2.95016
# Velocity P-wave (km/s) = 4.63645 5.36579 5.01440
#
# Compressibility (1/GPa) = 0.03856720
#
# Stress axis : x y z
#
# Youngs Moduli (GPa) = 26.30866 68.90789 58.38001
#
# Poissons Ratio (x) = 0.01681 0.83969
# Poissons Ratio (y) = 0.00642 0.05342
# Poissons Ratio (z) = 0.37840 0.06306
#
# Static dielectric constant tensor:
#      x y z
#    x 1.913330 0.000000 -0.043160 
#    y 0.000000 1.855890 0.000000 
#    z -0.043160 0.000000 1.822420 
# 
# From -- ./inp_files/58335.got.cif
#   From: 2010.05.17/outbox.cif.g08.bks.cpg/sg14_30_cif.got.tgz:58335.got - 2010.06.03 17:49:19.
