data_PCOD9241316
_publ_section_title
;
Structure prediction by ZEFSAII (Michael W. Deem and Ramdas Pophale) SiO2 
 PCOD9241316
Probable space group: P 21/C
;
_chemical_formula_sum "Si O2"
_cell_formula_units_Z 32
_cell_length_a 7.872401
_cell_length_b 8.809388
_cell_length_c 24.167868
_cell_angle_alpha 90.000000
_cell_angle_beta 96.319979
_cell_angle_gamma 90.000000
_cell_volume 1665.880581
_symmetry_space_group_name_H-M "P 21/C"
_symmetry_group_IT_number 14
_symmetry_cell_setting 'monoclinic'
loop_
_space_group_symop_operation_xyz
x,y,z
-x,1/2+y,1/2-z
-x,-y,-z
x,1/2-y,1/2+z
loop_
_atom_site_type_symbol
_atom_site_label
_atom_site_fract_x
_atom_site_fract_y
_atom_site_fract_z
Si Si1 0.556992 0.279688 0.614403
Si Si2 0.492012 0.482117 0.715269
Si Si3 0.237614 0.456383 0.551830
Si Si4 0.336278 0.045185 0.661909
Si Si5 0.153362 0.284414 0.718448
Si Si6 0.281744 0.708322 0.642434
Si Si7 0.946043 0.575111 0.684023
Si Si8 0.850719 0.064087 0.071375
O O1 0.578067 0.376439 0.671977
O O2 0.396461 0.352749 0.575524
O O3 0.489653 0.118086 0.632292
O O4 0.728453 0.297974 0.585273
O O5 0.596122 0.509078 0.774103
O O6 0.320470 0.390789 0.725437
O O7 0.439372 0.638658 0.683131
O O8 0.269207 0.613950 0.585483
O O9 0.222593 0.486823 0.486392
O O10 0.050525 0.400532 0.566393
O O11 0.189126 0.170885 0.667997
O O12 0.282158 0.886674 0.634457
O O13 0.133199 0.178573 0.771225
O O14 0.999569 0.404806 0.705654
O O15 0.118703 0.660450 0.672551
O O16 0.846064 0.551411 0.623095
#
# Coordination Sequence:
#
# PCOD9241316 Si02
#       8
#     4   4   4   4   4   4   4   4
#     4  10  20  34  55  81 107 141 183 226 274 320
#     4   9  19  33  49  75 110 147 181 215 261 327
#     4   9  20  38  57  77 104 140 188 239 270 313
#     4  11  19  31  51  77 111 146 176 219 278 331
#     4  10  20  32  50  77 111 141 174 221 270 323
#     4   9  18  33  51  73 108 145 179 224 274 320
#     4  10  20  34  54  80 106 142 182 220 270 329
#     4  10  19  35  60  79 100 142 192 227 268 325
#
# _framework density 19.209060999999998
#
# number of rings (size 3 to 8) (size 9 to 14) (size 15 to 20)
#    0.000    2.250    0.000    5.625    0.000    3.000 
#    0.000    1.875    0.000   13.500    0.000    0.000 
#    0.000    0.000    0.000    0.000    0.000    0.000 
#
# Total GULP energy -178496.857123 kJ/mol
# GULP energy per Si atom -5578.026785 kJ/mol
# Density = 1.916534 g / cm^3
# Si number density = 19.209061 Si / 1000 Ang^3
#
#
#
# Elastic Constant Matrix: (Units=GPa)
#
#
# Indices 1 2 3 4 5 6 
#
# 1 64.8370 30.7896 36.4488 0.0000 -2.1391 0.0000
# 2 30.7896 102.5050 27.9591 0.0000 -7.0381 0.0000
# 3 36.4488 27.9591 102.3824 0.0000 0.9346 0.0000
# 4 0.0000 0.0000 0.0000 -2.7085 0.0000 2.9213
# 5 -2.1391 -7.0381 0.9346 0.0000 24.5056 0.0000
# 6 0.0000 0.0000 0.0000 2.9213 0.0000 9.5298
#
#
#
# Elastic Compliance Matrix: (Units=1/GPa)
#
#
# Indices 1 2 3 4 5 6 
#
# 1 0.021163 -0.004589 -0.006288 0.000000 0.000769 0.000000
# 2 -0.004589 0.011783 -0.001612 0.000000 0.003045 0.000000
# 3 -0.006288 -0.001612 0.012460 0.000000 -0.001487 0.000000
# 4 0.000000 0.000000 0.000000 -0.277468 0.000000 0.085058
# 5 0.000769 0.003045 -0.001487 0.000000 0.041805 0.000000
# 6 0.000000 0.000000 0.000000 0.085058 0.000000 0.078860
#
#
# Mechanical properties :
#
#
# Convention : Reuss Voigt Hill
#
# Bulk Modulus (GPa) = 48.95287 51.12438 50.03863
# Shear Modulus (GPa) = -62.80500 17.90049 -22.45226
#
# Velocity S-wave (km/s) = -5.72420 3.05598 -3.42253
# Velocity P-wave (km/s) = 4.26017 6.25496 3.23848
#
# Compressibility (1/GPa) = 0.02042781
#
# Stress axis : x y z
#
# Youngs Moduli (GPa) = 47.25321 84.87042 80.25945
#
# Poissons Ratio (x) = 0.38945 0.50467
# Poissons Ratio (y) = 0.21683 0.12936
# Poissons Ratio (z) = 0.29712 0.13680
#
# Static dielectric constant tensor:
#      x y z
#    x 1.732990 0.000000 -0.005270 
#    y 0.000000 1.666500 0.000000 
#    z -0.005270 0.000000 1.664340 
# 
# From -- ./inp_files/71951.got.cif
#   From: 2010.05.17/outbox.cif.g08.bks.cpg/sg14_36_cif.got.tgz:71951.got - 2010.06.03 17:49:19.
