data_PCOD9241991
_publ_section_title
;
Structure prediction by ZEFSAII (Michael W. Deem and Ramdas Pophale) SiO2 
 PCOD9241991
Probable space group: P 21/C
;
_chemical_formula_sum "Si O2"
_cell_formula_units_Z 32
_cell_length_a 5.698582
_cell_length_b 29.704981
_cell_length_c 7.303118
_cell_angle_alpha 90.000000
_cell_angle_beta 95.423147
_cell_angle_gamma 90.000000
_cell_volume 1230.710976
_symmetry_space_group_name_H-M "P 21/C"
_symmetry_group_IT_number 14
_symmetry_cell_setting 'monoclinic'
loop_
_space_group_symop_operation_xyz
x,y,z
-x,1/2+y,1/2-z
-x,-y,-z
x,1/2-y,1/2+z
loop_
_atom_site_type_symbol
_atom_site_label
_atom_site_fract_x
_atom_site_fract_y
_atom_site_fract_z
Si Si1 0.324194 0.189787 0.992354
Si Si2 0.954855 0.418284 0.804346
Si Si3 0.458233 0.459465 0.765232
Si Si4 0.409209 0.444047 0.319807
Si Si5 0.151585 0.681624 0.095430
Si Si6 0.036818 0.395904 0.413790
Si Si7 0.926444 0.750854 0.802899
Si Si8 0.384281 0.650016 0.791002
O O1 0.231853 0.138917 0.009758
O O2 0.130422 0.219534 0.874077
O O3 0.531115 0.184112 0.860695
O O4 0.308594 0.218909 0.175085
O O5 0.709015 0.440038 0.856066
O O6 0.213035 0.441802 0.836863
O O7 0.958909 0.366852 0.871422
O O8 0.911605 0.415025 0.581729
O O9 0.444905 0.448246 0.543914
O O10 0.482569 0.513335 0.769643
O O11 0.127095 0.437795 0.300818
O O12 0.483384 0.397136 0.232100
O O13 0.133358 0.712588 0.275462
O O14 0.000149 0.712338 0.949261
O O15 0.385552 0.670564 0.993838
O O16 0.877710 0.365358 0.276103
#
# Coordination Sequence:
#
# PCOD9241991 Si02
#       8
#     4   4   4   4   4   4   4   4
#     4  10  21  40  60  90 126 167 221 276 340 401
#     4  11  23  41  66 100 138 179 223 280 336 402
#     4  10  22  40  69 103 136 179 230 277 330 407
#     4   9  21  37  67  99 132 173 226 275 328 403
#     4  11  24  41  66  95 133 172 222 282 347 400
#     4  10  19  38  64  91 130 170 222 272 332 397
#     4  10  22  42  64  91 130 166 221 285 334 421
#     4  11  22  39  64  95 128 178 220 279 340 403
#
# _framework density 26.001231000000001
#
# number of rings (size 3 to 8) (size 9 to 14) (size 15 to 20)
#    0.000    1.750    3.750    0.000    1.750    3.500 
#    0.000    3.750    0.000    0.000    0.000    0.000 
#    0.000    0.000    0.000    0.000    0.000    0.000 
#
# Total GULP energy -178400.894940 kJ/mol
# GULP energy per Si atom -5575.027967 kJ/mol
# Density = 2.594205 g / cm^3
# Si number density = 26.001231 Si / 1000 Ang^3
#
#
#
# Elastic Constant Matrix: (Units=GPa)
#
#
# Indices 1 2 3 4 5 6 
#
# 1 89.5040 52.9510 32.8486 0.0000 -21.8953 0.0000
# 2 52.9510 112.3908 23.7205 0.0000 -5.2461 0.0000
# 3 32.8486 23.7205 80.4954 0.0000 -26.6377 0.0000
# 4 0.0000 0.0000 0.0000 36.4589 0.0000 -1.2267
# 5 -21.8953 -5.2461 -26.6377 0.0000 23.2523 0.0000
# 6 0.0000 0.0000 0.0000 -1.2267 0.0000 20.8645
#
#
#
# Elastic Compliance Matrix: (Units=1/GPa)
#
#
# Indices 1 2 3 4 5 6 
#
# 1 0.020765 -0.008956 -0.000053 0.000000 0.017472 0.000000
# 2 -0.008956 0.013393 -0.003354 0.000000 -0.009255 0.000000
# 3 -0.000053 -0.003354 0.021205 0.000000 0.023486 0.000000
# 4 0.000000 0.000000 0.000000 0.027483 0.000000 0.001616
# 5 0.017472 -0.009255 0.023486 0.000000 0.084276 0.000000
# 6 0.000000 0.000000 0.000000 0.001616 0.000000 0.048023
#
#
# Mechanical properties :
#
#
# Convention : Reuss Voigt Hill
#
# Bulk Modulus (GPa) = 32.64091 55.71448 44.17769
# Shear Modulus (GPa) = 19.99332 27.63981 23.81657
#
# Velocity S-wave (km/s) = 2.77598 3.26393 3.02980
# Velocity P-wave (km/s) = 4.78075 5.97315 5.40990
#
# Compressibility (1/GPa) = 0.03063640
#
# Stress axis : x y z
#
# Youngs Moduli (GPa) = 48.15868 74.66529 47.15854
#
# Poissons Ratio (x) = 0.66872 0.00248
# Poissons Ratio (y) = 0.43132 0.15819
# Poissons Ratio (z) = 0.00253 0.25046
#
# Static dielectric constant tensor:
#      x y z
#    x 2.162060 0.000000 -0.046740 
#    y 0.000000 2.044860 0.000000 
#    z -0.046740 0.000000 2.376810 
# 
# From -- ./inp_files/6947.got.cif
#   From: 2010.05.17/outbox.cif.g08.bks.cpg/sg14_4_cif.got.tgz:6947.got - 2010.06.03 17:49:19.
