data_PCOD9241976
_publ_section_title
;
Structure prediction by ZEFSAII (Michael W. Deem and Ramdas Pophale) SiO2 
 PCOD9241976
Probable space group: P 21/C
;
_chemical_formula_sum "Si O2"
_cell_formula_units_Z 24
_cell_length_a 14.546553
_cell_length_b 5.782394
_cell_length_c 19.992218
_cell_angle_alpha 90.000000
_cell_angle_beta 140.162176
_cell_angle_gamma 90.000000
_cell_volume 1077.276135
_symmetry_space_group_name_H-M "P 21/C"
_symmetry_group_IT_number 14
_symmetry_cell_setting 'monoclinic'
loop_
_space_group_symop_operation_xyz
x,y,z
-x,1/2+y,1/2-z
-x,-y,-z
x,1/2-y,1/2+z
loop_
_atom_site_type_symbol
_atom_site_label
_atom_site_fract_x
_atom_site_fract_y
_atom_site_fract_z
Si Si1 0.278797 0.009176 0.503936
Si Si2 0.422602 0.289740 0.785494
Si Si3 0.920693 0.326122 0.218080
Si Si4 0.615933 0.919352 0.886580
Si Si5 0.861544 0.442041 0.334384
Si Si6 0.867542 0.253593 0.976698
O O1 0.211616 0.867378 0.406378
O O2 0.302563 0.281243 0.510121
O O3 0.440048 0.932394 0.611967
O O4 0.166066 0.988128 0.503030
O O5 0.416075 0.287068 0.700846
O O6 0.281121 0.405224 0.734880
O O7 0.467836 0.029286 0.828944
O O8 0.873630 0.333193 0.268669
O O9 0.991214 0.072462 0.243352
O O10 0.729331 0.108422 0.924088
O O11 0.867570 0.251786 0.397008
O O12 0.993076 0.618820 0.420594
#
# Coordination Sequence:
#
# PCOD9241976 Si02
#       6
#     4   4   4   4   4   4
#     4  11  22  40  71  95 138 189 223 281 363 426
#     4  10  21  37  64 100 138 172 231 287 357 413
#     4  12  27  50  71 101 142 195 238 294 359 424
#     4  10  19  38  63  95 136 179 223 287 351 420
#     4  10  21  44  67 104 136 176 238 298 343 414
#     4   9  20  41  67  99 133 174 238 287 348 408
#
# _framework density 22.278411999999999
#
# number of rings (size 3 to 8) (size 9 to 14) (size 15 to 20)
#    0.000    1.667    3.333    1.000    2.333    0.667 
#    9.000    5.833    0.000    0.000    0.000    0.000 
#    0.000    0.000    0.000    0.000    0.000    0.000 
#
# Total GULP energy -133887.819454 kJ/mol
# GULP energy per Si atom -5578.659144 kJ/mol
# Density = 2.222771 g / cm^3
# Si number density = 22.278412 Si / 1000 Ang^3
#
#
#
# Elastic Constant Matrix: (Units=GPa)
#
#
# Indices 1 2 3 4 5 6 
#
# 1 89.0883 -0.8562 42.9530 0.0000 -9.3973 0.0000
# 2 -0.8562 38.5249 5.0181 0.0000 -2.2446 0.0000
# 3 42.9530 5.0181 102.4024 0.0000 5.9877 0.0000
# 4 0.0000 0.0000 0.0000 34.9650 0.0000 7.8670
# 5 -9.3973 -2.2446 5.9877 0.0000 33.4459 0.0000
# 6 0.0000 0.0000 0.0000 7.8670 0.0000 18.2089
#
#
#
# Elastic Compliance Matrix: (Units=1/GPa)
#
#
# Indices 1 2 3 4 5 6 
#
# 1 0.015062 0.001532 -0.006717 0.000000 0.005537 0.000000
# 2 0.001532 0.026413 -0.002088 0.000000 0.002577 0.000000
# 3 -0.006717 -0.002088 0.012939 0.000000 -0.004344 0.000000
# 4 0.000000 0.000000 0.000000 0.031680 0.000000 -0.013687
# 5 0.005537 0.002577 -0.004344 0.000000 0.032405 0.000000
# 6 0.000000 0.000000 0.000000 -0.013687 0.000000 0.060832
#
#
# Mechanical properties :
#
#
# Convention : Reuss Voigt Hill
#
# Bulk Modulus (GPa) = 25.08144 36.02726 30.55435
# Shear Modulus (GPa) = 24.13532 29.51734 26.82633
#
# Velocity S-wave (km/s) = 3.29500 3.64391 3.47384
# Velocity P-wave (km/s) = 5.07530 5.82328 5.46211
#
# Compressibility (1/GPa) = 0.03987013
#
# Stress axis : x y z
#
# Youngs Moduli (GPa) = 66.39218 37.85957 77.28559
#
# Poissons Ratio (x) = -0.05801 0.51910
# Poissons Ratio (y) = -0.10173 0.16135
# Poissons Ratio (z) = 0.44593 0.07904
#
# Static dielectric constant tensor:
#      x y z
#    x 1.787640 0.000000 -0.016100 
#    y 0.000000 2.109960 0.000000 
#    z -0.016100 0.000000 1.873960 
# 
# From -- ./inp_files/67905.got.cif
#   From: 2010.05.17/outbox.cif.g08.bks.cpg/sg14_34_cif.got.tgz:67905.got - 2010.06.03 17:49:19.
