data_PCOD9241174
_publ_section_title
;
Structure prediction by ZEFSAII (Michael W. Deem and Ramdas Pophale) SiO2 
 PCOD9241174
Probable space group: P 21/C
;
_chemical_formula_sum "Si O2"
_cell_formula_units_Z 32
_cell_length_a 7.604597
_cell_length_b 20.523478
_cell_length_c 14.338885
_cell_angle_alpha 90.000000
_cell_angle_beta 145.023406
_cell_angle_gamma 90.000000
_cell_volume 1282.863246
_symmetry_space_group_name_H-M "P 21/C"
_symmetry_group_IT_number 14
_symmetry_cell_setting 'monoclinic'
loop_
_space_group_symop_operation_xyz
x,y,z
-x,1/2+y,1/2-z
-x,-y,-z
x,1/2-y,1/2+z
loop_
_atom_site_type_symbol
_atom_site_label
_atom_site_fract_x
_atom_site_fract_y
_atom_site_fract_z
Si Si1 0.850171 0.736358 0.768994
Si Si2 0.868072 0.516074 0.659691
Si Si3 0.231882 0.982086 0.517115
Si Si4 0.465129 0.750223 0.781446
Si Si5 0.693145 0.845858 0.020750
Si Si6 0.132521 0.849554 0.526041
Si Si7 0.427993 0.117863 0.596099
Si Si8 0.997262 0.623738 0.269288
O O1 0.595965 0.730538 0.738265
O O2 0.748614 0.702912 0.630446
O O3 0.940641 0.811245 0.802450
O O4 0.120272 0.691466 0.926609
O O5 0.500000 0.500000 0.500000
O O6 0.884966 0.586879 0.615912
O O7 0.000019 0.446890 0.680860
O O8 0.029095 0.523257 0.833031
O O9 0.346758 0.910886 0.598181
O O10 0.484211 0.039498 0.618333
O O11 0.000000 0.000000 0.500000
O O12 0.201553 0.800094 0.638995
O O13 0.705514 0.798788 0.936801
O O14 0.385885 0.685448 0.806093
O O15 0.337739 0.868215 0.873911
O O16 0.806055 0.877151 0.417719
O O17 0.247142 0.125052 0.420607
#
# Coordination Sequence:
#
# PCOD9241174 Si02
#       8
#     4   4   4   4   4   4   4   4
#     4  11  22  36  54  84 116 148 184 232 285 347
#     4   9  19  33  56  84 107 144 196 235 277 326
#     4   9  17  31  54  81 111 139 181 244 283 310
#     4  11  22  35  56  84 115 149 186 227 291 341
#     4  11  20  37  59  84 111 148 189 236 281 335
#     4  10  19  35  53  80 114 144 187 230 282 336
#     4   9  18  33  55  81 107 141 185 232 274 324
#     4  10  19  36  58  81 111 144 187 237 278 321
#
# _framework density 24.944202000000001
#
# number of rings (size 3 to 8) (size 9 to 14) (size 15 to 20)
#    0.000    2.000    3.750    0.750    1.750    0.000 
#    0.000    0.625    0.000    6.000    0.000    0.000 
#    0.000    0.000    0.000    0.000    0.000    0.000 
#
# Total GULP energy -178449.819500 kJ/mol
# GULP energy per Si atom -5576.556859 kJ/mol
# Density = 2.488743 g / cm^3
# Si number density = 24.944202 Si / 1000 Ang^3
#
#
#
# Elastic Constant Matrix: (Units=GPa)
#
#
# Indices 1 2 3 4 5 6 
#
# 1 46.1645 12.9121 -1.8616 0.0000 0.7553 0.0000
# 2 12.9121 231.6836 25.7430 0.0000 8.6965 0.0000
# 3 -1.8616 25.7430 22.6919 0.0000 -1.9846 0.0000
# 4 0.0000 0.0000 0.0000 34.4839 0.0000 1.1066
# 5 0.7553 8.6965 -1.9846 0.0000 19.0519 0.0000
# 6 0.0000 0.0000 0.0000 1.1066 0.0000 45.3249
#
#
#
# Elastic Compliance Matrix: (Units=1/GPa)
#
#
# Indices 1 2 3 4 5 6 
#
# 1 0.022275 -0.001667 0.003742 0.000000 0.000268 0.000000
# 2 -0.001667 0.005223 -0.006323 0.000000 -0.002977 0.000000
# 3 0.003742 -0.006323 0.052264 0.000000 0.008182 0.000000
# 4 0.000000 0.000000 0.000000 0.029022 0.000000 -0.000709
# 5 0.000268 -0.002977 0.008182 0.000000 0.054689 0.000000
# 6 0.000000 0.000000 0.000000 -0.000709 0.000000 0.022080
#
#
# Mechanical properties :
#
#
# Convention : Reuss Voigt Hill
#
# Bulk Modulus (GPa) = 14.03185 41.56967 27.80076
# Shear Modulus (GPa) = 22.95639 37.35525 30.15582
#
# Velocity S-wave (km/s) = 3.03695 3.87402 3.48074
# Velocity P-wave (km/s) = 4.23497 6.05904 5.22718
#
# Compressibility (1/GPa) = 0.07126646
#
# Stress axis : x y z
#
# Youngs Moduli (GPa) = 44.89431 191.44441 19.13352
#
# Poissons Ratio (x) = 0.31919 -0.07160
# Poissons Ratio (y) = 0.07485 0.12098
# Poissons Ratio (z) = -0.16801 1.21049
#
# Static dielectric constant tensor:
#      x y z
#    x 2.023640 0.000000 0.121230 
#    y 0.000000 2.142170 0.000000 
#    z 0.121230 0.000000 2.065280 
# 
# From -- ./inp_files/41699.got.cif
#   From: 2010.05.17/outbox.cif.g08.bks.cpg/sg14_21_cif.got.tgz:41699.got - 2010.06.03 17:49:19.
