data_PCOD9241359
_publ_section_title
;
Structure prediction by ZEFSAII (Michael W. Deem and Ramdas Pophale) SiO2 
 PCOD9241359
Probable space group: P 21/C
;
_chemical_formula_sum "Si O2"
_cell_formula_units_Z 30
_cell_length_a 8.993230
_cell_length_b 9.104794
_cell_length_c 27.159683
_cell_angle_alpha 90.000000
_cell_angle_beta 29.703461
_cell_angle_gamma 90.000000
_cell_volume 1101.955209
_symmetry_space_group_name_H-M "P 21/C"
_symmetry_group_IT_number 14
_symmetry_cell_setting 'monoclinic'
loop_
_space_group_symop_operation_xyz
x,y,z
-x,1/2+y,1/2-z
-x,-y,-z
x,1/2-y,1/2+z
loop_
_atom_site_type_symbol
_atom_site_label
_atom_site_fract_x
_atom_site_fract_y
_atom_site_fract_z
Si Si1 0.112952 0.589155 0.261599
Si Si2 0.224781 0.126388 0.647079
Si Si3 0.587138 0.745648 0.552814
Si Si4 0.500000 0.000000 0.500000
Si Si5 0.301723 0.945470 0.940626
Si Si6 0.763988 0.547928 0.218247
Si Si7 0.336931 0.121429 0.768254
Si Si8 0.862604 0.341808 0.045753
O O1 0.079070 0.451589 0.235017
O O2 0.381350 0.688242 0.158209
O O3 0.139877 0.519433 0.308263
O O4 0.847699 0.706319 0.335563
O O5 0.550214 0.068529 0.541575
O O6 0.085083 0.030955 0.639104
O O7 0.590129 0.567754 0.552056
O O8 0.927418 0.777578 0.471328
O O9 0.493867 0.824823 0.529630
O O10 0.571154 0.937515 0.823438
O O11 0.184299 0.780615 0.982613
O O12 0.000000 0.000000 0.000000
O O13 0.783564 0.712496 0.190509
O O14 0.564214 0.435582 0.244276
O O15 0.537392 0.133223 0.661646
O O16 0.000000 0.500000 0.000000
#
# Coordination Sequence:
#
# PCOD9241359 Si02
#       8
#     4   4   4   2   4   4   4   4
#     4  11  22  39  66  88 126 174 222 269 330 413
#     4  11  23  43  66  93 128 175 223 269 334 399
#     4  10  19  39  61  91 128 173 220 270 341 403
#     4  10  24  40  66  94 130 178 224 284 334 406
#     4   9  20  35  60  93 125 168 213 272 331 404
#     4  11  22  38  62  93 129 163 216 271 329 390
#     4  11  23  37  62  97 126 166 214 273 333 394
#     4  10  19  35  61  93 127 165 215 269 339 406
#
# _framework density 27.224335
#
# number of rings (size 3 to 8) (size 9 to 14) (size 15 to 20)
#    0.000    1.600    2.667    2.400    0.000    2.133 
#    0.000    0.000    0.000    4.800    0.000    0.000 
#    0.000    0.000    0.000    0.000    0.000    0.000 
#
# Total GULP energy -167162.494862 kJ/mol
# GULP energy per Si atom -5572.083162 kJ/mol
# Density = 2.716237 g / cm^3
# Si number density = 27.224335 Si / 1000 Ang^3
#
#
#
# Elastic Constant Matrix: (Units=GPa)
#
#
# Indices 1 2 3 4 5 6 
#
# 1 101.2846 72.3321 2.8630 0.0000 -11.6746 0.0000
# 2 72.3321 228.5908 14.9703 0.0000 6.7918 0.0000
# 3 2.8630 14.9703 78.3904 0.0000 1.2849 0.0000
# 4 0.0000 0.0000 0.0000 33.0292 0.0000 -3.0336
# 5 -11.6746 6.7918 1.2849 0.0000 22.4689 0.0000
# 6 0.0000 0.0000 0.0000 -3.0336 0.0000 73.1386
#
#
#
# Elastic Compliance Matrix: (Units=1/GPa)
#
#
# Indices 1 2 3 4 5 6 
#
# 1 0.014328 -0.004814 0.000250 0.000000 0.008886 0.000000
# 2 -0.004814 0.006085 -0.000916 0.000000 -0.004289 0.000000
# 3 0.000250 -0.000916 0.012928 0.000000 -0.000332 0.000000
# 4 0.000000 0.000000 0.000000 0.030392 0.000000 0.001261
# 5 0.008886 -0.004289 -0.000332 0.000000 0.050438 0.000000
# 6 0.000000 0.000000 0.000000 0.001261 0.000000 0.013725
#
#
# Mechanical properties :
#
#
# Convention : Reuss Voigt Hill
#
# Bulk Modulus (GPa) = 44.67878 65.39961 55.03919
# Shear Modulus (GPa) = 34.17227 46.93403 40.55315
#
# Velocity S-wave (km/s) = 3.54674 4.15658 3.86371
# Velocity P-wave (km/s) = 5.76363 6.86373 6.33760
#
# Compressibility (1/GPa) = 0.02238199
#
# Stress axis : x y z
#
# Youngs Moduli (GPa) = 69.79121 164.32739 77.35209
#
# Poissons Ratio (x) = 0.79112 -0.01937
# Poissons Ratio (y) = 0.33600 0.07086
# Poissons Ratio (z) = -0.01748 0.15053
#
# Static dielectric constant tensor:
#      x y z
#    x 2.217130 0.000000 -0.032720 
#    y 0.000000 3.253610 0.000000 
#    z -0.032720 0.000000 2.367110 
# 
# From -- ./inp_files/76474.got.cif
#   From: 2010.05.17/outbox.cif.g08.bks.cpg/sg14_39_cif.got.tgz:76474.got - 2010.06.03 17:49:19.
