data_PCOD9241172
_publ_section_title
;
Structure prediction by ZEFSAII (Michael W. Deem and Ramdas Pophale) SiO2 
 PCOD9241172
Probable space group: P 21/C
;
_chemical_formula_sum "Si O2"
_cell_formula_units_Z 28
_cell_length_a 14.039280
_cell_length_b 16.931450
_cell_length_c 7.241482
_cell_angle_alpha 90.000000
_cell_angle_beta 50.205832
_cell_angle_gamma 90.000000
_cell_volume 1322.588646
_symmetry_space_group_name_H-M "P 21/C"
_symmetry_group_IT_number 14
_symmetry_cell_setting 'monoclinic'
loop_
_space_group_symop_operation_xyz
x,y,z
-x,1/2+y,1/2-z
-x,-y,-z
x,1/2-y,1/2+z
loop_
_atom_site_type_symbol
_atom_site_label
_atom_site_fract_x
_atom_site_fract_y
_atom_site_fract_z
Si Si1 0.718105 0.520207 0.129016
Si Si2 0.039587 0.100208 0.781352
Si Si3 0.167411 0.698630 0.332036
Si Si4 0.617650 0.947242 0.116177
Si Si5 0.900910 0.558922 0.367876
Si Si6 0.863458 0.368087 0.041538
Si Si7 0.381397 0.920135 0.596335
O O1 0.614497 0.550677 0.398441
O O2 0.825787 0.585627 0.973394
O O3 0.782208 0.446578 0.156582
O O4 0.676740 0.482423 0.984129
O O5 0.071038 0.083758 0.957174
O O6 0.947257 0.032121 0.817924
O O7 0.955580 0.178362 0.894772
O O8 0.180930 0.791893 0.295159
O O9 0.149679 0.660550 0.153448
O O10 0.287585 0.650967 0.251151
O O11 0.595542 0.031396 0.245177
O O12 0.510190 0.894628 0.341067
O O13 0.758905 0.927395 0.995093
O O14 0.993318 0.606768 0.119226
#
# Coordination Sequence:
#
# PCOD9241172 Si02
#       7
#     4   4   4   4   4   4   4
#     4  10  20  35  54  85 107 137 187 231 269 313
#     4   9  16  32  54  73 113 137 165 241 272 298
#     4  10  19  35  53  78 111 143 176 226 280 317
#     4  11  20  32  60  78 106 146 182 219 262 336
#     4   9  16  33  51  81 106 139 177 216 277 316
#     4   9  21  31  55  78 110 141 175 229 276 327
#     4  10  21  36  51  80 113 140 178 227 267 311
#
# _framework density 21.170604000000001
#
# number of rings (size 3 to 8) (size 9 to 14) (size 15 to 20)
#    0.000    2.286    2.857    2.143    2.000    3.429 
#    0.000    0.000    0.000   12.000    0.000    0.000 
#    0.000    0.000    0.000    0.000    0.000    0.000 
#
# Total GULP energy -156133.325992 kJ/mol
# GULP energy per Si atom -5576.190214 kJ/mol
# Density = 2.112242 g / cm^3
# Si number density = 21.170604 Si / 1000 Ang^3
#
#
#
# Elastic Constant Matrix: (Units=GPa)
#
#
# Indices 1 2 3 4 5 6 
#
# 1 61.0632 1.2542 11.8742 0.0000 -6.5608 0.0000
# 2 1.2542 31.8657 18.4657 0.0000 3.8316 0.0000
# 3 11.8742 18.4657 111.9305 0.0000 -2.1235 0.0000
# 4 0.0000 0.0000 0.0000 24.7289 0.0000 1.1005
# 5 -6.5608 3.8316 -2.1235 0.0000 38.2562 0.0000
# 6 0.0000 0.0000 0.0000 1.1005 0.0000 18.0508
#
#
#
# Elastic Compliance Matrix: (Units=1/GPa)
#
#
# Indices 1 2 3 4 5 6 
#
# 1 0.017020 0.000007 -0.001753 0.000000 0.002821 0.000000
# 2 0.000007 0.035259 -0.005891 0.000000 -0.003857 0.000000
# 3 -0.001753 -0.005891 0.010108 0.000000 0.000850 0.000000
# 4 0.000000 0.000000 0.000000 0.040548 0.000000 -0.002472
# 5 0.002821 -0.003857 0.000850 0.000000 0.027057 0.000000
# 6 0.000000 0.000000 0.000000 -0.002472 0.000000 0.055550
#
#
# Mechanical properties :
#
#
# Convention : Reuss Voigt Hill
#
# Bulk Modulus (GPa) = 21.22555 29.78308 25.50431
# Shear Modulus (GPa) = 23.09246 27.75820 25.42533
#
# Velocity S-wave (km/s) = 3.30628 3.62493 3.46927
# Velocity P-wave (km/s) = 4.96216 5.62306 5.30292
#
# Compressibility (1/GPa) = 0.04711304
#
# Stress axis : x y z
#
# Youngs Moduli (GPa) = 58.75320 28.36172 98.93089
#
# Poissons Ratio (x) = -0.00019 0.17345
# Poissons Ratio (y) = -0.00040 0.58277
# Poissons Ratio (z) = 0.10301 0.16707
#
# Static dielectric constant tensor:
#      x y z
#    x 1.837440 0.000000 0.029250 
#    y 0.000000 1.765930 0.000000 
#    z 0.029250 0.000000 1.839110 
# 
# From -- ./inp_files/13535.got.cif
#   From: 2010.05.17/outbox.cif.g08.bks.cpg/sg14_7_cif.got.tgz:13535.got - 2010.06.03 17:49:19.
