data_PCOD9241853
_publ_section_title
;
Structure prediction by ZEFSAII (Michael W. Deem and Ramdas Pophale) SiO2 
 PCOD9241853
Probable space group: P 21/C
;
_chemical_formula_sum "Si O2"
_cell_formula_units_Z 30
_cell_length_a 12.113587
_cell_length_b 14.670564
_cell_length_c 13.296181
_cell_angle_alpha 90.000000
_cell_angle_beta 32.557543
_cell_angle_gamma 90.000000
_cell_volume 1271.589417
_symmetry_space_group_name_H-M "P 21/C"
_symmetry_group_IT_number 14
_symmetry_cell_setting 'monoclinic'
loop_
_space_group_symop_operation_xyz
x,y,z
-x,1/2+y,1/2-z
-x,-y,-z
x,1/2-y,1/2+z
loop_
_atom_site_type_symbol
_atom_site_label
_atom_site_fract_x
_atom_site_fract_y
_atom_site_fract_z
Si Si1 0.966330 0.120804 0.847576
Si Si2 0.000000 0.500000 0.500000
Si Si3 0.714363 0.558300 0.221069
Si Si4 0.715566 0.384904 0.341249
Si Si5 0.372751 0.123797 0.742823
Si Si6 0.809735 0.727365 0.246276
Si Si7 0.493324 0.227157 0.852669
Si Si8 0.609272 0.561301 0.072483
O O1 0.988392 0.218491 0.881193
O O2 0.190816 0.078176 0.649613
O O3 0.859832 0.135559 0.823439
O O4 0.884158 0.051891 0.993433
O O5 0.865784 0.592342 0.574984
O O6 0.794497 0.473224 0.221465
O O7 0.497513 0.586150 0.439752
O O8 0.846409 0.647683 0.140160
O O9 0.677304 0.539201 0.133769
O O10 0.666837 0.309798 0.294730
O O11 0.361872 0.204429 0.669042
O O12 0.469151 0.171514 0.767288
O O13 0.491190 0.029505 0.625402
O O14 0.713948 0.699113 0.426551
O O15 0.493078 0.337234 0.842092
#
# Coordination Sequence:
#
# PCOD9241853 Si02
#       8
#     4   2   4   4   4   4   4   4
#     4  10  23  41  58  95 130 163 214 261 318 378
#     4  10  24  40  66  88 122 168 212 262 306 388
#     4  10  19  37  66  92 120 170 209 260 321 372
#     4  10  21  39  64  92 125 168 219 255 314 395
#     4  11  21  43  67  93 127 167 217 260 323 379
#     4   9  21  38  61  89 126 162 209 260 311 377
#     4  10  21  39  64  90 127 170 208 261 318 380
#     4  11  22  40  67  95 131 167 207 271 320 376
#
# _framework density 23.59252
#
# number of rings (size 3 to 8) (size 9 to 14) (size 15 to 20)
#    0.000    1.867    2.667    0.800    3.733    5.333 
#    4.800    4.000    0.000    0.000    0.000    0.000 
#    0.000    0.000    0.000    0.000    0.000    0.000 
#
# Total GULP energy -167006.627560 kJ/mol
# GULP energy per Si atom -5566.887585 kJ/mol
# Density = 2.353882 g / cm^3
# Si number density = 23.592520 Si / 1000 Ang^3
#
#
#
# Elastic Constant Matrix: (Units=GPa)
#
#
# Indices 1 2 3 4 5 6 
#
# 1 153.9009 49.1633 -9.8351 0.0000 6.8694 0.0000
# 2 49.1633 110.0579 4.2983 0.0000 -11.4031 0.0000
# 3 -9.8351 4.2983 30.5699 0.0000 1.1359 0.0000
# 4 0.0000 0.0000 0.0000 24.6907 0.0000 -6.9361
# 5 6.8694 -11.4031 1.1359 0.0000 25.8913 0.0000
# 6 0.0000 0.0000 0.0000 -6.9361 0.0000 26.2705
#
#
#
# Elastic Compliance Matrix: (Units=1/GPa)
#
#
# Indices 1 2 3 4 5 6 
#
# 1 0.008266 -0.004263 0.003416 0.000000 -0.004221 0.000000
# 2 -0.004263 0.011788 -0.003269 0.000000 0.006466 0.000000
# 3 0.003416 -0.003269 0.034414 0.000000 -0.003856 0.000000
# 4 0.000000 0.000000 0.000000 0.043746 0.000000 0.011550
# 5 -0.004221 0.006466 -0.003856 0.000000 0.042760 0.000000
# 6 0.000000 0.000000 0.000000 0.011550 0.000000 0.041115
#
#
# Mechanical properties :
#
#
# Convention : Reuss Voigt Hill
#
# Bulk Modulus (GPa) = 21.62889 42.42019 32.02454
# Shear Modulus (GPa) = 24.30318 32.09730 28.20024
#
# Velocity S-wave (km/s) = 3.21303 3.69248 3.46107
# Velocity P-wave (km/s) = 4.79086 6.01653 5.43833
#
# Compressibility (1/GPa) = 0.04623446
#
# Stress axis : x y z
#
# Youngs Moduli (GPa) = 120.97371 84.83055 29.05811
#
# Poissons Ratio (x) = 0.36166 -0.09925
# Poissons Ratio (y) = 0.51574 0.09500
# Poissons Ratio (z) = -0.41321 0.27734
#
# Static dielectric constant tensor:
#      x y z
#    x 1.927100 0.000000 -0.103710 
#    y 0.000000 1.921800 0.000000 
#    z -0.103710 0.000000 2.043390 
# 
# From -- ./inp_files/44933.got.cif
#   From: 2010.05.17/outbox.cif.g08.bks.cpg/sg14_23_cif.got.tgz:44933.got - 2010.06.03 17:49:19.
