data_PCOD9241620
_publ_section_title
;
Structure prediction by ZEFSAII (Michael W. Deem and Ramdas Pophale) SiO2 
 PCOD9241620
Probable space group: P 21/C
;
_chemical_formula_sum "Si O2"
_cell_formula_units_Z 32
_cell_length_a 14.437148
_cell_length_b 11.897079
_cell_length_c 18.168333
_cell_angle_alpha 90.000000
_cell_angle_beta 154.994032
_cell_angle_gamma 90.000000
_cell_volume 1319.113278
_symmetry_space_group_name_H-M "P 21/C"
_symmetry_group_IT_number 14
_symmetry_cell_setting 'monoclinic'
loop_
_space_group_symop_operation_xyz
x,y,z
-x,1/2+y,1/2-z
-x,-y,-z
x,1/2-y,1/2+z
loop_
_atom_site_type_symbol
_atom_site_label
_atom_site_fract_x
_atom_site_fract_y
_atom_site_fract_z
Si Si1 0.653773 0.478464 0.502599
Si Si2 0.866741 0.257682 0.160202
Si Si3 0.175854 0.493850 0.223194
Si Si4 0.154907 0.689947 0.022771
Si Si5 0.503237 0.002310 0.742896
Si Si6 0.492313 0.428211 0.921094
Si Si7 0.848290 0.803509 0.506266
Si Si8 0.060595 0.130497 0.052826
O O1 0.706795 0.348710 0.554934
O O2 0.404500 0.503471 0.346274
O O3 0.793588 0.536440 0.667825
O O4 0.686138 0.497431 0.438957
O O5 0.900792 0.268367 0.098593
O O6 0.086191 0.236562 0.364697
O O7 0.720314 0.361327 0.082028
O O8 0.035014 0.394381 0.087705
O O9 0.043590 0.609671 0.126821
O O10 0.148013 0.798453 0.069144
O O11 0.363296 0.609310 0.164011
O O12 0.530426 0.990105 0.674781
O O13 0.365972 0.118386 0.654633
O O14 0.264479 0.358708 0.756291
O O15 0.500000 0.500000 0.000000
O O16 0.855567 0.695594 0.459211
O O17 0.000000 0.000000 0.000000
#
# Coordination Sequence:
#
# PCOD9241620 Si02
#       8
#     4   4   4   4   4   4   4   4
#     4  10  19  36  63  96 123 155 206 268 326 374
#     4  10  22  39  63  88 132 167 208 263 318 389
#     4   9  19  37  66  94 123 159 210 271 318 378
#     4  10  22  40  61  91 123 169 210 261 317 376
#     4  10  22  40  68  96 125 167 221 276 313 382
#     4  11  25  43  61  91 133 177 217 266 330 385
#     4  10  21  41  65  96 123 167 214 265 321 378
#     4  12  26  42  66  95 133 174 212 265 328 397
#
# _framework density 24.25872
#
# number of rings (size 3 to 8) (size 9 to 14) (size 15 to 20)
#    0.000    1.750    0.000    3.750    3.500    3.000 
#    2.250    1.250    0.000    0.000    0.000    0.000 
#    0.000    0.000    0.000    0.000    0.000    0.000 
#
# Total GULP energy -178907.066981 kJ/mol
# GULP energy per Si atom -5590.845843 kJ/mol
# Density = 2.420351 g / cm^3
# Si number density = 24.258720 Si / 1000 Ang^3
#
#
#
# Elastic Constant Matrix: (Units=GPa)
#
#
# Indices 1 2 3 4 5 6 
#
# 1 98.6595 40.8426 23.8233 0.0000 -31.2239 0.0000
# 2 40.8426 118.7529 13.7563 0.0000 -12.0168 0.0000
# 3 23.8233 13.7563 77.2930 0.0000 -29.1113 0.0000
# 4 0.0000 0.0000 0.0000 29.3365 0.0000 -11.5801
# 5 -31.2239 -12.0168 -29.1113 0.0000 51.0559 0.0000
# 6 0.0000 0.0000 0.0000 -11.5801 0.0000 38.7865
#
#
#
# Elastic Compliance Matrix: (Units=1/GPa)
#
#
# Indices 1 2 3 4 5 6 
#
# 1 0.014364 -0.004093 -0.000959 0.000000 0.007274 0.000000
# 2 -0.004093 0.009851 -0.000715 0.000000 -0.000592 0.000000
# 3 -0.000959 -0.000715 0.016652 0.000000 0.008740 0.000000
# 4 0.000000 0.000000 0.000000 0.038641 0.000000 0.011537
# 5 0.007274 -0.000592 0.008740 0.000000 0.028879 0.000000
# 6 0.000000 0.000000 0.000000 0.011537 0.000000 0.029227
#
#
# Mechanical properties :
#
#
# Convention : Reuss Voigt Hill
#
# Bulk Modulus (GPa) = 34.08973 50.17221 42.13097
# Shear Modulus (GPa) = 31.46103 38.25466 34.85784
#
# Velocity S-wave (km/s) = 3.60515 3.97538 3.79479
# Velocity P-wave (km/s) = 5.60469 6.46518 6.05025
#
# Compressibility (1/GPa) = 0.02933435
#
# Stress axis : x y z
#
# Youngs Moduli (GPa) = 69.61823 101.50789 60.05112
#
# Poissons Ratio (x) = 0.41547 0.05759
# Poissons Ratio (y) = 0.28495 0.04292
# Poissons Ratio (z) = 0.06677 0.07255
#
# Static dielectric constant tensor:
#      x y z
#    x 1.999720 0.000000 0.035410 
#    y 0.000000 1.940980 0.000000 
#    z 0.035410 0.000000 1.946940 
# 
# From -- ./inp_files/59404.got.cif
#   From: 2010.05.17/outbox.cif.g08.bks.cpg/sg14_30_cif.got.tgz:59404.got - 2010.06.03 17:49:19.
