data_PCOD9241041
_publ_section_title
;
Structure prediction by ZEFSAII (Michael W. Deem and Ramdas Pophale) SiO2 
 PCOD9241041
Probable space group: P 21/C
;
_chemical_formula_sum "Si O2"
_cell_formula_units_Z 28
_cell_length_a 14.203728
_cell_length_b 8.999682
_cell_length_c 11.376235
_cell_angle_alpha 90.000000
_cell_angle_beta 52.461864
_cell_angle_gamma 90.000000
_cell_volume 1153.115366
_symmetry_space_group_name_H-M "P 21/C"
_symmetry_group_IT_number 14
_symmetry_cell_setting 'monoclinic'
loop_
_space_group_symop_operation_xyz
x,y,z
-x,1/2+y,1/2-z
-x,-y,-z
x,1/2-y,1/2+z
loop_
_atom_site_type_symbol
_atom_site_label
_atom_site_fract_x
_atom_site_fract_y
_atom_site_fract_z
Si Si1 0.524590 0.948182 0.148731
Si Si2 0.730958 0.755158 0.872200
Si Si3 0.145078 0.954421 0.276745
Si Si4 0.637718 0.488567 0.796850
Si Si5 0.117207 0.669908 0.413713
Si Si6 0.381825 0.804144 0.074905
Si Si7 0.057420 0.046647 0.758751
O O1 0.409754 0.865016 0.185884
O O2 0.541618 0.990949 0.269265
O O3 0.635389 0.840741 0.026492
O O4 0.530844 0.103766 0.073500
O O5 0.667987 0.644820 0.830545
O O6 0.828984 0.648513 0.858561
O O7 0.799697 0.884032 0.749462
O O8 0.121418 0.847737 0.404402
O O9 0.252294 0.858783 0.135481
O O10 0.031367 0.969943 0.281238
O O11 0.759085 0.414269 0.651269
O O12 0.605315 0.370035 0.922050
O O13 0.089943 0.606060 0.302497
O O14 0.016708 0.626979 0.581379
#
# Coordination Sequence:
#
# PCOD9241041 Si02
#       7
#     4   4   4   4   4   4   4
#     4  10  21  41  63  86 123 157 192 254 299 338
#     4  10  22  36  57  90 117 152 204 242 295 369
#     4  10  19  35  54  80 116 148 193 248 290 349
#     4  10  21  40  61  85 120 156 194 244 298 354
#     4   9  19  34  54  79 110 155 199 238 297 359
#     4   9  21  38  61  88 113 156 206 235 291 366
#     4  10  19  34  56  80 113 156 198 247 302 350
#
# _framework density 24.282046999999999
#
# number of rings (size 3 to 8) (size 9 to 14) (size 15 to 20)
#    0.000    2.286    0.000    2.571    0.000    6.857 
#    0.000    8.571    0.000    0.000    0.000    0.000 
#    0.000    0.000    0.000    0.000    0.000    0.000 
#
# Total GULP energy -156525.296295 kJ/mol
# GULP energy per Si atom -5590.189153 kJ/mol
# Density = 2.422678 g / cm^3
# Si number density = 24.282047 Si / 1000 Ang^3
#
#
#
# Elastic Constant Matrix: (Units=GPa)
#
#
# Indices 1 2 3 4 5 6 
#
# 1 108.3544 34.9876 25.3322 0.0000 -1.1009 0.0000
# 2 34.9876 163.9649 31.2657 0.0000 10.5716 0.0000
# 3 25.3322 31.2657 37.5554 0.0000 -1.9450 0.0000
# 4 0.0000 0.0000 0.0000 7.6705 0.0000 -8.5469
# 5 -1.1009 10.5716 -1.9450 0.0000 24.6684 0.0000
# 6 0.0000 0.0000 0.0000 -8.5469 0.0000 35.8574
#
#
#
# Elastic Compliance Matrix: (Units=1/GPa)
#
#
# Indices 1 2 3 4 5 6 
#
# 1 0.011133 -0.001164 -0.006515 0.000000 0.000482 0.000000
# 2 -0.001164 0.007704 -0.005826 0.000000 -0.003813 0.000000
# 3 -0.006515 -0.005826 0.036134 0.000000 0.005055 0.000000
# 4 0.000000 0.000000 0.000000 0.177517 0.000000 0.042313
# 5 0.000482 -0.003813 0.005055 0.000000 0.042592 0.000000
# 6 0.000000 0.000000 0.000000 0.042313 0.000000 0.037974
#
#
# Mechanical properties :
#
#
# Convention : Reuss Voigt Hill
#
# Bulk Modulus (GPa) = 35.76518 54.78286 45.27402
# Shear Modulus (GPa) = 14.31088 28.19188 21.25138
#
# Velocity S-wave (km/s) = 2.43031 3.41107 2.96157
# Velocity P-wave (km/s) = 4.75776 6.17445 5.51181
#
# Compressibility (1/GPa) = 0.02796016
#
# Stress axis : x y z
#
# Youngs Moduli (GPa) = 89.82272 129.80159 27.67478
#
# Poissons Ratio (x) = 0.15113 0.18031
# Poissons Ratio (y) = 0.10458 0.16123
# Poissons Ratio (z) = 0.58522 0.75621
#
# Static dielectric constant tensor:
#      x y z
#    x 1.949410 0.000000 -0.045440 
#    y 0.000000 1.945930 0.000000 
#    z -0.045440 0.000000 1.979520 
# 
# From -- ./inp_files/31530.got.cif
#   From: 2010.05.17/outbox.cif.g08.bks.cpg/sg14_16_cif.got.tgz:31530.got - 2010.06.03 17:49:19.
