data_PCOD9241409
_publ_section_title
;
Structure prediction by ZEFSAII (Michael W. Deem and Ramdas Pophale) SiO2 
 PCOD9241409
Probable space group: P 21/C
;
_chemical_formula_sum "Si O2"
_cell_formula_units_Z 32
_cell_length_a 5.245890
_cell_length_b 16.460554
_cell_length_c 19.082295
_cell_angle_alpha 90.000000
_cell_angle_beta 61.622083
_cell_angle_gamma 90.000000
_cell_volume 1449.752610
_symmetry_space_group_name_H-M "P 21/C"
_symmetry_group_IT_number 14
_symmetry_cell_setting 'monoclinic'
loop_
_space_group_symop_operation_xyz
x,y,z
-x,1/2+y,1/2-z
-x,-y,-z
x,1/2-y,1/2+z
loop_
_atom_site_type_symbol
_atom_site_label
_atom_site_fract_x
_atom_site_fract_y
_atom_site_fract_z
Si Si1 0.000188 0.096647 0.261511
Si Si2 0.503436 0.664500 0.785062
Si Si3 0.311142 0.603346 0.576187
Si Si4 0.744446 0.516919 0.686655
Si Si5 0.012017 0.528872 0.094277
Si Si6 0.563165 0.073997 0.567316
Si Si7 0.839874 0.269653 0.292052
Si Si8 0.486963 0.924168 0.901469
O O1 0.240169 0.116755 0.171778
O O2 0.848594 0.019249 0.246673
O O3 0.125313 0.067710 0.318820
O O4 0.808721 0.173690 0.304399
O O5 0.496725 0.579102 0.742174
O O6 0.447539 0.643580 0.873081
O O7 0.269506 0.714464 0.772497
O O8 0.823637 0.704414 0.741158
O O9 0.336395 0.676635 0.627951
O O10 0.458714 0.519545 0.584415
O O11 0.401034 0.618689 0.484401
O O12 0.978778 0.575222 0.620272
O O13 0.719539 0.440641 0.637732
O O14 0.244724 0.457803 0.086011
O O15 0.752208 0.497686 0.079673
O O16 0.228847 0.590930 0.026047
#
# Coordination Sequence:
#
# PCOD9241409 Si02
#       8
#     4   4   4   4   4   4   4   4
#     4  11  24  38  58  91 124 167 198 258 318 377
#     4  11  21  40  64  86 119 164 206 251 302 366
#     4   9  20  37  59  93 117 160 203 264 300 364
#     4  10  19  35  66  90 116 163 208 260 302 366
#     4  10  21  36  61  92 118 150 202 254 305 352
#     4  10  20  37  64  90 115 151 208 258 290 357
#     4  11  25  40  59  90 130 162 201 249 323 372
#     4  10  19  37  65  86 120 153 219 250 308 361
#
# _framework density 22.072731999999998
#
# number of rings (size 3 to 8) (size 9 to 14) (size 15 to 20)
#    0.000    1.750    2.500    1.875    3.500    0.000 
#    2.250    0.000    0.000    0.000    0.000    0.000 
#    0.000    0.000    0.000    0.000    0.000    0.000 
#
# Total GULP energy -178337.852569 kJ/mol
# GULP energy per Si atom -5573.057893 kJ/mol
# Density = 2.202249 g / cm^3
# Si number density = 22.072732 Si / 1000 Ang^3
#
#
#
# Elastic Constant Matrix: (Units=GPa)
#
#
# Indices 1 2 3 4 5 6 
#
# 1 64.4201 -2.5141 3.6217 0.0000 12.5336 0.0000
# 2 -2.5141 25.5443 19.5300 0.0000 -3.1296 0.0000
# 3 3.6217 19.5300 112.4675 0.0000 12.3581 0.0000
# 4 0.0000 0.0000 0.0000 10.3794 0.0000 2.7230
# 5 12.5336 -3.1296 12.3581 0.0000 26.0685 0.0000
# 6 0.0000 0.0000 0.0000 2.7230 0.0000 4.0075
#
#
#
# Elastic Compliance Matrix: (Units=1/GPa)
#
#
# Indices 1 2 3 4 5 6 
#
# 1 0.017144 0.000450 0.000284 0.000000 -0.008324 0.000000
# 2 0.000450 0.047571 -0.009367 0.000000 0.009935 0.000000
# 3 0.000284 -0.009367 0.011233 0.000000 -0.006586 0.000000
# 4 0.000000 0.000000 0.000000 0.117243 0.000000 -0.079662
# 5 -0.008324 0.009935 -0.006586 0.000000 0.046677 0.000000
# 6 0.000000 0.000000 0.000000 -0.079662 0.000000 0.303658
#
#
# Mechanical properties :
#
#
# Convention : Reuss Voigt Hill
#
# Bulk Modulus (GPa) = 17.04081 27.07857 22.05969
# Shear Modulus (GPa) = 8.61547 20.21071 14.41309
#
# Velocity S-wave (km/s) = 1.97780 3.02924 2.55812
# Velocity P-wave (km/s) = 3.59898 4.95273 4.32910
#
# Compressibility (1/GPa) = 0.05868264
#
# Stress axis : x y z
#
# Youngs Moduli (GPa) = 58.32897 21.02137 89.02691
#
# Poissons Ratio (x) = -0.00946 -0.02532
# Poissons Ratio (y) = -0.02625 0.83390
# Poissons Ratio (z) = -0.01659 0.19690
#
# Static dielectric constant tensor:
#      x y z
#    x 1.895340 0.000000 0.006780 
#    y 0.000000 1.874110 0.000000 
#    z 0.006780 0.000000 1.856350 
# 
# From -- ./inp_files/53615.got.cif
#   From: 2010.05.17/outbox.cif.g08.bks.cpg/sg14_27_cif.got.tgz:53615.got - 2010.06.03 17:49:19.
