data_PCOD9241960
_publ_section_title
;
Structure prediction by ZEFSAII (Michael W. Deem and Ramdas Pophale) SiO2 
 PCOD9241960
Probable space group: P 21/C
;
_chemical_formula_sum "Si O2"
_cell_formula_units_Z 20
_cell_length_a 8.751522
_cell_length_b 7.521246
_cell_length_c 18.508494
_cell_angle_alpha 90.000000
_cell_angle_beta 121.910702
_cell_angle_gamma 90.000000
_cell_volume 1034.158650
_symmetry_space_group_name_H-M "P 21/C"
_symmetry_group_IT_number 14
_symmetry_cell_setting 'monoclinic'
loop_
_space_group_symop_operation_xyz
x,y,z
-x,1/2+y,1/2-z
-x,-y,-z
x,1/2-y,1/2+z
loop_
_atom_site_type_symbol
_atom_site_label
_atom_site_fract_x
_atom_site_fract_y
_atom_site_fract_z
Si Si1 0.683714 0.765974 0.425879
Si Si2 0.599154 0.534304 0.693842
Si Si3 0.289497 0.043179 0.933685
Si Si4 0.642663 0.377395 0.856238
Si Si5 0.056383 0.683081 0.475662
O O1 0.561316 0.602832 0.368459
O O2 0.740066 0.715227 0.522137
O O3 0.865262 0.779772 0.423358
O O4 0.583656 0.951869 0.389038
O O5 0.726178 0.559470 0.656049
O O6 0.682199 0.447779 0.785851
O O7 0.507043 0.723755 0.686582
O O8 0.165928 0.883555 0.933258
O O9 0.500000 0.000000 0.000000
O O10 0.810248 0.291588 0.939841
O O11 0.000000 0.500000 0.500000
#
# Coordination Sequence:
#
# PCOD9241960 Si02
#       5
#     4   4   4   4   4
#     4  10  21  37  63  86 114 162 198 237 302 353
#     4  11  22  38  59  90 120 153 198 252 294 351
#     4   9  18  38  58  85 119 146 197 249 280 348
#     4  12  21  37  63  86 119 159 200 241 305 354
#     4  10  19  38  63  84 117 157 197 243 295 356
#
# _framework density 19.339392
#
# number of rings (size 3 to 8) (size 9 to 14) (size 15 to 20)
#    0.000    1.600    8.000    0.600    0.000    0.800 
#    0.000    4.000    0.000    0.000    0.000    0.000 
#    0.000    0.000    0.000    0.000    0.000    0.000 
#
# Total GULP energy -111395.965675 kJ/mol
# GULP energy per Si atom -5569.798284 kJ/mol
# Density = 1.929537 g / cm^3
# Si number density = 19.339392 Si / 1000 Ang^3
#
#
#
# Elastic Constant Matrix: (Units=GPa)
#
#
# Indices 1 2 3 4 5 6 
#
# 1 88.2127 24.1901 30.1239 0.0000 -24.5203 0.0000
# 2 24.1901 116.2497 41.8495 0.0000 -22.6068 0.0000
# 3 30.1239 41.8495 91.9204 0.0000 -41.0063 0.0000
# 4 0.0000 0.0000 0.0000 36.8058 0.0000 -3.1286
# 5 -24.5203 -22.6068 -41.0063 0.0000 31.6818 0.0000
# 6 0.0000 0.0000 0.0000 -3.1286 0.0000 4.5506
#
#
#
# Elastic Compliance Matrix: (Units=1/GPa)
#
#
# Indices 1 2 3 4 5 6 
#
# 1 0.014572 -0.001095 0.000960 0.000000 0.011739 0.000000
# 2 -0.001095 0.010495 -0.003447 0.000000 0.002180 0.000000
# 3 0.000960 -0.003447 0.026900 0.000000 0.033101 0.000000
# 4 0.000000 0.000000 0.000000 0.028856 0.000000 0.019839
# 5 0.011739 0.002180 0.033101 0.000000 0.085048 0.000000
# 6 0.000000 0.000000 0.000000 0.019839 0.000000 0.233393
#
#
# Mechanical properties :
#
#
# Convention : Reuss Voigt Hill
#
# Bulk Modulus (GPa) = 22.31980 54.30108 38.31044
# Shear Modulus (GPa) = 11.86632 27.95560 19.91096
#
# Velocity S-wave (km/s) = 2.47975 3.80613 3.21215
# Velocity P-wave (km/s) = 4.44579 6.88872 5.79739
#
# Compressibility (1/GPa) = 0.04480327
#
# Stress axis : x y z
#
# Youngs Moduli (GPa) = 68.62589 95.28564 37.17474
#
# Poissons Ratio (x) = 0.10433 -0.03569
# Poissons Ratio (y) = 0.07514 0.12813
# Poissons Ratio (z) = -0.06588 0.32842
#
# Static dielectric constant tensor:
#      x y z
#    x 1.728020 0.000000 -0.003620 
#    y 0.000000 1.727970 0.000000 
#    z -0.003620 0.000000 1.722340 
# 
# From -- ./inp_files/54667.got.cif
#   From: 2010.05.17/outbox.cif.g08.bks.cpg/sg14_28_cif.got.tgz:54667.got - 2010.06.03 17:49:19.
