data_PCOD9241074
_publ_section_title
;
Structure prediction by ZEFSAII (Michael W. Deem and Ramdas Pophale) SiO2 
 PCOD9241074
Probable space group: P 21/C
;
_chemical_formula_sum "Si O2"
_cell_formula_units_Z 20
_cell_length_a 6.388091
_cell_length_b 21.444811
_cell_length_c 5.634224
_cell_angle_alpha 90.000000
_cell_angle_beta 77.744594
_cell_angle_gamma 90.000000
_cell_volume 754.250853
_symmetry_space_group_name_H-M "P 21/C"
_symmetry_group_IT_number 14
_symmetry_cell_setting 'monoclinic'
loop_
_space_group_symop_operation_xyz
x,y,z
-x,1/2+y,1/2-z
-x,-y,-z
x,1/2-y,1/2+z
loop_
_atom_site_type_symbol
_atom_site_label
_atom_site_fract_x
_atom_site_fract_y
_atom_site_fract_z
Si Si1 0.325593 0.741937 0.930516
Si Si2 0.627292 0.583254 0.595715
Si Si3 0.795848 0.446048 0.536263
Si Si4 0.134267 0.285385 0.456426
Si Si5 0.217923 0.598963 0.956870
O O1 0.442073 0.749589 0.652178
O O2 0.224915 0.673311 0.954549
O O3 0.127646 0.789926 0.979007
O O4 0.762225 0.520382 0.543303
O O5 0.446598 0.582878 0.432040
O O6 0.755668 0.647218 0.565408
O O7 0.467184 0.578909 0.860740
O O8 0.892896 0.425445 0.257929
O O9 0.873761 0.425188 0.775255
O O10 0.173666 0.248633 0.694144
#
# Coordination Sequence:
#
# PCOD9241074 Si02
#       5
#     4   4   4   4   4
#     4  10  21  38  55  76 114 157 186 227 275 328
#     4   9  21  35  60  86 117 140 189 228 287 334
#     4   9  20  34  58  90 112 143 180 240 285 327
#     4  10  23  37  56  79 116 153 186 227 281 330
#     4  10  19  34  57  85 112 142 188 228 281 335
#
# _framework density 26.516373999999999
#
# number of rings (size 3 to 8) (size 9 to 14) (size 15 to 20)
#    1.200    1.200    0.000    1.800    2.800    1.600 
#    0.000    0.000    0.000   28.800    0.000    0.000 
#    0.000    0.000    0.000    0.000    0.000    0.000 
#
# Total GULP energy -111904.845331 kJ/mol
# GULP energy per Si atom -5595.242267 kJ/mol
# Density = 2.645602 g / cm^3
# Si number density = 26.516374 Si / 1000 Ang^3
#
#
#
# Elastic Constant Matrix: (Units=GPa)
#
#
# Indices 1 2 3 4 5 6 
#
# 1 56.2763 28.8303 60.9925 0.0000 7.3098 0.0000
# 2 28.8303 121.6189 67.0595 0.0000 10.5054 0.0000
# 3 60.9925 67.0595 295.3269 0.0000 22.0166 0.0000
# 4 0.0000 0.0000 0.0000 37.4706 0.0000 -2.6494
# 5 7.3098 10.5054 22.0166 0.0000 52.4654 0.0000
# 6 0.0000 0.0000 0.0000 -2.6494 0.0000 56.7267
#
#
#
# Elastic Compliance Matrix: (Units=1/GPa)
#
#
# Indices 1 2 3 4 5 6 
#
# 1 0.024101 -0.003345 -0.004147 0.000000 -0.000948 0.000000
# 2 -0.003345 0.009916 -0.001494 0.000000 -0.000893 0.000000
# 3 -0.004147 -0.001494 0.004662 0.000000 -0.001079 0.000000
# 4 0.000000 0.000000 0.000000 0.026776 0.000000 0.001251
# 5 -0.000948 -0.000893 -0.001079 0.000000 0.019824 0.000000
# 6 0.000000 0.000000 0.000000 0.001251 0.000000 0.017687
#
#
# Mechanical properties :
#
#
# Convention : Reuss Voigt Hill
#
# Bulk Modulus (GPa) = 48.29272 87.44294 67.86783
# Shear Modulus (GPa) = 39.11096 50.42186 44.76641
#
# Velocity S-wave (km/s) = 3.84471 4.36539 4.11330
# Velocity P-wave (km/s) = 6.16125 7.64574 6.94328
#
# Compressibility (1/GPa) = 0.02070705
#
# Stress axis : x y z
#
# Youngs Moduli (GPa) = 41.49220 100.84355 214.48074
#
# Poissons Ratio (x) = 0.33728 0.88953
# Poissons Ratio (y) = 0.13877 0.32053
# Poissons Ratio (z) = 0.17208 0.15070
#
# Static dielectric constant tensor:
#      x y z
#    x 2.173360 0.000000 -0.005020 
#    y 0.000000 2.020880 0.000000 
#    z -0.005020 0.000000 2.033130 
# 
# From -- ./inp_files/1072.got.cif
#   From: 2010.05.17/outbox.cif.g08.bks.cpg/sg14_1_cif.got.tgz:1072.got - 2010.06.03 17:49:19.
