data_PCOD9241449
_publ_section_title
;
Structure prediction by ZEFSAII (Michael W. Deem and Ramdas Pophale) SiO2 
 PCOD9241449
Probable space group: P 21/C
;
_chemical_formula_sum "Si O2"
_cell_formula_units_Z 24
_cell_length_a 10.130578
_cell_length_b 17.665493
_cell_length_c 7.193180
_cell_angle_alpha 90.000000
_cell_angle_beta 122.812484
_cell_angle_gamma 90.000000
_cell_volume 1081.912275
_symmetry_space_group_name_H-M "P 21/C"
_symmetry_group_IT_number 14
_symmetry_cell_setting 'monoclinic'
loop_
_space_group_symop_operation_xyz
x,y,z
-x,1/2+y,1/2-z
-x,-y,-z
x,1/2-y,1/2+z
loop_
_atom_site_type_symbol
_atom_site_label
_atom_site_fract_x
_atom_site_fract_y
_atom_site_fract_z
Si Si1 0.073415 0.037411 0.372620
Si Si2 0.504086 0.613000 0.522539
Si Si3 0.181959 0.181360 0.654363
Si Si4 0.596262 0.481884 0.885099
Si Si5 0.823689 0.359429 0.529696
Si Si6 0.026822 0.707216 0.686582
O O1 0.155779 0.118818 0.476751
O O2 0.219417 0.985831 0.423463
O O3 0.925277 0.064219 0.137757
O O4 0.000000 0.000000 0.500000
O O5 0.642249 0.674891 0.637176
O O6 0.571190 0.543911 0.700300
O O7 0.461205 0.591142 0.276950
O O8 0.346170 0.632948 0.511690
O O9 0.124110 0.263804 0.547164
O O10 0.051926 0.160181 0.710133
O O11 0.500000 0.500000 0.000000
O O12 0.844976 0.336649 0.332931
O O13 0.896974 0.285325 0.686208
#
# Coordination Sequence:
#
# PCOD9241449 Si02
#       6
#     4   4   4   4   4   4
#     4  10  19  36  57  81 115 145 183 233 286 332
#     4  10  21  38  57  84 116 146 188 237 281 334
#     4   9  20  36  57  79 110 150 183 232 279 333
#     4  10  22  38  55  85 119 150 186 229 288 346
#     4  10  20  37  57  83 112 148 189 234 278 335
#     4   9  20  38  56  79 112 148 192 227 277 338
#
# _framework density 22.182943000000002
#
# number of rings (size 3 to 8) (size 9 to 14) (size 15 to 20)
#    0.000    2.333    1.667    0.000    2.333    2.667 
#    3.000    1.667    0.000    0.000    0.000    0.000 
#    0.000    0.000    0.000    0.000    0.000    0.000 
#
# Total GULP energy -133703.473615 kJ/mol
# GULP energy per Si atom -5570.978067 kJ/mol
# Density = 2.213245 g / cm^3
# Si number density = 22.182943 Si / 1000 Ang^3
#
#
#
# Elastic Constant Matrix: (Units=GPa)
#
#
# Indices 1 2 3 4 5 6 
#
# 1 87.5696 -7.2417 15.9089 0.0000 12.5190 0.0000
# 2 -7.2417 39.6004 17.3376 0.0000 4.1791 0.0000
# 3 15.9089 17.3376 35.5217 0.0000 1.9536 0.0000
# 4 0.0000 0.0000 0.0000 32.1230 0.0000 -5.9651
# 5 12.5190 4.1791 1.9536 0.0000 39.8916 0.0000
# 6 0.0000 0.0000 0.0000 -5.9651 0.0000 31.4339
#
#
#
# Elastic Compliance Matrix: (Units=1/GPa)
#
#
# Indices 1 2 3 4 5 6 
#
# 1 0.014536 0.007509 -0.009908 0.000000 -0.004863 0.000000
# 2 0.007509 0.036266 -0.020781 0.000000 -0.005138 0.000000
# 3 -0.009908 -0.020781 0.042556 0.000000 0.003202 0.000000
# 4 0.000000 0.000000 0.000000 0.032267 0.000000 0.006123
# 5 -0.004863 -0.005138 0.003202 0.000000 0.026976 0.000000
# 6 0.000000 0.000000 0.000000 0.006123 0.000000 0.032975
#
#
# Mechanical properties :
#
#
# Convention : Reuss Voigt Hill
#
# Bulk Modulus (GPa) = 21.27757 23.85569 22.56663
# Shear Modulus (GPa) = 20.19381 29.80217 24.99799
#
# Velocity S-wave (km/s) = 3.02044 3.66932 3.36058
# Velocity P-wave (km/s) = 4.66656 5.35997 5.02524
#
# Compressibility (1/GPa) = 0.04699784
#
# Stress axis : x y z
#
# Youngs Moduli (GPa) = 68.79666 27.57410 23.49851
#
# Poissons Ratio (x) = -0.20705 0.23281
# Poissons Ratio (y) = -0.51659 0.48833
# Poissons Ratio (z) = 0.68160 0.57302
#
# Static dielectric constant tensor:
#      x y z
#    x 1.797400 0.000000 -0.003630 
#    y 0.000000 1.893510 0.000000 
#    z -0.003630 0.000000 1.934050 
# 
# From -- ./inp_files/10013.got.cif
#   From: 2010.05.17/outbox.cif.g08.bks.cpg/sg14_6_cif.got.tgz:10013.got - 2010.06.03 17:49:19.
