data_PCOD9241751
_publ_section_title
;
Structure prediction by ZEFSAII (Michael W. Deem and Ramdas Pophale) SiO2 
 PCOD9241751
Probable space group: P 21/C
;
_chemical_formula_sum "Si O2"
_cell_formula_units_Z 28
_cell_length_a 17.508526
_cell_length_b 11.515217
_cell_length_c 12.773262
_cell_angle_alpha 90.000000
_cell_angle_beta 152.540252
_cell_angle_gamma 90.000000
_cell_volume 1187.524362
_symmetry_space_group_name_H-M "P 21/C"
_symmetry_group_IT_number 14
_symmetry_cell_setting 'monoclinic'
loop_
_space_group_symop_operation_xyz
x,y,z
-x,1/2+y,1/2-z
-x,-y,-z
x,1/2-y,1/2+z
loop_
_atom_site_type_symbol
_atom_site_label
_atom_site_fract_x
_atom_site_fract_y
_atom_site_fract_z
Si Si1 0.345081 0.829534 0.205199
Si Si2 0.659415 0.838069 0.721918
Si Si3 0.550789 0.308642 0.854880
Si Si4 0.232588 0.587121 0.365920
Si Si5 0.858523 0.631001 0.864137
Si Si6 0.009704 0.819035 0.913904
Si Si7 0.204066 0.506296 0.785530
O O1 0.472372 0.856711 0.451018
O O2 0.439263 0.730574 0.253057
O O3 0.163747 0.797548 0.026088
O O4 0.307940 0.928745 0.073703
O O5 0.624611 0.818948 0.801970
O O6 0.746858 0.720779 0.790625
O O7 0.754968 0.939165 0.773988
O O8 0.664740 0.202881 0.043335
O O9 0.639686 0.431281 0.975388
O O10 0.238906 0.482758 0.291673
O O11 0.033978 0.606294 0.134914
O O12 0.923504 0.700746 0.841135
O O13 0.085603 0.887074 0.108221
O O14 0.871344 0.916216 0.722403
#
# Coordination Sequence:
#
# PCOD9241751 Si02
#       7
#     4   4   4   4   4   4   4
#     4  10  22  39  59  93 122 159 204 256 306 368
#     4  11  22  38  63  90 122 161 203 256 317 358
#     4  10  21  40  57  90 124 161 194 255 315 357
#     4   9  21  40  58  82 123 161 205 242 303 371
#     4  10  20  40  62  85 118 166 203 249 307 370
#     4  10  19  37  61  88 115 156 207 250 303 355
#     4  10  20  36  64  86 119 161 202 254 306 360
#
# _framework density 23.578464
#
# number of rings (size 3 to 8) (size 9 to 14) (size 15 to 20)
#    0.857    1.143    2.857    0.429    0.000    2.857 
#    5.143    0.000    0.000    0.000    0.000    0.000 
#    0.000    0.000    0.000    0.000    0.000    0.000 
#
# Total GULP energy -156052.592557 kJ/mol
# GULP energy per Si atom -5573.306877 kJ/mol
# Density = 2.352480 g / cm^3
# Si number density = 23.578464 Si / 1000 Ang^3
#
#
#
# Elastic Constant Matrix: (Units=GPa)
#
#
# Indices 1 2 3 4 5 6 
#
# 1 98.0880 12.2916 17.8441 0.0000 33.7145 0.0000
# 2 12.2916 80.4858 16.2064 0.0000 12.2317 0.0000
# 3 17.8441 16.2064 48.7027 0.0000 9.8770 0.0000
# 4 0.0000 0.0000 0.0000 33.0236 0.0000 13.6290
# 5 33.7145 12.2317 9.8770 0.0000 35.6388 0.0000
# 6 0.0000 0.0000 0.0000 13.6290 0.0000 23.8579
#
#
#
# Elastic Compliance Matrix: (Units=1/GPa)
#
#
# Indices 1 2 3 4 5 6 
#
# 1 0.015484 0.000351 -0.002961 0.000000 -0.013947 0.000000
# 2 0.000351 0.013760 -0.003902 0.000000 -0.003974 0.000000
# 3 -0.002961 -0.003902 0.023391 0.000000 -0.002342 0.000000
# 4 0.000000 0.000000 0.000000 0.039623 0.000000 -0.022635
# 5 -0.013947 -0.003974 -0.002342 0.000000 0.043267 0.000000
# 6 0.000000 0.000000 0.000000 -0.022635 0.000000 0.054845
#
#
# Mechanical properties :
#
#
# Convention : Reuss Voigt Hill
#
# Bulk Modulus (GPa) = 25.24520 35.55119 30.39820
# Shear Modulus (GPa) = 23.08435 30.56635 26.82535
#
# Velocity S-wave (km/s) = 3.13236 3.60442 3.37665
# Velocity P-wave (km/s) = 4.87979 5.69500 5.30308
#
# Compressibility (1/GPa) = 0.03961149
#
# Stress axis : x y z
#
# Youngs Moduli (GPa) = 64.58453 72.67192 42.75136
#
# Poissons Ratio (x) = -0.02553 0.12660
# Poissons Ratio (y) = -0.02269 0.16681
# Poissons Ratio (z) = 0.19126 0.28355
#
# Static dielectric constant tensor:
#      x y z
#    x 2.043870 0.000000 -0.079510 
#    y 0.000000 1.910190 0.000000 
#    z -0.079510 0.000000 2.010510 
# 
# From -- ./inp_files/48800.got.cif
#   From: 2010.05.17/outbox.cif.g08.bks.cpg/sg14_25_cif.got.tgz:48800.got - 2010.06.03 17:49:19.
