data_PCOD9241207
_publ_section_title
;
Structure prediction by ZEFSAII (Michael W. Deem and Ramdas Pophale) SiO2 
 PCOD9241207
Probable space group: P 21/C
;
_chemical_formula_sum "Si O2"
_cell_formula_units_Z 28
_cell_length_a 7.441121
_cell_length_b 13.067346
_cell_length_c 14.116092
_cell_angle_alpha 90.000000
_cell_angle_beta 125.915917
_cell_angle_gamma 90.000000
_cell_volume 1111.629904
_symmetry_space_group_name_H-M "P 21/C"
_symmetry_group_IT_number 14
_symmetry_cell_setting 'monoclinic'
loop_
_space_group_symop_operation_xyz
x,y,z
-x,1/2+y,1/2-z
-x,-y,-z
x,1/2-y,1/2+z
loop_
_atom_site_type_symbol
_atom_site_label
_atom_site_fract_x
_atom_site_fract_y
_atom_site_fract_z
Si Si1 0.889294 0.708175 0.465549
Si Si2 0.356863 0.874947 0.171452
Si Si3 0.169250 0.323690 0.242068
Si Si4 0.600176 0.968921 0.659469
Si Si5 0.293914 0.634628 0.949204
Si Si6 0.408419 0.802668 0.849004
Si Si7 0.041991 0.341197 0.844726
O O1 0.845386 0.735741 0.343046
O O2 0.658958 0.659035 0.429702
O O3 0.912398 0.816039 0.531559
O O4 0.119906 0.648782 0.550561
O O5 0.584365 0.867996 0.181845
O O6 0.389611 0.785306 0.261207
O O7 0.350167 0.983282 0.224183
O O8 0.087603 0.272457 0.313787
O O9 0.962454 0.392932 0.144680
O O10 0.388992 0.894846 0.580631
O O11 0.793048 0.909499 0.664710
O O12 0.566371 0.068713 0.583166
O O13 0.343228 0.748869 0.928725
O O14 0.206870 0.874800 0.756769
#
# Coordination Sequence:
#
# PCOD9241207 Si02
#       7
#     4   4   4   4   4   4   4
#     4  10  19  37  59  78 115 148 188 238 271 325
#     4   9  20  34  52  82 116 142 180 234 282 333
#     4  10  22  36  56  89 108 149 200 220 271 351
#     4  10  19  35  55  84 116 144 180 238 293 322
#     4   9  18  33  57  81 113 142 181 239 286 314
#     4   8  16  34  54  82 103 146 195 221 263 340
#     4  10  20  35  60  82 111 150 191 230 281 332
#
# _framework density 25.188238999999999
#
# number of rings (size 3 to 8) (size 9 to 14) (size 15 to 20)
#    0.000    2.571    1.429    0.857    4.000    0.571 
#    0.000    1.429    0.000    0.000    0.000    0.000 
#    0.000    0.000    0.000    0.000    0.000    0.000 
#
# Total GULP energy -156290.888006 kJ/mol
# GULP energy per Si atom -5581.817429 kJ/mol
# Density = 2.513091 g / cm^3
# Si number density = 25.188239 Si / 1000 Ang^3
#
#
#
# Elastic Constant Matrix: (Units=GPa)
#
#
# Indices 1 2 3 4 5 6 
#
# 1 106.7096 16.6225 50.4119 0.0000 38.5894 0.0000
# 2 16.6225 29.7353 22.4971 0.0000 3.6967 0.0000
# 3 50.4119 22.4971 119.7694 0.0000 36.6008 0.0000
# 4 0.0000 0.0000 0.0000 33.3436 0.0000 2.8142
# 5 38.5894 3.6967 36.6008 0.0000 60.1698 0.0000
# 6 0.0000 0.0000 0.0000 2.8142 0.0000 34.9984
#
#
#
# Elastic Compliance Matrix: (Units=1/GPa)
#
#
# Indices 1 2 3 4 5 6 
#
# 1 0.013975 -0.004782 -0.002868 0.000000 -0.006924 0.000000
# 2 -0.004782 0.041157 -0.007226 0.000000 0.004933 0.000000
# 3 -0.002868 -0.007226 0.012549 0.000000 -0.005350 0.000000
# 4 0.000000 0.000000 0.000000 0.030196 0.000000 -0.002428
# 5 -0.006924 0.004933 -0.005350 0.000000 0.024012 0.000000
# 6 0.000000 0.000000 0.000000 -0.002428 0.000000 0.028768
#
#
# Mechanical properties :
#
#
# Convention : Reuss Voigt Hill
#
# Bulk Modulus (GPa) = 26.36455 48.36416 37.36436
# Shear Modulus (GPa) = 25.90008 36.81456 31.35732
#
# Velocity S-wave (km/s) = 3.21013 3.82721 3.53217
# Velocity P-wave (km/s) = 4.92236 6.22678 5.61259
#
# Compressibility (1/GPa) = 0.03792971
#
# Stress axis : x y z
#
# Youngs Moduli (GPa) = 71.55606 24.29747 79.68942
#
# Poissons Ratio (x) = 0.11618 0.22855
# Poissons Ratio (y) = 0.34215 0.57581
# Poissons Ratio (z) = 0.20522 0.17557
#
# Static dielectric constant tensor:
#      x y z
#    x 2.006590 0.000000 0.020830 
#    y 0.000000 2.082590 0.000000 
#    z 0.020830 0.000000 2.050250 
# 
# From -- ./inp_files/30261.got.cif
#   From: 2010.05.17/outbox.cif.g08.bks.cpg/sg14_16_cif.got.tgz:30261.got - 2010.06.03 17:49:19.
