data_PCOD9241763
_publ_section_title
;
Structure prediction by ZEFSAII (Michael W. Deem and Ramdas Pophale) SiO2 
 PCOD9241763
Probable space group: P 21/C
;
_chemical_formula_sum "Si O2"
_cell_formula_units_Z 28
_cell_length_a 9.755795
_cell_length_b 15.314432
_cell_length_c 10.522991
_cell_angle_alpha 90.000000
_cell_angle_beta 114.938419
_cell_angle_gamma 90.000000
_cell_volume 1425.593892
_symmetry_space_group_name_H-M "P 21/C"
_symmetry_group_IT_number 14
_symmetry_cell_setting 'monoclinic'
loop_
_space_group_symop_operation_xyz
x,y,z
-x,1/2+y,1/2-z
-x,-y,-z
x,1/2-y,1/2+z
loop_
_atom_site_type_symbol
_atom_site_label
_atom_site_fract_x
_atom_site_fract_y
_atom_site_fract_z
Si Si1 0.203981 0.625140 0.382627
Si Si2 0.857679 0.673643 0.254452
Si Si3 0.574074 0.217503 0.578456
Si Si4 0.561526 0.572001 0.122159
Si Si5 0.343224 0.039523 0.883092
Si Si6 0.248862 0.302960 0.499735
Si Si7 0.420992 0.581579 0.695628
O O1 0.292047 0.713578 0.381784
O O2 0.245195 0.544128 0.306241
O O3 0.283870 0.596009 0.545494
O O4 0.027320 0.639005 0.324821
O O5 0.733438 0.601285 0.165855
O O6 0.844061 0.747108 0.140149
O O7 0.809679 0.702499 0.378722
O O8 0.535630 0.160242 0.436757
O O9 0.421294 0.268357 0.556953
O O10 0.605373 0.146105 0.698259
O O11 0.562202 0.518659 0.252695
O O12 0.500000 0.500000 0.000000
O O13 0.254434 0.098679 0.948087
O O14 0.414758 0.101278 0.802611
O O15 0.500000 0.000000 0.000000
#
# Coordination Sequence:
#
# PCOD9241763 Si02
#       7
#     4   4   4   4   4   4   4
#     4  11  24  38  60  99 129 166 217 279 336 381
#     4  11  25  41  63  97 135 170 218 276 333 396
#     4  10  21  38  65  89 125 173 221 264 322 403
#     4   9  21  41  64  92 125 172 221 266 327 399
#     4  10  19  37  61  93 118 161 222 266 316 382
#     4  11  22  41  65  90 130 176 220 266 327 397
#     4  10  20  37  65  93 123 168 224 269 323 394
#
# _framework density 19.640936
#
# number of rings (size 3 to 8) (size 9 to 14) (size 15 to 20)
#    0.000    1.714    2.857    2.571    4.000    2.286 
#    2.571    0.000    0.000    3.429    0.000    0.000 
#    0.000    0.000    0.000    0.000    0.000    0.000 
#
# Total GULP energy -156098.288580 kJ/mol
# GULP energy per Si atom -5574.938878 kJ/mol
# Density = 1.959623 g / cm^3
# Si number density = 19.640936 Si / 1000 Ang^3
#
#
#
# Elastic Constant Matrix: (Units=GPa)
#
#
# Indices 1 2 3 4 5 6 
#
# 1 93.5022 42.0047 54.5000 0.0000 14.9538 0.0000
# 2 42.0047 99.5565 46.8358 0.0000 3.4915 0.0000
# 3 54.5000 46.8358 88.2453 0.0000 0.7621 0.0000
# 4 0.0000 0.0000 0.0000 35.0651 0.0000 -4.5600
# 5 14.9538 3.4915 0.7621 0.0000 22.4662 0.0000
# 6 0.0000 0.0000 0.0000 -4.5600 0.0000 26.3081
#
#
#
# Elastic Compliance Matrix: (Units=1/GPa)
#
#
# Indices 1 2 3 4 5 6 
#
# 1 0.020472 -0.003056 -0.010911 0.000000 -0.012781 0.000000
# 2 -0.003056 0.013920 -0.005501 0.000000 0.000058 0.000000
# 3 -0.010911 -0.005501 0.020926 0.000000 0.007407 0.000000
# 4 0.000000 0.000000 0.000000 0.029176 0.000000 0.005057
# 5 -0.012781 0.000058 0.007407 0.000000 0.052758 0.000000
# 6 0.000000 0.000000 0.000000 0.005057 0.000000 0.038888
#
#
# Mechanical properties :
#
#
# Convention : Reuss Voigt Hill
#
# Bulk Modulus (GPa) = 61.04318 63.10946 62.07632
# Shear Modulus (GPa) = 22.67207 25.96544 24.31876
#
# Velocity S-wave (km/s) = 3.40123 3.63988 3.52258
# Velocity P-wave (km/s) = 6.82433 7.06161 6.94398
#
# Compressibility (1/GPa) = 0.01638185
#
# Stress axis : x y z
#
# Youngs Moduli (GPa) = 48.84839 71.83977 47.78731
#
# Poissons Ratio (x) = 0.21956 0.52139
# Poissons Ratio (y) = 0.14929 0.26287
# Poissons Ratio (z) = 0.53297 0.39518
#
# Static dielectric constant tensor:
#      x y z
#    x 1.700780 0.000000 -0.092150 
#    y 0.000000 1.750930 0.000000 
#    z -0.092150 0.000000 1.776520 
# 
# From -- ./inp_files/25590.got.cif
#   From: 2010.05.17/outbox.cif.g08.bks.cpg/sg14_13_cif.got.tgz:25590.got - 2010.06.03 17:49:19.
