data_PCOD9241089
_publ_section_title
;
Structure prediction by ZEFSAII (Michael W. Deem and Ramdas Pophale) SiO2 
 PCOD9241089
Probable space group: P 21/C
;
_chemical_formula_sum "Si O2"
_cell_formula_units_Z 32
_cell_length_a 5.320459
_cell_length_b 13.519027
_cell_length_c 23.817266
_cell_angle_alpha 90.000000
_cell_angle_beta 103.464566
_cell_angle_gamma 90.000000
_cell_volume 1666.028218
_symmetry_space_group_name_H-M "P 21/C"
_symmetry_group_IT_number 14
_symmetry_cell_setting 'monoclinic'
loop_
_space_group_symop_operation_xyz
x,y,z
-x,1/2+y,1/2-z
-x,-y,-z
x,1/2-y,1/2+z
loop_
_atom_site_type_symbol
_atom_site_label
_atom_site_fract_x
_atom_site_fract_y
_atom_site_fract_z
Si Si1 0.475378 0.428649 0.256779
Si Si2 0.802240 0.451495 0.589275
Si Si3 0.099823 0.074440 0.216499
Si Si4 0.452671 0.722224 0.640632
Si Si5 0.871921 0.817070 0.072098
Si Si6 0.429001 0.248720 0.678202
Si Si7 0.237148 0.855812 0.726114
Si Si8 0.277954 0.166717 0.057663
O O1 0.770975 0.467134 0.269755
O O2 0.457941 0.366604 0.313157
O O3 0.376028 0.356745 0.202795
O O4 0.338343 0.533985 0.243950
O O5 0.816755 0.565735 0.573861
O O6 0.517911 0.408763 0.563948
O O7 0.872415 0.440811 0.658884
O O8 0.023905 0.390744 0.567344
O O9 0.268300 0.158928 0.194747
O O10 0.059803 0.121306 0.276422
O O11 0.684965 0.734597 0.608397
O O12 0.359751 0.810509 0.677319
O O13 0.178752 0.695245 0.597381
O O14 0.791233 0.786193 0.005380
O O15 0.703631 0.277934 0.720248
O O16 0.380729 0.256437 0.609955
#
# Coordination Sequence:
#
# PCOD9241089 Si02
#       8
#     4   4   4   4   4   4   4   4
#     4  10  21  37  57  85 114 151 191 240 296 345
#     4  11  20  36  58  86 119 153 194 229 295 356
#     4  10  19  34  58  82 120 146 186 243 294 352
#     4  11  25  37  60  87 118 154 196 235 292 349
#     4  12  23  38  57  85 121 159 194 235 287 349
#     4   9  21  35  56  85 113 150 193 236 293 346
#     4  10  21  37  58  83 116 150 191 245 292 348
#     4  11  22  38  58  85 120 157 195 239 282 348
#
# _framework density 19.207357999999999
#
# number of rings (size 3 to 8) (size 9 to 14) (size 15 to 20)
#    0.000    1.500    2.500    3.000    7.000    1.000 
#    0.000    0.000    0.000    1.500    0.000    0.000 
#    0.000    0.000    0.000    0.000    0.000    0.000 
#
# Total GULP energy -178170.767868 kJ/mol
# GULP energy per Si atom -5567.836496 kJ/mol
# Density = 1.916364 g / cm^3
# Si number density = 19.207358 Si / 1000 Ang^3
#
#
#
# Elastic Constant Matrix: (Units=GPa)
#
#
# Indices 1 2 3 4 5 6 
#
# 1 42.7046 -4.3658 10.0466 0.0000 -7.9365 0.0000
# 2 -4.3658 59.9922 29.0069 0.0000 -7.9061 0.0000
# 3 10.0466 29.0069 104.3161 0.0000 -6.6035 0.0000
# 4 0.0000 0.0000 0.0000 21.6785 0.0000 -1.4892
# 5 -7.9365 -7.9061 -6.6035 0.0000 26.5810 0.0000
# 6 0.0000 0.0000 0.0000 -1.4892 0.0000 15.6598
#
#
#
# Elastic Compliance Matrix: (Units=1/GPa)
#
#
# Indices 1 2 3 4 5 6 
#
# 1 0.026213 0.004594 -0.003271 0.000000 0.008380 0.000000
# 2 0.004594 0.020600 -0.005787 0.000000 0.006061 0.000000
# 3 -0.003271 -0.005787 0.011521 0.000000 0.000164 0.000000
# 4 0.000000 0.000000 0.000000 0.046432 0.000000 0.004415
# 5 0.008380 0.006061 0.000164 0.000000 0.041967 0.000000
# 6 0.000000 0.000000 0.000000 0.004415 0.000000 0.064278
#
#
# Mechanical properties :
#
#
# Convention : Reuss Voigt Hill
#
# Bulk Modulus (GPa) = 20.24076 30.70978 25.47527
# Shear Modulus (GPa) = 21.14987 24.27221 22.71104
#
# Velocity S-wave (km/s) = 3.32193 3.55870 3.44235
# Velocity P-wave (km/s) = 5.02738 5.73664 5.39368
#
# Compressibility (1/GPa) = 0.04940525
#
# Stress axis : x y z
#
# Youngs Moduli (GPa) = 38.14830 48.54380 86.79912
#
# Poissons Ratio (x) = -0.22300 0.28396
# Poissons Ratio (y) = -0.17525 0.50230
# Poissons Ratio (z) = 0.12480 0.28092
#
# Static dielectric constant tensor:
#      x y z
#    x 1.961210 0.000000 0.017110 
#    y 0.000000 1.655640 0.000000 
#    z 0.017110 0.000000 1.743760 
# 
# From -- ./inp_files/71326.got.cif
#   From: 2010.05.17/outbox.cif.g08.bks.cpg/sg14_36_cif.got.tgz:71326.got - 2010.06.03 17:49:19.
