data_PCOD9241475
_publ_section_title
;
Structure prediction by ZEFSAII (Michael W. Deem and Ramdas Pophale) SiO2 
 PCOD9241475
Probable space group: P 21/C
;
_chemical_formula_sum "Si O2"
_cell_formula_units_Z 28
_cell_length_a 10.185888
_cell_length_b 8.443933
_cell_length_c 23.673549
_cell_angle_alpha 90.000000
_cell_angle_beta 42.755961
_cell_angle_gamma 90.000000
_cell_volume 1382.287020
_symmetry_space_group_name_H-M "P 21/C"
_symmetry_group_IT_number 14
_symmetry_cell_setting 'monoclinic'
loop_
_space_group_symop_operation_xyz
x,y,z
-x,1/2+y,1/2-z
-x,-y,-z
x,1/2-y,1/2+z
loop_
_atom_site_type_symbol
_atom_site_label
_atom_site_fract_x
_atom_site_fract_y
_atom_site_fract_z
Si Si1 0.229941 0.941850 0.467353
Si Si2 0.582850 0.524315 0.677365
Si Si3 0.135606 0.231189 0.422407
Si Si4 0.941397 0.588813 0.865588
Si Si5 0.331443 0.053323 0.650043
Si Si6 0.284028 0.814764 0.760781
Si Si7 0.235964 0.321512 0.760326
O O1 0.233621 0.072823 0.416922
O O2 0.120767 0.028902 0.553302
O O3 0.443621 0.902351 0.418795
O O4 0.091229 0.795799 0.494786
O O5 0.760754 0.609714 0.589307
O O6 0.425906 0.667874 0.731761
O O7 0.661118 0.449515 0.711004
O O8 0.455013 0.386992 0.689656
O O9 0.181602 0.226196 0.341299
O O10 0.756304 0.576755 0.883911
O O11 0.064597 0.749613 0.832938
O O12 0.092486 0.464001 0.791028
O O13 0.214597 0.175568 0.725925
O O14 0.315764 0.885097 0.687745
#
# Coordination Sequence:
#
# PCOD9241475 Si02
#       7
#     4   4   4   4   4   4   4
#     4  10  22  38  60  88 121 160 194 240 314 364
#     4  11  18  35  60  92 117 145 193 259 311 342
#     4  10  19  36  58  88 119 145 190 252 300 354
#     4  10  24  39  58  88 123 162 203 238 297 369
#     4  12  20  40  63  84 119 165 205 244 287 366
#     4  11  21  35  64  92 118 154 204 258 299 351
#     4  10  21  35  62  92 114 149 205 252 297 344
#
# _framework density 20.256285999999999
#
# number of rings (size 3 to 8) (size 9 to 14) (size 15 to 20)
#    0.000    1.429    4.286    1.286    0.000    2.286 
#    0.000    2.857    0.000    1.714    0.000    0.000 
#    0.000    0.000    0.000    0.000    0.000    0.000 
#
# Total GULP energy -156193.965276 kJ/mol
# GULP energy per Si atom -5578.355903 kJ/mol
# Density = 2.021018 g / cm^3
# Si number density = 20.256286 Si / 1000 Ang^3
#
#
#
# Elastic Constant Matrix: (Units=GPa)
#
#
# Indices 1 2 3 4 5 6 
#
# 1 69.8415 9.4338 -0.4732 0.0000 -16.1443 0.0000
# 2 9.4338 59.3577 2.7090 0.0000 1.4912 0.0000
# 3 -0.4732 2.7090 46.9277 0.0000 -15.3005 0.0000
# 4 0.0000 0.0000 0.0000 26.6592 0.0000 -7.7148
# 5 -16.1443 1.4912 -15.3005 0.0000 36.6299 0.0000
# 6 0.0000 0.0000 0.0000 -7.7148 0.0000 19.4505
#
#
#
# Elastic Compliance Matrix: (Units=1/GPa)
#
#
# Indices 1 2 3 4 5 6 
#
# 1 0.016805 -0.003042 0.003242 0.000000 0.008884 0.000000
# 2 -0.003042 0.017493 -0.001979 0.000000 -0.002880 0.000000
# 3 0.003242 -0.001979 0.025409 0.000000 0.012123 0.000000
# 4 0.000000 0.000000 0.000000 0.042374 0.000000 0.016807
# 5 0.008884 -0.002880 0.012123 0.000000 0.036397 0.000000
# 6 0.000000 0.000000 0.000000 0.016807 0.000000 0.058079
#
#
# Mechanical properties :
#
#
# Convention : Reuss Voigt Hill
#
# Bulk Modulus (GPa) = 17.81019 22.16289 19.98654
# Shear Modulus (GPa) = 22.84860 27.51173 25.18017
#
# Velocity S-wave (km/s) = 3.36218 3.68935 3.52956
# Velocity P-wave (km/s) = 4.88711 5.39568 5.14768
#
# Compressibility (1/GPa) = 0.05614763
#
# Stress axis : x y z
#
# Youngs Moduli (GPa) = 59.50725 57.16524 39.35633
#
# Poissons Ratio (x) = 0.17389 -0.12758
# Poissons Ratio (y) = 0.18102 0.07790
# Poissons Ratio (z) = -0.19291 0.11315
#
# Static dielectric constant tensor:
#      x y z
#    x 1.722940 0.000000 -0.039500 
#    y 0.000000 1.750120 0.000000 
#    z -0.039500 0.000000 1.742320 
# 
# From -- ./inp_files/50209.got.cif
#   From: 2010.05.17/outbox.cif.g08.bks.cpg/sg14_26_cif.got.tgz:50209.got - 2010.06.03 17:49:19.
