data_PCOD9241863
_publ_section_title
;
Structure prediction by ZEFSAII (Michael W. Deem and Ramdas Pophale) SiO2 
 PCOD9241863
Probable space group: P 21/C
;
_chemical_formula_sum "Si O2"
_cell_formula_units_Z 20
_cell_length_a 5.326152
_cell_length_b 10.727158
_cell_length_c 13.548943
_cell_angle_alpha 90.000000
_cell_angle_beta 84.288148
_cell_angle_gamma 90.000000
_cell_volume 770.268270
_symmetry_space_group_name_H-M "P 21/C"
_symmetry_group_IT_number 14
_symmetry_cell_setting 'monoclinic'
loop_
_space_group_symop_operation_xyz
x,y,z
-x,1/2+y,1/2-z
-x,-y,-z
x,1/2-y,1/2+z
loop_
_atom_site_type_symbol
_atom_site_label
_atom_site_fract_x
_atom_site_fract_y
_atom_site_fract_z
Si Si1 0.421736 0.201666 0.517511
Si Si2 0.636745 0.697137 0.691311
Si Si3 0.830162 0.043416 0.417642
Si Si4 0.902573 0.318781 0.729432
Si Si5 0.413050 0.561451 0.400669
O O1 0.289162 0.243750 0.420208
O O2 0.696318 0.167804 0.463238
O O3 0.421290 0.314711 0.592816
O O4 0.356400 0.074821 0.577681
O O5 0.378288 0.764924 0.735433
O O6 0.563518 0.552551 0.676471
O O7 0.883628 0.720293 0.748808
O O8 0.949030 0.071931 0.307862
O O9 0.000000 0.000000 0.500000
O O10 0.858213 0.379253 0.622638
O O11 0.500000 0.500000 0.500000
#
# Coordination Sequence:
#
# PCOD9241863 Si02
#       5
#     4   4   4   4   4
#     4   9  20  41  62  94 135 175 223 279 343 408
#     4  10  23  45  63  98 133 172 229 280 346 411
#     4  10  19  37  68  97 131 177 224 278 344 410
#     4  11  24  42  68  98 135 175 228 285 339 418
#     4  10  24  46  69 100 141 188 232 294 356 427
#
# _framework density 25.964977999999999
#
# number of rings (size 3 to 8) (size 9 to 14) (size 15 to 20)
#    0.000    2.000    2.000    0.000    2.800    3.200 
#    3.600    7.000    0.000    0.000    0.000    0.000 
#    0.000    0.000    0.000    0.000    0.000    0.000 
#
# Total GULP energy -111370.913789 kJ/mol
# GULP energy per Si atom -5568.545689 kJ/mol
# Density = 2.590588 g / cm^3
# Si number density = 25.964978 Si / 1000 Ang^3
#
#
#
# Elastic Constant Matrix: (Units=GPa)
#
#
# Indices 1 2 3 4 5 6 
#
# 1 97.9518 22.0356 56.2223 0.0000 32.3884 0.0000
# 2 22.0356 126.7912 40.1401 0.0000 6.3687 0.0000
# 3 56.2223 40.1401 139.8242 0.0000 42.7356 0.0000
# 4 0.0000 0.0000 0.0000 37.6860 0.0000 20.5421
# 5 32.3884 6.3687 42.7356 0.0000 44.4782 0.0000
# 6 0.0000 0.0000 0.0000 20.5421 0.0000 23.5821
#
#
#
# Elastic Compliance Matrix: (Units=1/GPa)
#
#
# Indices 1 2 3 4 5 6 
#
# 1 0.014855 -0.001139 -0.003384 0.000000 -0.007403 0.000000
# 2 -0.001139 0.008847 -0.002758 0.000000 0.002212 0.000000
# 3 -0.003384 -0.002758 0.011935 0.000000 -0.008609 0.000000
# 4 0.000000 0.000000 0.000000 0.050526 0.000000 -0.044012
# 5 -0.007403 0.002212 -0.008609 0.000000 0.035829 0.000000
# 6 0.000000 0.000000 0.000000 -0.044012 0.000000 0.080744
#
#
# Mechanical properties :
#
#
# Convention : Reuss Voigt Hill
#
# Bulk Modulus (GPa) = 47.44533 66.81812 57.13173
# Shear Modulus (GPa) = 22.28937 37.56054 29.92495
#
# Velocity S-wave (km/s) = 2.93309 3.80753 3.39855
# Velocity P-wave (km/s) = 5.45740 6.71710 6.11975
#
# Compressibility (1/GPa) = 0.02107689
#
# Stress axis : x y z
#
# Youngs Moduli (GPa) = 67.31581 113.03369 83.78481
#
# Poissons Ratio (x) = 0.12871 0.28349
# Poissons Ratio (y) = 0.07665 0.23108
# Poissons Ratio (z) = 0.22777 0.31176
#
# Static dielectric constant tensor:
#      x y z
#    x 2.519530 0.000000 0.020870 
#    y 0.000000 3.540660 0.000000 
#    z 0.020870 0.000000 2.225730 
# 
# From -- ./inp_files/37055.got.cif
#   From: 2010.05.17/outbox.cif.g08.bks.cpg/sg14_19_cif.got.tgz:37055.got - 2010.06.03 17:49:19.
