data_PCOD9241058
_publ_section_title
;
Structure prediction by ZEFSAII (Michael W. Deem and Ramdas Pophale) SiO2 
 PCOD9241058
Probable space group: P 21/C
;
_chemical_formula_sum "Si O2"
_cell_formula_units_Z 26
_cell_length_a 7.523441
_cell_length_b 9.200466
_cell_length_c 13.326289
_cell_angle_alpha 90.000000
_cell_angle_beta 104.305008
_cell_angle_gamma 90.000000
_cell_volume 893.833694
_symmetry_space_group_name_H-M "P 21/C"
_symmetry_group_IT_number 14
_symmetry_cell_setting 'monoclinic'
loop_
_space_group_symop_operation_xyz
x,y,z
-x,1/2+y,1/2-z
-x,-y,-z
x,1/2-y,1/2+z
loop_
_atom_site_type_symbol
_atom_site_label
_atom_site_fract_x
_atom_site_fract_y
_atom_site_fract_z
Si Si1 0.124086 0.857034 0.221496
Si Si2 0.082393 0.085781 0.386967
Si Si3 0.622132 0.791820 0.009426
Si Si4 0.758953 0.080334 0.095432
Si Si5 0.000000 0.500000 0.500000
Si Si6 0.278807 0.034741 0.686118
Si Si7 0.510161 0.776538 0.717906
O O1 0.317756 0.783115 0.228883
O O2 0.974017 0.726364 0.191302
O O3 0.085096 0.957070 0.121841
O O4 0.137196 0.949598 0.324939
O O5 0.251554 0.149533 0.475114
O O6 0.884633 0.034495 0.400961
O O7 0.548086 0.785779 0.113264
O O8 0.754314 0.934772 0.019067
O O9 0.435284 0.838507 0.928606
O O10 0.783379 0.009648 0.207922
O O11 0.908394 0.155548 0.047093
O O12 0.469861 0.946840 0.700786
O O13 0.331130 0.204673 0.691983
#
# Coordination Sequence:
#
# PCOD9241058 Si02
#       7
#     4   4   4   4   2   4   4
#     4  11  22  35  63  90 122 161 208 257 311 362
#     4  11  21  38  58  92 124 161 202 264 311 365
#     4  10  19  34  56  85 119 150 198 258 304 352
#     4  10  20  35  59  88 120 153 207 256 297 358
#     4  12  18  38  60  94 118 168 210 256 294 380
#     4  10  21  36  58  87 118 157 200 254 304 369
#     4  10  20  35  56  86 114 155 201 248 308 362
#
# _framework density 29.088186
#
# number of rings (size 3 to 8) (size 9 to 14) (size 15 to 20)
#    0.000    1.538    4.615    1.846    0.000    0.000 
#    0.000    0.000    0.000   13.846    0.000    0.000 
#    0.000    0.000    0.000    0.000    0.000    0.000 
#
# Total GULP energy -144998.283735 kJ/mol
# GULP energy per Si atom -5576.857067 kJ/mol
# Density = 2.902198 g / cm^3
# Si number density = 29.088186 Si / 1000 Ang^3
#
#
#
# Elastic Constant Matrix: (Units=GPa)
#
#
# Indices 1 2 3 4 5 6 
#
# 1 137.0420 51.0332 20.7215 0.0000 16.8272 0.0000
# 2 51.0332 114.1453 15.3327 0.0000 -10.1303 0.0000
# 3 20.7215 15.3327 69.8768 0.0000 9.2082 0.0000
# 4 0.0000 0.0000 0.0000 38.4877 0.0000 -3.9210
# 5 16.8272 -10.1303 9.2082 0.0000 44.0180 0.0000
# 6 0.0000 0.0000 0.0000 -3.9210 0.0000 64.7644
#
#
#
# Elastic Compliance Matrix: (Units=1/GPa)
#
#
# Indices 1 2 3 4 5 6 
#
# 1 0.009756 -0.004589 -0.001291 0.000000 -0.004515 0.000000
# 2 -0.004589 0.011476 -0.001786 0.000000 0.004769 0.000000
# 3 -0.001291 -0.001786 0.015502 0.000000 -0.003160 0.000000
# 4 0.000000 0.000000 0.000000 0.026144 0.000000 0.001583
# 5 -0.004515 0.004769 -0.003160 0.000000 0.026203 0.000000
# 6 0.000000 0.000000 0.000000 0.001583 0.000000 0.015536
#
#
# Mechanical properties :
#
#
# Convention : Reuss Voigt Hill
#
# Bulk Modulus (GPa) = 46.72462 55.02655 50.87559
# Shear Modulus (GPa) = 39.34505 45.05246 42.19875
#
# Velocity S-wave (km/s) = 3.68178 3.93978 3.81296
# Velocity P-wave (km/s) = 5.84568 6.29714 6.07561
#
# Compressibility (1/GPa) = 0.02140199
#
# Stress axis : x y z
#
# Youngs Moduli (GPa) = 102.50572 87.14217 64.50781
#
# Poissons Ratio (x) = 0.39989 0.08328
# Poissons Ratio (y) = 0.47039 0.11519
# Poissons Ratio (z) = 0.13234 0.15560
#
# Static dielectric constant tensor:
#      x y z
#    x 3.518570 0.000000 -0.317540 
#    y 0.000000 2.694100 0.000000 
#    z -0.317540 0.000000 2.441330 
# 
# From -- ./inp_files/39748.got.cif
#   From: 2010.05.17/outbox.cif.g08.bks.cpg/sg14_20_cif.got.tgz:39748.got - 2010.06.03 17:49:19.
