data_PCOD9241717
_publ_section_title
;
Structure prediction by ZEFSAII (Michael W. Deem and Ramdas Pophale) SiO2 
 PCOD9241717
Probable space group: P 21/C
;
_chemical_formula_sum "Si O2"
_cell_formula_units_Z 28
_cell_length_a 7.896653
_cell_length_b 15.525289
_cell_length_c 14.694683
_cell_angle_alpha 90.000000
_cell_angle_beta 37.740597
_cell_angle_gamma 90.000000
_cell_volume 1102.697744
_symmetry_space_group_name_H-M "P 21/C"
_symmetry_group_IT_number 14
_symmetry_cell_setting 'monoclinic'
loop_
_space_group_symop_operation_xyz
x,y,z
-x,1/2+y,1/2-z
-x,-y,-z
x,1/2-y,1/2+z
loop_
_atom_site_type_symbol
_atom_site_label
_atom_site_fract_x
_atom_site_fract_y
_atom_site_fract_z
Si Si1 0.385343 0.239203 0.720515
Si Si2 0.261741 0.076894 0.023048
Si Si3 0.087702 0.918820 0.307475
Si Si4 0.082829 0.399921 0.807937
Si Si5 0.358637 0.731101 0.061495
Si Si6 0.999829 0.397235 0.350677
Si Si7 0.867054 0.237577 0.148956
O O1 0.234656 0.328494 0.803731
O O2 0.373733 0.235954 0.614722
O O3 0.683909 0.250903 0.637222
O O4 0.239930 0.148994 0.806329
O O5 0.240618 0.082820 0.143471
O O6 0.070332 0.156082 0.069877
O O7 0.145908 0.981707 0.045686
O O8 0.579622 0.085831 0.856151
O O9 0.918738 0.929078 0.284737
O O10 0.997186 0.830733 0.392083
O O11 0.050081 0.009789 0.371115
O O12 0.797598 0.354631 0.903293
O O13 0.194803 0.815792 0.093968
O O14 0.344389 0.729467 0.175397
#
# Coordination Sequence:
#
# PCOD9241717 Si02
#       7
#     4   4   4   4   4   4   4
#     4  11  21  37  58  86 121 153 189 242 293 345
#     4  10  19  37  61  85 114 153 197 244 288 337
#     4  10  19  37  60  83 114 154 197 247 286 332
#     4   9  18  34  58  83 111 151 200 238 286 347
#     4   9  19  38  57  81 118 157 191 241 293 339
#     4   9  19  35  60  88 113 150 200 238 288 350
#     4  10  23  36  55  88 117 150 197 234 288 354
#
# _framework density 25.39227
#
# number of rings (size 3 to 8) (size 9 to 14) (size 15 to 20)
#    0.000    2.286    0.000    5.143    0.000    3.429 
#    0.000   10.714    0.000    0.000    0.000    0.000 
#    0.000    0.000    0.000    0.000    0.000    0.000 
#
# Total GULP energy -156315.594307 kJ/mol
# GULP energy per Si atom -5582.699797 kJ/mol
# Density = 2.533448 g / cm^3
# Si number density = 25.392270 Si / 1000 Ang^3
#
#
#
# Elastic Constant Matrix: (Units=GPa)
#
#
# Indices 1 2 3 4 5 6 
#
# 1 80.7124 42.6032 20.9056 0.0000 1.7701 0.0000
# 2 42.6032 227.2761 38.0248 0.0000 -25.0214 0.0000
# 3 20.9056 38.0248 64.0345 0.0000 19.3533 0.0000
# 4 0.0000 0.0000 0.0000 25.8620 0.0000 -21.2697
# 5 1.7701 -25.0214 19.3533 0.0000 37.3436 0.0000
# 6 0.0000 0.0000 0.0000 -21.2697 0.0000 18.8973
#
#
#
# Elastic Compliance Matrix: (Units=1/GPa)
#
#
# Indices 1 2 3 4 5 6 
#
# 1 0.014408 -0.002211 -0.003245 0.000000 -0.000483 0.000000
# 2 -0.002211 0.006498 -0.005317 0.000000 0.007215 0.000000
# 3 -0.003245 -0.005317 0.024739 0.000000 -0.016230 0.000000
# 4 0.000000 0.000000 0.000000 0.520281 0.000000 0.585599
# 5 -0.000483 0.007215 -0.016230 0.000000 0.040046 0.000000
# 6 0.000000 0.000000 0.000000 0.585599 0.000000 0.712034
#
#
# Mechanical properties :
#
#
# Convention : Reuss Voigt Hill
#
# Bulk Modulus (GPa) = 41.49718 63.89891 52.69805
# Shear Modulus (GPa) = 3.71034 34.45319 19.08176
#
# Velocity S-wave (km/s) = 1.21012 3.68752 2.74429
# Velocity P-wave (km/s) = 4.28141 6.58406 5.55339
#
# Compressibility (1/GPa) = 0.02409802
#
# Stress axis : x y z
#
# Youngs Moduli (GPa) = 69.40685 153.88595 40.42236
#
# Poissons Ratio (x) = 0.34024 0.13117
# Poissons Ratio (y) = 0.15346 0.21495
# Poissons Ratio (z) = 0.22522 0.81829
#
# Static dielectric constant tensor:
#      x y z
#    x 2.009810 0.000000 0.025420 
#    y 0.000000 2.047450 0.000000 
#    z 0.025420 0.000000 2.067180 
# 
# From -- ./inp_files/55925.got.cif
#   From: 2010.05.17/outbox.cif.g08.bks.cpg/sg14_28_cif.got.tgz:55925.got - 2010.06.03 17:49:19.
