data_PCOD9241720
_publ_section_title
;
Structure prediction by ZEFSAII (Michael W. Deem and Ramdas Pophale) SiO2 
 PCOD9241720
Probable space group: P 21/C
;
_chemical_formula_sum "Si O2"
_cell_formula_units_Z 28
_cell_length_a 16.556415
_cell_length_b 12.126576
_cell_length_c 19.947423
_cell_angle_alpha 90.000000
_cell_angle_beta 160.833214
_cell_angle_gamma 90.000000
_cell_volume 1314.884176
_symmetry_space_group_name_H-M "P 21/C"
_symmetry_group_IT_number 14
_symmetry_cell_setting 'monoclinic'
loop_
_space_group_symop_operation_xyz
x,y,z
-x,1/2+y,1/2-z
-x,-y,-z
x,1/2-y,1/2+z
loop_
_atom_site_type_symbol
_atom_site_label
_atom_site_fract_x
_atom_site_fract_y
_atom_site_fract_z
Si Si1 0.048351 0.382879 0.723251
Si Si2 0.747598 0.500745 0.235194
Si Si3 0.020495 0.975622 0.329113
Si Si4 0.092225 0.594161 0.123774
Si Si5 0.967469 0.807852 0.974514
Si Si6 0.278643 0.775124 0.593336
Si Si7 0.397960 0.192982 0.032410
O O1 0.052250 0.468217 0.664722
O O2 0.098844 0.443973 0.831843
O O3 0.790719 0.316202 0.516519
O O4 0.271265 0.294305 0.894119
O O5 0.822469 0.388509 0.330471
O O6 0.755012 0.604684 0.291629
O O7 0.500000 0.500000 0.000000
O O8 0.227535 0.894130 0.521385
O O9 0.911737 0.042926 0.306145
O O10 0.811089 0.899036 0.132752
O O11 0.360476 0.640711 0.313144
O O12 0.920036 0.703134 0.983865
O O13 0.000000 0.500000 0.000000
O O14 0.068037 0.752670 0.984685
O O15 0.521131 0.773564 0.828758
#
# Coordination Sequence:
#
# PCOD9241720 Si02
#       7
#     4   4   4   4   4   4   4
#     4  10  23  38  60  89 131 164 205 268 318 379
#     4  10  19  37  60  84 118 169 212 241 311 374
#     4  11  22  38  62  91 125 160 211 266 319 378
#     4  11  20  40  67  92 122 162 217 266 312 375
#     4   9  19  34  59  85 117 156 204 263 297 357
#     4   9  19  40  57  84 122 160 208 259 313 364
#     4  10  21  40  64  85 121 171 204 261 323 369
#
# _framework density 21.294651999999999
#
# number of rings (size 3 to 8) (size 9 to 14) (size 15 to 20)
#    0.000    2.000    2.857    2.143    0.000    3.429 
#    2.571    1.429    0.000    0.000    0.000    0.000 
#    0.000    0.000    0.000    0.000    0.000    0.000 
#
# Total GULP energy -156138.851242 kJ/mol
# GULP energy per Si atom -5576.387544 kJ/mol
# Density = 2.124618 g / cm^3
# Si number density = 21.294652 Si / 1000 Ang^3
#
#
#
# Elastic Constant Matrix: (Units=GPa)
#
#
# Indices 1 2 3 4 5 6 
#
# 1 41.1909 25.2024 8.3782 0.0000 -17.6397 0.0000
# 2 25.2024 121.5444 36.3377 0.0000 -18.9185 0.0000
# 3 8.3782 36.3377 99.1968 0.0000 -37.5907 0.0000
# 4 0.0000 0.0000 0.0000 38.1306 0.0000 -17.8301
# 5 -17.6397 -18.9185 -37.5907 0.0000 29.0404 0.0000
# 6 0.0000 0.0000 0.0000 -17.8301 0.0000 29.8319
#
#
#
# Elastic Compliance Matrix: (Units=1/GPa)
#
#
# Indices 1 2 3 4 5 6 
#
# 1 0.042383 -0.006809 0.013719 0.000000 0.039066 0.000000
# 2 -0.006809 0.010489 -0.004407 0.000000 -0.003007 0.000000
# 3 0.013719 -0.004407 0.024744 0.000000 0.037492 0.000000
# 4 0.000000 0.000000 0.000000 0.036398 0.000000 0.021755
# 5 0.039066 -0.003007 0.037492 0.000000 0.104736 0.000000
# 6 0.000000 0.000000 0.000000 0.021755 0.000000 0.046524
#
#
# Mechanical properties :
#
#
# Convention : Reuss Voigt Hill
#
# Bulk Modulus (GPa) = 12.10334 44.64096 28.37215
# Shear Modulus (GPa) = 17.37275 32.20148 24.78711
#
# Velocity S-wave (km/s) = 2.85937 3.89290 3.41546
# Velocity P-wave (km/s) = 4.07399 6.41991 5.37646
#
# Compressibility (1/GPa) = 0.08262183
#
# Stress axis : x y z
#
# Youngs Moduli (GPa) = 23.59455 95.34102 40.41395
#
# Poissons Ratio (x) = 0.64916 -0.55443
# Poissons Ratio (y) = 0.16065 0.17809
# Poissons Ratio (z) = -0.32369 0.42013
#
# Static dielectric constant tensor:
#      x y z
#    x 1.800210 0.000000 -0.000370 
#    y 0.000000 1.841840 0.000000 
#    z -0.000370 0.000000 1.814580 
# 
# From -- ./inp_files/69275.got.cif
#   From: 2010.05.17/outbox.cif.g08.bks.cpg/sg14_35_cif.got.tgz:69275.got - 2010.06.03 17:49:19.
