data_PCOD9241997
_publ_section_title
;
Structure prediction by ZEFSAII (Michael W. Deem and Ramdas Pophale) SiO2 
 PCOD9241997
Probable space group: P 21/C
;
_chemical_formula_sum "Si O2"
_cell_formula_units_Z 20
_cell_length_a 7.152632
_cell_length_b 9.808363
_cell_length_c 15.161696
_cell_angle_alpha 90.000000
_cell_angle_beta 127.116187
_cell_angle_gamma 90.000000
_cell_volume 848.191214
_symmetry_space_group_name_H-M "P 21/C"
_symmetry_group_IT_number 14
_symmetry_cell_setting 'monoclinic'
loop_
_space_group_symop_operation_xyz
x,y,z
-x,1/2+y,1/2-z
-x,-y,-z
x,1/2-y,1/2+z
loop_
_atom_site_type_symbol
_atom_site_label
_atom_site_fract_x
_atom_site_fract_y
_atom_site_fract_z
Si Si1 0.943474 0.607372 0.775665
Si Si2 0.854042 0.946559 0.061181
Si Si3 0.649849 0.378293 0.231530
Si Si4 0.989690 0.782663 0.945556
Si Si5 0.259746 0.598948 0.154126
O O1 0.790972 0.599324 0.641887
O O2 0.212788 0.628417 0.822233
O O3 0.882943 0.729144 0.824236
O O4 0.904613 0.468270 0.817723
O O5 0.139562 0.943904 0.150377
O O6 0.813474 0.843276 0.969807
O O7 0.816839 0.102705 0.025905
O O8 0.434549 0.479928 0.174075
O O9 0.621820 0.229423 0.265444
O O10 0.115340 0.657906 0.030950
#
# Coordination Sequence:
#
# PCOD9241997 Si02
#       5
#     4   4   4   4   4
#     4  10  21  39  66  87 126 171 207 255 320 367
#     4   8  20  38  62  89 129 166 204 263 319 368
#     4   9  23  38  63  94 127 168 207 259 322 369
#     4  10  19  38  64  94 120 165 218 254 312 382
#     4  11  22  39  64  96 127 168 211 264 311 379
#
# _framework density 23.57959
#
# number of rings (size 3 to 8) (size 9 to 14) (size 15 to 20)
#    1.200    1.200    0.000    1.800    2.800    0.800 
#    0.000    0.000    4.400    6.000    0.000    0.000 
#    0.000    0.000    0.000    0.000    0.000    0.000 
#
# Total GULP energy -111479.197506 kJ/mol
# GULP energy per Si atom -5573.959875 kJ/mol
# Density = 2.352592 g / cm^3
# Si number density = 23.579590 Si / 1000 Ang^3
#
#
#
# Elastic Constant Matrix: (Units=GPa)
#
#
# Indices 1 2 3 4 5 6 
#
# 1 93.2953 44.3547 38.5927 0.0000 -25.2017 0.0000
# 2 44.3547 129.9465 33.8363 0.0000 -29.8643 0.0000
# 3 38.5927 33.8363 93.9222 0.0000 -46.6527 0.0000
# 4 0.0000 0.0000 0.0000 48.4562 0.0000 -23.5340
# 5 -25.2017 -29.8643 -46.6527 0.0000 40.4170 0.0000
# 6 0.0000 0.0000 0.0000 -23.5340 0.0000 7.1896
#
#
#
# Elastic Compliance Matrix: (Units=1/GPa)
#
#
# Indices 1 2 3 4 5 6 
#
# 1 0.014468 -0.003472 -0.003486 0.000000 0.002432 0.000000
# 2 -0.003472 0.010104 0.000984 0.000000 0.006436 0.000000
# 3 -0.003486 0.000984 0.025798 0.000000 0.028331 0.000000
# 4 0.000000 0.000000 0.000000 -0.034992 0.000000 -0.114539
# 5 0.002432 0.006436 0.028331 0.000000 0.063716 0.000000
# 6 0.000000 0.000000 0.000000 -0.114539 0.000000 -0.235835
#
#
# Mechanical properties :
#
#
# Convention : Reuss Voigt Hill
#
# Bulk Modulus (GPa) = 26.02759 61.19236 43.60997
# Shear Modulus (GPa) = -37.88280 32.57125 -2.65577
#
# Velocity S-wave (km/s) = -4.01258 3.72066 -1.06243
# Velocity P-wave (km/s) = 3.22577 6.66825 4.12674
#
# Compressibility (1/GPa) = 0.03842077
#
# Stress axis : x y z
#
# Youngs Moduli (GPa) = 69.11660 98.97541 38.76335
#
# Poissons Ratio (x) = 0.34362 0.13513
# Poissons Ratio (y) = 0.23995 -0.03813
# Poissons Ratio (z) = 0.24095 -0.09735
#
# Static dielectric constant tensor:
#      x y z
#    x 1.935730 0.000000 -0.012560 
#    y 0.000000 1.946040 0.000000 
#    z -0.012560 0.000000 1.941960 
# 
# From -- ./inp_files/48372.got.cif
#   From: 2010.05.17/outbox.cif.g08.bks.cpg/sg14_25_cif.got.tgz:48372.got - 2010.06.03 17:49:19.
