data_PCOD9241384
_publ_section_title
;
Structure prediction by ZEFSAII (Michael W. Deem and Ramdas Pophale) SiO2 
 PCOD9241384
Probable space group: P 21/C
;
_chemical_formula_sum "Si O2"
_cell_formula_units_Z 32
_cell_length_a 26.190685
_cell_length_b 8.132218
_cell_length_c 16.405679
_cell_angle_alpha 90.000000
_cell_angle_beta 153.200295
_cell_angle_gamma 90.000000
_cell_volume 1575.448660
_symmetry_space_group_name_H-M "P 21/C"
_symmetry_group_IT_number 14
_symmetry_cell_setting 'monoclinic'
loop_
_space_group_symop_operation_xyz
x,y,z
-x,1/2+y,1/2-z
-x,-y,-z
x,1/2-y,1/2+z
loop_
_atom_site_type_symbol
_atom_site_label
_atom_site_fract_x
_atom_site_fract_y
_atom_site_fract_z
Si Si1 0.813989 0.242581 0.380785
Si Si2 0.971682 0.976954 0.639264
Si Si3 0.255282 0.401945 0.907884
Si Si4 0.115708 0.308865 0.552220
Si Si5 0.962850 0.893031 0.802667
Si Si6 0.363495 0.739177 0.016029
Si Si7 0.784942 0.950523 0.958255
Si Si8 0.393368 0.088018 0.154631
O O1 0.779512 0.382825 0.396018
O O2 0.935476 0.290009 0.511146
O O3 0.860840 0.087275 0.496215
O O4 0.719056 0.220650 0.177638
O O5 0.935548 0.870918 0.510109
O O6 0.977435 0.863296 0.727680
O O7 0.099553 0.045691 0.821971
O O8 0.184903 0.383584 0.724476
O O9 0.162383 0.376670 0.845266
O O10 0.306987 0.585720 0.985257
O O11 0.338189 0.244966 0.029134
O O12 0.196761 0.319273 0.588277
O O13 0.007563 0.422694 0.380369
O O14 0.479029 0.651821 0.150248
O O15 0.385420 0.911012 0.096153
O O16 0.678259 0.930766 0.864291
#
# Coordination Sequence:
#
# PCOD9241384 Si02
#       8
#     4   4   4   4   4   4   4   4
#     4  10  21  40  61  97 131 160 211 261 316 383
#     4  10  19  35  62  99 130 161 209 250 316 394
#     4  12  23  43  64  94 128 167 212 263 320 379
#     4  10  20  37  62  96 135 161 203 259 322 379
#     4  10  20  36  63  94 133 165 197 257 319 389
#     4  12  26  45  64  91 123 167 219 270 312 375
#     4  10  21  41  63  94 126 172 202 260 319 383
#     4  12  27  45  69  87 124 173 223 267 321 368
#
# _framework density 20.311672999999999
#
# number of rings (size 3 to 8) (size 9 to 14) (size 15 to 20)
#    0.000    1.500    3.750    5.625    3.500    0.500 
#    0.000    2.500    0.000    3.000    0.000    0.000 
#    0.000    0.000    0.000    0.000    0.000    0.000 
#
# Total GULP energy -178150.359147 kJ/mol
# GULP energy per Si atom -5567.198723 kJ/mol
# Density = 2.026544 g / cm^3
# Si number density = 20.311673 Si / 1000 Ang^3
#
#
#
# Elastic Constant Matrix: (Units=GPa)
#
#
# Indices 1 2 3 4 5 6 
#
# 1 53.5667 5.6930 20.4286 0.0000 22.0590 0.0000
# 2 5.6930 82.2136 23.5686 0.0000 0.7374 0.0000
# 3 20.4286 23.5686 89.2001 0.0000 19.3508 0.0000
# 4 0.0000 0.0000 0.0000 33.7783 0.0000 2.2287
# 5 22.0590 0.7374 19.3508 0.0000 25.9803 0.0000
# 6 0.0000 0.0000 0.0000 2.2287 0.0000 -1.0259
#
#
#
# Elastic Compliance Matrix: (Units=1/GPa)
#
#
# Indices 1 2 3 4 5 6 
#
# 1 0.029047 -0.001484 -0.001096 0.000000 -0.023804 0.000000
# 2 -0.001484 0.013390 -0.004042 0.000000 0.003890 0.000000
# 3 -0.001096 -0.004042 0.014674 0.000000 -0.009884 0.000000
# 4 0.000000 0.000000 0.000000 0.025893 0.000000 0.056254
# 5 -0.023804 0.003890 -0.009884 0.000000 0.065953 0.000000
# 6 0.000000 0.000000 0.000000 0.056254 0.000000 -0.852582
#
#
# Mechanical properties :
#
#
# Convention : Reuss Voigt Hill
#
# Bulk Modulus (GPa) = 22.79637 36.04010 29.41824
# Shear Modulus (GPa) = -7.39909 23.43257 8.01674
#
# Velocity S-wave (km/s) = -1.91068 3.40023 1.98883
# Velocity P-wave (km/s) = 2.52588 5.76172 4.44846
#
# Compressibility (1/GPa) = 0.04386662
#
# Stress axis : x y z
#
# Youngs Moduli (GPa) = 34.42745 74.68224 68.14742
#
# Poissons Ratio (x) = 0.11080 0.07471
# Poissons Ratio (y) = 0.05108 0.27546
# Poissons Ratio (z) = 0.03774 0.30188
#
# Static dielectric constant tensor:
#      x y z
#    x 1.718750 0.000000 -0.006160 
#    y 0.000000 1.916320 0.000000 
#    z -0.006160 0.000000 1.735440 
# 
# From -- ./inp_files/62693.got.cif
#   From: 2010.05.17/outbox.cif.g08.bks.cpg/sg14_32_cif.got.tgz:62693.got - 2010.06.03 17:49:19.
