data_PCOD9241262
_publ_section_title
;
Structure prediction by ZEFSAII (Michael W. Deem and Ramdas Pophale) SiO2 
 PCOD9241262
Probable space group: P 21/C
;
_chemical_formula_sum "Si O2"
_cell_formula_units_Z 28
_cell_length_a 17.882207
_cell_length_b 9.314098
_cell_length_c 23.605713
_cell_angle_alpha 90.000000
_cell_angle_beta 163.820470
_cell_angle_gamma 90.000000
_cell_volume 1095.557010
_symmetry_space_group_name_H-M "P 21/C"
_symmetry_group_IT_number 14
_symmetry_cell_setting 'monoclinic'
loop_
_space_group_symop_operation_xyz
x,y,z
-x,1/2+y,1/2-z
-x,-y,-z
x,1/2-y,1/2+z
loop_
_atom_site_type_symbol
_atom_site_label
_atom_site_fract_x
_atom_site_fract_y
_atom_site_fract_z
Si Si1 0.825118 0.663549 0.157435
Si Si2 0.777222 0.193000 0.744591
Si Si3 0.234399 0.861383 0.602967
Si Si4 0.147568 0.568320 0.911178
Si Si5 0.033583 0.578698 0.425967
Si Si6 0.465205 0.719494 0.047268
Si Si7 0.310805 0.504690 0.264764
O O1 0.876755 0.586097 0.135664
O O2 0.014453 0.595948 0.344208
O O3 0.885802 0.832295 0.209565
O O4 0.510924 0.639986 0.941481
O O5 0.745806 0.179632 0.654592
O O6 0.783620 0.356778 0.768755
O O7 0.017030 0.084740 0.935067
O O8 0.221997 0.926822 0.531359
O O9 0.420065 0.937586 0.783956
O O10 0.251699 0.689237 0.609461
O O11 0.950652 0.900366 0.426570
O O12 0.369235 0.657696 0.036885
O O13 0.746670 0.647804 0.234938
O O14 0.487158 0.891453 0.061330
#
# Coordination Sequence:
#
# PCOD9241262 Si02
#       7
#     4   4   4   4   4   4   4
#     4  10  21  33  53  84 114 137 180 231 298 338
#     4  11  19  35  59  86 108 145 195 237 282 346
#     4   9  22  40  54  79 112 155 190 230 284 337
#     4  11  21  35  57  82 117 145 180 242 293 337
#     4   9  17  37  58  78 109 145 183 231 277 345
#     4  10  19  35  58  83 112 146 182 236 293 333
#     4  10  22  38  58  79 112 153 199 227 274 356
#
# _framework density 25.557773999999998
#
# number of rings (size 3 to 8) (size 9 to 14) (size 15 to 20)
#    0.000    2.000    2.857    2.143    4.000    0.571 
#    2.571    0.000    0.000    0.000    0.000    0.000 
#    0.000    0.000    0.000    0.000    0.000    0.000 
#
# Total GULP energy -156433.885586 kJ/mol
# GULP energy per Si atom -5586.924485 kJ/mol
# Density = 2.549960 g / cm^3
# Si number density = 25.557774 Si / 1000 Ang^3
#
#
#
# Elastic Constant Matrix: (Units=GPa)
#
#
# Indices 1 2 3 4 5 6 
#
# 1 109.9153 -5.0035 11.1807 0.0000 -20.5048 0.0000
# 2 -5.0035 104.0974 9.1756 0.0000 -12.4722 0.0000
# 3 11.1807 9.1756 21.2203 0.0000 -0.2271 0.0000
# 4 0.0000 0.0000 0.0000 18.5341 0.0000 -0.9378
# 5 -20.5048 -12.4722 -0.2271 0.0000 22.3824 0.0000
# 6 0.0000 0.0000 0.0000 -0.9378 0.0000 32.6284
#
#
#
# Elastic Compliance Matrix: (Units=1/GPa)
#
#
# Indices 1 2 3 4 5 6 
#
# 1 0.012395 0.002805 -0.007606 0.000000 0.012841 0.000000
# 2 0.002805 0.011354 -0.006293 0.000000 0.008832 0.000000
# 3 -0.007606 -0.006293 0.053747 0.000000 -0.009929 0.000000
# 4 0.000000 0.000000 0.000000 0.054033 0.000000 0.001553
# 5 0.012841 0.008832 -0.009929 0.000000 0.061262 0.000000
# 6 0.000000 0.000000 0.000000 0.001553 0.000000 0.030693
#
#
# Mechanical properties :
#
#
# Convention : Reuss Voigt Hill
#
# Bulk Modulus (GPa) = 18.08065 29.54872 23.81468
# Shear Modulus (GPa) = 18.93171 29.36766 24.14969
#
# Velocity S-wave (km/s) = 2.72461 3.39347 3.07727
# Velocity P-wave (km/s) = 4.12162 5.19046 4.68661
#
# Compressibility (1/GPa) = 0.05530774
#
# Stress axis : x y z
#
# Youngs Moduli (GPa) = 80.67990 88.07400 18.60581
#
# Poissons Ratio (x) = -0.24701 0.14151
# Poissons Ratio (y) = -0.22628 0.11708
# Poissons Ratio (z) = 0.61364 0.55422
#
# Static dielectric constant tensor:
#      x y z
#    x 1.998580 0.000000 0.004510 
#    y 0.000000 2.079790 0.000000 
#    z 0.004510 0.000000 2.062360 
# 
# From -- ./inp_files/46695.got.cif
#   From: 2010.05.17/outbox.cif.g08.bks.cpg/sg14_24_cif.got.tgz:46695.got - 2010.06.03 17:49:19.
