data_PCOD9241818
_publ_section_title
;
Structure prediction by ZEFSAII (Michael W. Deem and Ramdas Pophale) SiO2 
 PCOD9241818
Probable space group: P 21/C
;
_chemical_formula_sum "Si O2"
_cell_formula_units_Z 32
_cell_length_a 10.328559
_cell_length_b 16.366941
_cell_length_c 12.016793
_cell_angle_alpha 90.000000
_cell_angle_beta 141.450174
_cell_angle_gamma 90.000000
_cell_volume 1265.959398
_symmetry_space_group_name_H-M "P 21/C"
_symmetry_group_IT_number 14
_symmetry_cell_setting 'monoclinic'
loop_
_space_group_symop_operation_xyz
x,y,z
-x,1/2+y,1/2-z
-x,-y,-z
x,1/2-y,1/2+z
loop_
_atom_site_type_symbol
_atom_site_label
_atom_site_fract_x
_atom_site_fract_y
_atom_site_fract_z
Si Si1 0.613264 0.182821 0.406314
Si Si2 0.315656 0.629480 0.614184
Si Si3 0.746855 0.913559 0.454044
Si Si4 0.988352 0.682916 0.951043
Si Si5 0.176395 0.965717 0.811374
Si Si6 0.850523 0.307539 0.278403
Si Si7 0.769025 0.748501 0.610648
Si Si8 0.530966 0.898590 0.894208
O O1 0.599908 0.278136 0.357564
O O2 0.834771 0.151835 0.509524
O O3 0.653588 0.179899 0.564699
O O4 0.463694 0.125627 0.233356
O O5 0.200521 0.601595 0.425737
O O6 0.179475 0.634830 0.634644
O O7 0.507021 0.568531 0.769668
O O8 0.830799 0.882015 0.391748
O O9 0.932356 0.970986 0.620083
O O10 0.741556 0.835330 0.534037
O O11 0.115979 0.720534 0.138811
O O12 0.860536 0.751098 0.796651
O O13 0.285294 0.044211 0.937714
O O14 0.320218 0.938721 0.802975
O O15 0.060899 0.302898 0.347469
O O16 0.571451 0.689706 0.477422
#
# Coordination Sequence:
#
# PCOD9241818 Si02
#       8
#     4   4   4   4   4   4   4   4
#     4  10  19  37  64  88 128 163 214 267 308 391
#     4  11  22  38  63  93 127 170 217 261 324 384
#     4  11  20  36  62  92 123 163 214 263 315 379
#     4   9  17  33  57  91 123 149 210 269 315 354
#     4  11  25  44  65  94 139 164 212 283 328 384
#     4   9  20  36  58  94 122 163 211 269 316 367
#     4  10  20  36  64  94 124 167 216 268 309 393
#     4  11  23  44  64  96 130 172 210 268 345 380
#
# _framework density 25.277273000000001
#
# number of rings (size 3 to 8) (size 9 to 14) (size 15 to 20)
#    0.000    1.750    2.500    3.750    1.750    1.000 
#    6.750    3.125    0.000    0.000    0.000    0.000 
#    0.000    0.000    0.000    0.000    0.000    0.000 
#
# Total GULP energy -178708.288524 kJ/mol
# GULP energy per Si atom -5584.634016 kJ/mol
# Density = 2.521974 g / cm^3
# Si number density = 25.277273 Si / 1000 Ang^3
#
#
#
# Elastic Constant Matrix: (Units=GPa)
#
#
# Indices 1 2 3 4 5 6 
#
# 1 71.0821 14.6094 22.3954 0.0000 -11.0185 0.0000
# 2 14.6094 86.3194 19.4787 0.0000 -4.1920 0.0000
# 3 22.3954 19.4787 131.0739 0.0000 -11.5450 0.0000
# 4 0.0000 0.0000 0.0000 46.5120 0.0000 4.4574
# 5 -11.0185 -4.1920 -11.5450 0.0000 40.6572 0.0000
# 6 0.0000 0.0000 0.0000 4.4574 0.0000 19.0902
#
#
#
# Elastic Compliance Matrix: (Units=1/GPa)
#
#
# Indices 1 2 3 4 5 6 
#
# 1 0.015671 -0.002017 -0.002074 0.000000 0.003450 0.000000
# 2 -0.002017 0.012269 -0.001452 0.000000 0.000306 0.000000
# 3 -0.002074 -0.001452 0.008345 0.000000 0.001658 0.000000
# 4 0.000000 0.000000 0.000000 0.021992 0.000000 -0.005135
# 5 0.003450 0.000306 0.001658 0.000000 0.026033 0.000000
# 6 0.000000 0.000000 0.000000 -0.005135 0.000000 0.053582
#
#
# Mechanical properties :
#
#
# Convention : Reuss Voigt Hill
#
# Bulk Modulus (GPa) = 39.68203 44.60470 42.14336
# Shear Modulus (GPa) = 31.77084 36.71800 34.24442
#
# Velocity S-wave (km/s) = 3.54912 3.81545 3.68469
# Velocity P-wave (km/s) = 5.70331 6.09054 5.90010
#
# Compressibility (1/GPa) = 0.02520032
#
# Stress axis : x y z
#
# Youngs Moduli (GPa) = 63.81225 81.50848 119.82626
#
# Poissons Ratio (x) = 0.16438 0.24852
# Poissons Ratio (y) = 0.12869 0.17395
# Poissons Ratio (z) = 0.13234 0.11832
#
# Static dielectric constant tensor:
#      x y z
#    x 2.063610 0.000000 0.018300 
#    y 0.000000 2.033070 0.000000 
#    z 0.018300 0.000000 2.091900 
# 
# From -- ./inp_files/30469.got.cif
#   From: 2010.05.17/outbox.cif.g08.bks.cpg/sg14_16_cif.got.tgz:30469.got - 2010.06.03 17:49:19.
