data_PCOD9241280
_publ_section_title
;
Structure prediction by ZEFSAII (Michael W. Deem and Ramdas Pophale) SiO2 
 PCOD9241280
Probable space group: P 21/C
;
_chemical_formula_sum "Si O2"
_cell_formula_units_Z 32
_cell_length_a 8.849496
_cell_length_b 11.509027
_cell_length_c 14.363132
_cell_angle_alpha 90.000000
_cell_angle_beta 88.957643
_cell_angle_gamma 90.000000
_cell_volume 1462.629825
_symmetry_space_group_name_H-M "P 21/C"
_symmetry_group_IT_number 14
_symmetry_cell_setting 'monoclinic'
loop_
_space_group_symop_operation_xyz
x,y,z
-x,1/2+y,1/2-z
-x,-y,-z
x,1/2-y,1/2+z
loop_
_atom_site_type_symbol
_atom_site_label
_atom_site_fract_x
_atom_site_fract_y
_atom_site_fract_z
Si Si1 0.444162 0.771732 0.706084
Si Si2 0.295311 0.210625 0.660112
Si Si3 0.227998 0.970479 0.728900
Si Si4 0.514264 0.197815 0.996099
Si Si5 0.232443 0.559145 0.703101
Si Si6 0.291188 0.495370 0.506583
Si Si7 0.910951 0.847470 0.712633
Si Si8 0.916804 0.622558 0.610758
O O1 0.601349 0.741061 0.751391
O O2 0.450617 0.774920 0.593854
O O3 0.331476 0.666523 0.734410
O O4 0.375046 0.892636 0.739832
O O5 0.255888 0.074393 0.655699
O O6 0.406440 0.244462 0.574086
O O7 0.140561 0.278415 0.691989
O O8 0.182381 0.040928 0.820985
O O9 0.085587 0.887093 0.709295
O O10 0.667424 0.127563 0.023943
O O11 0.411239 0.091692 0.960558
O O12 0.315434 0.493357 0.617813
O O13 0.182623 0.467426 0.781186
O O14 0.084816 0.605607 0.649065
O O15 0.132952 0.431296 0.486475
O O16 0.882507 0.757881 0.628760
#
# Coordination Sequence:
#
# PCOD9241280 Si02
#       8
#     4   4   4   4   4   4   4   4
#     4  11  23  39  64  90 125 163 208 257 311 368
#     4  11  23  39  65  91 123 166 208 254 314 376
#     4  10  22  38  59  87 122 161 204 252 306 373
#     4  10  21  37  60  93 124 160 205 262 306 365
#     4  10  20  35  59  87 118 153 201 265 301 356
#     4  10  19  35  58  88 121 150 206 261 306 356
#     4  10  20  38  59  84 122 156 202 249 311 366
#     4  10  19  35  61  88 112 162 201 253 313 365
#
# _framework density 21.878399999999999
#
# number of rings (size 3 to 8) (size 9 to 14) (size 15 to 20)
#    0.000    1.750    2.500    2.625    1.750    0.500 
#    0.000    0.000    0.000    3.000    0.000    0.000 
#    0.000    0.000    0.000    0.000    0.000    0.000 
#
# Total GULP energy -178363.171536 kJ/mol
# GULP energy per Si atom -5573.849111 kJ/mol
# Density = 2.182860 g / cm^3
# Si number density = 21.878400 Si / 1000 Ang^3
#
#
#
# Elastic Constant Matrix: (Units=GPa)
#
#
# Indices 1 2 3 4 5 6 
#
# 1 94.1093 39.1970 9.3253 0.0000 -2.2898 0.0000
# 2 39.1970 101.9364 22.0987 0.0000 -3.0197 0.0000
# 3 9.3253 22.0987 43.0778 0.0000 -2.6027 0.0000
# 4 0.0000 0.0000 0.0000 19.9795 0.0000 -8.4921
# 5 -2.2898 -3.0197 -2.6027 0.0000 20.7019 0.0000
# 6 0.0000 0.0000 0.0000 -8.4921 0.0000 39.4741
#
#
#
# Elastic Compliance Matrix: (Units=1/GPa)
#
#
# Indices 1 2 3 4 5 6 
#
# 1 0.012664 -0.004798 -0.000240 0.000000 0.000671 0.000000
# 2 -0.004798 0.012872 -0.005525 0.000000 0.000652 0.000000
# 3 -0.000240 -0.005525 0.026249 0.000000 0.002468 0.000000
# 4 0.000000 0.000000 0.000000 0.055089 0.000000 0.011851
# 5 0.000671 0.000652 0.002468 0.000000 0.048784 0.000000
# 6 0.000000 0.000000 0.000000 0.011851 0.000000 0.027883
#
#
# Mechanical properties :
#
#
# Convention : Reuss Voigt Hill
#
# Bulk Modulus (GPa) = 32.61587 42.26282 37.43935
# Shear Modulus (GPa) = 23.26802 27.26460 25.26631
#
# Velocity S-wave (km/s) = 3.26470 3.53397 3.40200
# Velocity P-wave (km/s) = 5.39918 6.00092 5.70798
#
# Compressibility (1/GPa) = 0.03065992
#
# Stress axis : x y z
#
# Youngs Moduli (GPa) = 78.96171 77.68741 38.09633
#
# Poissons Ratio (x) = 0.37274 0.00913
# Poissons Ratio (y) = 0.37885 0.21049
# Poissons Ratio (z) = 0.01893 0.42925
#
# Static dielectric constant tensor:
#      x y z
#    x 1.934670 0.000000 0.014000 
#    y 0.000000 1.846140 0.000000 
#    z 0.014000 0.000000 1.856910 
# 
# From -- ./inp_files/55436.got.cif
#   From: 2010.05.17/outbox.cif.g08.bks.cpg/sg14_28_cif.got.tgz:55436.got - 2010.06.03 17:49:19.
