data_PCOD9241608
_publ_section_title
;
Structure prediction by ZEFSAII (Michael W. Deem and Ramdas Pophale) SiO2 
 PCOD9241608
Probable space group: P 21/C
;
_chemical_formula_sum "Si O2"
_cell_formula_units_Z 26
_cell_length_a 12.008270
_cell_length_b 14.493824
_cell_length_c 7.341903
_cell_angle_alpha 90.000000
_cell_angle_beta 77.663070
_cell_angle_gamma 90.000000
_cell_volume 1248.319527
_symmetry_space_group_name_H-M "P 21/C"
_symmetry_group_IT_number 14
_symmetry_cell_setting 'monoclinic'
loop_
_space_group_symop_operation_xyz
x,y,z
-x,1/2+y,1/2-z
-x,-y,-z
x,1/2-y,1/2+z
loop_
_atom_site_type_symbol
_atom_site_label
_atom_site_fract_x
_atom_site_fract_y
_atom_site_fract_z
Si Si1 0.606029 0.130358 0.947564
Si Si2 0.199317 0.490098 0.708779
Si Si3 0.638570 0.842494 0.876911
Si Si4 0.640242 0.155756 0.363632
Si Si5 0.000000 0.500000 0.500000
Si Si6 0.604694 0.629495 0.960343
Si Si7 0.804794 0.492702 0.875418
O O1 0.469535 0.120916 0.969852
O O2 0.626223 0.128265 0.157945
O O3 0.636195 0.233757 0.873854
O O4 0.689096 0.055453 0.833237
O O5 0.243949 0.391777 0.615230
O O6 0.101809 0.525954 0.612180
O O7 0.161157 0.480387 0.931132
O O8 0.618195 0.869119 0.674382
O O9 0.637968 0.732231 0.885647
O O10 0.531191 0.119006 0.517684
O O11 0.755777 0.111229 0.394475
O O12 0.095188 0.497393 0.301893
O O13 0.694033 0.554664 0.859513
#
# Coordination Sequence:
#
# PCOD9241608 Si02
#       7
#     4   4   4   4   2   4   4
#     4  10  19  36  62  97 129 158 194 250 313 371
#     4  11  23  42  64  88 124 162 211 253 305 360
#     4   9  20  35  62  96 128 156 194 250 312 371
#     4  10  19  36  62  97 129 158 194 250 313 371
#     4  12  26  44  64  82 120 170 218 254 300 354
#     4   9  20  35  62  96 128 156 194 250 312 371
#     4  11  23  42  64  88 124 162 211 253 305 360
#
# _framework density 20.828001
#
# number of rings (size 3 to 8) (size 9 to 14) (size 15 to 20)
#    0.000    1.846    1.538    2.308    2.154    1.231 
#    0.000    1.538    0.000    0.000    0.000    0.000 
#    0.000    0.000    0.000    0.000    0.000    0.000 
#
# Total GULP energy -144762.329045 kJ/mol
# GULP energy per Si atom -5567.781886 kJ/mol
# Density = 2.078060 g / cm^3
# Si number density = 20.828001 Si / 1000 Ang^3
#
#
#
# Elastic Constant Matrix: (Units=GPa)
#
#
# Indices 1 2 3 4 5 6 
#
# 1 29.1251 20.5157 37.2439 0.0000 -8.6374 0.0000
# 2 20.5157 56.0519 31.1068 0.0000 -22.7643 0.0000
# 3 37.2439 31.1068 139.4344 0.0000 -26.7539 0.0000
# 4 0.0000 0.0000 0.0000 12.3477 0.0000 9.7449
# 5 -8.6374 -22.7643 -26.7539 0.0000 37.8972 0.0000
# 6 0.0000 0.0000 0.0000 9.7449 0.0000 0.8767
#
#
#
# Elastic Compliance Matrix: (Units=1/GPa)
#
#
# Indices 1 2 3 4 5 6 
#
# 1 0.062986 -0.017794 -0.014054 0.000000 -0.006255 0.000000
# 2 -0.017794 0.029717 0.000891 0.000000 0.014424 0.000000
# 3 -0.014054 0.000891 0.011816 0.000000 0.005673 0.000000
# 4 0.000000 0.000000 0.000000 -0.010419 0.000000 0.115820
# 5 -0.006255 0.014424 0.005673 0.000000 0.037631 0.000000
# 6 0.000000 0.000000 0.000000 0.115820 0.000000 -0.146755
#
#
# Mechanical properties :
#
#
# Convention : Reuss Voigt Hill
#
# Bulk Modulus (GPa) = 23.47245 44.70492 34.08868
# Shear Modulus (GPa) = 81.84319 19.27397 50.55858
#
# Velocity S-wave (km/s) = 6.27536 3.04532 4.93224
# Velocity P-wave (km/s) = 7.98755 5.82029 6.98844
#
# Compressibility (1/GPa) = 0.04260314
#
# Stress axis : x y z
#
# Youngs Moduli (GPa) = 15.87649 33.65053 84.63326
#
# Poissons Ratio (x) = 0.59879 1.18947
# Poissons Ratio (y) = 0.28251 -0.07540
# Poissons Ratio (z) = 0.22314 -0.02998
#
# Static dielectric constant tensor:
#      x y z
#    x 1.741220 0.000000 0.027450 
#    y 0.000000 1.767770 0.000000 
#    z 0.027450 0.000000 1.774400 
# 
# From -- ./inp_files/12759.got.cif
#   From: 2010.05.17/outbox.cif.g08.bks.cpg/sg14_7_cif.got.tgz:12759.got - 2010.06.03 17:49:19.
