data_PCOD9241745
_publ_section_title
;
Structure prediction by ZEFSAII (Michael W. Deem and Ramdas Pophale) SiO2 
 PCOD9241745
Probable space group: P 21/C
;
_chemical_formula_sum "Si O2"
_cell_formula_units_Z 32
_cell_length_a 8.207456
_cell_length_b 25.887291
_cell_length_c 13.074337
_cell_angle_alpha 90.000000
_cell_angle_beta 152.809288
_cell_angle_gamma 90.000000
_cell_volume 1269.366642
_symmetry_space_group_name_H-M "P 21/C"
_symmetry_group_IT_number 14
_symmetry_cell_setting 'monoclinic'
loop_
_space_group_symop_operation_xyz
x,y,z
-x,1/2+y,1/2-z
-x,-y,-z
x,1/2-y,1/2+z
loop_
_atom_site_type_symbol
_atom_site_label
_atom_site_fract_x
_atom_site_fract_y
_atom_site_fract_z
Si Si1 0.951629 0.482249 0.123201
Si Si2 0.848422 0.147634 0.312817
Si Si3 0.484260 0.691372 0.176286
Si Si4 0.618613 0.952486 0.936332
Si Si5 0.852906 0.322909 0.230306
Si Si6 0.291490 0.239370 0.536216
Si Si7 0.318992 0.083176 0.239734
Si Si8 0.580876 0.920015 0.472160
O O1 0.129954 0.472054 0.332999
O O2 0.275542 0.508277 0.241163
O O3 0.621755 0.522083 0.954199
O O4 0.747081 0.430763 0.973652
O O5 0.796159 0.170509 0.396589
O O6 0.543145 0.104118 0.124624
O O7 0.981916 0.199624 0.329125
O O8 0.192277 0.111965 0.483224
O O9 0.653578 0.743196 0.315640
O O10 0.758447 0.643290 0.324806
O O11 0.313389 0.693230 0.970436
O O12 0.805727 0.947764 0.929973
O O13 0.236211 0.295649 0.452224
O O14 0.642185 0.290646 0.198363
O O15 0.757144 0.382784 0.194778
O O16 0.228794 0.076359 0.308776
#
# Coordination Sequence:
#
# PCOD9241745 Si02
#       8
#     4   4   4   4   4   4   4   4
#     4  10  19  37  61  85 126 160 207 250 318 359
#     4   9  19  38  58  83 121 153 201 249 301 362
#     4  10  22  38  60  90 119 157 203 252 306 374
#     4   9  20  36  60  89 117 163 201 258 304 373
#     4  10  23  38  63  87 119 157 205 248 317 370
#     4  11  21  40  60  87 119 158 196 259 306 368
#     4  10  20  36  58  88 121 158 206 250 300 373
#     4   9  20  37  56  87 122 160 199 258 303 365
#
# _framework density 25.209422
#
# number of rings (size 3 to 8) (size 9 to 14) (size 15 to 20)
#    0.000    2.250    1.250    0.750    1.750    4.500 
#    0.000    2.500    0.000   16.500    0.000    0.000 
#    0.000    0.000    0.000    0.000    0.000    0.000 
#
# Total GULP energy -178259.918383 kJ/mol
# GULP energy per Si atom -5570.622449 kJ/mol
# Density = 2.515204 g / cm^3
# Si number density = 25.209422 Si / 1000 Ang^3
#
#
#
# Elastic Constant Matrix: (Units=GPa)
#
#
# Indices 1 2 3 4 5 6 
#
# 1 50.9018 19.5546 17.2207 0.0000 -0.3388 0.0000
# 2 19.5546 139.4284 25.5609 0.0000 8.7149 0.0000
# 3 17.2207 25.5609 100.5147 0.0000 -8.3849 0.0000
# 4 0.0000 0.0000 0.0000 50.7944 0.0000 2.3784
# 5 -0.3388 8.7149 -8.3849 0.0000 37.6978 0.0000
# 6 0.0000 0.0000 0.0000 2.3784 0.0000 51.6543
#
#
#
# Elastic Compliance Matrix: (Units=1/GPa)
#
#
# Indices 1 2 3 4 5 6 
#
# 1 0.021636 -0.002477 -0.003070 0.000000 0.000084 0.000000
# 2 -0.002477 0.007991 -0.001797 0.000000 -0.002269 0.000000
# 3 -0.003070 -0.001797 0.011171 0.000000 0.002873 0.000000
# 4 0.000000 0.000000 0.000000 0.019730 0.000000 -0.000908
# 5 0.000084 -0.002269 0.002873 0.000000 0.027691 0.000000
# 6 0.000000 0.000000 0.000000 -0.000908 0.000000 0.019401
#
#
# Mechanical properties :
#
#
# Convention : Reuss Voigt Hill
#
# Bulk Modulus (GPa) = 38.29837 46.16859 42.23348
# Shear Modulus (GPa) = 38.16445 43.26321 40.71383
#
# Velocity S-wave (km/s) = 3.89510 4.14714 4.02310
# Velocity P-wave (km/s) = 5.95434 6.42538 6.19434
#
# Compressibility (1/GPa) = 0.02611077
#
# Stress axis : x y z
#
# Youngs Moduli (GPa) = 46.21850 125.14387 89.51463
#
# Poissons Ratio (x) = 0.30997 0.27480
# Poissons Ratio (y) = 0.11448 0.16086
# Poissons Ratio (z) = 0.14189 0.22488
#
# Static dielectric constant tensor:
#      x y z
#    x 2.075490 0.000000 0.075230 
#    y 0.000000 2.038440 0.000000 
#    z 0.075230 0.000000 2.057990 
# 
# From -- ./inp_files/27194.got.cif
#   From: 2010.05.17/outbox.cif.g08.bks.cpg/sg14_14_cif.got.tgz:27194.got - 2010.06.03 17:49:19.
