data_PCOD9241018
_publ_section_title
;
Structure prediction by ZEFSAII (Michael W. Deem and Ramdas Pophale) SiO2 
 PCOD9241018
Probable space group: P 21/C
;
_chemical_formula_sum "Si O2"
_cell_formula_units_Z 28
_cell_length_a 13.520464
_cell_length_b 5.225106
_cell_length_c 20.507852
_cell_angle_alpha 90.000000
_cell_angle_beta 66.254501
_cell_angle_gamma 90.000000
_cell_volume 1326.144337
_symmetry_space_group_name_H-M "P 21/C"
_symmetry_group_IT_number 14
_symmetry_cell_setting 'monoclinic'
loop_
_space_group_symop_operation_xyz
x,y,z
-x,1/2+y,1/2-z
-x,-y,-z
x,1/2-y,1/2+z
loop_
_atom_site_type_symbol
_atom_site_label
_atom_site_fract_x
_atom_site_fract_y
_atom_site_fract_z
Si Si1 0.344401 0.228363 0.284763
Si Si2 0.450618 0.744816 0.548845
Si Si3 0.683959 0.118353 0.092826
Si Si4 0.141775 0.493762 0.900609
Si Si5 0.221710 0.611805 0.562337
Si Si6 0.900338 0.638354 0.942989
Si Si7 0.499093 0.510680 0.839517
O O1 0.347786 0.438568 0.340523
O O2 0.222832 0.125200 0.325111
O O3 0.388954 0.349196 0.207020
O O4 0.435526 0.034514 0.287971
O O5 0.500000 0.500000 0.500000
O O6 0.320669 0.700267 0.581461
O O7 0.480996 0.777707 0.617033
O O8 0.500000 0.000000 0.500000
O O9 0.787614 0.273524 0.090357
O O10 0.587847 0.310861 0.102361
O O11 0.715326 0.993285 0.017012
O O12 0.027913 0.584693 0.903627
O O13 0.118907 0.326320 0.972698
O O14 0.137185 0.377838 0.591941
O O15 0.160775 0.876068 0.560737
#
# Coordination Sequence:
#
# PCOD9241018 Si02
#       7
#     4   4   4   4   4   4   4
#     4  11  20  36  56  89 126 163 207 263 325 392
#     4  12  25  40  63  90 127 173 214 261 321 393
#     4  10  19  34  55  83 127 159 203 255 323 379
#     4   9  21  32  56  87 119 160 199 256 320 375
#     4  11  21  37  58  86 122 162 206 258 308 377
#     4  10  21  36  58  87 123 158 205 259 316 367
#     4  11  23  36  58  90 127 169 211 266 327 398
#
# _framework density 21.113842000000002
#
# number of rings (size 3 to 8) (size 9 to 14) (size 15 to 20)
#    0.000    1.429    4.286    1.714    4.000    1.714 
#    0.000    0.000    0.000    0.000    3.714    0.000 
#    0.000    0.000    0.000    0.000    0.000    0.000 
#
# Total GULP energy -156018.392385 kJ/mol
# GULP energy per Si atom -5572.085442 kJ/mol
# Density = 2.106579 g / cm^3
# Si number density = 21.113842 Si / 1000 Ang^3
#
#
#
# Elastic Constant Matrix: (Units=GPa)
#
#
# Indices 1 2 3 4 5 6 
#
# 1 133.5015 27.8359 39.2968 0.0000 -24.6184 0.0000
# 2 27.8359 74.5975 8.9271 0.0000 -3.3318 0.0000
# 3 39.2968 8.9271 32.4307 0.0000 -17.2302 0.0000
# 4 0.0000 0.0000 0.0000 28.0794 0.0000 -4.5275
# 5 -24.6184 -3.3318 -17.2302 0.0000 27.5599 0.0000
# 6 0.0000 0.0000 0.0000 -4.5275 0.0000 28.5274
#
#
#
# Elastic Compliance Matrix: (Units=1/GPa)
#
#
# Indices 1 2 3 4 5 6 
#
# 1 0.012351 -0.002967 -0.012694 0.000000 0.002737 0.000000
# 2 -0.002967 0.014596 -0.001337 0.000000 -0.001722 0.000000
# 3 -0.012694 -0.001337 0.060605 0.000000 0.026389 0.000000
# 4 0.000000 0.000000 0.000000 0.036549 0.000000 0.005801
# 5 0.002737 -0.001722 0.026389 0.000000 0.055020 0.000000
# 6 0.000000 0.000000 0.000000 0.005801 0.000000 0.035975
#
#
# Mechanical properties :
#
#
# Convention : Reuss Voigt Hill
#
# Bulk Modulus (GPa) = 18.67273 43.62769 31.15021
# Shear Modulus (GPa) = 18.73057 27.79800 23.26428
#
# Velocity S-wave (km/s) = 2.98169 3.63240 3.32301
# Velocity P-wave (km/s) = 4.55160 6.18873 5.43219
#
# Compressibility (1/GPa) = 0.05355402
#
# Stress axis : x y z
#
# Youngs Moduli (GPa) = 80.96729 68.51386 16.50023
#
# Poissons Ratio (x) = 0.20330 0.20946
# Poissons Ratio (y) = 0.24025 0.02206
# Poissons Ratio (z) = 1.02783 0.09161
#
# Static dielectric constant tensor:
#      x y z
#    x 1.808220 0.000000 -0.015000 
#    y 0.000000 1.877790 0.000000 
#    z -0.015000 0.000000 1.841860 
# 
# From -- ./inp_files/66250.got.cif
#   From: 2010.05.17/outbox.cif.g08.bks.cpg/sg14_34_cif.got.tgz:66250.got - 2010.06.03 17:49:19.
