data_PCOD9241338
_publ_section_title
;
Structure prediction by ZEFSAII (Michael W. Deem and Ramdas Pophale) SiO2 
 PCOD9241338
Probable space group: P 21/C
;
_chemical_formula_sum "Si O2"
_cell_formula_units_Z 32
_cell_length_a 11.369638
_cell_length_b 9.635788
_cell_length_c 27.922675
_cell_angle_alpha 90.000000
_cell_angle_beta 140.078340
_cell_angle_gamma 90.000000
_cell_volume 1963.133060
_symmetry_space_group_name_H-M "P 21/C"
_symmetry_group_IT_number 14
_symmetry_cell_setting 'monoclinic'
loop_
_space_group_symop_operation_xyz
x,y,z
-x,1/2+y,1/2-z
-x,-y,-z
x,1/2-y,1/2+z
loop_
_atom_site_type_symbol
_atom_site_label
_atom_site_fract_x
_atom_site_fract_y
_atom_site_fract_z
Si Si1 0.931380 0.978976 0.368837
Si Si2 0.592271 0.750000 0.113952
Si Si3 0.779495 0.250000 0.874088
Si Si4 0.833440 0.250000 0.004687
Si Si5 0.649080 0.750000 0.245824
Si Si6 0.086559 0.091515 0.318993
Si Si7 0.931380 0.978976 0.868837
Si Si8 0.086559 0.408485 0.318993
O O1 0.761096 0.883581 0.298955
O O2 0.059773 0.883650 0.441994
O O3 0.861332 0.113858 0.374671
O O4 0.040180 0.025167 0.355274
O O5 0.697743 0.881237 0.123509
O O6 0.697742 0.618763 0.123509
O O7 0.642511 0.750000 0.186001
O O8 0.375570 0.750000 0.041917
O O9 0.559043 0.250000 0.801100
O O10 0.861332 0.113859 0.874670
O O11 0.826554 0.250000 0.945119
O O12 0.940227 0.116350 0.058006
O O13 0.761096 0.616419 0.298955
O O14 0.010074 0.250000 0.293370
O O15 0.000000 1.000000 0.250000
O O16 0.040180 0.025167 0.855273
#
# Coordination Sequence:
#
# PCOD9241338 Si02
#       8
#     4   4   4   4   4   4   4   4
#     4  11  20  37  57  82 107 148 184 218 279 319
#     4   9  19  36  54  82 110 141 177 217 279 315
#     4  11  21  38  55  79 111 142 191 231 256 324
#     4  10  24  36  55  74 115 153 176 221 273 325
#     4  10  20  34  58  83 108 142 180 231 276 314
#     4  10  19  35  61  83 110 136 179 228 269 325
#     4  11  20  37  57  82 107 148 184 218 279 319
#     4  10  19  35  61  83 110 136 179 228 269 325
#
# _framework density 16.300473
#
# number of rings (size 3 to 8) (size 9 to 14) (size 15 to 20)
#    0.750    1.000    3.750    1.500    1.750    1.000 
#    0.000    0.000    2.750    0.000    0.000    0.000 
#    0.000    0.000    0.000    0.000    0.000    0.000 
#
# Total GULP energy -178365.618753 kJ/mol
# GULP energy per Si atom -5573.925586 kJ/mol
# Density = 1.626337 g / cm^3
# Si number density = 16.300473 Si / 1000 Ang^3
#
#
#
# Elastic Constant Matrix: (Units=GPa)
#
#
# Indices 1 2 3 4 5 6 
#
# 1 148.8903 72.1086 75.7132 0.0000 5.8180 0.0000
# 2 72.1086 137.9171 66.6886 0.0000 4.6756 0.0000
# 3 75.7132 66.6886 113.0912 0.0000 11.9929 0.0000
# 4 0.0000 0.0000 0.0000 3.7936 0.0000 1.8582
# 5 5.8180 4.6756 11.9929 0.0000 26.3632 0.0000
# 6 0.0000 0.0000 0.0000 1.8582 0.0000 27.4630
#
#
#
# Elastic Compliance Matrix: (Units=1/GPa)
#
#
# Indices 1 2 3 4 5 6 
#
# 1 0.011055 -0.003063 -0.005667 0.000000 0.000682 0.000000
# 2 -0.003063 0.011015 -0.004528 0.000000 0.000782 0.000000
# 3 -0.005667 -0.004528 0.015854 0.000000 -0.005158 0.000000
# 4 0.000000 0.000000 0.000000 0.272637 0.000000 -0.018447
# 5 0.000682 0.000782 -0.005158 0.000000 0.039989 0.000000
# 6 0.000000 0.000000 0.000000 -0.018447 0.000000 0.037661
#
#
# Mechanical properties :
#
#
# Convention : Reuss Voigt Hill
#
# Bulk Modulus (GPa) = 87.66040 92.10216 89.88128
# Shear Modulus (GPa) = 11.94659 23.88317 17.91488
#
# Velocity S-wave (km/s) = 2.71015 3.83192 3.31877
# Velocity P-wave (km/s) = 7.98046 8.72947 8.36335
#
# Compressibility (1/GPa) = 0.01140766
#
# Stress axis : x y z
#
# Youngs Moduli (GPa) = 90.45707 90.78592 63.07634
#
# Poissons Ratio (x) = 0.27804 0.35748
# Poissons Ratio (y) = 0.27704 0.28560
# Poissons Ratio (z) = 0.51266 0.41107
#
# Static dielectric constant tensor:
#      x y z
#    x 1.540430 0.000000 0.004860 
#    y 0.000000 1.528140 0.000000 
#    z 0.004860 0.000000 1.513820 
# 
# From -- ./inp_files/77050.got.cif
#   From: 2010.05.17/outbox.cif.g08.bks.cpg/sg14_39_cif.got.tgz:77050.got - 2010.06.03 17:49:19.
