data_PCOD9241558
_publ_section_title
;
Structure prediction by ZEFSAII (Michael W. Deem and Ramdas Pophale) SiO2 
 PCOD9241558
Probable space group: P 21/C
;
_chemical_formula_sum "Si O2"
_cell_formula_units_Z 30
_cell_length_a 13.300552
_cell_length_b 12.240359
_cell_length_c 11.365795
_cell_angle_alpha 90.000000
_cell_angle_beta 141.501795
_cell_angle_gamma 90.000000
_cell_volume 1151.850463
_symmetry_space_group_name_H-M "P 21/C"
_symmetry_group_IT_number 14
_symmetry_cell_setting 'monoclinic'
loop_
_space_group_symop_operation_xyz
x,y,z
-x,1/2+y,1/2-z
-x,-y,-z
x,1/2-y,1/2+z
loop_
_atom_site_type_symbol
_atom_site_label
_atom_site_fract_x
_atom_site_fract_y
_atom_site_fract_z
Si Si1 0.307953 0.092226 0.252208
Si Si2 0.803492 0.997906 0.235155
Si Si3 0.113558 0.764589 0.671508
Si Si4 0.115300 0.194329 0.861812
Si Si5 0.337174 0.587258 0.612444
Si Si6 0.036075 0.113925 0.158754
Si Si7 0.464448 0.749962 0.393414
Si Si8 0.500000 0.500000 0.500000
O O1 0.409165 0.173380 0.424122
O O2 0.160351 0.041530 0.196775
O O3 0.400968 0.996769 0.268652
O O4 0.230574 0.158464 0.072520
O O5 0.913272 0.104044 0.352304
O O6 0.872578 0.897558 0.226892
O O7 0.648435 0.050674 0.011142
O O8 0.685943 0.976124 0.234115
O O9 0.012998 0.708946 0.477125
O O10 0.297063 0.742047 0.810797
O O11 0.062278 0.705990 0.744585
O O12 0.142642 0.318801 0.849022
O O13 0.138903 0.579431 0.449703
O O14 0.415788 0.701162 0.720490
O O15 0.514096 0.625282 0.446307
#
# Coordination Sequence:
#
# PCOD9241558 Si02
#       8
#     4   4   4   4   4   4   4   2
#     4  10  21  37  62  92 128 155 206 263 309 370
#     4  10  20  39  61  89 126 162 210 252 314 370
#     4   9  20  38  60  87 122 162 203 256 307 367
#     4  10  20  37  61  89 120 167 206 256 309 366
#     4  10  20  38  64  90 121 168 202 258 309 376
#     4  10  19  36  61  87 124 160 203 256 307 365
#     4  10  21  41  64  88 129 164 207 250 317 371
#     4  10  22  42  62  86 130 174 192 266 314 372
#
# _framework density 26.045048000000001
#
# number of rings (size 3 to 8) (size 9 to 14) (size 15 to 20)
#    0.000    2.133    1.333    1.600    0.000    1.600 
#   14.400    4.000    0.000    0.000    0.000    0.000 
#    0.000    0.000    0.000    0.000    0.000    0.000 
#
# Total GULP energy -167157.163876 kJ/mol
# GULP energy per Si atom -5571.905463 kJ/mol
# Density = 2.598577 g / cm^3
# Si number density = 26.045048 Si / 1000 Ang^3
#
#
#
# Elastic Constant Matrix: (Units=GPa)
#
#
# Indices 1 2 3 4 5 6 
#
# 1 75.1291 15.9092 9.1678 0.0000 6.2181 0.0000
# 2 15.9092 84.7200 31.7922 0.0000 -2.6729 0.0000
# 3 9.1678 31.7922 60.0557 0.0000 -9.1423 0.0000
# 4 0.0000 0.0000 0.0000 46.9751 0.0000 2.0754
# 5 6.2181 -2.6729 -9.1423 0.0000 25.9591 0.0000
# 6 0.0000 0.0000 0.0000 2.0754 0.0000 41.2450
#
#
#
# Elastic Compliance Matrix: (Units=1/GPa)
#
#
# Indices 1 2 3 4 5 6 
#
# 1 0.014331 -0.002198 -0.001671 0.000000 -0.004248 0.000000
# 2 -0.002198 0.015109 -0.007762 0.000000 -0.000651 0.000000
# 3 -0.001671 -0.007762 0.022141 0.000000 0.007399 0.000000
# 4 0.000000 0.000000 0.000000 0.021335 0.000000 -0.001074
# 5 -0.004248 -0.000651 0.007399 0.000000 0.042078 0.000000
# 6 0.000000 0.000000 0.000000 -0.001074 0.000000 0.024299
#
#
# Mechanical properties :
#
#
# Convention : Reuss Voigt Hill
#
# Bulk Modulus (GPa) = 35.31069 37.07148 36.19109
# Shear Modulus (GPa) = 29.07054 33.70489 31.38771
#
# Velocity S-wave (km/s) = 3.34453 3.60126 3.47527
# Velocity P-wave (km/s) = 5.33868 5.61753 5.47988
#
# Compressibility (1/GPa) = 0.02832003
#
# Stress axis : x y z
#
# Youngs Moduli (GPa) = 69.77709 66.18782 45.16424
#
# Poissons Ratio (x) = 0.14550 0.07545
# Poissons Ratio (y) = 0.15339 0.35055
# Poissons Ratio (z) = 0.11657 0.51373
#
# Static dielectric constant tensor:
#      x y z
#    x 2.610000 0.000000 0.215250 
#    y 0.000000 2.103270 0.000000 
#    z 0.215250 0.000000 2.221430 
# 
# From -- ./inp_files/48922.got.cif
#   From: 2010.05.17/outbox.cif.g08.bks.cpg/sg14_25_cif.got.tgz:48922.got - 2010.06.03 17:49:19.
