data_PCOD9241691
_publ_section_title
;
Structure prediction by ZEFSAII (Michael W. Deem and Ramdas Pophale) SiO2 
 PCOD9241691
Probable space group: P 21/C
;
_chemical_formula_sum "Si O2"
_cell_formula_units_Z 26
_cell_length_a 10.848423
_cell_length_b 13.207461
_cell_length_c 8.096135
_cell_angle_alpha 90.000000
_cell_angle_beta 111.792877
_cell_angle_gamma 90.000000
_cell_volume 1077.111242
_symmetry_space_group_name_H-M "P 21/C"
_symmetry_group_IT_number 14
_symmetry_cell_setting 'monoclinic'
loop_
_space_group_symop_operation_xyz
x,y,z
-x,1/2+y,1/2-z
-x,-y,-z
x,1/2-y,1/2+z
loop_
_atom_site_type_symbol
_atom_site_label
_atom_site_fract_x
_atom_site_fract_y
_atom_site_fract_z
Si Si1 0.000000 0.500000 0.500000
Si Si2 0.203479 0.610685 0.156175
Si Si3 0.384104 0.212686 0.431467
Si Si4 0.392458 0.585384 0.774403
Si Si5 0.140066 0.686689 0.483122
Si Si6 0.520474 0.611109 0.353366
Si Si7 0.797362 0.544914 0.100474
O O1 0.970836 0.375937 0.475640
O O2 0.905244 0.519801 0.291429
O O3 0.141312 0.640918 0.299963
O O4 0.362133 0.619970 0.263124
O O5 0.146885 0.693282 0.999020
O O6 0.173178 0.501244 0.064126
O O7 0.496793 0.157808 0.597642
O O8 0.412451 0.173725 0.262608
O O9 0.411568 0.331815 0.459520
O O10 0.246378 0.162012 0.419758
O O11 0.277726 0.651163 0.635569
O O12 0.439203 0.504103 0.661447
O O13 0.330838 0.519727 0.895219
#
# Coordination Sequence:
#
# PCOD9241691 Si02
#       7
#     2   4   4   4   4   4   4
#     4  10  24  46  60  82 120 168 214 270 298 362
#     4  12  21  38  66  99 116 160 211 257 300 387
#     4  11  20  36  57  91 130 168 194 259 307 370
#     4  10  19  37  58  89 129 168 194 256 306 368
#     4  11  24  38  64  92 124 157 210 253 313 364
#     4  11  21  33  57  94 133 160 203 247 314 376
#     4  10  21  41  64  85 125 165 213 251 316 358
#
# _framework density 24.138641
#
# number of rings (size 3 to 8) (size 9 to 14) (size 15 to 20)
#    0.000    1.231    4.615    3.692    0.000    2.462 
#    0.000    9.231    0.000    0.000    0.000    0.000 
#    0.000    0.000    0.000    0.000    0.000    0.000 
#
# Total GULP energy -144889.254095 kJ/mol
# GULP energy per Si atom -5572.663619 kJ/mol
# Density = 2.408370 g / cm^3
# Si number density = 24.138641 Si / 1000 Ang^3
#
#
#
# Elastic Constant Matrix: (Units=GPa)
#
#
# Indices 1 2 3 4 5 6 
#
# 1 13.0007 7.1369 -8.4580 0.0000 -9.2612 0.0000
# 2 7.1369 72.4426 -8.1698 0.0000 -1.0664 0.0000
# 3 -8.4580 -8.1698 69.2640 0.0000 6.7263 0.0000
# 4 0.0000 0.0000 0.0000 23.2801 0.0000 -10.6284
# 5 -9.2612 -1.0664 6.7263 0.0000 13.9079 0.0000
# 6 0.0000 0.0000 0.0000 -10.6284 0.0000 19.7894
#
#
#
# Elastic Compliance Matrix: (Units=1/GPa)
#
#
# Indices 1 2 3 4 5 6 
#
# 1 0.164040 -0.013691 0.008300 0.000000 0.104169 0.000000
# 2 -0.013691 0.015134 0.000930 0.000000 -0.008406 0.000000
# 3 0.008300 0.000930 0.015757 0.000000 -0.002022 0.000000
# 4 0.000000 0.000000 0.000000 0.056909 0.000000 0.030565
# 5 0.104169 -0.008406 -0.002022 0.000000 0.141601 0.000000
# 6 0.000000 0.000000 0.000000 0.030565 0.000000 0.066948
#
#
# Mechanical properties :
#
#
# Convention : Reuss Voigt Hill
#
# Bulk Modulus (GPa) = 5.37609 15.08061 10.22835
# Shear Modulus (GPa) = 9.41061 22.34203 15.87632
#
# Velocity S-wave (km/s) = 1.97662 3.04562 2.56738
# Velocity P-wave (km/s) = 2.72789 4.31611 3.61041
#
# Compressibility (1/GPa) = 0.18600870
#
# Stress axis : x y z
#
# Youngs Moduli (GPa) = 6.09606 66.07662 63.46333
#
# Poissons Ratio (x) = 0.90468 -0.52677
# Poissons Ratio (y) = 0.08346 -0.05899
# Poissons Ratio (z) = -0.05060 -0.06142
#
# Static dielectric constant tensor:
#      x y z
#    x 1.979390 0.000000 -0.085980 
#    y 0.000000 1.917430 0.000000 
#    z -0.085980 0.000000 1.915370 
# 
# From -- ./inp_files/12757.got.cif
#   From: 2010.05.17/outbox.cif.g08.bks.cpg/sg14_7_cif.got.tgz:12757.got - 2010.06.03 17:49:19.
