data_PCOD9241053
_publ_section_title
;
Structure prediction by ZEFSAII (Michael W. Deem and Ramdas Pophale) SiO2 
 PCOD9241053
Probable space group: P 21/C
;
_chemical_formula_sum "Si O2"
_cell_formula_units_Z 32
_cell_length_a 11.169485
_cell_length_b 25.668529
_cell_length_c 5.518151
_cell_angle_alpha 90.000000
_cell_angle_beta 81.263300
_cell_angle_gamma 90.000000
_cell_volume 1563.720176
_symmetry_space_group_name_H-M "P 21/C"
_symmetry_group_IT_number 14
_symmetry_cell_setting 'monoclinic'
loop_
_space_group_symop_operation_xyz
x,y,z
-x,1/2+y,1/2-z
-x,-y,-z
x,1/2-y,1/2+z
loop_
_atom_site_type_symbol
_atom_site_label
_atom_site_fract_x
_atom_site_fract_y
_atom_site_fract_z
Si Si1 0.347796 0.552170 0.473738
Si Si2 0.403988 0.460940 0.784163
Si Si3 0.845965 0.723991 0.283645
Si Si4 0.037058 0.935663 0.607859
Si Si5 0.130795 0.884971 0.082660
Si Si6 0.200422 0.397078 0.622134
Si Si7 0.804376 0.972118 0.271026
Si Si8 0.880557 0.264624 0.332636
O O1 0.402510 0.520303 0.682722
O O2 0.456897 0.555935 0.249346
O O3 0.276056 0.605024 0.539522
O O4 0.243097 0.512328 0.420866
O O5 0.333755 0.419817 0.632075
O O6 0.316844 0.462313 0.039817
O O7 0.802134 0.755856 0.534281
O O8 0.813815 0.663935 0.336962
O O9 0.991762 0.733271 0.226364
O O10 0.086155 0.916381 0.334505
O O11 0.893611 0.925568 0.668430
O O12 0.088913 0.993173 0.647649
O O13 0.085320 0.902070 0.827850
O O14 0.095347 0.825566 0.140732
O O15 0.160900 0.418719 0.371736
O O16 0.816922 0.244799 0.595622
#
# Coordination Sequence:
#
# PCOD9241053 Si02
#       8
#     4   4   4   4   4   4   4   4
#     4   9  20  38  59  87 115 158 207 245 287 351
#     4  10  20  38  59  83 122 159 203 238 292 355
#     4  10  21  37  56  80 111 153 196 245 291 353
#     4  11  22  36  57  89 128 158 189 238 304 370
#     4  11  21  38  62  89 117 157 199 248 302 354
#     4  11  24  35  57  88 121 160 197 244 305 369
#     4  10  21  36  56  89 123 163 196 245 292 364
#     4  10  19  34  56  83 112 145 193 247 297 350
#
# _framework density 20.464020999999999
#
# number of rings (size 3 to 8) (size 9 to 14) (size 15 to 20)
#    0.000    1.750    1.250    4.500    3.500    0.500 
#    0.000    0.000    0.000    1.500    0.000    0.000 
#    0.000    0.000    0.000    0.000    0.000    0.000 
#
# Total GULP energy -178481.492567 kJ/mol
# GULP energy per Si atom -5577.546643 kJ/mol
# Density = 2.041744 g / cm^3
# Si number density = 20.464021 Si / 1000 Ang^3
#
#
#
# Elastic Constant Matrix: (Units=GPa)
#
#
# Indices 1 2 3 4 5 6 
#
# 1 70.6467 16.9735 13.6761 0.0000 -9.4948 0.0000
# 2 16.9735 116.0803 30.0188 0.0000 0.3383 0.0000
# 3 13.6761 30.0188 131.7217 0.0000 9.1346 0.0000
# 4 0.0000 0.0000 0.0000 33.7247 0.0000 2.1019
# 5 -9.4948 0.3383 9.1346 0.0000 24.7439 0.0000
# 6 0.0000 0.0000 0.0000 2.1019 0.0000 17.4664
#
#
#
# Elastic Compliance Matrix: (Units=1/GPa)
#
#
# Indices 1 2 3 4 5 6 
#
# 1 0.015840 -0.001902 -0.001677 0.000000 0.006724 0.000000
# 2 -0.001902 0.009393 -0.001933 0.000000 -0.000145 0.000000
# 3 -0.001677 -0.001933 0.008466 0.000000 -0.003743 0.000000
# 4 0.000000 0.000000 0.000000 0.029876 0.000000 -0.003595
# 5 0.006724 -0.000145 -0.003743 0.000000 0.044378 0.000000
# 6 0.000000 0.000000 0.000000 -0.003595 0.000000 0.057685
#
#
# Mechanical properties :
#
#
# Convention : Reuss Voigt Hill
#
# Bulk Modulus (GPa) = 44.10282 48.86504 46.48393
# Shear Modulus (GPa) = 27.14121 32.37236 29.75678
#
# Velocity S-wave (km/s) = 3.64578 3.98165 3.81741
# Velocity P-wave (km/s) = 6.27060 6.71330 6.49572
#
# Compressibility (1/GPa) = 0.02267429
#
# Stress axis : x y z
#
# Youngs Moduli (GPa) = 63.13026 106.46014 118.11920
#
# Poissons Ratio (x) = 0.20249 0.19814
# Poissons Ratio (y) = 0.12007 0.22834
# Poissons Ratio (z) = 0.10590 0.20580
#
# Static dielectric constant tensor:
#      x y z
#    x 1.807170 0.000000 0.071260 
#    y 0.000000 1.725960 0.000000 
#    z 0.071260 0.000000 1.837260 
# 
# From -- ./inp_files/3143.got.cif
#   From: 2010.05.17/outbox.cif.g08.bks.cpg/sg14_2_cif.got.tgz:3143.got - 2010.06.03 17:49:19.
