data_PCOD9241082
_publ_section_title
;
Structure prediction by ZEFSAII (Michael W. Deem and Ramdas Pophale) SiO2 
 PCOD9241082
Probable space group: P 21/C
;
_chemical_formula_sum "Si O2"
_cell_formula_units_Z 28
_cell_length_a 9.751002
_cell_length_b 5.065446
_cell_length_c 31.784168
_cell_angle_alpha 90.000000
_cell_angle_beta 62.655441
_cell_angle_gamma 90.000000
_cell_volume 1394.498403
_symmetry_space_group_name_H-M "P 21/C"
_symmetry_group_IT_number 14
_symmetry_cell_setting 'monoclinic'
loop_
_space_group_symop_operation_xyz
x,y,z
-x,1/2+y,1/2-z
-x,-y,-z
x,1/2-y,1/2+z
loop_
_atom_site_type_symbol
_atom_site_label
_atom_site_fract_x
_atom_site_fract_y
_atom_site_fract_z
Si Si1 0.256524 0.585489 0.729070
Si Si2 0.974751 0.742874 0.857555
Si Si3 0.563181 0.749367 0.658316
Si Si4 0.003394 0.741422 0.203351
Si Si5 0.672721 0.245977 0.688855
Si Si6 0.837269 0.715817 0.556691
Si Si7 0.957756 0.784658 0.451119
O O1 0.393931 0.621307 0.676405
O O2 0.109570 0.728128 0.729312
O O3 0.331216 0.705222 0.760686
O O4 0.172941 0.317764 0.757000
O O5 0.150682 0.679362 0.846720
O O6 0.934155 0.505433 0.832376
O O7 0.890128 0.758039 0.914043
O O8 0.090414 0.933265 0.941545
O O9 0.642161 0.543379 0.679466
O O10 0.673317 0.753462 0.602221
O O11 0.566105 0.039968 0.678723
O O12 0.018727 0.992141 0.170734
O O13 0.838050 0.749691 0.506267
O O14 0.960683 0.931261 0.556024
#
# Coordination Sequence:
#
# PCOD9241082 Si02
#       7
#     4   4   4   4   4   4   4
#     4  11  25  41  57  81 116 154 200 239 274 343
#     4  11  20  38  61  83 116 150 195 238 274 343
#     4  12  22  37  58  86 119 147 184 235 301 341
#     4  11  25  39  57  79 111 159 203 234 275 327
#     4  11  22  35  56  85 116 149 182 237 290 346
#     4  10  19  34  57  89 119 149 178 231 298 350
#     4  10  19  34  58  87 120 146 185 232 285 353
#
# _framework density 20.078904999999999
#
# number of rings (size 3 to 8) (size 9 to 14) (size 15 to 20)
#    0.000    1.143    2.857    5.143    0.000    5.714 
#    0.000    0.000    0.000    1.714    0.000    0.000 
#    0.000    0.000    0.000    0.000    0.000    0.000 
#
# Total GULP energy -156289.200075 kJ/mol
# GULP energy per Si atom -5581.757146 kJ/mol
# Density = 2.003320 g / cm^3
# Si number density = 20.078905 Si / 1000 Ang^3
#
#
#
# Elastic Constant Matrix: (Units=GPa)
#
#
# Indices 1 2 3 4 5 6 
#
# 1 35.0609 3.1561 39.3003 0.0000 -7.6448 0.0000
# 2 3.1561 96.6517 34.2645 0.0000 8.8991 0.0000
# 3 39.3003 34.2645 167.4777 0.0000 -0.9454 0.0000
# 4 0.0000 0.0000 0.0000 22.6041 0.0000 9.2975
# 5 -7.6448 8.8991 -0.9454 0.0000 25.5710 0.0000
# 6 0.0000 0.0000 0.0000 9.2975 0.0000 20.9388
#
#
#
# Elastic Compliance Matrix: (Units=1/GPa)
#
#
# Indices 1 2 3 4 5 6 
#
# 1 0.042328 0.001099 -0.010090 0.000000 0.011899 0.000000
# 2 0.001099 0.011602 -0.002653 0.000000 -0.003807 0.000000
# 3 -0.010090 -0.002653 0.008872 0.000000 -0.001765 0.000000
# 4 0.000000 0.000000 0.000000 0.054125 0.000000 -0.024033
# 5 0.011899 -0.003807 -0.001765 0.000000 0.043924 0.000000
# 6 0.000000 0.000000 0.000000 -0.024033 0.000000 0.058430
#
#
# Mechanical properties :
#
#
# Convention : Reuss Voigt Hill
#
# Bulk Modulus (GPa) = 25.30820 50.29247 37.80034
# Shear Modulus (GPa) = 19.55123 28.65408 24.10266
#
# Velocity S-wave (km/s) = 3.12383 3.78176 3.46843
# Velocity P-wave (km/s) = 5.06388 6.64611 5.90820
#
# Compressibility (1/GPa) = 0.03951288
#
# Stress axis : x y z
#
# Youngs Moduli (GPa) = 23.62516 86.19496 112.71941
#
# Poissons Ratio (x) = -0.09477 1.13738
# Poissons Ratio (y) = -0.02597 0.29905
# Poissons Ratio (z) = 0.23839 0.22868
#
# Static dielectric constant tensor:
#      x y z
#    x 1.699780 0.000000 -0.016580 
#    y 0.000000 1.751580 0.000000 
#    z -0.016580 0.000000 1.821690 
# 
# From -- ./inp_files/79088.got.cif
#   From: 2010.05.17/outbox.cif.g08.bks.cpg/sg14_40_cif.got.tgz:79088.got - 2010.06.03 17:49:19.
