data_PCOD9241303
_publ_section_title
;
Structure prediction by ZEFSAII (Michael W. Deem and Ramdas Pophale) SiO2 
 PCOD9241303
Probable space group: P 21/C
;
_chemical_formula_sum "Si O2"
_cell_formula_units_Z 32
_cell_length_a 15.230159
_cell_length_b 19.758591
_cell_length_c 8.892909
_cell_angle_alpha 90.000000
_cell_angle_beta 142.432183
_cell_angle_gamma 90.000000
_cell_volume 1631.625484
_symmetry_space_group_name_H-M "P 21/C"
_symmetry_group_IT_number 14
_symmetry_cell_setting 'monoclinic'
loop_
_space_group_symop_operation_xyz
x,y,z
-x,1/2+y,1/2-z
-x,-y,-z
x,1/2-y,1/2+z
loop_
_atom_site_type_symbol
_atom_site_label
_atom_site_fract_x
_atom_site_fract_y
_atom_site_fract_z
Si Si1 0.679068 0.193061 0.700985
Si Si2 0.568318 0.794391 0.239727
Si Si3 0.682778 0.673749 0.590013
Si Si4 0.605201 0.411050 0.322495
Si Si5 0.580366 0.967034 0.969153
Si Si6 0.121183 0.760126 0.272186
Si Si7 0.981058 0.663912 0.831862
Si Si8 0.860728 0.460072 0.860970
O O1 0.555471 0.248631 0.505700
O O2 0.776676 0.189967 0.685030
O O3 0.614811 0.122635 0.673121
O O4 0.777679 0.221803 0.970754
O O5 0.634901 0.744719 0.453795
O O6 0.685988 0.815131 0.274298
O O7 0.489105 0.858918 0.205457
O O8 0.567903 0.612183 0.421581
O O9 0.822705 0.651607 0.684218
O O10 0.451290 0.513496 0.719692
O O11 0.767608 0.419005 0.609832
O O12 0.745016 0.982798 0.244481
O O13 0.500000 0.000000 0.000000
O O14 0.995208 0.796283 0.195055
O O15 0.055320 0.709568 0.061067
O O16 0.078048 0.596764 0.945288
O O17 0.000000 0.500000 0.000000
#
# Coordination Sequence:
#
# PCOD9241303 Si02
#       8
#     4   4   4   4   4   4   4   4
#     4  11  18  36  56  88 116 154 200 254 301 354
#     4  12  22  35  61  88 120 160 196 253 305 357
#     4  12  23  38  58  87 126 155 200 251 305 363
#     4  10  19  35  59  87 115 152 206 248 296 354
#     4  10  21  36  60  88 116 158 209 248 294 366
#     4  10  20  31  59  86 117 148 202 254 301 362
#     4  11  20  37  54  90 116 159 199 248 314 355
#     4  10  19  36  62  83 115 158 202 251 293 360
#
# _framework density 19.612345000000001
#
# number of rings (size 3 to 8) (size 9 to 14) (size 15 to 20)
#    0.750    0.500    6.250    1.500    0.000    1.000 
#    0.000    0.625    0.000    3.000    0.000    0.000 
#    0.000    0.000    0.000    0.000    0.000    0.000 
#
# Total GULP energy -178141.533952 kJ/mol
# GULP energy per Si atom -5566.922936 kJ/mol
# Density = 1.956771 g / cm^3
# Si number density = 19.612345 Si / 1000 Ang^3
#
#
#
# Elastic Constant Matrix: (Units=GPa)
#
#
# Indices 1 2 3 4 5 6 
#
# 1 120.5740 8.7704 5.0818 0.0000 -1.2578 0.0000
# 2 8.7704 64.6744 -10.1810 0.0000 -10.2053 0.0000
# 3 5.0818 -10.1810 14.4804 0.0000 -0.9941 0.0000
# 4 0.0000 0.0000 0.0000 23.6995 0.0000 6.3254
# 5 -1.2578 -10.2053 -0.9941 0.0000 22.9901 0.0000
# 6 0.0000 0.0000 0.0000 6.3254 0.0000 28.4521
#
#
#
# Elastic Compliance Matrix: (Units=1/GPa)
#
#
# Indices 1 2 3 4 5 6 
#
# 1 0.008617 -0.001961 -0.004444 0.000000 -0.000591 0.000000
# 2 -0.001961 0.019556 0.015071 0.000000 0.009225 0.000000
# 3 -0.004444 0.015071 0.081901 0.000000 0.009988 0.000000
# 4 0.000000 0.000000 0.000000 0.044857 0.000000 -0.009972
# 5 -0.000591 0.009225 0.009988 0.000000 0.047992 0.000000
# 6 0.000000 0.000000 0.000000 -0.009972 0.000000 0.037364
#
#
# Mechanical properties :
#
#
# Convention : Reuss Voigt Hill
#
# Bulk Modulus (GPa) = 7.84888 23.00792 15.42840
# Shear Modulus (GPa) = 18.83781 28.09883 23.46832
#
# Velocity S-wave (km/s) = 3.10257 3.78922 3.46296
# Velocity P-wave (km/s) = 4.10430 5.55888 4.88602
#
# Compressibility (1/GPa) = 0.12740670
#
# Stress axis : x y z
#
# Youngs Moduli (GPa) = 116.04335 51.13434 12.20989
#
# Poissons Ratio (x) = 0.10030 0.05426
# Poissons Ratio (y) = 0.22762 -0.18402
# Poissons Ratio (z) = 0.51569 -0.77067
#
# Static dielectric constant tensor:
#      x y z
#    x 1.699210 0.000000 0.008360 
#    y 0.000000 1.852300 0.000000 
#    z 0.008360 0.000000 1.696910 
# 
# From -- ./inp_files/16804.got.cif
#   From: 2010.05.17/outbox.cif.g08.bks.cpg/sg14_9_cif.got.tgz:16804.got - 2010.06.03 17:49:19.
