data_PCOD9241402
_publ_section_title
;
Structure prediction by ZEFSAII (Michael W. Deem and Ramdas Pophale) SiO2 
 PCOD9241402
Probable space group: P 21/C
;
_chemical_formula_sum "Si O2"
_cell_formula_units_Z 32
_cell_length_a 11.258579
_cell_length_b 7.952797
_cell_length_c 18.552385
_cell_angle_alpha 90.000000
_cell_angle_beta 131.188079
_cell_angle_gamma 90.000000
_cell_volume 1250.085462
_symmetry_space_group_name_H-M "P 21/C"
_symmetry_group_IT_number 14
_symmetry_cell_setting 'monoclinic'
loop_
_space_group_symop_operation_xyz
x,y,z
-x,1/2+y,1/2-z
-x,-y,-z
x,1/2-y,1/2+z
loop_
_atom_site_type_symbol
_atom_site_label
_atom_site_fract_x
_atom_site_fract_y
_atom_site_fract_z
Si Si1 0.566931 0.481729 0.336304
Si Si2 0.433191 0.350141 0.424905
Si Si3 0.784385 0.418995 0.245203
Si Si4 0.118173 0.018692 0.819421
Si Si5 0.708452 0.165396 0.325910
Si Si6 0.269701 0.654006 0.930371
Si Si7 0.141252 0.119271 0.087980
Si Si8 0.015684 0.042022 0.609589
O O1 0.450966 0.426272 0.353105
O O2 0.672323 0.316647 0.364721
O O3 0.436670 0.537591 0.225732
O O4 0.705748 0.620061 0.404121
O O5 0.500000 0.500000 0.500000
O O6 0.253814 0.341457 0.376465
O O7 0.554313 0.199809 0.478727
O O8 0.700165 0.254745 0.243504
O O9 0.725628 0.448957 0.141871
O O10 0.771277 0.548353 0.304935
O O11 0.973238 0.415933 0.308871
O O12 0.069047 0.017814 0.715171
O O13 0.178070 0.833976 0.872171
O O14 0.885909 0.096554 0.395260
O O15 0.171326 0.560937 0.953277
O O16 0.072760 0.289316 0.092848
O O17 0.000000 0.000000 0.000000
#
# Coordination Sequence:
#
# PCOD9241402 Si02
#       8
#     4   4   4   4   4   4   4   4
#     4  11  23  39  65  96 132 169 226 267 338 396
#     4  10  20  37  63  98 129 164 224 278 322 384
#     4  10  21  39  61  96 126 168 226 267 333 395
#     4  10  19  35  66  94 129 170 224 271 321 386
#     4  11  22  41  64  96 128 174 217 275 324 402
#     4  10  19  35  64  95 128 170 217 278 328 388
#     4  11  24  40  64  95 128 175 229 269 328 407
#     4  11  20  38  64  93 131 172 224 267 336 386
#
# _framework density 25.598251999999999
#
# number of rings (size 3 to 8) (size 9 to 14) (size 15 to 20)
#    0.000    1.500    3.750    2.250    1.750    0.000 
#    0.000    5.625    0.000    3.000    0.000    0.000 
#    0.000    0.000    0.000    0.000    0.000    0.000 
#
# Total GULP energy -178602.943054 kJ/mol
# GULP energy per Si atom -5581.341970 kJ/mol
# Density = 2.553999 g / cm^3
# Si number density = 25.598252 Si / 1000 Ang^3
#
#
#
# Elastic Constant Matrix: (Units=GPa)
#
#
# Indices 1 2 3 4 5 6 
#
# 1 111.9157 17.2093 14.8363 0.0000 21.1643 0.0000
# 2 17.2093 73.2317 16.4426 0.0000 -3.2031 0.0000
# 3 14.8363 16.4426 38.4471 0.0000 15.6656 0.0000
# 4 0.0000 0.0000 0.0000 34.8026 0.0000 8.4771
# 5 21.1643 -3.2031 15.6656 0.0000 38.0601 0.0000
# 6 0.0000 0.0000 0.0000 8.4771 0.0000 44.7473
#
#
#
# Elastic Compliance Matrix: (Units=1/GPa)
#
#
# Indices 1 2 3 4 5 6 
#
# 1 0.010513 -0.002597 -0.000571 0.000000 -0.005830 0.000000
# 2 -0.002597 0.016489 -0.008655 0.000000 0.006394 0.000000
# 3 -0.000571 -0.008655 0.036164 0.000000 -0.015296 0.000000
# 4 0.000000 0.000000 0.000000 0.030123 0.000000 -0.005707
# 5 -0.005830 0.006394 -0.015296 0.000000 0.036350 0.000000
# 6 0.000000 0.000000 0.000000 -0.005707 0.000000 0.023429
#
#
# Mechanical properties :
#
#
# Convention : Reuss Voigt Hill
#
# Bulk Modulus (GPa) = 25.30382 35.61898 30.46140
# Shear Modulus (GPa) = 26.33158 35.19576 30.76367
#
# Velocity S-wave (km/s) = 3.21073 3.71203 3.47044
# Velocity P-wave (km/s) = 4.86328 5.68480 5.29001
#
# Compressibility (1/GPa) = 0.03951972
#
# Stress axis : x y z
#
# Youngs Moduli (GPa) = 95.12244 60.64806 27.65193
#
# Poissons Ratio (x) = 0.15752 0.01578
# Poissons Ratio (y) = 0.24706 0.23932
# Poissons Ratio (z) = 0.05428 0.52489
#
# Static dielectric constant tensor:
#      x y z
#    x 2.033630 0.000000 -0.016230 
#    y 0.000000 2.096740 0.000000 
#    z -0.016230 0.000000 2.040290 
# 
# From -- ./inp_files/67052.got.cif
#   From: 2010.05.17/outbox.cif.g08.bks.cpg/sg14_34_cif.got.tgz:67052.got - 2010.06.03 17:49:19.
