data_PCOD9241346
_publ_section_title
;
Structure prediction by ZEFSAII (Michael W. Deem and Ramdas Pophale) SiO2 
 PCOD9241346
Probable space group: P 21/C
;
_chemical_formula_sum "Si O2"
_cell_formula_units_Z 32
_cell_length_a 11.793019
_cell_length_b 8.024566
_cell_length_c 19.430878
_cell_angle_alpha 90.000000
_cell_angle_beta 122.097531
_cell_angle_gamma 90.000000
_cell_volume 1557.745969
_symmetry_space_group_name_H-M "P 21/C"
_symmetry_group_IT_number 14
_symmetry_cell_setting 'monoclinic'
loop_
_space_group_symop_operation_xyz
x,y,z
-x,1/2+y,1/2-z
-x,-y,-z
x,1/2-y,1/2+z
loop_
_atom_site_type_symbol
_atom_site_label
_atom_site_fract_x
_atom_site_fract_y
_atom_site_fract_z
Si Si1 0.785450 0.120446 0.170978
Si Si2 0.021401 0.159028 0.792504
Si Si3 0.221737 0.517604 0.082677
Si Si4 0.328683 0.482522 0.648005
Si Si5 0.387163 0.670049 0.247838
Si Si6 0.949788 0.560825 0.389394
Si Si7 0.236108 0.813829 0.989676
Si Si8 0.961821 0.798164 0.559025
O O1 0.907785 0.252274 0.212901
O O2 0.691174 0.155843 0.205298
O O3 0.722189 0.144917 0.074812
O O4 0.851928 0.935616 0.198596
O O5 0.062210 0.288898 0.866570
O O6 0.949109 0.009949 0.811528
O O7 0.332149 0.528296 0.177392
O O8 0.090372 0.592885 0.079668
O O9 0.270915 0.641138 0.037553
O O10 0.165166 0.359516 0.024026
O O11 0.457629 0.367009 0.690764
O O12 0.355078 0.652432 0.701126
O O13 0.198595 0.394908 0.638133
O O14 0.290543 0.546065 0.559343
O O15 0.004793 0.609215 0.557113
O O16 0.073023 0.684886 0.436044
#
# Coordination Sequence:
#
# PCOD9241346 Si02
#       8
#     4   4   4   4   4   4   4   4
#     4  11  21  38  59  90 126 156 188 252 310 356
#     4   9  19  35  57  86 128 146 190 243 315 345
#     4  10  19  35  61  87 119 151 197 246 301 348
#     4  11  22  42  59  83 120 163 206 243 287 355
#     4  11  23  43  59  84 121 165 204 244 288 367
#     4   9  17  38  58  87 117 143 201 254 282 352
#     4  10  21  34  64  92 116 152 196 253 309 347
#     4   9  17  33  57  85 123 138 192 251 291 343
#
# _framework density 20.542501999999999
#
# number of rings (size 3 to 8) (size 9 to 14) (size 15 to 20)
#    0.750    1.250    5.000    0.375    1.750    1.500 
#    6.750    0.000    0.000    1.500    0.000    0.000 
#    0.000    0.000    0.000    0.000    0.000    0.000 
#
# Total GULP energy -178378.352877 kJ/mol
# GULP energy per Si atom -5574.323527 kJ/mol
# Density = 2.049575 g / cm^3
# Si number density = 20.542502 Si / 1000 Ang^3
#
#
#
# Elastic Constant Matrix: (Units=GPa)
#
#
# Indices 1 2 3 4 5 6 
#
# 1 71.3563 20.1552 52.6846 0.0000 -4.7455 0.0000
# 2 20.1552 17.8441 10.9020 0.0000 -1.6143 0.0000
# 3 52.6846 10.9020 115.8409 0.0000 -10.0705 0.0000
# 4 0.0000 0.0000 0.0000 25.4170 0.0000 3.0613
# 5 -4.7455 -1.6143 -10.0705 0.0000 32.3331 0.0000
# 6 0.0000 0.0000 0.0000 3.0613 0.0000 14.1407
#
#
#
# Elastic Compliance Matrix: (Units=1/GPa)
#
#
# Indices 1 2 3 4 5 6 
#
# 1 0.029712 -0.026864 -0.011021 0.000000 -0.000413 0.000000
# 2 -0.026864 0.083799 0.004473 0.000000 0.001634 0.000000
# 3 -0.011021 0.004473 0.013467 0.000000 0.002800 0.000000
# 4 0.000000 0.000000 0.000000 0.040397 0.000000 -0.008746
# 5 -0.000413 0.001634 0.002800 0.000000 0.031821 0.000000
# 6 0.000000 0.000000 0.000000 -0.008746 0.000000 0.072611
#
#
# Mechanical properties :
#
#
# Convention : Reuss Voigt Hill
#
# Bulk Modulus (GPa) = 16.62354 41.39165 29.00759
# Shear Modulus (GPa) = 13.93993 22.46478 18.20235
#
# Velocity S-wave (km/s) = 2.60780 3.31051 2.97994
# Velocity P-wave (km/s) = 4.14455 5.89963 5.09819
#
# Compressibility (1/GPa) = 0.06015568
#
# Stress axis : x y z
#
# Youngs Moduli (GPa) = 33.65697 11.93326 74.25485
#
# Poissons Ratio (x) = 0.32058 0.81833
# Poissons Ratio (y) = 0.90416 -0.33217
# Poissons Ratio (z) = 0.37092 -0.05338
#
# Static dielectric constant tensor:
#      x y z
#    x 1.728710 0.000000 -0.033310 
#    y 0.000000 1.795340 0.000000 
#    z -0.033310 0.000000 1.784700 
# 
# From -- ./inp_files/57290.got.cif
#   From: 2010.05.17/outbox.cif.g08.bks.cpg/sg14_29_cif.got.tgz:57290.got - 2010.06.03 17:49:19.
