data_PCOD9241482
_publ_section_title
;
Structure prediction by ZEFSAII (Michael W. Deem and Ramdas Pophale) SiO2 
 PCOD9241482
Probable space group: P 21/C
;
_chemical_formula_sum "Si O2"
_cell_formula_units_Z 28
_cell_length_a 11.274887
_cell_length_b 7.563338
_cell_length_c 24.918699
_cell_angle_alpha 90.000000
_cell_angle_beta 31.788690
_cell_angle_gamma 90.000000
_cell_volume 1119.404273
_symmetry_space_group_name_H-M "P 21/C"
_symmetry_group_IT_number 14
_symmetry_cell_setting 'monoclinic'
loop_
_space_group_symop_operation_xyz
x,y,z
-x,1/2+y,1/2-z
-x,-y,-z
x,1/2-y,1/2+z
loop_
_atom_site_type_symbol
_atom_site_label
_atom_site_fract_x
_atom_site_fract_y
_atom_site_fract_z
Si Si1 0.720227 0.431642 0.068515
Si Si2 0.829652 0.386604 0.261630
Si Si3 0.070795 0.952568 0.032343
Si Si4 0.176640 0.828733 0.633189
Si Si5 0.543592 0.089796 0.040063
Si Si6 0.230009 0.159723 0.768807
Si Si7 0.834073 0.034452 0.647375
O O1 0.843563 0.247734 0.008639
O O2 0.460211 0.405153 0.154746
O O3 0.723745 0.454364 0.131591
O O4 0.898403 0.559554 0.970292
O O5 0.784975 0.229772 0.320397
O O6 0.683228 0.553684 0.340055
O O7 0.773184 0.344438 0.221741
O O8 0.079169 0.474110 0.165693
O O9 0.276289 0.014129 0.991454
O O10 0.852544 0.970539 0.152804
O O11 0.000000 0.000000 0.000000
O O12 0.368464 0.780164 0.515743
O O13 0.983262 0.688956 0.687839
O O14 0.500000 0.000000 0.000000
O O15 0.239577 0.345621 0.798342
#
# Coordination Sequence:
#
# PCOD9241482 Si02
#       7
#     4   4   4   4   4   4   4
#     4  10  20  36  54  77 113 145 181 227 284 331
#     4  10  19  36  59  78 111 150 187 224 289 329
#     4  10  20  33  56  86 108 137 193 232 264 332
#     4   9  19  36  55  83 107 144 189 230 275 343
#     4   9  19  37  58  78 112 154 181 225 285 344
#     4   9  19  34  56  75 107 148 178 223 286 326
#     4   9  20  36  53  77 108 149 181 223 283 341
#
# _framework density 25.013304999999999
#
# number of rings (size 3 to 8) (size 9 to 14) (size 15 to 20)
#    0.000    2.571    0.000    2.571    4.000    0.000 
#    7.714    2.857    6.286    0.000    0.000    0.000 
#    0.000    0.000    0.000    0.000    0.000    0.000 
#
# Total GULP energy -155969.558267 kJ/mol
# GULP energy per Si atom -5570.341367 kJ/mol
# Density = 2.495637 g / cm^3
# Si number density = 25.013305 Si / 1000 Ang^3
#
#
#
# Elastic Constant Matrix: (Units=GPa)
#
#
# Indices 1 2 3 4 5 6 
#
# 1 117.5422 6.6875 33.2833 0.0000 45.2784 0.0000
# 2 6.6875 31.0544 1.2582 0.0000 8.5747 0.0000
# 3 33.2833 1.2582 137.2096 0.0000 25.7445 0.0000
# 4 0.0000 0.0000 0.0000 12.6670 0.0000 8.0650
# 5 45.2784 8.5747 25.7445 0.0000 49.1007 0.0000
# 6 0.0000 0.0000 0.0000 8.0650 0.0000 27.9040
#
#
#
# Elastic Compliance Matrix: (Units=1/GPa)
#
#
# Indices 1 2 3 4 5 6 
#
# 1 0.013330 0.000439 -0.001017 0.000000 -0.011836 0.000000
# 2 0.000439 0.033945 0.000855 0.000000 -0.006781 0.000000
# 3 -0.001017 0.000855 0.008184 0.000000 -0.003503 0.000000
# 4 0.000000 0.000000 0.000000 0.096749 0.000000 -0.027963
# 5 -0.011836 -0.006781 -0.003503 0.000000 0.034301 0.000000
# 6 0.000000 0.000000 0.000000 -0.027963 0.000000 0.043919
#
#
# Mechanical properties :
#
#
# Convention : Reuss Voigt Hill
#
# Bulk Modulus (GPa) = 17.85344 40.91822 29.38583
# Shear Modulus (GPa) = 20.11702 34.23949 27.17826
#
# Velocity S-wave (km/s) = 2.83901 3.70381 3.29986
# Velocity P-wave (km/s) = 4.23081 5.88940 5.12761
#
# Compressibility (1/GPa) = 0.05601161
#
# Stress axis : x y z
#
# Youngs Moduli (GPa) = 75.02046 29.45965 122.18757
#
# Poissons Ratio (x) = -0.01292 0.12423
# Poissons Ratio (y) = -0.03291 -0.10442
# Poissons Ratio (z) = 0.07628 -0.02517
#
# Static dielectric constant tensor:
#      x y z
#    x 2.114150 0.000000 -0.020070 
#    y 0.000000 2.095740 0.000000 
#    z -0.020070 0.000000 1.768890 
# 
# From -- ./inp_files/46907.got.cif
#   From: 2010.05.17/outbox.cif.g08.bks.cpg/sg14_24_cif.got.tgz:46907.got - 2010.06.03 17:49:19.
