data_PCOD9241741
_publ_section_title
;
Structure prediction by ZEFSAII (Michael W. Deem and Ramdas Pophale) SiO2 
 PCOD9241741
Probable space group: P 21/C
;
_chemical_formula_sum "Si O2"
_cell_formula_units_Z 32
_cell_length_a 15.456455
_cell_length_b 8.817905
_cell_length_c 22.808804
_cell_angle_alpha 90.000000
_cell_angle_beta 23.757451
_cell_angle_gamma 90.000000
_cell_volume 1252.385800
_symmetry_space_group_name_H-M "P 21/C"
_symmetry_group_IT_number 14
_symmetry_cell_setting 'monoclinic'
loop_
_space_group_symop_operation_xyz
x,y,z
-x,1/2+y,1/2-z
-x,-y,-z
x,1/2-y,1/2+z
loop_
_atom_site_type_symbol
_atom_site_label
_atom_site_fract_x
_atom_site_fract_y
_atom_site_fract_z
Si Si1 0.575263 0.028900 0.784940
Si Si2 0.204148 0.434218 0.741318
Si Si3 0.560292 0.251192 0.196638
Si Si4 0.874149 0.085321 0.210045
Si Si5 0.239636 0.240043 0.540852
Si Si6 0.624477 0.288841 0.444679
Si Si7 0.550683 0.026868 0.309754
Si Si8 0.034772 0.718627 0.672034
O O1 0.758515 0.970028 0.714402
O O2 0.417356 0.896708 0.858910
O O3 0.671812 0.120284 0.669342
O O4 0.430933 0.137874 0.915975
O O5 0.378637 0.308920 0.613167
O O6 0.272805 0.573862 0.657356
O O7 0.980604 0.355975 0.864520
O O8 0.494858 0.149239 0.293654
O O9 0.433710 0.365170 0.231543
O O10 0.684394 0.143989 0.369741
O O11 0.766564 0.061233 0.213142
O O12 0.066338 0.210261 0.097991
O O13 0.965808 0.932973 0.181699
O O14 0.346642 0.073079 0.476278
O O15 0.114841 0.258872 0.679095
O O16 0.741857 0.292140 0.433665
#
# Coordination Sequence:
#
# PCOD9241741 Si02
#       8
#     4   4   4   4   4   4   4   4
#     4  10  19  37  61  84 112 148 193 240 291 339
#     4  11  20  35  60  83 111 157 190 222 286 347
#     4   9  20  37  61  87 111 145 194 252 290 327
#     4  11  22  37  58  85 118 155 190 231 284 342
#     4  10  22  39  58  85 120 154 189 234 285 343
#     4  10  21  37  56  85 121 150 186 229 276 342
#     4  10  20  40  63  85 115 152 195 241 292 339
#     4  11  22  35  55  89 122 150 188 230 274 342
#
# _framework density 25.551233
#
# number of rings (size 3 to 8) (size 9 to 14) (size 15 to 20)
#    0.000    1.750    0.000    6.750    0.000    3.000 
#    0.000    8.750    0.000    4.500    0.000    0.000 
#    0.000    0.000    0.000    0.000    0.000    0.000 
#
# Total GULP energy -178403.289442 kJ/mol
# GULP energy per Si atom -5575.102795 kJ/mol
# Density = 2.549308 g / cm^3
# Si number density = 25.551233 Si / 1000 Ang^3
#
#
#
# Elastic Constant Matrix: (Units=GPa)
#
#
# Indices 1 2 3 4 5 6 
#
# 1 -21.9228 -5.4336 89.7873 0.0000 25.6233 0.0000
# 2 -5.4336 72.6234 35.4208 0.0000 -4.7951 0.0000
# 3 89.7873 35.4208 13.6547 0.0000 -19.2095 0.0000
# 4 0.0000 0.0000 0.0000 -86.1549 0.0000 -45.6821
# 5 25.6233 -4.7951 -19.2095 0.0000 28.2430 0.0000
# 6 0.0000 0.0000 0.0000 -45.6821 0.0000 22.9964
#
#
#
# Elastic Compliance Matrix: (Units=1/GPa)
#
#
# Indices 1 2 3 4 5 6 
#
# 1 0.001259 -0.004376 0.009813 0.000000 0.004790 0.000000
# 2 -0.004376 0.014619 -0.001696 0.000000 0.005299 0.000000
# 3 0.009813 -0.001696 0.004117 0.000000 -0.006391 0.000000
# 4 0.000000 0.000000 0.000000 -0.005653 0.000000 -0.011229
# 5 0.004790 0.005299 -0.006391 0.000000 0.027615 0.000000
# 6 0.000000 0.000000 0.000000 -0.011229 0.000000 0.021178
#
#
# Mechanical properties :
#
#
# Convention : Reuss Voigt Hill
#
# Bulk Modulus (GPa) = 36.39281 33.76716 35.07998
# Shear Modulus (GPa) = 77.14731 -10.67769 33.23481
#
# Velocity S-wave (km/s) = 5.50079 -2.04646 3.61045
# Velocity P-wave (km/s) = 7.39046 2.76770 5.58028
#
# Compressibility (1/GPa) = 0.02747796
#
# Stress axis : x y z
#
# Youngs Moduli (GPa) = 794.55179 68.40315 242.89014
#
# Poissons Ratio (x) = 0.29932 -2.38350
# Poissons Ratio (y) = 3.47676 0.41189
# Poissons Ratio (z) = -7.79700 0.11600
#
# Static dielectric constant tensor:
#      x y z
#    x 2.056090 0.000000 0.022310 
#    y 0.000000 2.081940 0.000000 
#    z 0.022310 0.000000 2.090290 
# 
# From -- ./inp_files/73837.got.cif
#   From: 2010.05.17/outbox.cif.g08.bks.cpg/sg14_37_cif.got.tgz:73837.got - 2010.06.03 17:49:19.
