data_PCOD9241156
_publ_section_title
;
Structure prediction by ZEFSAII (Michael W. Deem and Ramdas Pophale) SiO2 
 PCOD9241156
Probable space group: P 21/C
;
_chemical_formula_sum "Si O2"
_cell_formula_units_Z 32
_cell_length_a 11.881242
_cell_length_b 8.646996
_cell_length_c 26.964239
_cell_angle_alpha 90.000000
_cell_angle_beta 34.525885
_cell_angle_gamma 90.000000
_cell_volume 1570.104783
_symmetry_space_group_name_H-M "P 21/C"
_symmetry_group_IT_number 14
_symmetry_cell_setting 'monoclinic'
loop_
_space_group_symop_operation_xyz
x,y,z
-x,1/2+y,1/2-z
-x,-y,-z
x,1/2-y,1/2+z
loop_
_atom_site_type_symbol
_atom_site_label
_atom_site_fract_x
_atom_site_fract_y
_atom_site_fract_z
Si Si1 0.288083 0.931152 0.096492
Si Si2 0.282923 0.938374 0.368601
Si Si3 0.988508 0.583669 0.106280
Si Si4 0.377765 0.811970 0.751189
Si Si5 0.510255 0.729180 0.865266
Si Si6 0.901867 0.919884 0.172554
Si Si7 0.620405 0.122507 0.485961
Si Si8 0.323664 0.956149 0.199966
O O1 0.298068 0.748678 0.081606
O O2 0.090575 0.975735 0.136798
O O3 0.265796 0.957863 0.163229
O O4 0.500000 0.000000 0.000000
O O5 0.363112 0.811596 0.300323
O O6 0.326742 0.855036 0.404721
O O7 0.078383 0.000135 0.419732
O O8 0.425529 0.087046 0.315250
O O9 0.967681 0.771683 0.115271
O O10 0.845442 0.517331 0.201478
O O11 0.203637 0.542711 0.047919
O O12 0.378830 0.713024 0.699973
O O13 0.194009 0.931875 0.819342
O O14 0.714243 0.649785 0.771842
O O15 0.509062 0.911572 0.854420
O O16 0.503284 0.707673 0.926480
O O17 0.500000 0.000000 0.500000
#
# Coordination Sequence:
#
# PCOD9241156 Si02
#       8
#     4   4   4   4   4   4   4   4
#     4  11  23  40  60  85 126 159 198 252 301 362
#     4  10  19  35  61  89 120 155 198 254 296 359
#     4   9  21  40  59  90 120 156 199 255 296 361
#     4  10  19  34  63  91 116 155 205 249 302 358
#     4  10  21  39  59  88 123 159 196 250 297 363
#     4   9  21  36  61  90 119 155 204 246 304 356
#     4  11  25  40  61  88 126 158 204 247 304 354
#     4  10  21  37  60  89 120 158 203 243 307 360
#
# _framework density 20.380804999999999
#
# number of rings (size 3 to 8) (size 9 to 14) (size 15 to 20)
#    0.000    2.000    1.250    3.000    5.250    4.500 
#    0.000    0.000    2.750    2.250    0.000    0.000 
#    0.000    0.000    0.000    0.000    0.000    0.000 
#
# Total GULP energy -178444.968951 kJ/mol
# GULP energy per Si atom -5576.405280 kJ/mol
# Density = 2.033442 g / cm^3
# Si number density = 20.380805 Si / 1000 Ang^3
#
#
#
# Elastic Constant Matrix: (Units=GPa)
#
#
# Indices 1 2 3 4 5 6 
#
# 1 120.1019 37.6710 22.5527 0.0000 -7.7058 0.0000
# 2 37.6710 67.9397 -0.6938 0.0000 -2.3699 0.0000
# 3 22.5527 -0.6938 30.5179 0.0000 8.4091 0.0000
# 4 0.0000 0.0000 0.0000 15.3067 0.0000 -2.6100
# 5 -7.7058 -2.3699 8.4091 0.0000 41.8470 0.0000
# 6 0.0000 0.0000 0.0000 -2.6100 0.0000 41.5332
#
#
#
# Elastic Compliance Matrix: (Units=1/GPa)
#
#
# Indices 1 2 3 4 5 6 
#
# 1 0.012839 -0.007085 -0.010787 0.000000 0.004131 0.000000
# 2 -0.007085 0.018658 0.006064 0.000000 -0.001467 0.000000
# 3 -0.010787 0.006064 0.043753 0.000000 -0.010435 0.000000
# 4 0.000000 0.000000 0.000000 0.066038 0.000000 0.004150
# 5 0.004131 -0.001467 -0.010435 0.000000 0.026671 0.000000
# 6 0.000000 0.000000 0.000000 0.004150 0.000000 0.024338
#
#
# Mechanical properties :
#
#
# Convention : Reuss Voigt Hill
#
# Bulk Modulus (GPa) = 19.36730 37.51325 28.44027
# Shear Modulus (GPa) = 21.44766 30.33935 25.89350
#
# Velocity S-wave (km/s) = 3.24751 3.86245 3.56825
# Velocity P-wave (km/s) = 4.85645 6.19173 5.56429
#
# Compressibility (1/GPa) = 0.05163343
#
# Stress axis : x y z
#
# Youngs Moduli (GPa) = 77.88608 53.59560 22.85570
#
# Poissons Ratio (x) = 0.37973 0.24655
# Poissons Ratio (y) = 0.55183 -0.13860
# Poissons Ratio (z) = 0.84019 -0.32501
#
# Static dielectric constant tensor:
#      x y z
#    x 1.620970 0.000000 -0.037850 
#    y 0.000000 1.731040 0.000000 
#    z -0.037850 0.000000 1.756010 
# 
# From -- ./inp_files/77022.got.cif
#   From: 2010.05.17/outbox.cif.g08.bks.cpg/sg14_39_cif.got.tgz:77022.got - 2010.06.03 17:49:19.
