data_PCOD9241241
_publ_section_title
;
Structure prediction by ZEFSAII (Michael W. Deem and Ramdas Pophale) SiO2 
 PCOD9241241
Probable space group: P 21/C
;
_chemical_formula_sum "Si O2"
_cell_formula_units_Z 32
_cell_length_a 18.247466
_cell_length_b 9.547598
_cell_length_c 27.590076
_cell_angle_alpha 90.000000
_cell_angle_beta 161.702850
_cell_angle_gamma 90.000000
_cell_volume 1509.049455
_symmetry_space_group_name_H-M "P 21/C"
_symmetry_group_IT_number 14
_symmetry_cell_setting 'monoclinic'
loop_
_space_group_symop_operation_xyz
x,y,z
-x,1/2+y,1/2-z
-x,-y,-z
x,1/2-y,1/2+z
loop_
_atom_site_type_symbol
_atom_site_label
_atom_site_fract_x
_atom_site_fract_y
_atom_site_fract_z
Si Si1 0.263199 0.390963 0.488740
Si Si2 0.440470 0.019769 0.192957
Si Si3 0.973107 0.153579 0.942543
Si Si4 0.366331 0.125902 0.943272
Si Si5 0.021267 0.562539 0.865547
Si Si6 0.168544 0.745349 0.247512
Si Si7 0.473951 0.091276 0.655778
Si Si8 0.942225 0.125043 0.501033
O O1 0.370818 0.504786 0.593372
O O2 0.308780 0.420239 0.461723
O O3 0.381480 0.239857 0.577156
O O4 0.990484 0.364879 0.328627
O O5 0.662359 0.121506 0.329809
O O6 0.526453 0.905109 0.285513
O O7 0.204662 0.081743 0.067969
O O8 0.887391 0.253050 0.844884
O O9 0.737516 0.065254 0.803694
O O10 0.019033 0.237190 0.020730
O O11 0.129057 0.157449 0.765127
O O12 0.558458 0.248722 0.069122
O O13 0.500000 0.000000 0.000000
O O14 0.927314 0.405468 0.796754
O O15 0.297779 0.536089 0.032455
O O16 0.969868 0.604153 0.889072
O O17 0.000000 0.000000 0.500000
#
# Coordination Sequence:
#
# PCOD9241241 Si02
#       8
#     4   4   4   4   4   4   4   4
#     4  10  19  35  59  85 117 154 193 241 287 344
#     4  10  22  33  55  91 117 153 199 238 292 365
#     4  11  19  34  58  86 119 160 192 236 305 357
#     4  10  19  35  57  82 109 150 206 239 280 341
#     4   9  20  33  54  85 109 146 198 242 279 340
#     4   9  17  32  56  84 109 147 195 231 286 346
#     4  10  19  36  57  83 121 152 190 238 300 356
#     4  11  20  33  57  84 121 153 192 251 293 336
#
# _framework density 21.205401999999999
#
# number of rings (size 3 to 8) (size 9 to 14) (size 15 to 20)
#    0.000    2.000    3.750    0.375    3.500    0.000 
#    0.000    2.500    8.250    3.000    0.000    0.000 
#    0.000    0.000    0.000    0.000    0.000    0.000 
#
# Total GULP energy -178277.798127 kJ/mol
# GULP energy per Si atom -5571.181191 kJ/mol
# Density = 2.115714 g / cm^3
# Si number density = 21.205402 Si / 1000 Ang^3
#
#
#
# Elastic Constant Matrix: (Units=GPa)
#
#
# Indices 1 2 3 4 5 6 
#
# 1 122.8211 10.4291 43.4303 0.0000 -12.3424 0.0000
# 2 10.4291 19.9606 16.6652 0.0000 -3.6821 0.0000
# 3 43.4303 16.6652 107.5284 0.0000 -11.5114 0.0000
# 4 0.0000 0.0000 0.0000 17.9242 0.0000 -3.1246
# 5 -12.3424 -3.6821 -11.5114 0.0000 33.3237 0.0000
# 6 0.0000 0.0000 0.0000 -3.1246 0.0000 21.6980
#
#
#
# Elastic Compliance Matrix: (Units=1/GPa)
#
#
# Indices 1 2 3 4 5 6 
#
# 1 0.009725 -0.001827 -0.003407 0.000000 0.002223 0.000000
# 2 -0.001827 0.058262 -0.007970 0.000000 0.003008 0.000000
# 3 -0.003407 -0.007970 0.012130 0.000000 0.002048 0.000000
# 4 0.000000 0.000000 0.000000 0.057227 0.000000 0.008241
# 5 0.002223 0.003008 0.002048 0.000000 0.031872 0.000000
# 6 0.000000 0.000000 0.000000 0.008241 0.000000 0.047274
#
#
# Mechanical properties :
#
#
# Convention : Reuss Voigt Hill
#
# Bulk Modulus (GPa) = 18.61825 43.48438 31.05131
# Shear Modulus (GPa) = 19.17170 26.57487 22.87329
#
# Velocity S-wave (km/s) = 3.01008 3.54391 3.28785
# Velocity P-wave (km/s) = 4.56944 6.10709 5.39335
#
# Compressibility (1/GPa) = 0.05371075
#
# Stress axis : x y z
#
# Youngs Moduli (GPa) = 102.82647 17.16377 82.43808
#
# Poissons Ratio (x) = 0.03135 0.28085
# Poissons Ratio (y) = 0.18784 0.65702
# Poissons Ratio (z) = 0.35031 0.13679
#
# Static dielectric constant tensor:
#      x y z
#    x 1.785090 0.000000 -0.005670 
#    y 0.000000 1.835540 0.000000 
#    z -0.005670 0.000000 1.868090 
# 
# From -- ./inp_files/77831.got.cif
#   From: 2010.05.17/outbox.cif.g08.bks.cpg/sg14_39_cif.got.tgz:77831.got - 2010.06.03 17:49:19.
