data_PCOD9241815
_publ_section_title
;
Structure prediction by ZEFSAII (Michael W. Deem and Ramdas Pophale) SiO2 
 PCOD9241815
Probable space group: P 21/C
;
_chemical_formula_sum "Si O2"
_cell_formula_units_Z 26
_cell_length_a 4.979144
_cell_length_b 8.093905
_cell_length_c 24.878730
_cell_angle_alpha 90.000000
_cell_angle_beta 78.938785
_cell_angle_gamma 90.000000
_cell_volume 984.004586
_symmetry_space_group_name_H-M "P 21/C"
_symmetry_group_IT_number 14
_symmetry_cell_setting 'monoclinic'
loop_
_space_group_symop_operation_xyz
x,y,z
-x,1/2+y,1/2-z
-x,-y,-z
x,1/2-y,1/2+z
loop_
_atom_site_type_symbol
_atom_site_label
_atom_site_fract_x
_atom_site_fract_y
_atom_site_fract_z
Si Si1 0.134605 0.312194 0.731368
Si Si2 0.379610 0.972750 0.428183
Si Si3 0.500000 0.000000 0.000000
Si Si4 0.167112 0.307795 0.025005
Si Si5 0.824118 0.159171 0.832910
Si Si6 0.269348 0.446664 0.391727
Si Si7 0.686687 0.206317 0.673643
O O1 0.143611 0.493861 0.705101
O O2 0.435609 0.233928 0.724183
O O3 0.969196 0.204025 0.694094
O O4 0.966885 0.300539 0.792728
O O5 0.679463 0.932180 0.439492
O O6 0.362473 0.941970 0.365733
O O7 0.154474 0.841442 0.460730
O O8 0.278751 0.136980 0.462135
O O9 0.714166 0.867407 0.963019
O O10 0.322736 0.021477 0.951597
O O11 0.508887 0.170447 0.859319
O O12 0.985981 0.129573 0.882180
O O13 0.306231 0.623985 0.360974
#
# Coordination Sequence:
#
# PCOD9241815 Si02
#       7
#     4   4   2   4   4   4   4
#     4  10  21  38  65  85 117 154 201 251 315 366
#     4  10  20  41  57  89 121 164 209 255 299 380
#     4  12  24  42  62 100 124 176 204 268 322 392
#     4  10  23  36  62  83 128 163 206 258 309 366
#     4  10  22  43  58  91 115 161 198 262 303 376
#     4  10  23  37  63  86 128 155 205 244 322 371
#     4  10  19  37  64  87 113 167 200 242 309 385
#
# _framework density 26.422640999999999
#
# number of rings (size 3 to 8) (size 9 to 14) (size 15 to 20)
#    0.000    1.846    1.538    1.846    4.308    2.462 
#    5.538    0.000    0.000    0.000    0.000    0.000 
#    0.000    0.000    0.000    0.000    0.000    0.000 
#
# Total GULP energy -145160.560609 kJ/mol
# GULP energy per Si atom -5583.098485 kJ/mol
# Density = 2.636250 g / cm^3
# Si number density = 26.422641 Si / 1000 Ang^3
#
#
#
# Elastic Constant Matrix: (Units=GPa)
#
#
# Indices 1 2 3 4 5 6 
#
# 1 74.0362 18.7579 -8.1245 0.0000 -0.1511 0.0000
# 2 18.7579 64.7175 10.6838 0.0000 0.5768 0.0000
# 3 -8.1245 10.6838 63.3669 0.0000 11.1201 0.0000
# 4 0.0000 0.0000 0.0000 37.4196 0.0000 -5.6871
# 5 -0.1511 0.5768 11.1201 0.0000 27.0913 0.0000
# 6 0.0000 0.0000 0.0000 -5.6871 0.0000 16.5604
#
#
#
# Elastic Compliance Matrix: (Units=1/GPa)
#
#
# Indices 1 2 3 4 5 6 
#
# 1 0.015051 -0.004836 0.002923 0.000000 -0.001013 0.000000
# 2 -0.004836 0.017465 -0.003766 0.000000 0.001147 0.000000
# 3 0.002923 -0.003766 0.018076 0.000000 -0.007323 0.000000
# 4 0.000000 0.000000 0.000000 0.028196 0.000000 0.009683
# 5 -0.001013 0.001147 -0.007323 0.000000 0.039888 0.000000
# 6 0.000000 0.000000 0.000000 0.009683 0.000000 0.063710
#
#
# Mechanical properties :
#
#
# Convention : Reuss Voigt Hill
#
# Bulk Modulus (GPa) = 25.48832 27.19499 26.34165
# Shear Modulus (GPa) = 24.17547 28.26783 26.22165
#
# Velocity S-wave (km/s) = 3.02810 3.27438 3.15364
# Velocity P-wave (km/s) = 4.67902 4.96085 4.82199
#
# Compressibility (1/GPa) = 0.03923365
#
# Stress axis : x y z
#
# Youngs Moduli (GPa) = 66.44168 57.25779 55.32226
#
# Poissons Ratio (x) = 0.27689 -0.16170
# Poissons Ratio (y) = 0.32130 0.20834
# Poissons Ratio (z) = -0.19420 0.21563
#
# Static dielectric constant tensor:
#      x y z
#    x 1.979710 0.000000 -0.050070 
#    y 0.000000 2.181730 0.000000 
#    z -0.050070 0.000000 2.038850 
# 
# From -- ./inp_files/75595.got.cif
#   From: 2010.05.17/outbox.cif.g08.bks.cpg/sg14_38_cif.got.tgz:75595.got - 2010.06.03 17:49:19.
