data_PCOD9241980
_publ_section_title
;
Structure prediction by ZEFSAII (Michael W. Deem and Ramdas Pophale) SiO2 
 PCOD9241980
Probable space group: P 21/C
;
_chemical_formula_sum "Si O2"
_cell_formula_units_Z 28
_cell_length_a 7.510824
_cell_length_b 11.615520
_cell_length_c 20.632065
_cell_angle_alpha 90.000000
_cell_angle_beta 38.883298
_cell_angle_gamma 90.000000
_cell_volume 1129.915828
_symmetry_space_group_name_H-M "P 21/C"
_symmetry_group_IT_number 14
_symmetry_cell_setting 'monoclinic'
loop_
_space_group_symop_operation_xyz
x,y,z
-x,1/2+y,1/2-z
-x,-y,-z
x,1/2-y,1/2+z
loop_
_atom_site_type_symbol
_atom_site_label
_atom_site_fract_x
_atom_site_fract_y
_atom_site_fract_z
Si Si1 0.899632 0.690522 0.960089
Si Si2 0.956247 0.479535 0.351792
Si Si3 0.389893 0.774324 0.018659
Si Si4 0.449426 0.172689 0.705517
Si Si5 0.338763 0.550326 0.983088
Si Si6 0.252722 0.075658 0.955066
Si Si7 0.691415 0.900871 0.818431
O O1 0.805711 0.788915 0.037945
O O2 0.237925 0.696490 0.854363
O O3 0.682624 0.721941 0.963515
O O4 0.834018 0.558139 0.994409
O O5 0.769181 0.364418 0.390104
O O6 0.799667 0.551632 0.452333
O O7 0.959886 0.559675 0.286330
O O8 0.242406 0.420623 0.296944
O O9 0.199671 0.665522 0.051955
O O10 0.470125 0.847101 0.933083
O O11 0.489385 0.107220 0.624701
O O12 0.307547 0.297232 0.732433
O O13 0.500000 0.500000 0.000000
O O14 0.536655 0.020195 0.844682
O O15 0.000000 0.000000 0.000000
#
# Coordination Sequence:
#
# PCOD9241980 Si02
#       7
#     4   4   4   4   4   4   4
#     4  11  19  38  65  89 121 166 209 251 306 378
#     4  11  22  40  61  91 128 159 207 267 317 358
#     4   9  18  38  65  85 113 168 210 240 295 388
#     4  11  24  38  59  97 129 150 202 279 316 353
#     4   9  21  39  62  84 117 168 208 235 307 390
#     4  11  20  39  68  90 114 166 218 252 303 383
#     4  10  19  38  64  85 115 163 211 244 299 387
#
# _framework density 24.780605000000001
#
# number of rings (size 3 to 8) (size 9 to 14) (size 15 to 20)
#    0.000    1.714    4.286    1.286    0.000    2.286 
#    2.571    4.286    0.000    0.000    0.000    0.000 
#    0.000    0.000    0.000    0.000    0.000    0.000 
#
# Total GULP energy -155887.849552 kJ/mol
# GULP energy per Si atom -5567.423198 kJ/mol
# Density = 2.472420 g / cm^3
# Si number density = 24.780605 Si / 1000 Ang^3
#
#
#
# Elastic Constant Matrix: (Units=GPa)
#
#
# Indices 1 2 3 4 5 6 
#
# 1 76.7923 37.6421 12.3695 0.0000 -12.2514 0.0000
# 2 37.6421 192.4070 30.9127 0.0000 -15.8177 0.0000
# 3 12.3695 30.9127 58.8984 0.0000 -10.4813 0.0000
# 4 0.0000 0.0000 0.0000 30.3578 0.0000 -9.4674
# 5 -12.2514 -15.8177 -10.4813 0.0000 18.9638 0.0000
# 6 0.0000 0.0000 0.0000 -9.4674 0.0000 39.4908
#
#
#
# Elastic Compliance Matrix: (Units=1/GPa)
#
#
# Indices 1 2 3 4 5 6 
#
# 1 0.015484 -0.002285 -0.000678 0.000000 0.007722 0.000000
# 2 -0.002285 0.006221 -0.002356 0.000000 0.002410 0.000000
# 3 -0.000678 -0.002356 0.019886 0.000000 0.008587 0.000000
# 4 0.000000 0.000000 0.000000 0.035602 0.000000 0.008535
# 5 0.007722 0.002410 0.008587 0.000000 0.064477 0.000000
# 6 0.000000 0.000000 0.000000 0.008535 0.000000 0.027369
#
#
# Mechanical properties :
#
#
# Convention : Reuss Voigt Hill
#
# Bulk Modulus (GPa) = 32.30935 54.43849 43.37392
# Shear Modulus (GPa) = 26.31649 34.24071 30.27860
#
# Velocity S-wave (km/s) = 3.26234 3.72123 3.49931
# Velocity P-wave (km/s) = 5.22082 6.36233 5.81963
#
# Compressibility (1/GPa) = 0.03095079
#
# Stress axis : x y z
#
# Youngs Moduli (GPa) = 64.58448 160.74215 50.28754
#
# Poissons Ratio (x) = 0.36736 0.03410
# Poissons Ratio (y) = 0.14760 0.11849
# Poissons Ratio (z) = 0.04380 0.37875
#
# Static dielectric constant tensor:
#      x y z
#    x 2.082070 0.000000 -0.001380 
#    y 0.000000 2.086270 0.000000 
#    z -0.001380 0.000000 2.017630 
# 
# From -- ./inp_files/76640.got.cif
#   From: 2010.05.17/outbox.cif.g08.bks.cpg/sg14_39_cif.got.tgz:76640.got - 2010.06.03 17:49:19.
