data_PCOD9241067
_publ_section_title
;
Structure prediction by ZEFSAII (Michael W. Deem and Ramdas Pophale) SiO2 
 PCOD9241067
Probable space group: P 21/C
;
_chemical_formula_sum "Si O2"
_cell_formula_units_Z 32
_cell_length_a 17.866560
_cell_length_b 13.510792
_cell_length_c 14.089437
_cell_angle_alpha 90.000000
_cell_angle_beta 22.260814
_cell_angle_gamma 90.000000
_cell_volume 1288.404014
_symmetry_space_group_name_H-M "P 21/C"
_symmetry_group_IT_number 14
_symmetry_cell_setting 'monoclinic'
loop_
_space_group_symop_operation_xyz
x,y,z
-x,1/2+y,1/2-z
-x,-y,-z
x,1/2-y,1/2+z
loop_
_atom_site_type_symbol
_atom_site_label
_atom_site_fract_x
_atom_site_fract_y
_atom_site_fract_z
Si Si1 0.246458 0.904640 0.254850
Si Si2 0.693389 0.896090 0.693912
Si Si3 0.378296 0.365374 0.053845
Si Si4 0.855495 0.471221 0.854511
Si Si5 0.286775 0.718281 0.880499
Si Si6 0.923289 0.374096 0.578642
Si Si7 0.284580 0.501173 0.337430
Si Si8 0.928506 0.310712 0.199308
O O1 0.180659 0.823684 0.410794
O O2 0.124617 0.905935 0.300905
O O3 0.268924 0.008878 0.282088
O O4 0.465783 0.872942 0.965881
O O5 0.838576 0.810082 0.556684
O O6 0.761090 0.931776 0.510584
O O7 0.353368 0.410047 0.190046
O O8 0.152988 0.353980 0.285071
O O9 0.502722 0.265414 0.892305
O O10 0.523034 0.451320 0.839130
O O11 0.894932 0.454752 0.696802
O O12 0.083848 0.468216 0.625977
O O13 0.717001 0.381844 0.052427
O O14 0.172739 0.796290 0.080614
O O15 0.794045 0.411070 0.642019
O O16 0.859708 0.277139 0.711504
#
# Coordination Sequence:
#
# PCOD9241067 Si02
#       8
#     4   4   4   4   4   4   4   4
#     4  10  22  40  60  85 120 159 201 254 306 362
#     4  10  21  39  61  84 118 159 203 250 304 372
#     4  10  19  34  57  81 112 154 192 241 303 353
#     4   9  19  36  56  83 118 153 191 247 303 351
#     4  10  21  37  57  87 122 151 198 254 294 359
#     4  10  21  36  57  86 119 152 199 256 304 356
#     4  10  20  35  59  85 113 155 200 245 303 363
#     4  11  22  37  61  87 116 161 204 247 310 369
#
# _framework density 24.836929000000001
#
# number of rings (size 3 to 8) (size 9 to 14) (size 15 to 20)
#    0.000    2.000    0.000    4.125    0.000    2.000 
#    0.000    1.250    0.000   31.500    0.000    0.000 
#    0.000    0.000    0.000    0.000    0.000    0.000 
#
# Total GULP energy -178619.022201 kJ/mol
# GULP energy per Si atom -5581.844444 kJ/mol
# Density = 2.478040 g / cm^3
# Si number density = 24.836929 Si / 1000 Ang^3
#
#
#
# Elastic Constant Matrix: (Units=GPa)
#
#
# Indices 1 2 3 4 5 6 
#
# 1 84.8471 18.5601 46.4223 0.0000 -0.3010 0.0000
# 2 18.5601 66.4842 31.9338 0.0000 7.1473 0.0000
# 3 46.4223 31.9338 144.6424 0.0000 -3.5102 0.0000
# 4 0.0000 0.0000 0.0000 45.2848 0.0000 2.7062
# 5 -0.3010 7.1473 -3.5102 0.0000 39.1507 0.0000
# 6 0.0000 0.0000 0.0000 2.7062 0.0000 25.2009
#
#
#
# Elastic Compliance Matrix: (Units=1/GPa)
#
#
# Indices 1 2 3 4 5 6 
#
# 1 0.014538 -0.002047 -0.004211 0.000000 0.000108 0.000000
# 2 -0.002047 0.017581 -0.003310 0.000000 -0.003522 0.000000
# 3 -0.004211 -0.003310 0.009030 0.000000 0.001381 0.000000
# 4 0.000000 0.000000 0.000000 0.022225 0.000000 -0.002387
# 5 0.000108 -0.003522 0.001381 0.000000 0.026310 0.000000
# 6 0.000000 0.000000 0.000000 -0.002387 0.000000 0.039937
#
#
# Mechanical properties :
#
#
# Convention : Reuss Voigt Hill
#
# Bulk Modulus (GPa) = 45.43045 54.42290 49.92668
# Shear Modulus (GPa) = 32.03155 35.19777 33.61466
#
# Velocity S-wave (km/s) = 3.59510 3.76860 3.68287
# Velocity P-wave (km/s) = 5.96357 6.39500 6.18305
#
# Compressibility (1/GPa) = 0.02201167
#
# Stress axis : x y z
#
# Youngs Moduli (GPa) = 68.78371 56.87899 110.74810
#
# Poissons Ratio (x) = 0.11645 0.46640
# Poissons Ratio (y) = 0.14083 0.36657
# Poissons Ratio (z) = 0.28967 0.18826
#
# Static dielectric constant tensor:
#      x y z
#    x 2.030360 0.000000 0.019690 
#    y 0.000000 2.094370 0.000000 
#    z 0.019690 0.000000 1.952620 
# 
# From -- ./inp_files/50627.got.cif
#   From: 2010.05.17/outbox.cif.g08.bks.cpg/sg14_26_cif.got.tgz:50627.got - 2010.06.03 17:49:19.
