data_PCOD9241759
_publ_section_title
;
Structure prediction by ZEFSAII (Michael W. Deem and Ramdas Pophale) SiO2 
 PCOD9241759
Probable space group: P 21/C
;
_chemical_formula_sum "Si O2"
_cell_formula_units_Z 32
_cell_length_a 10.583834
_cell_length_b 16.924187
_cell_length_c 14.086226
_cell_angle_alpha 90.000000
_cell_angle_beta 147.762642
_cell_angle_gamma 90.000000
_cell_volume 1345.926091
_symmetry_space_group_name_H-M "P 21/C"
_symmetry_group_IT_number 14
_symmetry_cell_setting 'monoclinic'
loop_
_space_group_symop_operation_xyz
x,y,z
-x,1/2+y,1/2-z
-x,-y,-z
x,1/2-y,1/2+z
loop_
_atom_site_type_symbol
_atom_site_label
_atom_site_fract_x
_atom_site_fract_y
_atom_site_fract_z
Si Si1 0.659559 0.969505 0.514701
Si Si2 0.006989 0.347913 0.678397
Si Si3 0.239515 0.842591 0.794168
Si Si4 0.542410 0.292072 0.751916
Si Si5 0.021444 0.176111 0.665394
Si Si6 0.913599 0.515805 0.838611
Si Si7 0.034904 0.192436 0.900301
Si Si8 0.309268 0.883729 0.176048
O O1 0.877208 0.017865 0.608053
O O2 0.493103 0.949922 0.319937
O O3 0.786137 0.889806 0.632707
O O4 0.500000 0.000000 0.500000
O O5 0.790435 0.328458 0.613308
O O6 0.890464 0.404731 0.527109
O O7 0.093752 0.266256 0.688098
O O8 0.434747 0.810252 0.846887
O O9 0.229966 0.936736 0.776199
O O10 0.020226 0.786308 0.619794
O O11 0.283760 0.324548 0.608405
O O12 0.566012 0.197746 0.777609
O O13 0.761720 0.329512 0.949204
O O14 0.025929 0.175620 0.782553
O O15 0.183026 0.104751 0.729739
O O16 0.000000 0.500000 0.000000
O O17 0.829227 0.142250 0.817464
#
# Coordination Sequence:
#
# PCOD9241759 Si02
#       8
#     4   4   4   4   4   4   4   4
#     4  11  24  43  69  93 130 176 214 269 335 381
#     4   9  21  41  63  93 126 166 215 265 315 392
#     4   9  19  39  59  87 129 161 205 264 316 383
#     4  10  19  37  61  90 121 165 208 263 318 375
#     4  10  20  38  62  91 123 166 213 257 321 391
#     4  11  21  39  65  93 131 168 210 267 330 387
#     4  10  21  37  62  91 124 160 219 268 310 384
#     4  10  21  39  62  91 124 166 215 261 320 384
#
# _framework density 23.775452000000001
#
# number of rings (size 3 to 8) (size 9 to 14) (size 15 to 20)
#    0.000    2.000    1.250    3.000    0.000    2.500 
#    2.250   13.125    0.000    0.000    0.000    0.000 
#    0.000    0.000    0.000    0.000    0.000    0.000 
#
# Total GULP energy -178480.658035 kJ/mol
# GULP energy per Si atom -5577.520564 kJ/mol
# Density = 2.372134 g / cm^3
# Si number density = 23.775452 Si / 1000 Ang^3
#
#
#
# Elastic Constant Matrix: (Units=GPa)
#
#
# Indices 1 2 3 4 5 6 
#
# 1 61.0690 2.3316 17.5164 0.0000 -9.8105 0.0000
# 2 2.3316 72.6989 -6.7078 0.0000 1.4650 0.0000
# 3 17.5164 -6.7078 41.5601 0.0000 -6.2978 0.0000
# 4 0.0000 0.0000 0.0000 23.3326 0.0000 -11.3336
# 5 -9.8105 1.4650 -6.2978 0.0000 30.4093 0.0000
# 6 0.0000 0.0000 0.0000 -11.3336 0.0000 22.4280
#
#
#
# Elastic Compliance Matrix: (Units=1/GPa)
#
#
# Indices 1 2 3 4 5 6 
#
# 1 0.019395 -0.001427 -0.007687 0.000000 0.004734 0.000000
# 2 -0.001427 0.014070 0.002787 0.000000 -0.000561 0.000000
# 3 -0.007687 0.002787 0.028241 0.000000 0.003235 0.000000
# 4 0.000000 0.000000 0.000000 0.056801 0.000000 0.028703
# 5 0.004734 -0.000561 0.003235 0.000000 0.035109 0.000000
# 6 0.000000 0.000000 0.000000 0.028703 0.000000 0.059092
#
#
# Mechanical properties :
#
#
# Convention : Reuss Voigt Hill
#
# Bulk Modulus (GPa) = 20.38648 22.40096 21.39372
# Shear Modulus (GPa) = 20.68583 26.04651 23.36617
#
# Velocity S-wave (km/s) = 2.95286 3.31346 3.13834
# Velocity P-wave (km/s) = 4.49656 4.90724 4.70638
#
# Compressibility (1/GPa) = 0.04905213
#
# Stress axis : x y z
#
# Youngs Moduli (GPa) = 51.56024 71.07527 35.40890
#
# Poissons Ratio (x) = 0.10141 0.27220
# Poissons Ratio (y) = 0.07356 -0.09869
# Poissons Ratio (z) = 0.39636 -0.19810
#
# Static dielectric constant tensor:
#      x y z
#    x 1.934170 0.000000 0.020150 
#    y 0.000000 1.921800 0.000000 
#    z 0.020150 0.000000 1.912810 
# 
# From -- ./inp_files/45456.got.cif
#   From: 2010.05.17/outbox.cif.g08.bks.cpg/sg14_23_cif.got.tgz:45456.got - 2010.06.03 17:49:19.
