data_PCOD9241957
_publ_section_title
;
Structure prediction by ZEFSAII (Michael W. Deem and Ramdas Pophale) SiO2 
 PCOD9241957
Probable space group: P 21/C
;
_chemical_formula_sum "Si O2"
_cell_formula_units_Z 28
_cell_length_a 11.202325
_cell_length_b 8.974993
_cell_length_c 13.477317
_cell_angle_alpha 90.000000
_cell_angle_beta 121.928525
_cell_angle_gamma 90.000000
_cell_volume 1150.017053
_symmetry_space_group_name_H-M "P 21/C"
_symmetry_group_IT_number 14
_symmetry_cell_setting 'monoclinic'
loop_
_space_group_symop_operation_xyz
x,y,z
-x,1/2+y,1/2-z
-x,-y,-z
x,1/2-y,1/2+z
loop_
_atom_site_type_symbol
_atom_site_label
_atom_site_fract_x
_atom_site_fract_y
_atom_site_fract_z
Si Si1 0.378180 0.136629 0.409444
Si Si2 0.206580 0.758453 0.044760
Si Si3 0.652023 0.164605 0.081483
Si Si4 0.080104 0.692128 0.690468
Si Si5 0.014040 0.986185 0.348871
Si Si6 0.295321 0.399236 0.262020
Si Si7 0.593684 0.998021 0.377356
O O1 0.514297 0.235664 0.502551
O O2 0.273924 0.247878 0.311851
O O3 0.330459 0.052732 0.486888
O O4 0.438768 0.029682 0.350205
O O5 0.274483 0.865597 0.992287
O O6 0.104469 0.636175 0.948168
O O7 0.126963 0.839270 0.098598
O O8 0.337116 0.650436 0.132756
O O9 0.774219 0.254019 0.193359
O O10 0.625618 0.016727 0.132486
O O11 0.021600 0.563714 0.736491
O O12 0.974817 0.834668 0.640367
O O13 0.857915 0.963212 0.324780
O O14 0.382495 0.382090 0.199475
#
# Coordination Sequence:
#
# PCOD9241957 Si02
#       7
#     4   4   4   4   4   4   4
#     4  10  23  38  59  87 119 149 203 242 282 358
#     4  10  19  38  63  79 119 156 191 238 296 356
#     4   9  20  38  57  86 113 155 191 238 295 345
#     4  10  20  38  60  83 117 154 196 242 294 354
#     4  10  22  35  60  88 115 152 199 238 297 353
#     4  11  22  38  59  86 121 148 194 249 293 342
#     4  10  22  39  61  86 114 160 198 234 299 349
#
# _framework density 24.347465
#
# number of rings (size 3 to 8) (size 9 to 14) (size 15 to 20)
#    0.000    2.000    2.857    0.857    4.000    0.000 
#    0.000    7.857    0.000    0.000    0.000    0.000 
#    0.000    0.000    0.000    0.000    0.000    0.000 
#
# Total GULP energy -156417.281773 kJ/mol
# GULP energy per Si atom -5586.331492 kJ/mol
# Density = 2.429205 g / cm^3
# Si number density = 24.347465 Si / 1000 Ang^3
#
#
#
# Elastic Constant Matrix: (Units=GPa)
#
#
# Indices 1 2 3 4 5 6 
#
# 1 73.1576 14.4717 34.9664 0.0000 -32.9207 0.0000
# 2 14.4717 38.2199 10.0198 0.0000 -22.5233 0.0000
# 3 34.9664 10.0198 81.0063 0.0000 -52.1071 0.0000
# 4 0.0000 0.0000 0.0000 32.3924 0.0000 -5.6016
# 5 -32.9207 -22.5233 -52.1071 0.0000 57.4919 0.0000
# 6 0.0000 0.0000 0.0000 -5.6016 0.0000 23.5560
#
#
#
# Elastic Compliance Matrix: (Units=1/GPa)
#
#
# Indices 1 2 3 4 5 6 
#
# 1 0.018815 -0.002264 -0.003554 0.000000 0.006666 0.000000
# 2 -0.002264 0.038444 0.012173 0.000000 0.024797 0.000000
# 3 -0.003554 0.012173 0.033889 0.000000 0.033448 0.000000
# 4 0.000000 0.000000 0.000000 0.032195 0.000000 0.007656
# 5 0.006666 0.024797 0.033448 0.000000 0.061241 0.000000
# 6 0.000000 0.000000 0.000000 0.007656 0.000000 0.044273
#
#
# Mechanical properties :
#
#
# Convention : Reuss Voigt Hill
#
# Bulk Modulus (GPa) = 9.62862 34.58885 22.10873
# Shear Modulus (GPa) = 19.93892 31.54977 25.74435
#
# Velocity S-wave (km/s) = 2.86480 3.60365 3.25525
# Velocity P-wave (km/s) = 3.86084 5.61714 4.81966
#
# Compressibility (1/GPa) = 0.10385705
#
# Stress axis : x y z
#
# Youngs Moduli (GPa) = 53.14844 26.01218 29.50846
#
# Poissons Ratio (x) = 0.05890 0.10486
# Poissons Ratio (y) = 0.12034 -0.35920
# Poissons Ratio (z) = 0.18887 -0.31664
#
# Static dielectric constant tensor:
#      x y z
#    x 1.940850 0.000000 0.029280 
#    y 0.000000 1.951210 0.000000 
#    z 0.029280 0.000000 1.990140 
# 
# From -- ./inp_files/28647.got.cif
#   From: 2010.05.17/outbox.cif.g08.bks.cpg/sg14_15_cif.got.tgz:28647.got - 2010.06.03 17:49:19.
