data_PCOD9241687
_publ_section_title
;
Structure prediction by ZEFSAII (Michael W. Deem and Ramdas Pophale) SiO2 
 PCOD9241687
Probable space group: P 21/C
;
_chemical_formula_sum "Si O2"
_cell_formula_units_Z 24
_cell_length_a 8.816030
_cell_length_b 15.257230
_cell_length_c 15.149640
_cell_angle_alpha 90.000000
_cell_angle_beta 31.366996
_cell_angle_gamma 90.000000
_cell_volume 1060.685701
_symmetry_space_group_name_H-M "P 21/C"
_symmetry_group_IT_number 14
_symmetry_cell_setting 'monoclinic'
loop_
_space_group_symop_operation_xyz
x,y,z
-x,1/2+y,1/2-z
-x,-y,-z
x,1/2-y,1/2+z
loop_
_atom_site_type_symbol
_atom_site_label
_atom_site_fract_x
_atom_site_fract_y
_atom_site_fract_z
Si Si1 0.470099 0.081931 0.379923
Si Si2 0.868688 0.134680 0.873624
Si Si3 0.614221 0.554512 0.272627
Si Si4 0.528083 0.099436 0.534475
Si Si5 0.123597 0.704002 0.010649
Si Si6 0.158072 0.644484 0.809361
O O1 0.554988 0.065946 0.236997
O O2 0.657675 0.111361 0.371479
O O3 0.193071 0.145021 0.513821
O O4 0.368088 0.986972 0.466549
O O5 0.950055 0.203557 0.909956
O O6 0.761724 0.168725 0.830556
O O7 0.179688 0.090163 0.701008
O O8 0.615926 0.073382 0.036556
O O9 0.738949 0.455604 0.219540
O O10 0.868848 0.629583 0.146882
O O11 0.616761 0.176498 0.553628
O O12 0.238336 0.704163 0.853153
#
# Coordination Sequence:
#
# PCOD9241687 Si02
#       6
#     4   4   4   4   4   4
#     4   9  18  35  64  84 110 156 198 232 284 358
#     4  11  25  35  58  93 124 143 197 263 294 331
#     4  11  20  40  63  88 114 163 199 240 291 360
#     4  10  19  37  58  87 117 150 196 240 288 344
#     4  11  21  41  62  82 118 166 198 230 305 366
#     4  10  20  41  63  84 115 165 201 231 295 371
#
# _framework density 22.62687
#
# number of rings (size 3 to 8) (size 9 to 14) (size 15 to 20)
#    0.000    1.667    3.333    2.500    0.000    2.000 
#    0.000    5.000    0.000    0.000    0.000    0.000 
#    0.000    0.000    0.000    0.000    0.000    0.000 
#
# Total GULP energy -133670.508378 kJ/mol
# GULP energy per Si atom -5569.604516 kJ/mol
# Density = 2.257537 g / cm^3
# Si number density = 22.626870 Si / 1000 Ang^3
#
#
#
# Elastic Constant Matrix: (Units=GPa)
#
#
# Indices 1 2 3 4 5 6 
#
# 1 95.7581 11.3485 27.4224 0.0000 39.7222 0.0000
# 2 11.3485 59.6566 14.1480 0.0000 15.0124 0.0000
# 3 27.4224 14.1480 71.8544 0.0000 25.7276 0.0000
# 4 0.0000 0.0000 0.0000 19.6493 0.0000 6.5018
# 5 39.7222 15.0124 25.7276 0.0000 47.8228 0.0000
# 6 0.0000 0.0000 0.0000 6.5018 0.0000 18.1034
#
#
#
# Elastic Compliance Matrix: (Units=1/GPa)
#
#
# Indices 1 2 3 4 5 6 
#
# 1 0.016109 0.000520 -0.001735 0.000000 -0.012610 0.000000
# 2 0.000520 0.018430 -0.001983 0.000000 -0.005151 0.000000
# 3 -0.001735 -0.001983 0.017626 0.000000 -0.007419 0.000000
# 4 0.000000 0.000000 0.000000 0.057756 0.000000 -0.020743
# 5 -0.012610 -0.005151 -0.007419 0.000000 0.036993 0.000000
# 6 0.000000 0.000000 0.000000 -0.020743 0.000000 0.062688
#
#
# Mechanical properties :
#
#
# Convention : Reuss Voigt Hill
#
# Bulk Modulus (GPa) = 21.84866 37.01187 29.43026
# Shear Modulus (GPa) = 21.62117 28.73845 25.17981
#
# Velocity S-wave (km/s) = 3.09456 3.56772 3.33953
# Velocity P-wave (km/s) = 4.73766 5.77620 5.28251
#
# Compressibility (1/GPa) = 0.04576939
#
# Stress axis : x y z
#
# Youngs Moduli (GPa) = 62.07622 54.25896 56.73447
#
# Poissons Ratio (x) = -0.02824 0.09845
# Poissons Ratio (y) = -0.03230 0.11251
# Poissons Ratio (z) = 0.10771 0.10761
#
# Static dielectric constant tensor:
#      x y z
#    x 1.907980 0.000000 0.042880 
#    y 0.000000 1.907980 0.000000 
#    z 0.042880 0.000000 1.861040 
# 
# From -- ./inp_files/16602.got.cif
#   From: 2010.05.17/outbox.cif.g08.bks.cpg/sg14_9_cif.got.tgz:16602.got - 2010.06.03 17:49:19.
