data_PCOD9241804
_publ_section_title
;
Structure prediction by ZEFSAII (Michael W. Deem and Ramdas Pophale) SiO2 
 PCOD9241804
Probable space group: P 21/C
;
_chemical_formula_sum "Si O2"
_cell_formula_units_Z 24
_cell_length_a 27.323732
_cell_length_b 5.305757
_cell_length_c 13.317667
_cell_angle_alpha 90.000000
_cell_angle_beta 148.338094
_cell_angle_gamma 90.000000
_cell_volume 1013.437441
_symmetry_space_group_name_H-M "P 21/C"
_symmetry_group_IT_number 14
_symmetry_cell_setting 'monoclinic'
loop_
_space_group_symop_operation_xyz
x,y,z
-x,1/2+y,1/2-z
-x,-y,-z
x,1/2-y,1/2+z
loop_
_atom_site_type_symbol
_atom_site_label
_atom_site_fract_x
_atom_site_fract_y
_atom_site_fract_z
Si Si1 0.558588 0.366178 0.365936
Si Si2 0.011643 0.319294 0.836293
Si Si3 0.664988 0.986408 0.236188
Si Si4 0.182722 0.641967 0.446768
Si Si5 0.786243 0.860736 0.801304
Si Si6 0.685234 0.696803 0.445973
O O1 0.515023 0.099183 0.259605
O O2 0.601510 0.346878 0.552968
O O3 0.632710 0.476606 0.415175
O O4 0.925212 0.303829 0.762367
O O5 0.006725 0.593263 0.775656
O O6 0.115914 0.269081 0.056414
O O7 0.722042 0.816076 0.257910
O O8 0.620994 0.812801 0.245865
O O9 0.743330 0.138011 0.433007
O O10 0.188436 0.581397 0.577009
O O11 0.225329 0.419220 0.455249
O O12 0.723730 0.895868 0.594603
#
# Coordination Sequence:
#
# PCOD9241804 Si02
#       6
#     4   4   4   4   4   4
#     4  11  28  47  70  97 127 168 217 273 336 399
#     4  10  19  37  63  93 132 179 222 260 308 372
#     4  10  22  42  67  93 132 169 215 267 332 383
#     4  10  21  38  66  92 132 176 217 266 324 376
#     4   9  20  39  61  93 132 179 216 261 318 380
#     4  10  24  41  66  97 129 170 216 270 328 393
#
# _framework density 23.681778000000001
#
# number of rings (size 3 to 8) (size 9 to 14) (size 15 to 20)
#    0.000    2.000    1.667    0.000    9.333    3.333 
#    0.000    0.833    0.000    0.000    0.000    0.000 
#    0.000    0.000    0.000    0.000    0.000    0.000 
#
# Total GULP energy -133966.721636 kJ/mol
# GULP energy per Si atom -5581.946735 kJ/mol
# Density = 2.362788 g / cm^3
# Si number density = 23.681778 Si / 1000 Ang^3
#
#
#
# Elastic Constant Matrix: (Units=GPa)
#
#
# Indices 1 2 3 4 5 6 
#
# 1 96.5806 13.3513 54.4621 0.0000 4.7758 0.0000
# 2 13.3513 52.2578 5.2550 0.0000 -12.2694 0.0000
# 3 54.4621 5.2550 56.8549 0.0000 0.7434 0.0000
# 4 0.0000 0.0000 0.0000 36.7098 0.0000 19.8116
# 5 4.7758 -12.2694 0.7434 0.0000 21.8862 0.0000
# 6 0.0000 0.0000 0.0000 19.8116 0.0000 38.3061
#
#
#
# Elastic Compliance Matrix: (Units=1/GPa)
#
#
# Indices 1 2 3 4 5 6 
#
# 1 0.024305 -0.005754 -0.022649 0.000000 -0.007760 0.000000
# 2 -0.005754 0.023677 0.003135 0.000000 0.014422 0.000000
# 3 -0.022649 0.003135 0.038924 0.000000 0.005378 0.000000
# 4 0.000000 0.000000 0.000000 0.037788 0.000000 -0.019544
# 5 -0.007760 0.014422 0.005378 0.000000 0.055287 0.000000
# 6 0.000000 0.000000 0.000000 -0.019544 0.000000 0.036213
#
#
# Mechanical properties :
#
#
# Convention : Reuss Voigt Hill
#
# Bulk Modulus (GPa) = 27.49506 39.09224 33.29365
# Shear Modulus (GPa) = 17.93058 28.22206 23.07632
#
# Velocity S-wave (km/s) = 2.75461 3.45588 3.12498
# Velocity P-wave (km/s) = 4.66397 5.69800 5.20672
#
# Compressibility (1/GPa) = 0.03637017
#
# Stress axis : x y z
#
# Youngs Moduli (GPa) = 41.14402 42.23518 25.69108
#
# Poissons Ratio (x) = 0.24302 0.58187
# Poissons Ratio (y) = 0.23674 -0.08054
# Poissons Ratio (z) = 0.93186 -0.13240
#
# Static dielectric constant tensor:
#      x y z
#    x 1.919300 0.000000 0.046640 
#    y 0.000000 1.930960 0.000000 
#    z 0.046640 0.000000 1.922470 
# 
# From -- ./inp_files/45690.got.cif
#   From: 2010.05.17/outbox.cif.g08.bks.cpg/sg14_23_cif.got.tgz:45690.got - 2010.06.03 17:49:19.
