data_PCOD9241063
_publ_section_title
;
Structure prediction by ZEFSAII (Michael W. Deem and Ramdas Pophale) SiO2 
 PCOD9241063
Probable space group: P 21/C
;
_chemical_formula_sum "Si O2"
_cell_formula_units_Z 32
_cell_length_a 32.150186
_cell_length_b 5.672158
_cell_length_c 28.311154
_cell_angle_alpha 90.000000
_cell_angle_beta 164.579188
_cell_angle_gamma 90.000000
_cell_volume 1372.833923
_symmetry_space_group_name_H-M "P 21/C"
_symmetry_group_IT_number 14
_symmetry_cell_setting 'monoclinic'
loop_
_space_group_symop_operation_xyz
x,y,z
-x,1/2+y,1/2-z
-x,-y,-z
x,1/2-y,1/2+z
loop_
_atom_site_type_symbol
_atom_site_label
_atom_site_fract_x
_atom_site_fract_y
_atom_site_fract_z
Si Si1 0.626578 0.269274 0.682406
Si Si2 0.269312 0.748436 0.311693
Si Si3 0.711457 0.754754 0.646922
Si Si4 0.908123 0.660190 0.704331
Si Si5 0.373600 0.226898 0.270039
Si Si6 0.657372 0.599302 0.984470
Si Si7 0.352594 0.768254 0.094031
Si Si8 0.187292 0.083461 0.485759
O O1 0.689352 0.260666 0.698221
O O2 0.435488 0.257644 0.477348
O O3 0.668610 0.524839 0.750374
O O4 0.676217 0.023681 0.762016
O O5 0.201533 0.495805 0.253443
O O6 0.438114 0.765887 0.522735
O O7 0.194117 0.002991 0.240678
O O8 0.635692 0.790860 0.511995
O O9 0.832099 0.829058 0.659791
O O10 0.768305 0.480139 0.540562
O O11 0.930352 0.788975 0.678799
O O12 0.072904 0.548244 0.896845
O O13 0.300452 0.245781 0.138123
O O14 0.645895 0.324966 0.958374
O O15 0.524003 0.685954 0.802114
O O16 0.283719 0.585367 0.056947
#
# Coordination Sequence:
#
# PCOD9241063 Si02
#       8
#     4   4   4   4   4   4   4   4
#     4  10  19  35  55  91 123 151 190 259 320 361
#     4  10  19  34  56  89 125 151 190 257 320 364
#     4  10  20  31  55  83 120 156 191 238 305 378
#     4  11  24  41  58  82 125 162 210 252 305 356
#     4  10  20  31  57  85 116 151 198 247 300 369
#     4  11  24  36  59  88 119 165 201 256 310 365
#     4  11  22  39  58  82 121 156 211 255 302 355
#     4  11  24  39  62  86 115 172 209 254 299 359
#
# _framework density 23.309448
#
# number of rings (size 3 to 8) (size 9 to 14) (size 15 to 20)
#    0.000    1.500    2.500    5.250    7.000    0.000 
#    0.000    0.000    0.000    0.000    0.000    9.625 
#    0.000    0.000    0.000    0.000    0.000    0.000 
#
# Total GULP energy -178511.568838 kJ/mol
# GULP energy per Si atom -5578.486526 kJ/mol
# Density = 2.325639 g / cm^3
# Si number density = 23.309448 Si / 1000 Ang^3
#
#
#
# Elastic Constant Matrix: (Units=GPa)
#
#
# Indices 1 2 3 4 5 6 
#
# 1 55.1781 23.0331 3.1622 0.0000 -2.1532 0.0000
# 2 23.0331 154.2245 -0.1740 0.0000 -3.5325 0.0000
# 3 3.1622 -0.1740 32.0759 0.0000 9.7408 0.0000
# 4 0.0000 0.0000 0.0000 19.2532 0.0000 0.1397
# 5 -2.1532 -3.5325 9.7408 0.0000 16.4800 0.0000
# 6 0.0000 0.0000 0.0000 0.1397 0.0000 30.6668
#
#
#
# Elastic Compliance Matrix: (Units=1/GPa)
#
#
# Indices 1 2 3 4 5 6 
#
# 1 0.019638 -0.002850 -0.003102 0.000000 0.003789 0.000000
# 2 -0.002850 0.006935 -0.000024 0.000000 0.001129 0.000000
# 3 -0.003102 -0.000024 0.038521 0.000000 -0.023179 0.000000
# 4 0.000000 0.000000 0.000000 0.051941 0.000000 -0.000237
# 5 0.003789 0.001129 -0.023179 0.000000 0.075117 0.000000
# 6 0.000000 0.000000 0.000000 -0.000237 0.000000 0.032610
#
#
# Mechanical properties :
#
#
# Convention : Reuss Voigt Hill
#
# Bulk Modulus (GPa) = 18.81723 32.61346 25.71535
# Shear Modulus (GPa) = 19.65191 27.64381 23.64786
#
# Velocity S-wave (km/s) = 2.90675 3.44750 3.18861
# Velocity P-wave (km/s) = 4.39953 5.46524 4.96109
#
# Compressibility (1/GPa) = 0.05314279
#
# Stress axis : x y z
#
# Youngs Moduli (GPa) = 50.92101 144.18642 25.96003
#
# Poissons Ratio (x) = 0.41088 0.08053
# Poissons Ratio (y) = 0.14511 0.00063
# Poissons Ratio (z) = 0.15796 0.00349
#
# Static dielectric constant tensor:
#      x y z
#    x 1.896810 0.000000 0.002680 
#    y 0.000000 2.064020 0.000000 
#    z 0.002680 0.000000 1.825330 
# 
# From -- ./inp_files/78431.got.cif
#   From: 2010.05.17/outbox.cif.g08.bks.cpg/sg14_40_cif.got.tgz:78431.got - 2010.06.03 17:49:19.
