data_PCOD9241836
_publ_section_title
;
Structure prediction by ZEFSAII (Michael W. Deem and Ramdas Pophale) SiO2 
 PCOD9241836
Probable space group: P 21/C
;
_chemical_formula_sum "Si O2"
_cell_formula_units_Z 24
_cell_length_a 5.547393
_cell_length_b 12.872417
_cell_length_c 13.899755
_cell_angle_alpha 90.000000
_cell_angle_beta 108.918304
_cell_angle_gamma 90.000000
_cell_volume 938.942451
_symmetry_space_group_name_H-M "P 21/C"
_symmetry_group_IT_number 14
_symmetry_cell_setting 'monoclinic'
loop_
_space_group_symop_operation_xyz
x,y,z
-x,1/2+y,1/2-z
-x,-y,-z
x,1/2-y,1/2+z
loop_
_atom_site_type_symbol
_atom_site_label
_atom_site_fract_x
_atom_site_fract_y
_atom_site_fract_z
Si Si1 0.323386 0.909266 0.012823
Si Si2 0.860231 0.542498 0.334924
Si Si3 0.291967 0.236662 0.679953
Si Si4 0.448477 0.821899 0.545737
Si Si5 0.806502 0.361046 0.194324
Si Si6 0.052804 0.115271 0.466111
O O1 0.467857 0.801932 0.044587
O O2 0.193848 0.954357 0.091754
O O3 0.114334 0.898767 0.902295
O O4 0.500000 0.000000 0.000000
O O5 0.669118 0.639533 0.313187
O O6 0.875444 0.474901 0.241550
O O7 0.566270 0.182380 0.723619
O O8 0.170041 0.192435 0.563963
O O9 0.072726 0.201946 0.726902
O O10 0.313123 0.859508 0.428630
O O11 0.722642 0.874933 0.582648
O O12 0.230775 0.847049 0.595612
O O13 0.000000 0.000000 0.500000
#
# Coordination Sequence:
#
# PCOD9241836 Si02
#       6
#     4   4   4   4   4   4
#     4  11  23  40  70  96 131 175 220 278 330 398
#     4  11  24  41  69  95 129 179 221 270 339 395
#     4  10  22  43  64  91 131 167 211 274 317 388
#     4  10  21  41  62  92 131 166 210 273 319 381
#     4  10  22  40  66  91 124 169 216 259 327 382
#     4  10  19  37  65  87 122 173 209 255 332 385
#
# _framework density 25.560669999999998
#
# number of rings (size 3 to 8) (size 9 to 14) (size 15 to 20)
#    0.000    1.667    3.333    2.500    4.667    0.000 
#    0.000   10.000    0.000    0.000    0.000    0.000 
#    0.000    0.000    0.000    0.000    0.000    0.000 
#
# Total GULP energy -134186.094725 kJ/mol
# GULP energy per Si atom -5591.087280 kJ/mol
# Density = 2.550249 g / cm^3
# Si number density = 25.560670 Si / 1000 Ang^3
#
#
#
# Elastic Constant Matrix: (Units=GPa)
#
#
# Indices 1 2 3 4 5 6 
#
# 1 203.2870 40.5104 13.4217 0.0000 19.1807 0.0000
# 2 40.5104 168.4866 32.1853 0.0000 2.0661 0.0000
# 3 13.4217 32.1853 86.5529 0.0000 6.3857 0.0000
# 4 0.0000 0.0000 0.0000 40.0221 0.0000 0.2055
# 5 19.1807 2.0661 6.3857 0.0000 8.4313 0.0000
# 6 0.0000 0.0000 0.0000 0.2055 0.0000 44.9114
#
#
#
# Elastic Compliance Matrix: (Units=1/GPa)
#
#
# Indices 1 2 3 4 5 6 
#
# 1 0.006611 -0.001530 0.000663 0.000000 -0.015168 0.000000
# 2 -0.001530 0.006744 -0.002548 0.000000 0.003758 0.000000
# 3 0.000663 -0.002548 0.013201 0.000000 -0.010882 0.000000
# 4 0.000000 0.000000 0.000000 0.024987 0.000000 -0.000114
# 5 -0.015168 0.003758 -0.010882 0.000000 0.160431 0.000000
# 6 0.000000 0.000000 0.000000 -0.000114 0.000000 0.022267
#
#
# Mechanical properties :
#
#
# Convention : Reuss Voigt Hill
#
# Bulk Modulus (GPa) = 50.69449 70.06238 60.37843
# Shear Modulus (GPa) = 20.19010 43.48692 31.83851
#
# Velocity S-wave (km/s) = 2.81355 4.12918 3.53314
# Velocity P-wave (km/s) = 5.51641 7.08543 6.34957
#
# Compressibility (1/GPa) = 0.01972601
#
# Stress axis : x y z
#
# Youngs Moduli (GPa) = 151.25291 148.28650 75.75162
#
# Poissons Ratio (x) = 0.22692 -0.05021
# Poissons Ratio (y) = 0.23146 0.19299
# Poissons Ratio (z) = -0.10026 0.37778
#
# Static dielectric constant tensor:
#      x y z
#    x 1.823340 0.000000 -0.178240 
#    y 0.000000 2.046760 0.000000 
#    z -0.178240 0.000000 2.075480 
# 
# From -- ./inp_files/53035.got.cif
#   From: 2010.05.17/outbox.cif.g08.bks.cpg/sg14_27_cif.got.tgz:53035.got - 2010.06.03 17:49:19.
