data_PCOD9241808
_publ_section_title
;
Structure prediction by ZEFSAII (Michael W. Deem and Ramdas Pophale) SiO2 
 PCOD9241808
Probable space group: P 21/C
;
_chemical_formula_sum "Si O2"
_cell_formula_units_Z 32
_cell_length_a 16.669672
_cell_length_b 14.190111
_cell_length_c 12.896836
_cell_angle_alpha 90.000000
_cell_angle_beta 23.309579
_cell_angle_gamma 90.000000
_cell_volume 1207.149418
_symmetry_space_group_name_H-M "P 21/C"
_symmetry_group_IT_number 14
_symmetry_cell_setting 'monoclinic'
loop_
_space_group_symop_operation_xyz
x,y,z
-x,1/2+y,1/2-z
-x,-y,-z
x,1/2-y,1/2+z
loop_
_atom_site_type_symbol
_atom_site_label
_atom_site_fract_x
_atom_site_fract_y
_atom_site_fract_z
Si Si1 0.164458 0.688750 0.215396
Si Si2 0.507405 0.662808 0.520524
Si Si3 0.901060 0.402298 0.916328
Si Si4 0.208964 0.862625 0.037825
Si Si5 0.743578 0.660267 0.812935
Si Si6 0.796742 0.531798 0.304113
Si Si7 0.763426 0.884546 0.530958
Si Si8 0.216667 0.536251 0.300797
O O1 0.284167 0.769847 0.011405
O O2 0.295955 0.615775 0.127214
O O3 0.965737 0.705188 0.523539
O O4 0.072352 0.630200 0.230524
O O5 0.269600 0.652852 0.817826
O O6 0.582829 0.759675 0.478964
O O7 0.622692 0.577581 0.443237
O O8 0.582928 0.653696 0.314530
O O9 0.816198 0.508322 0.002171
O O10 0.110664 0.393039 0.726827
O O11 0.969994 0.834604 0.322480
O O12 0.266105 0.945926 0.048865
O O13 0.216854 0.911997 0.913219
O O14 0.736269 0.628873 0.941447
O O15 0.684089 0.566499 0.818414
O O16 0.000000 0.500000 0.000000
O O17 0.000000 0.500000 0.500000
#
# Coordination Sequence:
#
# PCOD9241808 Si02
#       8
#     4   4   4   4   4   4   4   4
#     4  11  21  39  66 100 137 186 246 288 355 439
#     4  12  26  44  70 108 145 185 245 306 368 437
#     4  11  25  44  69 104 145 188 236 300 374 430
#     4  11  21  36  65 106 136 180 246 296 352 436
#     4  11  21  40  71 101 135 194 247 285 364 449
#     4  11  22  40  67 101 138 187 236 296 360 429
#     4  11  20  41  67 102 141 192 238 296 364 435
#     4  10  19  37  63  96 136 188 236 292 362 426
#
# _framework density 26.508732999999999
#
# number of rings (size 3 to 8) (size 9 to 14) (size 15 to 20)
#    0.000    1.000    7.500    2.625    1.750    2.000 
#    2.250    2.500    0.000    1.500    0.000    0.000 
#    0.000    0.000    0.000    0.000    0.000    0.000 
#
# Total GULP energy -178957.738652 kJ/mol
# GULP energy per Si atom -5592.429333 kJ/mol
# Density = 2.644840 g / cm^3
# Si number density = 26.508733 Si / 1000 Ang^3
#
#
#
# Elastic Constant Matrix: (Units=GPa)
#
#
# Indices 1 2 3 4 5 6 
#
# 1 140.0024 54.1864 45.5370 0.0000 30.1966 0.0000
# 2 54.1864 136.3315 22.8738 0.0000 21.3841 0.0000
# 3 45.5370 22.8738 101.1147 0.0000 26.8790 0.0000
# 4 0.0000 0.0000 0.0000 17.0443 0.0000 11.2036
# 5 30.1966 21.3841 26.8790 0.0000 50.4884 0.0000
# 6 0.0000 0.0000 0.0000 11.2036 0.0000 40.1747
#
#
#
# Elastic Compliance Matrix: (Units=1/GPa)
#
#
# Indices 1 2 3 4 5 6 
#
# 1 0.009924 -0.002959 -0.002977 0.000000 -0.003098 0.000000
# 2 -0.002959 0.008834 -0.000165 0.000000 -0.001884 0.000000
# 3 -0.002977 -0.000165 0.012552 0.000000 -0.004832 0.000000
# 4 0.000000 0.000000 0.000000 0.071840 0.000000 -0.020034
# 5 -0.003098 -0.001884 -0.004832 0.000000 0.025030 0.000000
# 6 0.000000 0.000000 0.000000 -0.020034 0.000000 0.030478
#
#
# Mechanical properties :
#
#
# Convention : Reuss Voigt Hill
#
# Bulk Modulus (GPa) = 52.33038 69.18256 60.75647
# Shear Modulus (GPa) = 28.21196 38.53157 33.37176
#
# Velocity S-wave (km/s) = 3.26583 3.81667 3.55194
# Velocity P-wave (km/s) = 5.83134 6.75110 6.30800
#
# Compressibility (1/GPa) = 0.01910936
#
# Stress axis : x y z
#
# Youngs Moduli (GPa) = 100.76221 113.19321 79.66766
#
# Poissons Ratio (x) = 0.33497 0.23714
# Poissons Ratio (y) = 0.29818 0.01314
# Poissons Ratio (z) = 0.29993 0.01867
#
# Static dielectric constant tensor:
#      x y z
#    x 2.095080 0.000000 -0.060750 
#    y 0.000000 2.204020 0.000000 
#    z -0.060750 0.000000 2.174950 
# 
# From -- ./inp_files/34224.got.cif
#   From: 2010.05.17/outbox.cif.g08.bks.cpg/sg14_18_cif.got.tgz:34224.got - 2010.06.03 17:49:19.
