data_PCOD9241989
_publ_section_title
;
Structure prediction by ZEFSAII (Michael W. Deem and Ramdas Pophale) SiO2 
 PCOD9241989
Probable space group: P 21/C
;
_chemical_formula_sum "Si O2"
_cell_formula_units_Z 32
_cell_length_a 17.392700
_cell_length_b 14.409149
_cell_length_c 11.252966
_cell_angle_alpha 90.000000
_cell_angle_beta 148.517593
_cell_angle_gamma 90.000000
_cell_volume 1472.786383
_symmetry_space_group_name_H-M "P 21/C"
_symmetry_group_IT_number 14
_symmetry_cell_setting 'monoclinic'
loop_
_space_group_symop_operation_xyz
x,y,z
-x,1/2+y,1/2-z
-x,-y,-z
x,1/2-y,1/2+z
loop_
_atom_site_type_symbol
_atom_site_label
_atom_site_fract_x
_atom_site_fract_y
_atom_site_fract_z
Si Si1 0.228788 0.740398 0.588829
Si Si2 0.396493 0.719178 0.057619
Si Si3 0.479738 0.475491 0.758171
Si Si4 0.790324 0.024075 0.938405
Si Si5 0.905043 0.431314 0.095512
Si Si6 0.345222 0.454874 0.340927
Si Si7 0.839827 0.530790 0.248445
Si Si8 0.662700 0.651576 0.895372
O O1 0.316939 0.756142 0.578877
O O2 0.176035 0.633999 0.523150
O O3 0.105688 0.820750 0.426075
O O4 0.320072 0.754352 0.833671
O O5 0.417771 0.609539 0.069931
O O6 0.559349 0.762368 0.277550
O O7 0.362973 0.511948 0.697214
O O8 0.380929 0.433310 0.522002
O O9 0.571162 0.563194 0.828976
O O10 0.930815 0.972789 0.183782
O O11 0.762642 0.979296 0.773214
O O12 0.825728 0.465676 0.113181
O O13 0.793825 0.476345 0.852946
O O14 0.500000 0.500000 0.500000
O O15 0.315517 0.369115 0.214710
O O16 0.000000 0.500000 0.500000
O O17 0.814143 0.634677 0.164836
#
# Coordination Sequence:
#
# PCOD9241989 Si02
#       8
#     4   4   4   4   4   4   4   4
#     4  12  24  44  67  98 129 175 224 269 336 400
#     4  12  25  40  70  98 130 172 222 277 331 394
#     4  11  22  39  60  98 130 159 212 276 325 372
#     4  11  24  41  65  97 137 170 218 276 328 395
#     4  10  22  43  67  90 131 180 219 261 336 399
#     4   9  18  38  64  88 126 166 213 266 319 388
#     4   9  20  41  64  91 130 176 212 266 330 392
#     4  10  19  38  64  91 125 170 217 260 322 392
#
# _framework density 21.727523000000001
#
# number of rings (size 3 to 8) (size 9 to 14) (size 15 to 20)
#    0.000    1.500    1.250    6.000    1.750    1.500 
#    6.750    1.250    0.000    0.000    0.000    0.000 
#    0.000    0.000    0.000    0.000    0.000    0.000 
#
# Total GULP energy -178356.497718 kJ/mol
# GULP energy per Si atom -5573.640554 kJ/mol
# Density = 2.167807 g / cm^3
# Si number density = 21.727523 Si / 1000 Ang^3
#
#
#
# Elastic Constant Matrix: (Units=GPa)
#
#
# Indices 1 2 3 4 5 6 
#
# 1 58.3397 -20.2460 -1.8963 0.0000 -9.7288 0.0000
# 2 -20.2460 53.0226 2.3728 0.0000 -2.2549 0.0000
# 3 -1.8963 2.3728 80.4473 0.0000 -16.7089 0.0000
# 4 0.0000 0.0000 0.0000 37.8669 0.0000 6.8879
# 5 -9.7288 -2.2549 -16.7089 0.0000 28.2757 0.0000
# 6 0.0000 0.0000 0.0000 6.8879 0.0000 18.4345
#
#
#
# Elastic Compliance Matrix: (Units=1/GPa)
#
#
# Indices 1 2 3 4 5 6 
#
# 1 0.021792 0.008625 0.002234 0.000000 0.009506 0.000000
# 2 0.008625 0.022343 0.000605 0.000000 0.005107 0.000000
# 3 0.002234 0.000605 0.014403 0.000000 0.009328 0.000000
# 4 0.000000 0.000000 0.000000 0.028334 0.000000 -0.010587
# 5 0.009506 0.005107 0.009328 0.000000 0.044556 0.000000
# 6 0.000000 0.000000 0.000000 -0.010587 0.000000 0.058202
#
#
# Mechanical properties :
#
#
# Convention : Reuss Voigt Hill
#
# Bulk Modulus (GPa) = 12.27504 16.91895 14.59700
# Shear Modulus (GPa) = 25.79213 31.02068 28.40641
#
# Velocity S-wave (km/s) = 3.44913 3.78261 3.61971
# Velocity P-wave (km/s) = 4.63937 5.18472 4.91961
#
# Compressibility (1/GPa) = 0.08146611
#
# Stress axis : x y z
#
# Youngs Moduli (GPa) = 45.88828 44.75579 69.43161
#
# Poissons Ratio (x) = -0.38603 -0.15508
# Poissons Ratio (y) = -0.39580 -0.04201
# Poissons Ratio (z) = -0.10250 -0.02708
#
# Static dielectric constant tensor:
#      x y z
#    x 1.863600 0.000000 0.004400 
#    y 0.000000 1.776280 0.000000 
#    z 0.004400 0.000000 1.950800 
# 
# From -- ./inp_files/34235.got.cif
#   From: 2010.05.17/outbox.cif.g08.bks.cpg/sg14_18_cif.got.tgz:34235.got - 2010.06.03 17:49:19.
