data_PCOD9241998
_publ_section_title
;
Structure prediction by ZEFSAII (Michael W. Deem and Ramdas Pophale) SiO2 
 PCOD9241998
Probable space group: P 21/C
;
_chemical_formula_sum "Si O2"
_cell_formula_units_Z 16
_cell_length_a 5.020977
_cell_length_b 22.131174
_cell_length_c 5.410931
_cell_angle_alpha 90.000000
_cell_angle_beta 89.626707
_cell_angle_gamma 90.000000
_cell_volume 601.250517
_symmetry_space_group_name_H-M "P 21/C"
_symmetry_group_IT_number 14
_symmetry_cell_setting 'monoclinic'
loop_
_space_group_symop_operation_xyz
x,y,z
-x,1/2+y,1/2-z
-x,-y,-z
x,1/2-y,1/2+z
loop_
_atom_site_type_symbol
_atom_site_label
_atom_site_fract_x
_atom_site_fract_y
_atom_site_fract_z
Si Si1 0.225548 0.925049 0.389356
Si Si2 0.429034 0.238456 0.576320
Si Si3 0.880087 0.846281 0.123834
Si Si4 0.713454 0.555899 0.238556
O O1 0.168544 0.866555 0.219418
O O2 0.444507 0.925582 0.601417
O O3 0.950792 0.934350 0.539780
O O4 0.285017 0.983610 0.220074
O O5 0.581073 0.260453 0.818692
O O6 0.189363 0.288011 0.543961
O O7 0.289388 0.175805 0.638787
O O8 0.769476 0.903945 0.977781
#
# Coordination Sequence:
#
# PCOD9241998 Si02
#       4
#     4   4   4   4
#     4  10  22  40  65  96 130 172 221 275 337 400
#     4   8  18  34  62  92 132 170 226 264 332 390
#     4  10  19  38  64  94 133 176 216 284 322 410
#     4  10  22  40  65  96 130 172 221 275 337 400
#
# _framework density 26.611205000000002
#
# number of rings (size 3 to 8) (size 9 to 14) (size 15 to 20)
#    1.500    1.000    0.000    2.250    0.000    2.000 
#    0.000   10.000    0.000    0.000    0.000    0.000 
#    0.000    0.000    0.000    0.000    0.000    0.000 
#
# Total GULP energy -89431.035937 kJ/mol
# GULP energy per Si atom -5589.439746 kJ/mol
# Density = 2.655064 g / cm^3
# Si number density = 26.611205 Si / 1000 Ang^3
#
#
#
# Elastic Constant Matrix: (Units=GPa)
#
#
# Indices 1 2 3 4 5 6 
#
# 1 52.8975 4.0846 24.3352 0.0000 30.0773 0.0000
# 2 4.0846 106.8346 26.4232 0.0000 -0.2248 0.0000
# 3 24.3352 26.4232 114.0293 0.0000 7.6038 0.0000
# 4 0.0000 0.0000 0.0000 58.0365 0.0000 -4.2501
# 5 30.0773 -0.2248 7.6038 0.0000 41.1762 0.0000
# 6 0.0000 0.0000 0.0000 -4.2501 0.0000 25.0859
#
#
#
# Elastic Compliance Matrix: (Units=1/GPa)
#
#
# Indices 1 2 3 4 5 6 
#
# 1 0.035977 0.000059 -0.006013 0.000000 -0.025169 0.000000
# 2 0.000059 0.009939 -0.002345 0.000000 0.000444 0.000000
# 3 -0.006013 -0.002345 0.010433 0.000000 0.002453 0.000000
# 4 0.000000 0.000000 0.000000 0.017447 0.000000 0.002956
# 5 -0.025169 0.000444 0.002453 0.000000 0.042220 0.000000
# 6 0.000000 0.000000 0.000000 0.002956 0.000000 0.040364
#
#
# Mechanical properties :
#
#
# Convention : Reuss Voigt Hill
#
# Bulk Modulus (GPa) = 25.15749 42.60526 33.88138
# Shear Modulus (GPa) = 26.84864 39.45429 33.15147
#
# Velocity S-wave (km/s) = 3.17980 3.85466 3.53338
# Velocity P-wave (km/s) = 4.79122 5.98801 5.42273
#
# Compressibility (1/GPa) = 0.03974959
#
# Stress axis : x y z
#
# Youngs Moduli (GPa) = 27.79537 100.61374 95.85111
#
# Poissons Ratio (x) = -0.00591 0.57637
# Poissons Ratio (y) = -0.00163 0.22480
# Poissons Ratio (z) = 0.16714 0.23597
#
# Static dielectric constant tensor:
#      x y z
#    x 2.031090 0.000000 -0.051880 
#    y 0.000000 2.101730 0.000000 
#    z -0.051880 0.000000 2.106660 
# 
# From -- ./inp_files/372.got.cif
#   From: 2010.05.17/outbox.cif.g08.bks.cpg/sg14_1_cif.got.tgz:372.got - 2010.06.03 17:49:19.
