data_PCOD9241671
_publ_section_title
;
Structure prediction by ZEFSAII (Michael W. Deem and Ramdas Pophale) SiO2 
 PCOD9241671
Probable space group: P 21/C
;
_chemical_formula_sum "Si O2"
_cell_formula_units_Z 24
_cell_length_a 6.606343
_cell_length_b 12.868144
_cell_length_c 13.619382
_cell_angle_alpha 90.000000
_cell_angle_beta 60.598305
_cell_angle_gamma 90.000000
_cell_volume 1008.676595
_symmetry_space_group_name_H-M "P 21/C"
_symmetry_group_IT_number 14
_symmetry_cell_setting 'monoclinic'
loop_
_space_group_symop_operation_xyz
x,y,z
-x,1/2+y,1/2-z
-x,-y,-z
x,1/2-y,1/2+z
loop_
_atom_site_type_symbol
_atom_site_label
_atom_site_fract_x
_atom_site_fract_y
_atom_site_fract_z
Si Si1 0.980101 0.393395 0.343607
Si Si2 0.541251 0.629987 0.447399
Si Si3 0.298254 0.521800 0.756420
Si Si4 0.050005 0.621211 0.351548
Si Si5 0.652362 0.199092 0.615295
Si Si6 0.981378 0.664210 0.136838
O O1 0.713647 0.376782 0.446357
O O2 0.921896 0.419398 0.243267
O O3 0.097346 0.498578 0.355423
O O4 0.093526 0.284664 0.344951
O O5 0.566340 0.535932 0.363695
O O6 0.056438 0.857935 0.732257
O O7 0.551670 0.740234 0.389914
O O8 0.414228 0.608733 0.794569
O O9 0.209816 0.423082 0.839491
O O10 0.208245 0.706795 0.364496
O O11 0.780647 0.629315 0.450187
O O12 0.817261 0.153099 0.491159
#
# Coordination Sequence:
#
# PCOD9241671 Si02
#       6
#     4   4   4   4   4   4
#     4   9  17  37  60  81 116 148 192 242 275 340
#     4   9  21  38  55  89 113 145 199 233 277 342
#     4  10  19  37  57  84 122 150 183 245 290 326
#     4  10  20  38  57  87 110 154 188 240 286 326
#     4  11  21  38  60  84 115 156 186 233 296 337
#     4   9  19  35  58  86 111 148 193 227 281 351
#
# _framework density 23.793552999999999
#
# number of rings (size 3 to 8) (size 9 to 14) (size 15 to 20)
#    0.000    2.667    1.667    2.500    0.000    2.667 
#   18.000    0.000    0.000    4.000    0.000    0.000 
#    0.000    0.000    0.000    0.000    0.000    0.000 
#
# Total GULP energy -133906.408332 kJ/mol
# GULP energy per Si atom -5579.433681 kJ/mol
# Density = 2.373940 g / cm^3
# Si number density = 23.793553 Si / 1000 Ang^3
#
#
#
# Elastic Constant Matrix: (Units=GPa)
#
#
# Indices 1 2 3 4 5 6 
#
# 1 32.4298 28.0460 -1.7575 0.0000 -4.8683 0.0000
# 2 28.0460 178.1979 9.3662 0.0000 -2.1227 0.0000
# 3 -1.7575 9.3662 48.4416 0.0000 -4.9644 0.0000
# 4 0.0000 0.0000 0.0000 37.1409 0.0000 2.5836
# 5 -4.8683 -2.1227 -4.9644 0.0000 26.4210 0.0000
# 6 0.0000 0.0000 0.0000 2.5836 0.0000 37.4215
#
#
#
# Elastic Compliance Matrix: (Units=1/GPa)
#
#
# Indices 1 2 3 4 5 6 
#
# 1 0.037195 -0.005940 0.003213 0.000000 0.006980 0.000000
# 2 -0.005940 0.006620 -0.001584 0.000000 -0.000860 0.000000
# 3 0.003213 -0.001584 0.021528 0.000000 0.004510 0.000000
# 4 0.000000 0.000000 0.000000 0.027054 0.000000 -0.001868
# 5 0.006980 -0.000860 0.004510 0.000000 0.039913 0.000000
# 6 0.000000 0.000000 0.000000 -0.001868 0.000000 0.026852
#
#
# Mechanical properties :
#
#
# Convention : Reuss Voigt Hill
#
# Bulk Modulus (GPa) = 17.62969 36.70875 27.16922
# Shear Modulus (GPa) = 26.78251 35.09099 30.93675
#
# Velocity S-wave (km/s) = 3.35867 3.84449 3.60976
# Velocity P-wave (km/s) = 4.73987 5.93029 5.36818
#
# Compressibility (1/GPa) = 0.05672248
#
# Stress axis : x y z
#
# Youngs Moduli (GPa) = 26.88566 151.06759 46.45033
#
# Poissons Ratio (x) = 0.89729 -0.14926
# Poissons Ratio (y) = 0.15969 0.07356
# Poissons Ratio (z) = -0.08639 0.23922
#
# Static dielectric constant tensor:
#      x y z
#    x 1.916620 0.000000 0.008890 
#    y 0.000000 1.937320 0.000000 
#    z 0.008890 0.000000 1.982110 
# 
# From -- ./inp_files/44260.got.cif
#   From: 2010.05.17/outbox.cif.g08.bks.cpg/sg14_23_cif.got.tgz:44260.got - 2010.06.03 17:49:19.
