data_PCOD9241430
_publ_section_title
;
Structure prediction by ZEFSAII (Michael W. Deem and Ramdas Pophale) SiO2 
 PCOD9241430
Probable space group: P 21/C
;
_chemical_formula_sum "Si O2"
_cell_formula_units_Z 32
_cell_length_a 23.958255
_cell_length_b 7.181347
_cell_length_c 16.378510
_cell_angle_alpha 90.000000
_cell_angle_beta 153.122062
_cell_angle_gamma 90.000000
_cell_volume 1273.977097
_symmetry_space_group_name_H-M "P 21/C"
_symmetry_group_IT_number 14
_symmetry_cell_setting 'monoclinic'
loop_
_space_group_symop_operation_xyz
x,y,z
-x,1/2+y,1/2-z
-x,-y,-z
x,1/2-y,1/2+z
loop_
_atom_site_type_symbol
_atom_site_label
_atom_site_fract_x
_atom_site_fract_y
_atom_site_fract_z
Si Si1 0.089741 0.460970 0.040782
Si Si2 0.612338 0.554266 0.789718
Si Si3 0.913404 0.154041 0.176168
Si Si4 0.651532 0.113954 0.871020
Si Si5 0.864629 0.585510 0.327043
Si Si6 0.346868 0.529475 0.433175
Si Si7 0.125180 0.087054 0.341780
Si Si8 0.609047 0.904011 0.477877
O O1 0.126418 0.244521 0.094972
O O2 0.219379 0.568396 0.218882
O O3 0.000000 0.500000 0.000000
O O4 0.002927 0.465795 0.850060
O O5 0.626608 0.330427 0.817282
O O6 0.481029 0.599957 0.577204
O O7 0.598249 0.615025 0.865767
O O8 0.749268 0.620970 0.942166
O O9 0.890066 0.361135 0.181604
O O10 0.994958 0.160977 0.202229
O O11 0.779639 0.062075 0.995974
O O12 0.525692 0.017453 0.676274
O O13 0.669026 0.086194 0.991656
O O14 0.851107 0.664650 0.217461
O O15 0.000000 0.500000 0.500000
O O16 0.732498 0.482094 0.162830
O O17 0.366296 0.304716 0.458581
#
# Coordination Sequence:
#
# PCOD9241430 Si02
#       8
#     4   4   4   4   4   4   4   4
#     4  11  21  32  53  83 109 133 174 218 264 310
#     4   8  16  31  49  73 101 135 171 210 258 307
#     4  11  22  35  52  77 108 143 174 213 264 313
#     4   9  16  30  48  74 103 131 170 212 254 304
#     4  10  19  36  56  79 104 135 172 219 265 306
#     4   9  16  29  50  76 102 131 169 220 256 298
#     4  10  22  36  54  77 106 141 177 214 260 315
#     4   8  16  27  50  76  99 129 167 214 257 302
#
# _framework density 25.118190999999999
#
# number of rings (size 3 to 8) (size 9 to 14) (size 15 to 20)
#    0.000    2.500    2.500    0.000    1.750    1.000 
#    0.000    0.625    0.000    0.750    0.000    0.000 
#    0.000    0.000    0.000    0.000    0.000    0.000 
#
# Total GULP energy -178418.277965 kJ/mol
# GULP energy per Si atom -5575.571186 kJ/mol
# Density = 2.506102 g / cm^3
# Si number density = 25.118191 Si / 1000 Ang^3
#
#
#
# Elastic Constant Matrix: (Units=GPa)
#
#
# Indices 1 2 3 4 5 6 
#
# 1 34.2406 -0.2108 38.2538 0.0000 28.7898 0.0000
# 2 -0.2108 79.6949 22.4834 0.0000 0.9776 0.0000
# 3 38.2538 22.4834 252.0787 0.0000 68.2699 0.0000
# 4 0.0000 0.0000 0.0000 9.6761 0.0000 1.3496
# 5 28.7898 0.9776 68.2699 0.0000 37.4424 0.0000
# 6 0.0000 0.0000 0.0000 1.3496 0.0000 16.3738
#
#
#
# Elastic Compliance Matrix: (Units=1/GPa)
#
#
# Indices 1 2 3 4 5 6 
#
# 1 0.095319 -0.001683 0.010910 0.000000 -0.093141 0.000000
# 2 -0.001683 0.013134 -0.002319 0.000000 0.005179 0.000000
# 3 0.010910 -0.002319 0.009431 0.000000 -0.025524 0.000000
# 4 0.000000 0.000000 0.000000 0.104549 0.000000 -0.008617
# 5 -0.093141 0.005179 -0.025524 0.000000 0.144727 0.000000
# 6 0.000000 0.000000 0.000000 -0.008617 0.000000 0.061784
#
#
# Mechanical properties :
#
#
# Convention : Reuss Voigt Hill
#
# Bulk Modulus (GPa) = 7.59299 54.11854 30.85577
# Shear Modulus (GPa) = 10.89261 33.06431 21.97846
#
# Velocity S-wave (km/s) = 2.08470 3.63209 2.96125
# Velocity P-wave (km/s) = 2.97053 6.25953 4.89928
#
# Compressibility (1/GPa) = 0.13170046
#
# Stress axis : x y z
#
# Youngs Moduli (GPa) = 10.49106 76.13826 106.03727
#
# Poissons Ratio (x) = 0.12816 -1.15688
# Poissons Ratio (y) = 0.01766 0.24586
# Poissons Ratio (z) = -0.11446 0.17653
#
# Static dielectric constant tensor:
#      x y z
#    x 1.791660 0.000000 0.078310 
#    y 0.000000 2.150470 0.000000 
#    z 0.078310 0.000000 2.129530 
# 
# From -- ./inp_files/70726.got.cif
#   From: 2010.05.17/outbox.cif.g08.bks.cpg/sg14_36_cif.got.tgz:70726.got - 2010.06.03 17:49:19.
