data_PCOD9241192
_publ_section_title
;
Structure prediction by ZEFSAII (Michael W. Deem and Ramdas Pophale) SiO2 
 PCOD9241192
Probable space group: P 21/C
;
_chemical_formula_sum "Si O2"
_cell_formula_units_Z 28
_cell_length_a 14.993891
_cell_length_b 11.993046
_cell_length_c 8.195590
_cell_angle_alpha 90.000000
_cell_angle_beta 110.019003
_cell_angle_gamma 90.000000
_cell_volume 1384.705559
_symmetry_space_group_name_H-M "P 21/C"
_symmetry_group_IT_number 14
_symmetry_cell_setting 'monoclinic'
loop_
_space_group_symop_operation_xyz
x,y,z
-x,1/2+y,1/2-z
-x,-y,-z
x,1/2-y,1/2+z
loop_
_atom_site_type_symbol
_atom_site_label
_atom_site_fract_x
_atom_site_fract_y
_atom_site_fract_z
Si Si1 0.923361 0.138459 0.168227
Si Si2 0.406853 0.818373 0.429300
Si Si3 0.494451 0.605882 0.292877
Si Si4 0.956422 0.715611 0.532098
Si Si5 0.859824 0.902602 0.260542
Si Si6 0.284907 0.664358 0.552879
Si Si7 0.347512 0.035652 0.879045
O O1 0.956058 0.240308 0.303376
O O2 0.902498 0.026884 0.259424
O O3 0.827537 0.167020 0.008941
O O4 0.006945 0.133440 0.086639
O O5 0.456560 0.714390 0.368684
O O6 0.483824 0.877466 0.592840
O O7 0.329427 0.778843 0.515296
O O8 0.344191 0.873552 0.248042
O O9 0.597890 0.589343 0.433956
O O10 0.429103 0.498860 0.301576
O O11 0.914232 0.827323 0.425098
O O12 0.880058 0.656599 0.599604
O O13 0.747977 0.902887 0.233357
O O14 0.307304 0.580153 0.421511
#
# Coordination Sequence:
#
# PCOD9241192 Si02
#       7
#     4   4   4   4   4   4   4
#     4  10  19  35  55  77 106 137 173 220 261 304
#     4   9  17  30  49  74  99 125 167 210 251 305
#     4   9  18  33  51  72  99 131 164 206 256 306
#     4  10  21  35  55  78 104 140 178 210 261 316
#     4  10  21  37  53  76 107 138 175 218 257 307
#     4   9  17  30  49  73  98 128 166 210 255 301
#     4   9  19  34  50  70 101 133 164 207 258 304
#
# _framework density 20.220904000000001
#
# number of rings (size 3 to 8) (size 9 to 14) (size 15 to 20)
#    0.000    2.571    0.000    1.714    0.000    2.857 
#    0.000    7.143    0.000    0.000    0.000    0.000 
#    0.000    0.000    0.000    0.000    0.000    0.000 
#
# Total GULP energy -155871.924384 kJ/mol
# GULP energy per Si atom -5566.854442 kJ/mol
# Density = 2.017488 g / cm^3
# Si number density = 20.220904 Si / 1000 Ang^3
#
#
#
# Elastic Constant Matrix: (Units=GPa)
#
#
# Indices 1 2 3 4 5 6 
#
# 1 39.5525 2.0303 -2.3952 0.0000 13.8708 0.0000
# 2 2.0303 24.1547 -4.0909 0.0000 9.5262 0.0000
# 3 -2.3952 -4.0909 47.4192 0.0000 8.9546 0.0000
# 4 0.0000 0.0000 0.0000 30.1218 0.0000 1.7714
# 5 13.8708 9.5262 8.9546 0.0000 31.9198 0.0000
# 6 0.0000 0.0000 0.0000 1.7714 0.0000 11.1251
#
#
#
# Elastic Compliance Matrix: (Units=1/GPa)
#
#
# Indices 1 2 3 4 5 6 
#
# 1 0.031071 0.004679 0.005054 0.000000 -0.016316 0.000000
# 2 0.004679 0.049983 0.008183 0.000000 -0.019246 0.000000
# 3 0.005054 0.008183 0.024208 0.000000 -0.011430 0.000000
# 4 0.000000 0.000000 0.000000 0.033512 0.000000 -0.005336
# 5 -0.016316 -0.019246 -0.011430 0.000000 0.047369 0.000000
# 6 0.000000 0.000000 0.000000 -0.005336 0.000000 0.090736
#
#
# Mechanical properties :
#
#
# Convention : Reuss Voigt Hill
#
# Bulk Modulus (GPa) = 7.08746 11.35720 9.22233
# Shear Modulus (GPa) = 17.35641 22.33883 19.84762
#
# Velocity S-wave (km/s) = 2.93292 3.32737 3.13635
# Velocity P-wave (km/s) = 3.87066 4.51559 4.20551
#
# Compressibility (1/GPa) = 0.14109432
#
# Stress axis : x y z
#
# Youngs Moduli (GPa) = 32.18458 20.00694 41.30844
#
# Poissons Ratio (x) = -0.09362 -0.20878
# Poissons Ratio (y) = -0.15060 -0.33802
# Poissons Ratio (z) = -0.16267 -0.16371
#
# Static dielectric constant tensor:
#      x y z
#    x 1.757610 0.000000 0.004830 
#    y 0.000000 1.756380 0.000000 
#    z 0.004830 0.000000 1.731470 
# 
# From -- ./inp_files/12805.got.cif
#   From: 2010.05.17/outbox.cif.g08.bks.cpg/sg14_7_cif.got.tgz:12805.got - 2010.06.03 17:49:19.
