data_PCOD9241481
_publ_section_title
;
Structure prediction by ZEFSAII (Michael W. Deem and Ramdas Pophale) SiO2 
 PCOD9241481
Probable space group: P 21/C
;
_chemical_formula_sum "Si O2"
_cell_formula_units_Z 24
_cell_length_a 12.989193
_cell_length_b 7.699769
_cell_length_c 21.924418
_cell_angle_alpha 90.000000
_cell_angle_beta 156.122828
_cell_angle_gamma 90.000000
_cell_volume 887.573000
_symmetry_space_group_name_H-M "P 21/C"
_symmetry_group_IT_number 14
_symmetry_cell_setting 'monoclinic'
loop_
_space_group_symop_operation_xyz
x,y,z
-x,1/2+y,1/2-z
-x,-y,-z
x,1/2-y,1/2+z
loop_
_atom_site_type_symbol
_atom_site_label
_atom_site_fract_x
_atom_site_fract_y
_atom_site_fract_z
Si Si1 0.115440 0.775224 0.533759
Si Si2 0.900242 0.426898 0.743908
Si Si3 0.711404 0.526822 0.436553
Si Si4 0.811468 0.047801 0.718984
Si Si5 0.770284 0.612027 0.958423
Si Si6 0.653118 0.715884 0.684213
O O1 0.233204 0.584669 0.593491
O O2 0.988926 0.827853 0.528604
O O3 0.884104 0.776590 0.358487
O O4 0.300850 0.926409 0.608545
O O5 0.734555 0.593115 0.672185
O O6 0.041396 0.456436 0.757088
O O7 0.748292 0.244429 0.665607
O O8 0.110322 0.418127 0.911040
O O9 0.591148 0.718346 0.365388
O O10 0.562242 0.392642 0.398419
O O11 0.977293 0.562864 0.613979
O O12 0.608325 0.910420 0.635093
#
# Coordination Sequence:
#
# PCOD9241481 Si02
#       6
#     4   4   4   4   4   4
#     4   9  19  39  59  80 116 147 182 232 281 327
#     4  10  19  36  59  78 110 150 186 226 283 330
#     4  10  21  36  59  85 112 147 189 228 277 335
#     4  10  20  37  59  80 114 150 180 235 282 328
#     4   9  19  37  59  79 109 152 183 224 281 331
#     4  10  21  37  57  86 111 145 191 232 276 334
#
# _framework density 27.040030000000002
#
# number of rings (size 3 to 8) (size 9 to 14) (size 15 to 20)
#    0.000    2.333    1.667    0.500    0.000    2.000 
#    9.000    0.833    0.000    0.000    0.000    0.000 
#    0.000    0.000    0.000    0.000    0.000    0.000 
#
# Total GULP energy -134415.457577 kJ/mol
# GULP energy per Si atom -5600.644066 kJ/mol
# Density = 2.697849 g / cm^3
# Si number density = 27.040030 Si / 1000 Ang^3
#
#
#
# Elastic Constant Matrix: (Units=GPa)
#
#
# Indices 1 2 3 4 5 6 
#
# 1 108.9607 49.8509 5.7669 0.0000 -7.3281 0.0000
# 2 49.8509 178.0540 35.8402 0.0000 -4.2918 0.0000
# 3 5.7669 35.8402 57.4631 0.0000 -15.8293 0.0000
# 4 0.0000 0.0000 0.0000 41.4232 0.0000 4.4174
# 5 -7.3281 -4.2918 -15.8293 0.0000 35.8453 0.0000
# 6 0.0000 0.0000 0.0000 4.4174 0.0000 53.1073
#
#
#
# Elastic Compliance Matrix: (Units=1/GPa)
#
#
# Indices 1 2 3 4 5 6 
#
# 1 0.010765 -0.003289 0.001672 0.000000 0.002545 0.000000
# 2 -0.003289 0.007469 -0.004858 0.000000 -0.001924 0.000000
# 3 0.001672 -0.004858 0.022996 0.000000 0.009915 0.000000
# 4 0.000000 0.000000 0.000000 0.024357 0.000000 -0.002026
# 5 0.002545 -0.001924 0.009915 0.000000 0.032566 0.000000
# 6 0.000000 0.000000 0.000000 -0.002026 0.000000 0.018998
#
#
# Mechanical properties :
#
#
# Convention : Reuss Voigt Hill
#
# Bulk Modulus (GPa) = 35.36075 58.59932 46.98003
# Shear Modulus (GPa) = 35.83506 42.94314 39.38910
#
# Velocity S-wave (km/s) = 3.64436 3.98946 3.82081
# Velocity P-wave (km/s) = 5.55104 6.55282 6.07262
#
# Compressibility (1/GPa) = 0.02827994
#
# Stress axis : x y z
#
# Youngs Moduli (GPa) = 92.89199 133.89217 43.48590
#
# Poissons Ratio (x) = 0.44041 -0.07272
# Poissons Ratio (y) = 0.30555 0.21126
# Poissons Ratio (z) = -0.15535 0.65045
#
# Static dielectric constant tensor:
#      x y z
#    x 2.043250 0.000000 0.023980 
#    y 0.000000 2.176570 0.000000 
#    z 0.023980 0.000000 2.155380 
# 
# From -- ./inp_files/28170.got.cif
#   From: 2010.05.17/outbox.cif.g08.bks.cpg/sg14_15_cif.got.tgz:28170.got - 2010.06.03 17:49:19.
