data_PCOD9241437
_publ_section_title
;
Structure prediction by ZEFSAII (Michael W. Deem and Ramdas Pophale) SiO2 
 PCOD9241437
Probable space group: P 21/C
;
_chemical_formula_sum "Si O2"
_cell_formula_units_Z 24
_cell_length_a 8.457495
_cell_length_b 8.852948
_cell_length_c 16.982667
_cell_angle_alpha 90.000000
_cell_angle_beta 122.104385
_cell_angle_gamma 90.000000
_cell_volume 1077.111408
_symmetry_space_group_name_H-M "P 21/C"
_symmetry_group_IT_number 14
_symmetry_cell_setting 'monoclinic'
loop_
_space_group_symop_operation_xyz
x,y,z
-x,1/2+y,1/2-z
-x,-y,-z
x,1/2-y,1/2+z
loop_
_atom_site_type_symbol
_atom_site_label
_atom_site_fract_x
_atom_site_fract_y
_atom_site_fract_z
Si Si1 0.465096 0.991321 0.887075
Si Si2 0.729693 0.137989 0.315880
Si Si3 0.111771 0.578748 0.736798
Si Si4 0.940251 0.848118 0.361276
Si Si5 0.800952 0.403972 0.553844
Si Si6 0.371826 0.301469 0.809631
O O1 0.377881 0.160852 0.871331
O O2 0.402482 0.938154 0.785547
O O3 0.363497 0.885595 0.924147
O O4 0.686523 0.005683 0.957530
O O5 0.808556 0.286464 0.294834
O O6 0.586860 0.171341 0.347161
O O7 0.889145 0.015106 0.376316
O O8 0.266452 0.455040 0.802987
O O9 0.020112 0.638557 0.792996
O O10 0.958815 0.494842 0.642759
O O11 0.744752 0.759460 0.297216
O O12 0.093040 0.746669 0.445579
#
# Coordination Sequence:
#
# PCOD9241437 Si02
#       6
#     4   4   4   4   4   4
#     4  10  20  38  57  86 116 148 193 247 295 329
#     4  11  20  36  59  85 120 153 193 236 293 354
#     4  11  18  35  60  87 110 153 200 235 280 353
#     4  10  19  36  56  85 111 152 201 229 280 349
#     4  10  20  36  60  85 113 146 197 253 282 334
#     4  10  21  35  56  85 117 153 189 236 290 350
#
# _framework density 22.281818000000001
#
# number of rings (size 3 to 8) (size 9 to 14) (size 15 to 20)
#    0.000    1.667    5.000    3.000    0.000    0.000 
#    0.000   10.833    0.000    0.000    0.000    0.000 
#    0.000    0.000    0.000    0.000    0.000    0.000 
#
# Total GULP energy -133940.219336 kJ/mol
# GULP energy per Si atom -5580.842472 kJ/mol
# Density = 2.223110 g / cm^3
# Si number density = 22.281818 Si / 1000 Ang^3
#
#
#
# Elastic Constant Matrix: (Units=GPa)
#
#
# Indices 1 2 3 4 5 6 
#
# 1 75.2910 34.9013 9.4189 0.0000 28.1006 0.0000
# 2 34.9013 86.0203 11.9661 0.0000 21.7152 0.0000
# 3 9.4189 11.9661 74.7052 0.0000 25.7452 0.0000
# 4 0.0000 0.0000 0.0000 21.0207 0.0000 10.9866
# 5 28.1006 21.7152 25.7452 0.0000 23.7390 0.0000
# 6 0.0000 0.0000 0.0000 10.9866 0.0000 36.3179
#
#
#
# Elastic Compliance Matrix: (Units=1/GPa)
#
#
# Indices 1 2 3 4 5 6 
#
# 1 0.030960 -0.001948 0.013452 0.000000 -0.049455 0.000000
# 2 -0.001948 0.015923 0.003066 0.000000 -0.015585 0.000000
# 3 0.013452 0.003066 0.028188 0.000000 -0.049299 0.000000
# 4 0.000000 0.000000 0.000000 0.056506 0.000000 -0.017094
# 5 -0.049455 -0.015585 -0.049299 0.000000 0.168388 0.000000
# 6 0.000000 0.000000 0.000000 -0.017094 0.000000 0.032706
#
#
# Mechanical properties :
#
#
# Convention : Reuss Voigt Hill
#
# Bulk Modulus (GPa) = 9.59588 38.73212 24.16400
# Shear Modulus (GPa) = 14.78113 28.19753 21.48933
#
# Velocity S-wave (km/s) = 2.57839 3.56124 3.10890
# Velocity P-wave (km/s) = 3.63044 5.85922 4.87394
#
# Compressibility (1/GPa) = 0.10421136
#
# Stress axis : x y z
#
# Youngs Moduli (GPa) = 32.29977 62.80061 35.47566
#
# Poissons Ratio (x) = 0.12235 -0.47722
# Poissons Ratio (y) = 0.06293 -0.10877
# Poissons Ratio (z) = -0.43450 -0.19255
#
# Static dielectric constant tensor:
#      x y z
#    x 1.807990 0.000000 0.007990 
#    y 0.000000 1.877190 0.000000 
#    z 0.007990 0.000000 1.869530 
# 
# From -- ./inp_files/39068.got.cif
#   From: 2010.05.17/outbox.cif.g08.bks.cpg/sg14_20_cif.got.tgz:39068.got - 2010.06.03 17:49:19.
