data_PCOD9241282
_publ_section_title
;
Structure prediction by ZEFSAII (Michael W. Deem and Ramdas Pophale) SiO2 
 PCOD9241282
Probable space group: P 21/C
;
_chemical_formula_sum "Si O2"
_cell_formula_units_Z 32
_cell_length_a 10.265738
_cell_length_b 11.024231
_cell_length_c 24.354420
_cell_angle_alpha 90.000000
_cell_angle_beta 42.635921
_cell_angle_gamma 90.000000
_cell_volume 1866.900967
_symmetry_space_group_name_H-M "P 21/C"
_symmetry_group_IT_number 14
_symmetry_cell_setting 'monoclinic'
loop_
_space_group_symop_operation_xyz
x,y,z
-x,1/2+y,1/2-z
-x,-y,-z
x,1/2-y,1/2+z
loop_
_atom_site_type_symbol
_atom_site_label
_atom_site_fract_x
_atom_site_fract_y
_atom_site_fract_z
Si Si1 0.235008 0.636232 0.917790
Si Si2 0.335348 0.300697 0.176646
Si Si3 0.338263 0.395996 0.051512
Si Si4 0.996237 0.727681 0.640527
Si Si5 0.531739 0.945560 0.903299
Si Si6 0.879452 0.394430 0.510782
Si Si7 0.001768 0.515658 0.090074
Si Si8 0.590247 0.317549 0.444443
O O1 0.460542 0.657433 0.860529
O O2 0.139991 0.770102 0.948716
O O3 0.167574 0.562979 0.885030
O O4 0.143599 0.562552 0.997332
O O5 0.317565 0.356647 0.121407
O O6 0.160477 0.329945 0.270935
O O7 0.337308 0.154656 0.166584
O O8 0.137787 0.440105 0.088593
O O9 0.500000 0.500000 0.000000
O O10 0.429862 0.285768 0.987632
O O11 0.035882 0.646913 0.574334
O O12 0.932627 0.860858 0.640257
O O13 0.202054 0.739177 0.607085
O O14 0.333277 0.946685 0.932172
O O15 0.604915 0.080032 0.893300
O O16 0.475688 0.885402 0.979275
O O17 0.000000 0.500000 0.500000
#
# Coordination Sequence:
#
# PCOD9241282 Si02
#       8
#     4   4   4   4   4   4   4   4
#     4   9  19  36  56  77 105 143 185 224 274 329
#     4  10  20  36  54  77 111 148 180 227 283 326
#     4  11  18  33  60  82 106 144 193 229 261 330
#     4  10  20  35  54  76 113 145 176 226 284 327
#     4   8  17  33  52  72 103 138 172 217 269 314
#     4   9  18  34  55  79 101 141 186 218 261 331
#     4  10  19  35  59  80 106 143 187 232 273 324
#     4   9  17  32  53  79 102 135 179 220 267 324
#
# _framework density 17.140706999999999
#
# number of rings (size 3 to 8) (size 9 to 14) (size 15 to 20)
#    0.000    2.500    2.500    1.500    1.750    1.000 
#    4.500    0.000    0.000    0.000    0.000    0.000 
#    0.000    0.000    0.000    0.000    0.000    0.000 
#
# Total GULP energy -178244.286169 kJ/mol
# GULP energy per Si atom -5570.133943 kJ/mol
# Density = 1.710169 g / cm^3
# Si number density = 17.140707 Si / 1000 Ang^3
#
#
#
# Elastic Constant Matrix: (Units=GPa)
#
#
# Indices 1 2 3 4 5 6 
#
# 1 79.4328 47.2561 14.3359 0.0000 10.5151 0.0000
# 2 47.2561 77.6876 10.9192 0.0000 10.6818 0.0000
# 3 14.3359 10.9192 61.1447 0.0000 0.4222 0.0000
# 4 0.0000 0.0000 0.0000 11.8124 0.0000 1.8567
# 5 10.5151 10.6818 0.4222 0.0000 9.2377 0.0000
# 6 0.0000 0.0000 0.0000 1.8567 0.0000 39.7831
#
#
#
# Elastic Compliance Matrix: (Units=1/GPa)
#
#
# Indices 1 2 3 4 5 6 
#
# 1 0.021068 -0.010851 -0.002924 0.000000 -0.011301 0.000000
# 2 -0.010851 0.021323 -0.001179 0.000000 -0.012251 0.000000
# 3 -0.002924 -0.001179 0.017224 0.000000 0.003905 0.000000
# 4 0.000000 0.000000 0.000000 0.085283 0.000000 -0.003980
# 5 -0.011301 -0.012251 0.003905 0.000000 0.135104 0.000000
# 6 0.000000 0.000000 0.000000 -0.003980 0.000000 0.025322
#
#
# Mechanical properties :
#
#
# Convention : Reuss Voigt Hill
#
# Bulk Modulus (GPa) = 33.66187 40.36528 37.01358
# Shear Modulus (GPa) = 14.48717 21.88356 18.18537
#
# Velocity S-wave (km/s) = 2.91037 3.57697 3.26075
# Velocity P-wave (km/s) = 5.56551 6.37653 5.98477
#
# Compressibility (1/GPa) = 0.02970720
#
# Stress axis : x y z
#
# Youngs Moduli (GPa) = 47.46482 46.89879 58.05918
#
# Poissons Ratio (x) = 0.50888 0.16976
# Poissons Ratio (y) = 0.51502 0.06846
# Poissons Ratio (z) = 0.13878 0.05530
#
# Static dielectric constant tensor:
#      x y z
#    x 1.578010 0.000000 0.011130 
#    y 0.000000 1.604280 0.000000 
#    z 0.011130 0.000000 1.574470 
# 
# From -- ./inp_files/65585.got.cif
#   From: 2010.05.17/outbox.cif.g08.bks.cpg/sg14_33_cif.got.tgz:65585.got - 2010.06.03 17:49:19.
