data_PCOD9241300
_publ_section_title
;
Structure prediction by ZEFSAII (Michael W. Deem and Ramdas Pophale) SiO2 
 PCOD9241300
Probable space group: P 21/C
;
_chemical_formula_sum "Si O2"
_cell_formula_units_Z 30
_cell_length_a 28.644950
_cell_length_b 5.041030
_cell_length_c 13.133379
_cell_angle_alpha 90.000000
_cell_angle_beta 143.812066
_cell_angle_gamma 90.000000
_cell_volume 1119.738080
_symmetry_space_group_name_H-M "P 21/C"
_symmetry_group_IT_number 14
_symmetry_cell_setting 'monoclinic'
loop_
_space_group_symop_operation_xyz
x,y,z
-x,1/2+y,1/2-z
-x,-y,-z
x,1/2-y,1/2+z
loop_
_atom_site_type_symbol
_atom_site_label
_atom_site_fract_x
_atom_site_fract_y
_atom_site_fract_z
Si Si1 0.215300 0.876765 0.475902
Si Si2 0.544758 0.912421 0.857107
Si Si3 0.829115 0.804798 0.366794
Si Si4 0.901611 0.303362 0.382841
Si Si5 0.500000 0.500000 0.500000
Si Si6 0.280003 0.109376 0.180488
Si Si7 0.967645 0.711614 0.747470
Si Si8 0.366682 0.865337 0.171485
O O1 0.128173 0.805932 0.284723
O O2 0.237475 0.679553 0.607738
O O3 0.280310 0.760785 0.510951
O O4 0.241912 0.177641 0.535500
O O5 0.474288 0.101528 0.688201
O O6 0.556436 0.007502 0.993162
O O7 0.610828 0.981219 0.889818
O O8 0.867526 0.577624 0.365618
O O9 0.740419 0.738885 0.247094
O O10 0.879661 0.789883 0.561621
O O11 0.854026 0.073569 0.357463
O O12 0.993232 0.257874 0.573269
O O13 0.432988 0.652341 0.315226
O O14 0.361906 0.048784 0.265808
O O15 0.982597 0.413731 0.736467
#
# Coordination Sequence:
#
# PCOD9241300 Si02
#       8
#     4   4   4   4   2   4   4   4
#     4  10  22  39  56  83 127 160 196 259 322 384
#     4  10  23  42  66  94 125 157 203 261 311 381
#     4  10  19  35  59  88 116 163 221 264 309 394
#     4  10  19  35  59  85 118 167 214 265 327 376
#     4  10  22  46  70  96 120 172 210 254 330 384
#     4  10  22  39  57  84 129 159 198 265 319 374
#     4   8  16  30  52  82 117 154 211 271 314 369
#     4   9  24  41  65  92 131 162 209 267 320 391
#
# _framework density 26.791981
#
# number of rings (size 3 to 8) (size 9 to 14) (size 15 to 20)
#    0.800    1.600    0.000    1.600    3.733    3.200 
#    0.000    1.333    0.000    0.000    0.000    0.000 
#    0.000    0.000    0.000    0.000    0.000    0.000 
#
# Total GULP energy -167018.064207 kJ/mol
# GULP energy per Si atom -5567.268807 kJ/mol
# Density = 2.673100 g / cm^3
# Si number density = 26.791981 Si / 1000 Ang^3
#
#
#
# Elastic Constant Matrix: (Units=GPa)
#
#
# Indices 1 2 3 4 5 6 
#
# 1 112.9031 20.5485 5.4699 0.0000 3.9577 0.0000
# 2 20.5485 106.6058 29.3907 0.0000 -1.5375 0.0000
# 3 5.4699 29.3907 84.8818 0.0000 -7.9898 0.0000
# 4 0.0000 0.0000 0.0000 24.7276 0.0000 0.3739
# 5 3.9577 -1.5375 -7.9898 0.0000 20.7949 0.0000
# 6 0.0000 0.0000 0.0000 0.3739 0.0000 22.9560
#
#
#
# Elastic Compliance Matrix: (Units=1/GPa)
#
#
# Indices 1 2 3 4 5 6 
#
# 1 0.009255 -0.001766 -0.000169 0.000000 -0.001957 0.000000
# 2 -0.001766 0.010715 -0.003621 0.000000 -0.000263 0.000000
# 3 -0.000169 -0.003621 0.013512 0.000000 0.004956 0.000000
# 4 0.000000 0.000000 0.000000 0.040451 0.000000 -0.000659
# 5 -0.001957 -0.000263 0.004956 0.000000 0.050346 0.000000
# 6 0.000000 0.000000 0.000000 -0.000659 0.000000 0.043572
#
#
# Mechanical properties :
#
#
# Convention : Reuss Voigt Hill
#
# Bulk Modulus (GPa) = 44.70106 46.13430 45.41768
# Shear Modulus (GPa) = 26.82107 30.29449 28.55778
#
# Velocity S-wave (km/s) = 3.16743 3.36628 3.26837
# Velocity P-wave (km/s) = 5.48612 5.68911 5.58854
#
# Compressibility (1/GPa) = 0.02237083
#
# Stress axis : x y z
#
# Youngs Moduli (GPa) = 108.04643 93.32531 74.00623
#
# Poissons Ratio (x) = 0.16477 0.01253
# Poissons Ratio (y) = 0.19076 0.26799
# Poissons Ratio (z) = 0.01829 0.33795
#
# Static dielectric constant tensor:
#      x y z
#    x 2.185290 0.000000 0.001480 
#    y 0.000000 2.044620 0.000000 
#    z 0.001480 0.000000 2.150210 
# 
# From -- ./inp_files/52126.got.cif
#   From: 2010.05.17/outbox.cif.g08.bks.cpg/sg14_27_cif.got.tgz:52126.got - 2010.06.03 17:49:19.
