data_PCOD9241129
_publ_section_title
;
Structure prediction by ZEFSAII (Michael W. Deem and Ramdas Pophale) SiO2 
 PCOD9241129
Probable space group: P 21/C
;
_chemical_formula_sum "Si O2"
_cell_formula_units_Z 32
_cell_length_a 9.825141
_cell_length_b 12.327339
_cell_length_c 18.700847
_cell_angle_alpha 90.000000
_cell_angle_beta 138.503018
_cell_angle_gamma 90.000000
_cell_volume 1500.749204
_symmetry_space_group_name_H-M "P 21/C"
_symmetry_group_IT_number 14
_symmetry_cell_setting 'monoclinic'
loop_
_space_group_symop_operation_xyz
x,y,z
-x,1/2+y,1/2-z
-x,-y,-z
x,1/2-y,1/2+z
loop_
_atom_site_type_symbol
_atom_site_label
_atom_site_fract_x
_atom_site_fract_y
_atom_site_fract_z
Si Si1 0.461031 0.005461 0.155411
Si Si2 0.192281 0.463902 0.411792
Si Si3 0.739528 0.189867 0.106511
Si Si4 0.418725 0.337023 0.067629
Si Si5 0.737004 0.053383 0.772511
Si Si6 0.529508 0.262603 0.383247
Si Si7 0.820957 0.722477 0.152140
Si Si8 0.609332 0.218655 0.256118
O O1 0.629141 0.099914 0.230750
O O2 0.341668 0.996070 0.184282
O O3 0.536672 0.885314 0.165028
O O4 0.300388 0.038761 0.031148
O O5 0.294906 0.560831 0.407588
O O6 0.207648 0.348204 0.381036
O O7 0.951093 0.490605 0.328396
O O8 0.549864 0.442509 0.141735
O O9 0.957345 0.209321 0.227411
O O10 0.712438 0.224076 0.012887
O O11 0.574278 0.260165 0.084145
O O12 0.404476 0.272247 0.137652
O O13 0.228401 0.345894 0.939440
O O14 0.768048 0.184141 0.800846
O O15 0.347558 0.202274 0.352804
O O16 0.591776 0.208998 0.333696
#
# Coordination Sequence:
#
# PCOD9241129 Si02
#       8
#     4   4   4   4   4   4   4   4
#     4  10  19  34  60  84 106 148 195 233 282 326
#     4  11  20  34  58  86 109 146 195 237 273 338
#     4  10  22  36  55  83 116 145 189 232 286 327
#     4   9  19  37  58  77 114 152 179 233 281 339
#     4   9  19  34  52  84 115 136 185 240 276 328
#     4   9  22  36  55  87 113 141 193 240 272 338
#     4  11  20  37  58  82 115 151 187 227 289 338
#     4   9  18  36  56  79 110 147 180 235 284 323
#
# _framework density 21.322680999999999
#
# number of rings (size 3 to 8) (size 9 to 14) (size 15 to 20)
#    0.750    1.500    2.500    0.375    3.500    1.500 
#    0.000    1.875    0.000    0.750    0.000    0.000 
#    0.000    0.000    0.000    0.000    0.000    0.000 
#
# Total GULP energy -178419.229602 kJ/mol
# GULP energy per Si atom -5575.600925 kJ/mol
# Density = 2.127415 g / cm^3
# Si number density = 21.322681 Si / 1000 Ang^3
#
#
#
# Elastic Constant Matrix: (Units=GPa)
#
#
# Indices 1 2 3 4 5 6 
#
# 1 52.1205 0.0524 31.6679 0.0000 -16.4418 0.0000
# 2 0.0524 68.9604 23.4186 0.0000 -6.8862 0.0000
# 3 31.6679 23.4186 145.6414 0.0000 -12.9734 0.0000
# 4 0.0000 0.0000 0.0000 30.1348 0.0000 -1.0941
# 5 -16.4418 -6.8862 -12.9734 0.0000 32.9978 0.0000
# 6 0.0000 0.0000 0.0000 -1.0941 0.0000 12.4870
#
#
#
# Elastic Compliance Matrix: (Units=1/GPa)
#
#
# Indices 1 2 3 4 5 6 
#
# 1 0.025888 0.002848 -0.005062 0.000000 0.011503 0.000000
# 2 0.002848 0.015824 -0.002843 0.000000 0.003604 0.000000
# 3 -0.005062 -0.002843 0.008442 0.000000 0.000203 0.000000
# 4 0.000000 0.000000 0.000000 0.033290 0.000000 0.002917
# 5 0.011503 0.003604 0.000203 0.000000 0.036869 0.000000
# 6 0.000000 0.000000 0.000000 0.002917 0.000000 0.080339
#
#
# Mechanical properties :
#
#
# Convention : Reuss Voigt Hill
#
# Bulk Modulus (GPa) = 24.97470 41.88888 33.43179
# Shear Modulus (GPa) = 22.31023 29.22951 25.76987
#
# Velocity S-wave (km/s) = 3.23819 3.70647 3.48022
# Velocity P-wave (km/s) = 5.07142 6.16483 5.64466
#
# Compressibility (1/GPa) = 0.04004052
#
# Stress axis : x y z
#
# Youngs Moduli (GPa) = 38.62786 63.19453 118.45332
#
# Poissons Ratio (x) = -0.17999 0.59965
# Poissons Ratio (y) = -0.11002 0.33673
# Poissons Ratio (z) = 0.19555 0.17965
#
# Static dielectric constant tensor:
#      x y z
#    x 1.787930 0.000000 -0.011230 
#    y 0.000000 1.809520 0.000000 
#    z -0.011230 0.000000 1.808120 
# 
# From -- ./inp_files/67265.got.cif
#   From: 2010.05.17/outbox.cif.g08.bks.cpg/sg14_34_cif.got.tgz:67265.got - 2010.06.03 17:49:19.
