data_PCOD9241905
_publ_section_title
;
Structure prediction by ZEFSAII (Michael W. Deem and Ramdas Pophale) SiO2 
 PCOD9241905
Probable space group: P 21/C
;
_chemical_formula_sum "Si O2"
_cell_formula_units_Z 32
_cell_length_a 10.912161
_cell_length_b 14.273644
_cell_length_c 8.196602
_cell_angle_alpha 90.000000
_cell_angle_beta 86.777599
_cell_angle_gamma 90.000000
_cell_volume 1274.653818
_symmetry_space_group_name_H-M "P 21/C"
_symmetry_group_IT_number 14
_symmetry_cell_setting 'monoclinic'
loop_
_space_group_symop_operation_xyz
x,y,z
-x,1/2+y,1/2-z
-x,-y,-z
x,1/2-y,1/2+z
loop_
_atom_site_type_symbol
_atom_site_label
_atom_site_fract_x
_atom_site_fract_y
_atom_site_fract_z
Si Si1 0.187811 0.050617 0.375282
Si Si2 0.268382 0.776141 0.548900
Si Si3 0.233734 0.141676 0.870083
Si Si4 0.495546 0.847753 0.053088
Si Si5 0.532989 0.971866 0.733617
Si Si6 0.735863 0.461277 0.807530
Si Si7 0.892088 0.715707 0.930725
Si Si8 0.138927 0.860405 0.256643
O O1 0.332609 0.061643 0.329134
O O2 0.122754 0.149365 0.407787
O O3 0.180297 0.001968 0.554238
O O4 0.132920 0.972828 0.258516
O O5 0.406152 0.739682 0.550651
O O6 0.241228 0.851266 0.694373
O O7 0.239940 0.829865 0.384657
O O8 0.181900 0.687161 0.587272
O O9 0.364687 0.177536 0.921126
O O10 0.210198 0.184438 0.692899
O O11 0.242580 0.029557 0.846641
O O12 0.132744 0.180393 0.002387
O O13 0.455533 0.923760 0.192214
O O14 0.492499 0.903656 0.884046
O O15 0.409205 0.971625 0.634280
O O16 0.016484 0.687197 0.833293
#
# Coordination Sequence:
#
# PCOD9241905 Si02
#       8
#     4   4   4   4   4   4   4   4
#     4  10  21  38  63  90 124 170 208 258 318 372
#     4  11  22  40  65  93 127 167 206 259 320 376
#     4  10  24  43  62  93 126 161 213 264 318 372
#     4  10  22  37  63  94 129 158 203 266 319 381
#     4  10  19  38  59  92 129 162 203 255 320 377
#     4   9  21  38  61  91 133 164 206 257 319 385
#     4  11  24  42  64  87 125 169 215 262 308 374
#     4  11  23  42  63  91 124 167 217 256 309 378
#
# _framework density 25.104854
#
# number of rings (size 3 to 8) (size 9 to 14) (size 15 to 20)
#    0.000    1.750    1.250    2.250    3.500    1.000 
#    0.000    0.625    0.000    0.000    0.000    0.000 
#    0.000    0.000    0.000    0.000    0.000    0.000 
#
# Total GULP energy -179053.943006 kJ/mol
# GULP energy per Si atom -5595.435719 kJ/mol
# Density = 2.504771 g / cm^3
# Si number density = 25.104854 Si / 1000 Ang^3
#
#
#
# Elastic Constant Matrix: (Units=GPa)
#
#
# Indices 1 2 3 4 5 6 
#
# 1 56.7172 18.8924 1.4494 0.0000 -2.3089 0.0000
# 2 18.8924 96.5111 12.0822 0.0000 4.1202 0.0000
# 3 1.4494 12.0822 38.0356 0.0000 -5.6835 0.0000
# 4 0.0000 0.0000 0.0000 34.0558 0.0000 -11.5618
# 5 -2.3089 4.1202 -5.6835 0.0000 23.1743 0.0000
# 6 0.0000 0.0000 0.0000 -11.5618 0.0000 23.3484
#
#
#
# Elastic Compliance Matrix: (Units=1/GPa)
#
#
# Indices 1 2 3 4 5 6 
#
# 1 0.019045 -0.003969 0.000959 0.000000 0.002838 0.000000
# 2 -0.003969 0.011804 -0.004122 0.000000 -0.003505 0.000000
# 3 0.000959 -0.004122 0.028741 0.000000 0.007877 0.000000
# 4 0.000000 0.000000 0.000000 0.035298 0.000000 0.017479
# 5 0.002838 -0.003505 0.007877 0.000000 0.045989 0.000000
# 6 0.000000 0.000000 0.000000 0.017479 0.000000 0.051485
#
#
# Mechanical properties :
#
#
# Convention : Reuss Voigt Hill
#
# Bulk Modulus (GPa) = 22.06265 28.45688 25.25976
# Shear Modulus (GPa) = 22.54954 26.70503 24.62729
#
# Velocity S-wave (km/s) = 3.00027 3.26504 3.13545
# Velocity P-wave (km/s) = 4.56174 5.05706 4.81577
#
# Compressibility (1/GPa) = 0.04532548
#
# Stress axis : x y z
#
# Youngs Moduli (GPa) = 52.50846 84.71563 34.79335
#
# Poissons Ratio (x) = 0.33626 -0.03338
# Poissons Ratio (y) = 0.20842 0.14342
# Poissons Ratio (z) = -0.05037 0.34921
#
# Static dielectric constant tensor:
#      x y z
#    x 1.976130 0.000000 0.041730 
#    y 0.000000 2.050140 0.000000 
#    z 0.041730 0.000000 2.030960 
# 
# From -- ./inp_files/13339.got.cif
#   From: 2010.05.17/outbox.cif.g08.bks.cpg/sg14_7_cif.got.tgz:13339.got - 2010.06.03 17:49:19.
