data_PCOD9241490
_publ_section_title
;
Structure prediction by ZEFSAII (Michael W. Deem and Ramdas Pophale) SiO2 
 PCOD9241490
Probable space group: P 21/C
;
_chemical_formula_sum "Si O2"
_cell_formula_units_Z 24
_cell_length_a 10.045297
_cell_length_b 12.755487
_cell_length_c 17.197441
_cell_angle_alpha 90.000000
_cell_angle_beta 148.484516
_cell_angle_gamma 90.000000
_cell_volume 1151.861395
_symmetry_space_group_name_H-M "P 21/C"
_symmetry_group_IT_number 14
_symmetry_cell_setting 'monoclinic'
loop_
_space_group_symop_operation_xyz
x,y,z
-x,1/2+y,1/2-z
-x,-y,-z
x,1/2-y,1/2+z
loop_
_atom_site_type_symbol
_atom_site_label
_atom_site_fract_x
_atom_site_fract_y
_atom_site_fract_z
Si Si1 0.062120 0.120906 0.360592
Si Si2 0.464397 0.822707 0.506576
Si Si3 0.662274 0.415422 0.533891
Si Si4 0.455879 0.506500 0.137039
Si Si5 0.242021 0.036684 0.069845
Si Si6 0.137547 0.832576 0.206547
O O1 0.313066 0.171981 0.446599
O O2 0.919444 0.081833 0.212548
O O3 0.875934 0.206761 0.306755
O O4 0.174912 0.036982 0.477280
O O5 0.442350 0.702589 0.520032
O O6 0.510921 0.907259 0.597396
O O7 0.202395 0.850237 0.329988
O O8 0.500000 0.500000 0.500000
O O9 0.692104 0.449618 0.460319
O O10 0.526852 0.555234 0.255703
O O11 0.646712 0.405547 0.225641
O O12 0.131387 0.130248 0.961958
O O13 0.000000 0.000000 0.000000
#
# Coordination Sequence:
#
# PCOD9241490 Si02
#       6
#     4   4   4   4   4   4
#     4  10  19  36  59  84 118 157 197 249 300 356
#     4  10  20  34  57  85 116 158 204 245 293 360
#     4  11  23  39  61  90 119 156 205 252 297 358
#     4  10  20  35  56  85 116 154 200 242 299 366
#     4  10  20  37  59  85 120 156 192 244 304 361
#     4   9  18  33  56  81 109 153 200 240 288 353
#
# _framework density 20.835842
#
# number of rings (size 3 to 8) (size 9 to 14) (size 15 to 20)
#    0.000    2.000    0.000    6.000    0.000    2.667 
#    0.000    4.167    0.000    0.000    0.000    0.000 
#    0.000    0.000    0.000    0.000    0.000    0.000 
#
# Total GULP energy -133633.526718 kJ/mol
# GULP energy per Si atom -5568.063613 kJ/mol
# Density = 2.078842 g / cm^3
# Si number density = 20.835842 Si / 1000 Ang^3
#
#
#
# Elastic Constant Matrix: (Units=GPa)
#
#
# Indices 1 2 3 4 5 6 
#
# 1 57.9735 35.3331 28.9324 0.0000 -12.4647 0.0000
# 2 35.3331 62.8365 24.3002 0.0000 -3.5678 0.0000
# 3 28.9324 24.3002 134.6539 0.0000 -28.4465 0.0000
# 4 0.0000 0.0000 0.0000 29.9484 0.0000 6.8932
# 5 -12.4647 -3.5678 -28.4465 0.0000 23.7112 0.0000
# 6 0.0000 0.0000 0.0000 6.8932 0.0000 25.6716
#
#
#
# Elastic Compliance Matrix: (Units=1/GPa)
#
#
# Indices 1 2 3 4 5 6 
#
# 1 0.029992 -0.015776 -0.001029 0.000000 0.012159 0.000000
# 2 -0.015776 0.025448 -0.002874 0.000000 -0.007913 0.000000
# 3 -0.001029 -0.002874 0.010663 0.000000 0.011819 0.000000
# 4 0.000000 0.000000 0.000000 0.035590 0.000000 -0.009557
# 5 0.012159 -0.007913 0.011819 0.000000 0.061555 0.000000
# 6 0.000000 0.000000 0.000000 -0.009557 0.000000 0.041520
#
#
# Mechanical properties :
#
#
# Convention : Reuss Voigt Hill
#
# Bulk Modulus (GPa) = 37.39104 48.06615 42.72859
# Shear Modulus (GPa) = 19.75964 26.99278 23.37621
#
# Velocity S-wave (km/s) = 3.08287 3.60321 3.35315
# Velocity P-wave (km/s) = 5.53684 6.35845 5.96181
#
# Compressibility (1/GPa) = 0.02674437
#
# Stress axis : x y z
#
# Youngs Moduli (GPa) = 33.34218 39.29632 93.78185
#
# Poissons Ratio (x) = 0.61996 0.09646
# Poissons Ratio (y) = 0.52602 0.26954
# Poissons Ratio (z) = 0.03429 0.11294
#
# Static dielectric constant tensor:
#      x y z
#    x 1.813780 0.000000 0.083410 
#    y 0.000000 1.837990 0.000000 
#    z 0.083410 0.000000 1.874380 
# 
# From -- ./inp_files/29194.got.cif
#   From: 2010.05.17/outbox.cif.g08.bks.cpg/sg14_15_cif.got.tgz:29194.got - 2010.06.03 17:49:19.
