data_PCOD9241769
_publ_section_title
;
Structure prediction by ZEFSAII (Michael W. Deem and Ramdas Pophale) SiO2 
 PCOD9241769
Probable space group: P 21/C
;
_chemical_formula_sum "Si O2"
_cell_formula_units_Z 28
_cell_length_a 22.688531
_cell_length_b 9.825909
_cell_length_c 13.543563
_cell_angle_alpha 90.000000
_cell_angle_beta 158.952849
_cell_angle_gamma 90.000000
_cell_volume 1084.354087
_symmetry_space_group_name_H-M "P 21/C"
_symmetry_group_IT_number 14
_symmetry_cell_setting 'monoclinic'
loop_
_space_group_symop_operation_xyz
x,y,z
-x,1/2+y,1/2-z
-x,-y,-z
x,1/2-y,1/2+z
loop_
_atom_site_type_symbol
_atom_site_label
_atom_site_fract_x
_atom_site_fract_y
_atom_site_fract_z
Si Si1 0.294125 0.581511 0.653132
Si Si2 0.291738 0.152631 0.635825
Si Si3 0.820573 0.423151 0.838155
Si Si4 0.933452 0.849266 0.118417
Si Si5 0.513348 0.868639 0.664431
Si Si6 0.988600 0.307399 0.925435
Si Si7 0.489021 0.559674 0.344863
O O1 0.204702 0.454999 0.565394
O O2 0.422244 0.515590 0.775625
O O3 0.161611 0.661580 0.383569
O O4 0.372143 0.663713 0.864768
O O5 0.123891 0.205565 0.421530
O O6 0.340719 0.264203 0.630454
O O7 0.419285 0.149433 0.928532
O O8 0.328945 0.010562 0.640070
O O9 0.905849 0.311063 0.902232
O O10 0.626487 0.441734 0.539744
O O11 0.903632 0.402449 0.073733
O O12 0.884955 0.566135 0.889438
O O13 0.935840 0.826177 0.005102
O O14 0.463531 0.871184 0.699843
#
# Coordination Sequence:
#
# PCOD9241769 Si02
#       7
#     4   4   4   4   4   4   4
#     4   9  20  36  57  93 119 161 209 257 298 371
#     4  10  24  39  61  93 125 165 200 256 314 367
#     4  10  21  37  64  91 114 163 214 248 306 377
#     4  10  21  37  62  90 126 165 201 259 310 364
#     4  10  21  39  62  87 125 159 208 258 311 361
#     4  10  19  37  62  84 120 160 209 252 306 369
#     4  11  22  43  63  94 126 162 212 255 308 379
#
# _framework density 25.821825
#
# number of rings (size 3 to 8) (size 9 to 14) (size 15 to 20)
#    0.000    2.000    2.857    0.000    4.000    4.571 
#    0.000    0.000    0.000    2.571    0.000    0.000 
#    0.000    0.000    0.000    0.000    0.000    0.000 
#
# Total GULP energy -156656.375343 kJ/mol
# GULP energy per Si atom -5594.870548 kJ/mol
# Density = 2.576305 g / cm^3
# Si number density = 25.821825 Si / 1000 Ang^3
#
#
#
# Elastic Constant Matrix: (Units=GPa)
#
#
# Indices 1 2 3 4 5 6 
#
# 1 155.8743 30.9108 17.6337 0.0000 -16.5817 0.0000
# 2 30.9108 46.0716 4.2084 0.0000 -6.5170 0.0000
# 3 17.6337 4.2084 44.1852 0.0000 -1.3863 0.0000
# 4 0.0000 0.0000 0.0000 29.5806 0.0000 -3.3646
# 5 -16.5817 -6.5170 -1.3863 0.0000 41.9790 0.0000
# 6 0.0000 0.0000 0.0000 -3.3646 0.0000 36.0087
#
#
#
# Elastic Compliance Matrix: (Units=1/GPa)
#
#
# Indices 1 2 3 4 5 6 
#
# 1 0.007896 -0.004732 -0.002628 0.000000 0.002297 0.000000
# 2 -0.004732 0.025208 -0.000449 0.000000 0.002029 0.000000
# 3 -0.002628 -0.000449 0.023713 0.000000 -0.000325 0.000000
# 4 0.000000 0.000000 0.000000 0.034169 0.000000 0.003193
# 5 0.002297 0.002029 -0.000325 0.000000 0.025033 0.000000
# 6 0.000000 0.000000 0.000000 0.003193 0.000000 0.028069
#
#
# Mechanical properties :
#
#
# Convention : Reuss Voigt Hill
#
# Bulk Modulus (GPa) = 24.27241 39.07075 31.67158
# Shear Modulus (GPa) = 28.82832 34.40555 31.61694
#
# Velocity S-wave (km/s) = 3.34493 3.65419 3.50298
# Velocity P-wave (km/s) = 4.93340 5.74177 5.35287
#
# Compressibility (1/GPa) = 0.04119903
#
# Stress axis : x y z
#
# Youngs Moduli (GPa) = 126.65306 39.66925 42.17018
#
# Poissons Ratio (x) = 0.18773 0.11083
# Poissons Ratio (y) = 0.59937 0.01892
# Poissons Ratio (z) = 0.33287 0.01780
#
# Static dielectric constant tensor:
#      x y z
#    x 2.040600 0.000000 0.031400 
#    y 0.000000 2.151020 0.000000 
#    z 0.031400 0.000000 2.011490 
# 
# From -- ./inp_files/35146.got.cif
#   From: 2010.05.17/outbox.cif.g08.bks.cpg/sg14_18_cif.got.tgz:35146.got - 2010.06.03 17:49:19.
