data_PCOD9241811
_publ_section_title
;
Structure prediction by ZEFSAII (Michael W. Deem and Ramdas Pophale) SiO2 
 PCOD9241811
Probable space group: P 21/C
;
_chemical_formula_sum "Si O2"
_cell_formula_units_Z 28
_cell_length_a 9.773405
_cell_length_b 9.401373
_cell_length_c 15.101996
_cell_angle_alpha 90.000000
_cell_angle_beta 92.995362
_cell_angle_gamma 90.000000
_cell_volume 1385.727315
_symmetry_space_group_name_H-M "P 21/C"
_symmetry_group_IT_number 14
_symmetry_cell_setting 'monoclinic'
loop_
_space_group_symop_operation_xyz
x,y,z
-x,1/2+y,1/2-z
-x,-y,-z
x,1/2-y,1/2+z
loop_
_atom_site_type_symbol
_atom_site_label
_atom_site_fract_x
_atom_site_fract_y
_atom_site_fract_z
Si Si1 0.140206 0.931077 0.538272
Si Si2 0.237848 0.942979 0.859127
Si Si3 0.473136 0.973695 0.102156
Si Si4 0.806775 0.380147 0.438195
Si Si5 0.248552 0.404559 0.698790
Si Si6 0.891775 0.894371 0.297036
Si Si7 0.215818 0.618664 0.850270
O O1 0.116094 0.767866 0.566635
O O2 0.234595 0.921271 0.454232
O O3 0.181377 0.024739 0.623392
O O4 0.000000 0.000000 0.500000
O O5 0.376190 0.036477 0.853379
O O6 0.268323 0.778367 0.836771
O O7 0.128858 0.008931 0.789433
O O8 0.192706 0.935312 0.960785
O O9 0.390502 0.100711 0.148321
O O10 0.353476 0.854442 0.096951
O O11 0.500000 0.000000 0.000000
O O12 0.846697 0.504498 0.372481
O O13 0.178052 0.257637 0.717994
O O14 0.272905 0.501342 0.785657
O O15 0.051810 0.876556 0.325793
#
# Coordination Sequence:
#
# PCOD9241811 Si02
#       7
#     4   4   4   4   4   4   4
#     4   9  19  37  58  82 118 160 195 241 293 351
#     4  10  19  37  64  80 117 157 198 246 299 346
#     4   8  18  38  63  83 113 153 203 242 292 356
#     4   8  18  37  59  84 111 160 195 239 297 353
#     4  10  21  36  58  87 119 149 202 240 302 352
#     4  11  22  35  55  91 121 153 201 250 294 361
#     4  10  21  38  57  82 121 162 196 243 302 361
#
# _framework density 20.205995000000001
#
# number of rings (size 3 to 8) (size 9 to 14) (size 15 to 20)
#    0.857    1.714    0.000    1.714    0.000    3.429 
#    0.000   11.429    0.000    3.429    0.000    0.000 
#    0.000    0.000    0.000    0.000    0.000    0.000 
#
# Total GULP energy -155872.080209 kJ/mol
# GULP energy per Si atom -5566.860007 kJ/mol
# Density = 2.016001 g / cm^3
# Si number density = 20.205995 Si / 1000 Ang^3
#
#
#
# Elastic Constant Matrix: (Units=GPa)
#
#
# Indices 1 2 3 4 5 6 
#
# 1 46.6920 0.1952 7.7693 0.0000 -1.2227 0.0000
# 2 0.1952 94.1328 43.3684 0.0000 -1.9991 0.0000
# 3 7.7693 43.3684 92.0384 0.0000 1.3949 0.0000
# 4 0.0000 0.0000 0.0000 8.3542 0.0000 -9.2483
# 5 -1.2227 -1.9991 1.3949 0.0000 26.2002 0.0000
# 6 0.0000 0.0000 0.0000 -9.2483 0.0000 8.9567
#
#
#
# Elastic Compliance Matrix: (Units=1/GPa)
#
#
# Indices 1 2 3 4 5 6 
#
# 1 0.021838 0.001071 -0.002367 0.000000 0.001227 0.000000
# 2 0.001071 0.013671 -0.006554 0.000000 0.001442 0.000000
# 3 -0.002367 -0.006554 0.014174 0.000000 -0.001365 0.000000
# 4 0.000000 0.000000 0.000000 -0.836756 0.000000 -0.863991
# 5 0.001227 0.001442 -0.001365 0.000000 0.038408 0.000000
# 6 0.000000 0.000000 0.000000 -0.863991 0.000000 -0.780464
#
#
# Mechanical properties :
#
#
# Convention : Reuss Voigt Hill
#
# Bulk Modulus (GPa) = 29.42564 37.28101 33.35332
# Shear Modulus (GPa) = -3.32867 20.80424 8.73778
#
# Velocity S-wave (km/s) = -1.28489 3.21223 2.08176
# Velocity P-wave (km/s) = 3.52040 5.67877 4.72449
#
# Compressibility (1/GPa) = 0.03398397
#
# Stress axis : x y z
#
# Youngs Moduli (GPa) = 45.79084 73.14594 70.55253
#
# Poissons Ratio (x) = -0.07835 0.16698
# Poissons Ratio (y) = -0.04905 0.46241
# Poissons Ratio (z) = 0.10838 0.47941
#
# Static dielectric constant tensor:
#      x y z
#    x 1.788200 0.000000 -0.006100 
#    y 0.000000 1.793870 0.000000 
#    z -0.006100 0.000000 1.752220 
# 
# From -- ./inp_files/43144.got.cif
#   From: 2010.05.17/outbox.cif.g08.bks.cpg/sg14_22_cif.got.tgz:43144.got - 2010.06.03 17:49:19.
