data_PCOD9241904
_publ_section_title
;
Structure prediction by ZEFSAII (Michael W. Deem and Ramdas Pophale) SiO2 
 PCOD9241904
Probable space group: P 21/C
;
_chemical_formula_sum "Si O2"
_cell_formula_units_Z 32
_cell_length_a 23.028363
_cell_length_b 5.280156
_cell_length_c 14.014164
_cell_angle_alpha 90.000000
_cell_angle_beta 129.460902
_cell_angle_gamma 90.000000
_cell_volume 1315.610104
_symmetry_space_group_name_H-M "P 21/C"
_symmetry_group_IT_number 14
_symmetry_cell_setting 'monoclinic'
loop_
_space_group_symop_operation_xyz
x,y,z
-x,1/2+y,1/2-z
-x,-y,-z
x,1/2-y,1/2+z
loop_
_atom_site_type_symbol
_atom_site_label
_atom_site_fract_x
_atom_site_fract_y
_atom_site_fract_z
Si Si1 0.864898 0.311116 0.769064
Si Si2 0.743663 0.716696 0.699512
Si Si3 0.777584 0.371213 0.012577
Si Si4 0.352840 0.360705 0.231242
Si Si5 0.047913 0.125835 0.798090
Si Si6 0.860915 0.458966 0.439897
Si Si7 0.499928 0.071946 0.192118
Si Si8 0.341753 0.462749 0.549013
O O1 0.795579 0.467525 0.743210
O O2 0.835182 0.100771 0.661508
O O3 0.907476 0.516213 0.747194
O O4 0.906229 0.186993 0.903258
O O5 0.669299 0.684998 0.684757
O O6 0.708295 0.749322 0.557303
O O7 0.794538 0.916688 0.808173
O O8 0.727638 0.558218 0.897894
O O9 0.826151 0.225446 0.983054
O O10 0.713762 0.191866 0.991712
O O11 0.425100 0.538725 0.292153
O O12 0.368550 0.118977 0.181893
O O13 0.992617 0.890062 0.763850
O O14 0.096331 0.155253 0.946305
O O15 0.487650 0.362875 0.210581
O O16 0.417853 0.981522 0.070769
#
# Coordination Sequence:
#
# PCOD9241904 Si02
#       8
#     4   4   4   4   4   4   4   4
#     4  10  24  41  68  98 130 174 219 272 324 396
#     4  11  23  38  66 100 126 174 228 275 334 386
#     4  10  19  38  59  91 126 167 218 279 330 381
#     4  11  20  36  63  86 133 172 226 277 340 389
#     4  11  29  50  73 103 140 178 212 264 329 402
#     4  11  23  42  70  98 134 168 226 268 333 393
#     4  10  21  37  62  89 129 186 225 272 342 398
#     4  10  21  38  57  88 131 170 227 276 333 389
#
# _framework density 24.323315999999998
#
# number of rings (size 3 to 8) (size 9 to 14) (size 15 to 20)
#    0.000    1.500    3.750    0.750    3.500    1.500 
#    0.000    0.000    0.000    4.500    0.000    0.000 
#    0.000    0.000    0.000    0.000    0.000    0.000 
#
# Total GULP energy -178401.431421 kJ/mol
# GULP energy per Si atom -5575.044732 kJ/mol
# Density = 2.426796 g / cm^3
# Si number density = 24.323316 Si / 1000 Ang^3
#
#
#
# Elastic Constant Matrix: (Units=GPa)
#
#
# Indices 1 2 3 4 5 6 
#
# 1 55.1587 22.9506 24.1993 0.0000 3.8339 0.0000
# 2 22.9506 45.6991 1.5015 0.0000 0.2507 0.0000
# 3 24.1993 1.5015 78.2650 0.0000 -20.4727 0.0000
# 4 0.0000 0.0000 0.0000 14.0150 0.0000 8.8403
# 5 3.8339 0.2507 -20.4727 0.0000 29.9501 0.0000
# 6 0.0000 0.0000 0.0000 8.8403 0.0000 28.4846
#
#
#
# Elastic Compliance Matrix: (Units=1/GPa)
#
#
# Indices 1 2 3 4 5 6 
#
# 1 0.030618 -0.014902 -0.012389 0.000000 -0.012263 0.000000
# 2 -0.014902 0.029157 0.005460 0.000000 0.005396 0.000000
# 3 -0.012389 0.005460 0.020587 0.000000 0.015613 0.000000
# 4 0.000000 0.000000 0.000000 0.088720 0.000000 -0.027535
# 5 -0.012263 0.005396 0.015613 0.000000 0.045586 0.000000
# 6 0.000000 0.000000 0.000000 -0.027535 0.000000 0.043652
#
#
# Mechanical properties :
#
#
# Convention : Reuss Voigt Hill
#
# Bulk Modulus (GPa) = 27.24846 30.71398 28.98122
# Shear Modulus (GPa) = 15.91264 23.18803 19.55033
#
# Velocity S-wave (km/s) = 2.56053 3.09095 2.83816
# Velocity P-wave (km/s) = 4.46864 5.03919 4.76246
#
# Compressibility (1/GPa) = 0.03669933
#
# Stress axis : x y z
#
# Youngs Moduli (GPa) = 32.66088 34.29663 48.57465
#
# Poissons Ratio (x) = 0.51110 0.60178
# Poissons Ratio (y) = 0.48672 -0.26520
# Poissons Ratio (z) = 0.40463 -0.18725
#
# Static dielectric constant tensor:
#      x y z
#    x 2.020620 0.000000 0.041860 
#    y 0.000000 2.023540 0.000000 
#    z 0.041860 0.000000 1.969790 
# 
# From -- ./inp_files/51004.got.cif
#   From: 2010.05.17/outbox.cif.g08.bks.cpg/sg14_26_cif.got.tgz:51004.got - 2010.06.03 17:49:19.
