data_PCOD9241393
_publ_section_title
;
Structure prediction by ZEFSAII (Michael W. Deem and Ramdas Pophale) SiO2 
 PCOD9241393
Probable space group: P 21/C
;
_chemical_formula_sum "Si O2"
_cell_formula_units_Z 24
_cell_length_a 7.110196
_cell_length_b 23.825545
_cell_length_c 5.549034
_cell_angle_alpha 90.000000
_cell_angle_beta 102.896247
_cell_angle_gamma 90.000000
_cell_volume 916.318696
_symmetry_space_group_name_H-M "P 21/C"
_symmetry_group_IT_number 14
_symmetry_cell_setting 'monoclinic'
loop_
_space_group_symop_operation_xyz
x,y,z
-x,1/2+y,1/2-z
-x,-y,-z
x,1/2-y,1/2+z
loop_
_atom_site_type_symbol
_atom_site_label
_atom_site_fract_x
_atom_site_fract_y
_atom_site_fract_z
Si Si1 0.975625 0.238393 0.276954
Si Si2 0.705955 0.482957 0.447905
Si Si3 0.452274 0.780235 0.285007
Si Si4 0.901856 0.554695 0.855157
Si Si5 0.802128 0.380821 0.806291
Si Si6 0.504881 0.903042 0.433488
O O1 0.081233 0.244834 0.562593
O O2 0.781752 0.275782 0.251291
O O3 0.889224 0.176132 0.234702
O O4 0.500000 0.500000 0.500000
O O5 0.835529 0.535989 0.568113
O O6 0.798166 0.430297 0.612791
O O7 0.636882 0.454758 0.179919
O O8 0.512509 0.752910 0.559911
O O9 0.500100 0.846175 0.274395
O O10 0.717588 0.572553 0.962356
O O11 0.000000 0.500000 0.000000
O O12 0.055636 0.603569 0.931813
O O13 0.583278 0.380446 0.842363
#
# Coordination Sequence:
#
# PCOD9241393 Si02
#       6
#     4   4   4   4   4   4
#     4  10  19  35  63  94 127 167 213 262 321 393
#     4   9  20  37  59  86 119 157 212 260 309 378
#     4  10  19  35  63  97 127 164 217 264 316 395
#     4   9  22  41  57  92 125 155 219 273 309 390
#     4  11  21  37  65  86 125 167 205 262 329 381
#     4  11  21  37  67  87 121 173 206 260 331 381
#
# _framework density 26.191763000000002
#
# number of rings (size 3 to 8) (size 9 to 14) (size 15 to 20)
#    0.000    2.000    3.333    2.000    0.000    6.667 
#    0.000    6.667    0.000    0.000    0.000    0.000 
#    0.000    0.000    0.000    0.000    0.000    0.000 
#
# Total GULP energy -134057.854869 kJ/mol
# GULP energy per Si atom -5585.743953 kJ/mol
# Density = 2.613215 g / cm^3
# Si number density = 26.191763 Si / 1000 Ang^3
#
#
#
# Elastic Constant Matrix: (Units=GPa)
#
#
# Indices 1 2 3 4 5 6 
#
# 1 103.9726 20.8829 31.2126 0.0000 -7.5083 0.0000
# 2 20.8829 139.8366 36.7631 0.0000 8.4272 0.0000
# 3 31.2126 36.7631 127.5645 0.0000 -9.2931 0.0000
# 4 0.0000 0.0000 0.0000 45.0891 0.0000 -1.2385
# 5 -7.5083 8.4272 -9.2931 0.0000 35.9979 0.0000
# 6 0.0000 0.0000 0.0000 -1.2385 0.0000 6.5423
#
#
#
# Elastic Compliance Matrix: (Units=1/GPa)
#
#
# Indices 1 2 3 4 5 6 
#
# 1 0.010627 -0.001144 -0.002130 0.000000 0.001934 0.000000
# 2 -0.001144 0.008075 -0.002245 0.000000 -0.002708 0.000000
# 3 -0.002130 -0.002245 0.009186 0.000000 0.002453 0.000000
# 4 0.000000 0.000000 0.000000 0.022294 0.000000 0.004220
# 5 0.001934 -0.002708 0.002453 0.000000 0.029450 0.000000
# 6 0.000000 0.000000 0.000000 0.004220 0.000000 0.153651
#
#
# Mechanical properties :
#
#
# Convention : Reuss Voigt Hill
#
# Bulk Modulus (GPa) = 59.34084 61.01012 60.17548
# Shear Modulus (GPa) = 20.00508 36.36019 28.18263
#
# Velocity S-wave (km/s) = 2.76668 3.72994 3.28382
# Velocity P-wave (km/s) = 5.73685 6.47257 6.11578
#
# Compressibility (1/GPa) = 0.01685180
#
# Stress axis : x y z
#
# Youngs Moduli (GPa) = 94.10328 123.83340 108.86319
#
# Poissons Ratio (x) = 0.14162 0.23184
# Poissons Ratio (y) = 0.10762 0.24437
# Poissons Ratio (z) = 0.20040 0.27797
#
# Static dielectric constant tensor:
#      x y z
#    x 2.056100 0.000000 -0.003330 
#    y 0.000000 1.989820 0.000000 
#    z -0.003330 0.000000 2.236550 
# 
# From -- ./inp_files/1676.got.cif
#   From: 2010.05.17/outbox.cif.g08.bks.cpg/sg14_1_cif.got.tgz:1676.got - 2010.06.03 17:49:19.
