data_PCOD9241941
_publ_section_title
;
Structure prediction by ZEFSAII (Michael W. Deem and Ramdas Pophale) SiO2 
 PCOD9241941
Probable space group: P 21/C
;
_chemical_formula_sum "Si O2"
_cell_formula_units_Z 32
_cell_length_a 23.042544
_cell_length_b 11.568689
_cell_length_c 12.664696
_cell_angle_alpha 90.000000
_cell_angle_beta 27.294299
_cell_angle_gamma 90.000000
_cell_volume 1548.126995
_symmetry_space_group_name_H-M "P 21/C"
_symmetry_group_IT_number 14
_symmetry_cell_setting 'monoclinic'
loop_
_space_group_symop_operation_xyz
x,y,z
-x,1/2+y,1/2-z
-x,-y,-z
x,1/2-y,1/2+z
loop_
_atom_site_type_symbol
_atom_site_label
_atom_site_fract_x
_atom_site_fract_y
_atom_site_fract_z
Si Si1 0.611356 0.120566 0.919571
Si Si2 0.844606 0.513404 0.107543
Si Si3 0.211598 0.412022 0.575298
Si Si4 0.223058 0.068450 0.675853
Si Si5 0.887024 0.829486 0.355904
Si Si6 0.094670 0.977972 0.087660
Si Si7 0.416509 0.590480 0.767873
Si Si8 0.576657 0.724005 0.663087
O O1 0.734359 0.080453 0.783822
O O2 0.643870 0.128194 0.744267
O O3 0.536448 0.230368 0.081402
O O4 0.507055 0.019364 0.101056
O O5 0.862744 0.559355 0.196315
O O6 0.810906 0.618618 0.080267
O O7 0.972618 0.469238 0.846291
O O8 0.158247 0.297128 0.603290
O O9 0.200886 0.513705 0.506487
O O10 0.349533 0.378662 0.396770
O O11 0.144512 0.092426 0.695847
O O12 0.319130 0.177011 0.527757
O O13 0.308302 0.954721 0.520894
O O14 0.138643 0.049216 0.915105
O O15 0.033425 0.855574 0.150123
O O16 0.508700 0.684567 0.667183
#
# Coordination Sequence:
#
# PCOD9241941 Si02
#       8
#     4   4   4   4   4   4   4   4
#     4  10  20  37  63  92 119 162 210 257 314 362
#     4  10  21  42  64  90 129 163 205 259 314 371
#     4  11  22  39  65  94 123 166 212 252 308 380
#     4  10  20  39  61  94 123 158 213 253 312 368
#     4   9  22  37  63  93 115 168 201 254 299 372
#     4  10  23  38  64  92 128 162 204 259 317 366
#     4  10  19  38  62  86 125 159 208 262 302 374
#     4  10  23  34  65  93 119 166 210 257 304 378
#
# _framework density 20.670138999999999
#
# number of rings (size 3 to 8) (size 9 to 14) (size 15 to 20)
#    0.750    1.250    2.500    0.750    7.000    0.000 
#    2.250    1.875    5.500    0.000    0.000    0.000 
#    0.000    0.000    0.000    0.000    0.000    0.000 
#
# Total GULP energy -178292.144937 kJ/mol
# GULP energy per Si atom -5571.629529 kJ/mol
# Density = 2.062309 g / cm^3
# Si number density = 20.670139 Si / 1000 Ang^3
#
#
#
# Elastic Constant Matrix: (Units=GPa)
#
#
# Indices 1 2 3 4 5 6 
#
# 1 65.2836 20.3142 14.5800 0.0000 20.7466 0.0000
# 2 20.3142 20.1111 16.7737 0.0000 -0.1205 0.0000
# 3 14.5800 16.7737 71.0603 0.0000 7.6966 0.0000
# 4 0.0000 0.0000 0.0000 11.0855 0.0000 -10.5872
# 5 20.7466 -0.1205 7.6966 0.0000 29.2469 0.0000
# 6 0.0000 0.0000 0.0000 -10.5872 0.0000 34.5307
#
#
#
# Elastic Compliance Matrix: (Units=1/GPa)
#
#
# Indices 1 2 3 4 5 6 
#
# 1 0.034805 -0.039498 0.005017 0.000000 -0.026173 0.000000
# 2 -0.039498 0.107247 -0.020889 0.000000 0.033958 0.000000
# 3 0.005017 -0.020889 0.018908 0.000000 -0.008621 0.000000
# 4 0.000000 0.000000 0.000000 0.127559 0.000000 0.039110
# 5 -0.026173 0.033958 -0.008621 0.000000 0.055166 0.000000
# 6 0.000000 0.000000 0.000000 0.039110 0.000000 0.040951
#
#
# Mechanical properties :
#
#
# Convention : Reuss Voigt Hill
#
# Bulk Modulus (GPa) = 19.91269 28.86564 24.38917
# Shear Modulus (GPa) = 9.76339 21.95843 15.86091
#
# Velocity S-wave (km/s) = 2.17570 3.26287 2.77309
# Velocity P-wave (km/s) = 3.99575 5.30946 4.69874
#
# Compressibility (1/GPa) = 0.05021922
#
# Stress axis : x y z
#
# Youngs Moduli (GPa) = 28.73125 9.32426 52.88813
#
# Poissons Ratio (x) = 0.36829 -0.26534
# Poissons Ratio (y) = 1.13483 1.10480
# Poissons Ratio (z) = -0.14414 0.19478
#
# Static dielectric constant tensor:
#      x y z
#    x 1.751550 0.000000 -0.009370 
#    y 0.000000 1.779270 0.000000 
#    z -0.009370 0.000000 1.738230 
# 
# From -- ./inp_files/35911.got.cif
#   From: 2010.05.17/outbox.cif.g08.bks.cpg/sg14_18_cif.got.tgz:35911.got - 2010.06.03 17:49:19.
