data_PCOD9241247
_publ_section_title
;
Structure prediction by ZEFSAII (Michael W. Deem and Ramdas Pophale) SiO2 
 PCOD9241247
Probable space group: P 21/C
;
_chemical_formula_sum "Si O2"
_cell_formula_units_Z 28
_cell_length_a 16.187241
_cell_length_b 17.444769
_cell_length_c 9.209416
_cell_angle_alpha 90.000000
_cell_angle_beta 29.461020
_cell_angle_gamma 90.000000
_cell_volume 1279.046477
_symmetry_space_group_name_H-M "P 21/C"
_symmetry_group_IT_number 14
_symmetry_cell_setting 'monoclinic'
loop_
_space_group_symop_operation_xyz
x,y,z
-x,1/2+y,1/2-z
-x,-y,-z
x,1/2-y,1/2+z
loop_
_atom_site_type_symbol
_atom_site_label
_atom_site_fract_x
_atom_site_fract_y
_atom_site_fract_z
Si Si1 0.433622 0.074522 0.436568
Si Si2 0.825335 0.997829 0.353779
Si Si3 0.684166 0.349294 0.728750
Si Si4 0.939662 0.840135 0.281179
Si Si5 0.543332 0.285580 0.241258
Si Si6 0.410121 0.918923 0.110348
Si Si7 0.200195 0.215691 0.785231
O O1 0.321848 0.005704 0.542435
O O2 0.567770 0.079134 0.359993
O O3 0.290365 0.137195 0.697785
O O4 0.548313 0.098137 0.120118
O O5 0.827307 0.916427 0.435562
O O6 0.778832 0.063852 0.540415
O O7 0.000000 0.000000 0.000000
O O8 0.636894 0.282055 0.686058
O O9 0.881152 0.364912 0.431359
O O10 0.639034 0.316727 0.955659
O O11 0.867678 0.772587 0.490245
O O12 0.939917 0.806237 0.117614
O O13 0.521188 0.352348 0.393203
O O14 0.360098 0.258180 0.468723
O O15 0.500000 0.000000 0.000000
#
# Coordination Sequence:
#
# PCOD9241247 Si02
#       7
#     4   4   4   4   4   4   4
#     4   9  20  39  60  85 115 155 199 243 296 362
#     4  10  21  40  63  88 122 164 206 249 301 367
#     4  11  22  37  59  89 119 151 200 254 303 360
#     4  11  22  37  58  88 118 152 194 250 310 354
#     4  11  20  36  60  85 113 155 198 247 303 364
#     4  10  20  38  62  85 118 164 203 241 301 378
#     4  10  19  35  57  84 115 145 192 250 300 351
#
# _framework density 21.891307999999999
#
# number of rings (size 3 to 8) (size 9 to 14) (size 15 to 20)
#    0.000    1.714    0.000    7.714    0.000    1.143 
#    0.000    8.571    0.000    1.714    0.000    0.000 
#    0.000    0.000    0.000    0.000    0.000    0.000 
#
# Total GULP energy -156205.661123 kJ/mol
# GULP energy per Si atom -5578.773612 kJ/mol
# Density = 2.184148 g / cm^3
# Si number density = 21.891308 Si / 1000 Ang^3
#
#
#
# Elastic Constant Matrix: (Units=GPa)
#
#
# Indices 1 2 3 4 5 6 
#
# 1 126.5399 31.3733 38.4645 0.0000 -17.4841 0.0000
# 2 31.3733 59.9685 -10.5277 0.0000 -1.6490 0.0000
# 3 38.4645 -10.5277 70.5943 0.0000 -4.0731 0.0000
# 4 0.0000 0.0000 0.0000 33.9454 0.0000 5.7943
# 5 -17.4841 -1.6490 -4.0731 0.0000 36.1650 0.0000
# 6 0.0000 0.0000 0.0000 5.7943 0.0000 32.9966
#
#
#
# Elastic Compliance Matrix: (Units=1/GPa)
#
#
# Indices 1 2 3 4 5 6 
#
# 1 0.013044 -0.008094 -0.008024 0.000000 0.005033 0.000000
# 2 -0.008094 0.022188 0.007601 0.000000 -0.002045 0.000000
# 3 -0.008024 0.007601 0.019595 0.000000 -0.001326 0.000000
# 4 0.000000 0.000000 0.000000 0.030369 0.000000 -0.005333
# 5 0.005033 -0.002045 -0.001326 0.000000 0.029842 0.000000
# 6 0.000000 0.000000 0.000000 -0.005333 0.000000 0.031243
#
#
# Mechanical properties :
#
#
# Convention : Reuss Voigt Hill
#
# Bulk Modulus (GPa) = 26.46015 41.74699 34.10357
# Shear Modulus (GPa) = 28.42325 33.80757 31.11541
#
# Velocity S-wave (km/s) = 3.60721 3.93407 3.77418
# Velocity P-wave (km/s) = 5.42795 6.30455 5.88260
#
# Compressibility (1/GPa) = 0.03779269
#
# Stress axis : x y z
#
# Youngs Moduli (GPa) = 76.66357 45.06888 51.03470
#
# Poissons Ratio (x) = 0.36480 0.40950
# Poissons Ratio (y) = 0.62054 -0.38793
# Poissons Ratio (z) = 0.61514 -0.34258
#
# Static dielectric constant tensor:
#      x y z
#    x 1.785580 0.000000 -0.009260 
#    y 0.000000 1.851750 0.000000 
#    z -0.009260 0.000000 1.859680 
# 
# From -- ./inp_files/16826.got.cif
#   From: 2010.05.17/outbox.cif.g08.bks.cpg/sg14_9_cif.got.tgz:16826.got - 2010.06.03 17:49:19.
