data_PCOD9241415
_publ_section_title
;
Structure prediction by ZEFSAII (Michael W. Deem and Ramdas Pophale) SiO2 
 PCOD9241415
Probable space group: P 21/C
;
_chemical_formula_sum "Si O2"
_cell_formula_units_Z 28
_cell_length_a 15.549584
_cell_length_b 5.544301
_cell_length_c 18.845581
_cell_angle_alpha 90.000000
_cell_angle_beta 54.463862
_cell_angle_gamma 90.000000
_cell_volume 1322.104010
_symmetry_space_group_name_H-M "P 21/C"
_symmetry_group_IT_number 14
_symmetry_cell_setting 'monoclinic'
loop_
_space_group_symop_operation_xyz
x,y,z
-x,1/2+y,1/2-z
-x,-y,-z
x,1/2-y,1/2+z
loop_
_atom_site_type_symbol
_atom_site_label
_atom_site_fract_x
_atom_site_fract_y
_atom_site_fract_z
Si Si1 0.729329 0.471030 0.224396
Si Si2 0.354877 0.075628 0.509442
Si Si3 0.421575 0.730694 0.113705
Si Si4 0.133216 0.228606 0.663258
Si Si5 0.626857 0.621276 0.731669
Si Si6 0.612657 0.254861 0.143461
Si Si7 0.099337 0.728180 0.766005
O O1 0.647368 0.458674 0.330660
O O2 0.733127 0.753541 0.208164
O O3 0.674842 0.390466 0.176935
O O4 0.830850 0.321560 0.197747
O O5 0.453919 0.259445 0.456623
O O6 0.242806 0.201912 0.569659
O O7 0.376618 0.913614 0.568782
O O8 0.362755 0.890075 0.440253
O O9 0.401444 0.570975 0.193598
O O10 0.128035 0.487709 0.705577
O O11 0.027242 0.220353 0.666486
O O12 0.126186 0.986496 0.716634
O O13 0.513920 0.757126 0.782934
O O14 0.646365 0.517850 0.643948
#
# Coordination Sequence:
#
# PCOD9241415 Si02
#       7
#     4   4   4   4   4   4   4
#     4  11  20  36  59  85 116 168 205 243 294 385
#     4  10  19  39  57  92 123 153 196 264 317 362
#     4   9  20  35  58  86 120 153 201 249 314 362
#     4  10  21  43  62  94 120 158 210 264 316 356
#     4  10  19  36  54  78 116 168 200 239 290 389
#     4  10  21  34  54  83 121 161 198 242 312 367
#     4  10  22  39  69  87 119 163 213 261 302 372
#
# _framework density 21.178363999999998
#
# number of rings (size 3 to 8) (size 9 to 14) (size 15 to 20)
#    0.000    2.000    2.857    0.857    2.000    0.000 
#    7.714    5.000    0.000    0.857    0.000    0.000 
#    0.000    0.000    0.000    0.000    0.000    0.000 
#
# Total GULP energy -155988.067810 kJ/mol
# GULP energy per Si atom -5571.002422 kJ/mol
# Density = 2.113016 g / cm^3
# Si number density = 21.178364 Si / 1000 Ang^3
#
#
#
# Elastic Constant Matrix: (Units=GPa)
#
#
# Indices 1 2 3 4 5 6 
#
# 1 112.2001 4.7510 34.8263 0.0000 -3.0760 0.0000
# 2 4.7510 51.9948 -3.9365 0.0000 3.3894 0.0000
# 3 34.8263 -3.9365 51.2237 0.0000 0.2369 0.0000
# 4 0.0000 0.0000 0.0000 17.2389 0.0000 3.8754
# 5 -3.0760 3.3894 0.2369 0.0000 32.6899 0.0000
# 6 0.0000 0.0000 0.0000 3.8754 0.0000 27.9214
#
#
#
# Elastic Compliance Matrix: (Units=1/GPa)
#
#
# Indices 1 2 3 4 5 6 
#
# 1 0.011491 -0.001738 -0.007952 0.000000 0.001319 0.000000
# 2 -0.001738 0.019742 0.002709 0.000000 -0.002230 0.000000
# 3 -0.007952 0.002709 0.025142 0.000000 -0.001211 0.000000
# 4 0.000000 0.000000 0.000000 0.059877 0.000000 -0.008311
# 5 0.001319 -0.002230 -0.001211 0.000000 0.030955 0.000000
# 6 0.000000 0.000000 0.000000 -0.008311 0.000000 0.036968
#
#
# Mechanical properties :
#
#
# Convention : Reuss Voigt Hill
#
# Bulk Modulus (GPa) = 23.57747 31.85557 27.71652
# Shear Modulus (GPa) = 23.55444 27.55523 25.55484
#
# Velocity S-wave (km/s) = 3.33857 3.61099 3.47745
# Velocity P-wave (km/s) = 5.10083 5.69736 5.40733
#
# Compressibility (1/GPa) = 0.04241337
#
# Stress axis : x y z
#
# Youngs Moduli (GPa) = 87.02719 50.65344 39.77335
#
# Poissons Ratio (x) = 0.08804 0.31628
# Poissons Ratio (y) = 0.15125 -0.10775
# Poissons Ratio (z) = 0.69204 -0.13723
#
# Static dielectric constant tensor:
#      x y z
#    x 1.841530 0.000000 -0.002550 
#    y 0.000000 2.141140 0.000000 
#    z -0.002550 0.000000 1.728850 
# 
# From -- ./inp_files/58536.got.cif
#   From: 2010.05.17/outbox.cif.g08.bks.cpg/sg14_30_cif.got.tgz:58536.got - 2010.06.03 17:49:19.
