data_PCOD9241048
_publ_section_title
;
Structure prediction by ZEFSAII (Michael W. Deem and Ramdas Pophale) SiO2 
 PCOD9241048
Probable space group: P 21/C
;
_chemical_formula_sum "Si O2"
_cell_formula_units_Z 28
_cell_length_a 13.493005
_cell_length_b 5.215007
_cell_length_c 18.783282
_cell_angle_alpha 90.000000
_cell_angle_beta 101.078195
_cell_angle_gamma 90.000000
_cell_volume 1297.077727
_symmetry_space_group_name_H-M "P 21/C"
_symmetry_group_IT_number 14
_symmetry_cell_setting 'monoclinic'
loop_
_space_group_symop_operation_xyz
x,y,z
-x,1/2+y,1/2-z
-x,-y,-z
x,1/2-y,1/2+z
loop_
_atom_site_type_symbol
_atom_site_label
_atom_site_fract_x
_atom_site_fract_y
_atom_site_fract_z
Si Si1 0.169073 0.021861 0.385855
Si Si2 0.338547 0.138781 0.515686
Si Si3 0.028559 0.503956 0.208800
Si Si4 0.602573 0.877375 0.837946
Si Si5 0.481461 0.235394 0.421841
Si Si6 0.225149 0.979644 0.803360
Si Si7 0.598056 0.352241 0.202906
O O1 0.233732 0.059280 0.465936
O O2 0.206260 0.252296 0.339510
O O3 0.046596 0.035460 0.368413
O O4 0.195125 0.750500 0.353190
O O5 0.327385 0.248638 0.593445
O O6 0.403212 0.327814 0.471898
O O7 0.420188 0.909962 0.533417
O O8 0.149452 0.530243 0.225244
O O9 0.005784 0.228646 0.241368
O O10 0.519497 0.684904 0.794218
O O11 0.531490 0.063781 0.875324
O O12 0.651131 0.012318 0.777195
O O13 0.414793 0.026514 0.368757
O O14 0.338731 0.904680 0.800772
#
# Coordination Sequence:
#
# PCOD9241048 Si02
#       7
#     4   4   4   4   4   4   4
#     4  10  19  34  56  82 110 138 178 229 280 318
#     4  10  21  32  53  77 105 141 180 224 270 324
#     4   8  16  31  51  80 108 132 173 228 275 318
#     4  11  22  34  50  73 109 145 184 223 266 321
#     4  10  20  36  49  75 104 140 185 218 268 319
#     4  10  20  33  56  82 107 142 180 225 276 322
#     4  11  21  34  53  73 108 147 186 223 267 324
#
# _framework density 21.586984999999999
#
# number of rings (size 3 to 8) (size 9 to 14) (size 15 to 20)
#    0.000    2.000    2.857    1.286    2.000    0.000 
#    0.000    0.000    0.000    0.857    0.000    1.000 
#    0.000    0.000    0.000    0.000    0.000    0.000 
#
# Total GULP energy -156127.291179 kJ/mol
# GULP energy per Si atom -5575.974685 kJ/mol
# Density = 2.153785 g / cm^3
# Si number density = 21.586985 Si / 1000 Ang^3
#
#
#
# Elastic Constant Matrix: (Units=GPa)
#
#
# Indices 1 2 3 4 5 6 
#
# 1 56.4252 3.1439 40.0914 0.0000 44.7977 0.0000
# 2 3.1439 55.6138 8.8674 0.0000 -0.3150 0.0000
# 3 40.0914 8.8674 126.7996 0.0000 37.3144 0.0000
# 4 0.0000 0.0000 0.0000 24.6453 0.0000 2.8395
# 5 44.7977 -0.3150 37.3144 0.0000 50.0504 0.0000
# 6 0.0000 0.0000 0.0000 2.8395 0.0000 19.3939
#
#
#
# Elastic Compliance Matrix: (Units=1/GPa)
#
#
# Indices 1 2 3 4 5 6 
#
# 1 0.063564 -0.003261 -0.003998 0.000000 -0.053932 0.000000
# 2 -0.003261 0.018424 -0.001474 0.000000 0.004134 0.000000
# 3 -0.003998 -0.001474 0.010509 0.000000 -0.004265 0.000000
# 4 0.000000 0.000000 0.000000 0.041272 0.000000 -0.006043
# 5 -0.053932 0.004134 -0.004265 0.000000 0.071458 0.000000
# 6 0.000000 0.000000 0.000000 -0.006043 0.000000 0.052447
#
#
# Mechanical properties :
#
#
# Convention : Reuss Voigt Hill
#
# Bulk Modulus (GPa) = 13.32802 38.11600 25.72201
# Shear Modulus (GPa) = 16.65831 31.26698 23.96265
#
# Velocity S-wave (km/s) = 2.78093 3.80994 3.33536
# Velocity P-wave (km/s) = 4.06189 6.08682 5.17438
#
# Compressibility (1/GPa) = 0.07502989
#
# Stress axis : x y z
#
# Youngs Moduli (GPa) = 15.73225 54.27735 95.15734
#
# Poissons Ratio (x) = 0.17701 0.38047
# Poissons Ratio (y) = 0.05131 0.14024
# Poissons Ratio (z) = 0.06290 0.07999
#
# Static dielectric constant tensor:
#      x y z
#    x 1.808690 0.000000 0.020410 
#    y 0.000000 1.891740 0.000000 
#    z 0.020410 0.000000 1.855330 
# 
# From -- ./inp_files/58426.got.cif
#   From: 2010.05.17/outbox.cif.g08.bks.cpg/sg14_30_cif.got.tgz:58426.got - 2010.06.03 17:49:19.
