data_PCOD9241491
_publ_section_title
;
Structure prediction by ZEFSAII (Michael W. Deem and Ramdas Pophale) SiO2 
 PCOD9241491
Probable space group: P 21/C
;
_chemical_formula_sum "Si O2"
_cell_formula_units_Z 28
_cell_length_a 12.081875
_cell_length_b 9.689987
_cell_length_c 12.656061
_cell_angle_alpha 90.000000
_cell_angle_beta 136.149407
_cell_angle_gamma 90.000000
_cell_volume 1026.482564
_symmetry_space_group_name_H-M "P 21/C"
_symmetry_group_IT_number 14
_symmetry_cell_setting 'monoclinic'
loop_
_space_group_symop_operation_xyz
x,y,z
-x,1/2+y,1/2-z
-x,-y,-z
x,1/2-y,1/2+z
loop_
_atom_site_type_symbol
_atom_site_label
_atom_site_fract_x
_atom_site_fract_y
_atom_site_fract_z
Si Si1 0.010299 0.156111 0.384540
Si Si2 0.548958 0.098130 0.393513
Si Si3 0.896676 0.670435 0.274164
Si Si4 0.843998 0.375211 0.959215
Si Si5 0.196975 0.082716 0.081934
Si Si6 0.462460 0.274956 0.497588
Si Si7 0.450267 0.531270 0.639801
O O1 0.014080 0.115746 0.266173
O O2 0.092495 0.303704 0.452682
O O3 0.844253 0.159104 0.334380
O O4 0.120871 0.037861 0.511699
O O5 0.700848 0.161398 0.438520
O O6 0.370289 0.145583 0.237035
O O7 0.558543 0.135932 0.524640
O O8 0.539083 0.955468 0.315713
O O9 0.878707 0.557781 0.354827
O O10 0.721782 0.725815 0.122202
O O11 0.999786 0.794781 0.392525
O O12 0.265175 0.968504 0.049949
O O13 0.487320 0.379694 0.612397
O O14 0.501393 0.368262 0.420414
#
# Coordination Sequence:
#
# PCOD9241491 Si02
#       7
#     4   4   4   4   4   4   4
#     4  10  20  39  61  78 115 155 190 226 280 345
#     4   9  20  34  53  88 114 135 192 242 271 327
#     4  10  19  38  57  83 113 148 187 237 280 337
#     4  10  23  35  58  87 110 153 191 230 284 345
#     4   8  18  33  58  81 108 145 186 232 276 327
#     4  10  19  36  59  85 107 152 192 229 289 338
#     4   9  19  33  59  82 107 149 190 228 282 337
#
# _framework density 27.277618
#
# number of rings (size 3 to 8) (size 9 to 14) (size 15 to 20)
#    0.857    1.714    1.429    0.000    8.000    1.143 
#    2.571    5.714    0.000    3.429    0.000    0.000 
#    0.000    0.000    0.000    0.000    0.000    0.000 
#
# Total GULP energy -156002.080136 kJ/mol
# GULP energy per Si atom -5571.502862 kJ/mol
# Density = 2.721553 g / cm^3
# Si number density = 27.277618 Si / 1000 Ang^3
#
#
#
# Elastic Constant Matrix: (Units=GPa)
#
#
# Indices 1 2 3 4 5 6 
#
# 1 122.4369 -23.9160 29.1428 0.0000 -26.3630 0.0000
# 2 -23.9160 73.7221 -3.5931 0.0000 7.6626 0.0000
# 3 29.1428 -3.5931 51.5800 0.0000 -4.9067 0.0000
# 4 0.0000 0.0000 0.0000 31.0619 0.0000 -4.4087
# 5 -26.3630 7.6626 -4.9067 0.0000 51.6801 0.0000
# 6 0.0000 0.0000 0.0000 -4.4087 0.0000 23.9801
#
#
#
# Elastic Compliance Matrix: (Units=1/GPa)
#
#
# Indices 1 2 3 4 5 6 
#
# 1 0.011065 0.002829 -0.005609 0.000000 0.004693 0.000000
# 2 0.002829 0.014530 -0.000660 0.000000 -0.000774 0.000000
# 3 -0.005609 -0.000660 0.022450 0.000000 -0.000632 0.000000
# 4 0.000000 0.000000 0.000000 0.033056 0.000000 0.006077
# 5 0.004693 -0.000774 -0.000632 0.000000 0.021798 0.000000
# 6 0.000000 0.000000 0.000000 0.006077 0.000000 0.042819
#
#
# Mechanical properties :
#
#
# Convention : Reuss Voigt Hill
#
# Bulk Modulus (GPa) = 24.29139 27.88961 26.09050
# Shear Modulus (GPa) = 30.06242 37.75145 33.90693
#
# Velocity S-wave (km/s) = 3.32338 3.72421 3.52949
# Velocity P-wave (km/s) = 4.86323 5.36093 5.11813
#
# Compressibility (1/GPa) = 0.04116685
#
# Stress axis : x y z
#
# Youngs Moduli (GPa) = 90.37191 68.82135 44.54319
#
# Poissons Ratio (x) = -0.19467 0.24982
# Poissons Ratio (y) = -0.25562 0.02938
# Poissons Ratio (z) = 0.50685 0.04539
#
# Static dielectric constant tensor:
#      x y z
#    x 2.222920 0.000000 -0.057920 
#    y 0.000000 2.296630 0.000000 
#    z -0.057920 0.000000 2.206600 
# 
# From -- ./inp_files/44086.got.cif
#   From: 2010.05.17/outbox.cif.g08.bks.cpg/sg14_23_cif.got.tgz:44086.got - 2010.06.03 17:49:19.
