data_PCOD9241865
_publ_section_title
;
Structure prediction by ZEFSAII (Michael W. Deem and Ramdas Pophale) SiO2 
 PCOD9241865
Probable space group: P 21/C
;
_chemical_formula_sum "Si O2"
_cell_formula_units_Z 28
_cell_length_a 8.517139
_cell_length_b 19.564862
_cell_length_c 12.240024
_cell_angle_alpha 90.000000
_cell_angle_beta 145.825739
_cell_angle_gamma 90.000000
_cell_volume 1145.687879
_symmetry_space_group_name_H-M "P 21/C"
_symmetry_group_IT_number 14
_symmetry_cell_setting 'monoclinic'
loop_
_space_group_symop_operation_xyz
x,y,z
-x,1/2+y,1/2-z
-x,-y,-z
x,1/2-y,1/2+z
loop_
_atom_site_type_symbol
_atom_site_label
_atom_site_fract_x
_atom_site_fract_y
_atom_site_fract_z
Si Si1 0.744492 0.187674 0.387298
Si Si2 0.541439 0.426266 0.131069
Si Si3 0.383124 0.930109 0.570698
Si Si4 0.818131 0.545683 0.514055
Si Si5 0.305464 0.888775 0.055138
Si Si6 0.380748 0.172064 0.967507
Si Si7 0.196401 0.212229 0.220653
O O1 0.843357 0.115603 0.497213
O O2 0.991869 0.240614 0.530976
O O3 0.488891 0.205578 0.324057
O O4 0.615483 0.183058 0.194096
O O5 0.326623 0.489577 0.017251
O O6 0.541314 0.379933 0.238427
O O7 0.855049 0.457217 0.323593
O O8 0.537314 0.401187 0.003883
O O9 0.626822 0.931436 0.802348
O O10 0.716792 0.469659 0.485210
O O11 0.792497 0.607688 0.585277
O O12 0.478647 0.851758 0.062631
O O13 0.999459 0.854346 0.878953
O O14 0.232445 0.243713 0.852779
#
# Coordination Sequence:
#
# PCOD9241865 Si02
#       7
#     4   4   4   4   4   4   4
#     4  11  25  43  67  91 133 176 229 278 337 411
#     4  10  19  37  69  97 133 172 221 270 333 410
#     4   9  19  37  63 100 126 173 218 270 329 401
#     4  10  20  41  68  99 138 176 227 281 340 410
#     4  11  22  41  69 103 134 182 230 280 347 408
#     4  11  25  44  66  99 139 180 224 289 349 403
#     4  12  25  45  64  99 133 183 233 276 347 413
#
# _framework density 24.439465999999999
#
# number of rings (size 3 to 8) (size 9 to 14) (size 15 to 20)
#    0.000    1.429    1.429    5.571    2.000    1.143 
#    0.000    7.143    0.000   14.571    0.000    0.000 
#    0.000    0.000    0.000    0.000    0.000    0.000 
#
# Total GULP energy -156435.443153 kJ/mol
# GULP energy per Si atom -5586.980113 kJ/mol
# Density = 2.438384 g / cm^3
# Si number density = 24.439466 Si / 1000 Ang^3
#
#
#
# Elastic Constant Matrix: (Units=GPa)
#
#
# Indices 1 2 3 4 5 6 
#
# 1 59.7445 2.4485 20.7680 0.0000 -26.5523 0.0000
# 2 2.4485 60.8519 22.1224 0.0000 -23.0792 0.0000
# 3 20.7680 22.1224 110.2715 0.0000 -40.6483 0.0000
# 4 0.0000 0.0000 0.0000 44.7478 0.0000 -9.7322
# 5 -26.5523 -23.0792 -40.6483 0.0000 50.2334 0.0000
# 6 0.0000 0.0000 0.0000 -9.7322 0.0000 17.0206
#
#
#
# Elastic Compliance Matrix: (Units=1/GPa)
#
#
# Indices 1 2 3 4 5 6 
#
# 1 0.022822 0.004428 0.000014 0.000000 0.014109 0.000000
# 2 0.004428 0.020821 -0.000886 0.000000 0.011189 0.000000
# 3 0.000014 -0.000886 0.012963 0.000000 0.010090 0.000000
# 4 0.000000 0.000000 0.000000 0.025521 0.000000 0.014593
# 5 0.014109 0.011189 0.010090 0.000000 0.040670 0.000000
# 6 0.000000 0.000000 0.000000 0.014593 0.000000 0.067096
#
#
# Mechanical properties :
#
#
# Convention : Reuss Voigt Hill
#
# Bulk Modulus (GPa) = 15.69429 35.72730 25.71079
# Shear Modulus (GPa) = 24.50720 34.76895 29.63807
#
# Velocity S-wave (km/s) = 3.17009 3.77590 3.48618
# Velocity P-wave (km/s) = 4.45364 5.80175 5.17181
#
# Compressibility (1/GPa) = 0.06371745
#
# Stress axis : x y z
#
# Youngs Moduli (GPa) = 43.81736 48.02812 77.14279
#
# Poissons Ratio (x) = -0.21265 -0.00112
# Poissons Ratio (y) = -0.19401 0.06838
# Poissons Ratio (z) = -0.00063 0.04257
#
# Static dielectric constant tensor:
#      x y z
#    x 1.922190 0.000000 -0.013680 
#    y 0.000000 2.124520 0.000000 
#    z -0.013680 0.000000 1.977320 
# 
# From -- ./inp_files/26852.got.cif
#   From: 2010.05.17/outbox.cif.g08.bks.cpg/sg14_14_cif.got.tgz:26852.got - 2010.06.03 17:49:19.
