data_PCOD9241329
_publ_section_title
;
Structure prediction by ZEFSAII (Michael W. Deem and Ramdas Pophale) SiO2 
 PCOD9241329
Probable space group: P 21/C
;
_chemical_formula_sum "Si O2"
_cell_formula_units_Z 32
_cell_length_a 18.882751
_cell_length_b 13.542730
_cell_length_c 13.312472
_cell_angle_alpha 90.000000
_cell_angle_beta 156.293937
_cell_angle_gamma 90.000000
_cell_volume 1368.688133
_symmetry_space_group_name_H-M "P 21/C"
_symmetry_group_IT_number 14
_symmetry_cell_setting 'monoclinic'
loop_
_space_group_symop_operation_xyz
x,y,z
-x,1/2+y,1/2-z
-x,-y,-z
x,1/2-y,1/2+z
loop_
_atom_site_type_symbol
_atom_site_label
_atom_site_fract_x
_atom_site_fract_y
_atom_site_fract_z
Si Si1 0.364451 0.033501 0.408491
Si Si2 0.385521 0.947261 0.089683
Si Si3 0.100143 0.202580 0.601456
Si Si4 0.959483 0.955306 0.326461
Si Si5 0.793528 0.155912 0.689263
Si Si6 0.086733 0.339162 0.425577
Si Si7 0.487760 0.327554 0.656749
Si Si8 0.640627 0.414546 0.665912
O O1 0.262856 0.936889 0.318034
O O2 0.500000 0.000000 0.500000
O O3 0.231385 0.105779 0.180268
O O4 0.476237 0.080445 0.645104
O O5 0.376853 0.888552 0.974156
O O6 0.188862 0.961131 0.879390
O O7 0.444404 0.058953 0.133751
O O8 0.059429 0.093627 0.587655
O O9 0.097505 0.226147 0.478559
O O10 0.939282 0.272687 0.429644
O O11 0.297267 0.221187 0.896442
O O12 0.165235 0.960715 0.568523
O O13 0.896293 0.867927 0.166905
O O14 0.622222 0.206538 0.417388
O O15 0.902651 0.121389 0.732273
O O16 0.587854 0.331958 0.678940
O O17 0.500000 0.500000 0.500000
#
# Coordination Sequence:
#
# PCOD9241329 Si02
#       8
#     4   4   4   4   4   4   4   4
#     4  11  20  38  62  93 111 155 202 247 300 348
#     4   9  20  34  60  89 120 147 193 250 297 349
#     4   9  22  39  57  86 116 162 200 242 294 364
#     4  11  19  40  62  82 121 163 192 242 310 357
#     4   9  20  40  61  84 121 155 200 249 297 357
#     4  10  21  40  63  81 119 158 198 245 302 355
#     4   9  17  38  62  81 119 158 195 237 306 360
#     4  10  19  35  60  89 112 155 198 241 294 355
#
# _framework density 23.380053
#
# number of rings (size 3 to 8) (size 9 to 14) (size 15 to 20)
#    0.750    1.500    2.500    0.750    0.000    0.000 
#    6.750    1.250    2.750    0.000    0.000    0.000 
#    0.000    0.000    0.000    0.000    0.000    0.000 
#
# Total GULP energy -178415.430381 kJ/mol
# GULP energy per Si atom -5575.482199 kJ/mol
# Density = 2.332684 g / cm^3
# Si number density = 23.380053 Si / 1000 Ang^3
#
#
#
# Elastic Constant Matrix: (Units=GPa)
#
#
# Indices 1 2 3 4 5 6 
#
# 1 80.5106 28.1301 39.0682 0.0000 7.4043 0.0000
# 2 28.1301 59.0897 42.2381 0.0000 3.2995 0.0000
# 3 39.0682 42.2381 185.5511 0.0000 11.0356 0.0000
# 4 0.0000 0.0000 0.0000 38.7897 0.0000 -6.4394
# 5 7.4043 3.2995 11.0356 0.0000 37.1831 0.0000
# 6 0.0000 0.0000 0.0000 -6.4394 0.0000 14.2627
#
#
#
# Elastic Compliance Matrix: (Units=1/GPa)
#
#
# Indices 1 2 3 4 5 6 
#
# 1 0.015581 -0.006026 -0.001788 0.000000 -0.002037 0.000000
# 2 -0.006026 0.022550 -0.003885 0.000000 0.000352 0.000000
# 3 -0.001788 -0.003885 0.006727 0.000000 -0.001296 0.000000
# 4 0.000000 0.000000 0.000000 0.027869 0.000000 0.012582
# 5 -0.002037 0.000352 -0.001296 0.000000 0.027653 0.000000
# 6 0.000000 0.000000 0.000000 0.012582 0.000000 0.075794
#
#
# Mechanical properties :
#
#
# Convention : Reuss Voigt Hill
#
# Bulk Modulus (GPa) = 46.59783 60.44715 53.52249
# Shear Modulus (GPa) = 24.18679 32.42810 28.30744
#
# Velocity S-wave (km/s) = 3.21986 3.72828 3.48336
# Velocity P-wave (km/s) = 5.81354 6.66661 6.25464
#
# Compressibility (1/GPa) = 0.02146023
#
# Stress axis : x y z
#
# Youngs Moduli (GPa) = 64.18081 44.34663 148.64867
#
# Poissons Ratio (x) = 0.26722 0.26575
# Poissons Ratio (y) = 0.38674 0.57755
# Poissons Ratio (z) = 0.11474 0.17230
#
# Static dielectric constant tensor:
#      x y z
#    x 1.887290 0.000000 0.008960 
#    y 0.000000 1.995960 0.000000 
#    z 0.008960 0.000000 1.956050 
# 
# From -- ./inp_files/50792.got.cif
#   From: 2010.05.17/outbox.cif.g08.bks.cpg/sg14_26_cif.got.tgz:50792.got - 2010.06.03 17:49:19.
