data_PCOD9241554
_publ_section_title
;
Structure prediction by ZEFSAII (Michael W. Deem and Ramdas Pophale) SiO2 
 PCOD9241554
Probable space group: P 21/C
;
_chemical_formula_sum "Si O2"
_cell_formula_units_Z 16
_cell_length_a 7.412345
_cell_length_b 5.518697
_cell_length_c 21.824391
_cell_angle_alpha 90.000000
_cell_angle_beta 135.925781
_cell_angle_gamma 90.000000
_cell_volume 620.993974
_symmetry_space_group_name_H-M "P 21/C"
_symmetry_group_IT_number 14
_symmetry_cell_setting 'monoclinic'
loop_
_space_group_symop_operation_xyz
x,y,z
-x,1/2+y,1/2-z
-x,-y,-z
x,1/2-y,1/2+z
loop_
_atom_site_type_symbol
_atom_site_label
_atom_site_fract_x
_atom_site_fract_y
_atom_site_fract_z
Si Si1 0.920460 0.250000 0.448527
Si Si2 0.424412 0.250012 0.764544
Si Si3 0.162111 0.750007 0.833278
Si Si4 0.853174 0.750006 0.633809
O O1 0.610378 0.250002 0.368039
O O2 0.000000 0.500000 0.500000
O O3 0.037482 0.249997 0.408030
O O4 0.000000 0.000000 0.500000
O O5 0.500002 0.500018 0.750004
O O6 0.120374 0.250009 0.703039
O O7 0.087710 0.750007 0.742998
O O8 0.289301 0.502113 0.886245
O O9 0.289302 0.997900 0.886246
#
# Coordination Sequence:
#
# PCOD9241554 Si02
#       4
#     4   4   4   4
#     4  12  24  38  56  88 125 155 184 236 304 350
#     4  12  21  38  62  88 113 150 207 239 274 342
#     4  10  19  36  61  87 108 147 201 248 271 331
#     4  10  20  36  59  85 116 148 192 239 293 333
#
# _framework density 25.765146000000001
#
# number of rings (size 3 to 8) (size 9 to 14) (size 15 to 20)
#    0.000    1.000    5.000    3.000    0.000    0.000 
#    0.000    2.500    0.000    0.000    0.000    0.000 
#    0.000    0.000    0.000    0.000    0.000    0.000 
#
# Total GULP energy -89607.669176 kJ/mol
# GULP energy per Si atom -5600.479324 kJ/mol
# Density = 2.570650 g / cm^3
# Si number density = 25.765146 Si / 1000 Ang^3
#
#
#
# Elastic Constant Matrix: (Units=GPa)
#
#
# Indices 1 2 3 4 5 6 
#
# 1 129.6851 73.1237 29.6306 0.0000 -38.6749 0.0000
# 2 73.1237 322.7072 66.8147 0.0000 -35.2737 0.0000
# 3 29.6306 66.8147 88.9852 0.0000 -19.4136 0.0000
# 4 0.0000 0.0000 0.0000 54.5983 0.0000 -19.2641
# 5 -38.6749 -35.2737 -19.4136 0.0000 56.9036 0.0000
# 6 0.0000 0.0000 0.0000 -19.2641 0.0000 44.0469
#
#
#
# Elastic Compliance Matrix: (Units=1/GPa)
#
#
# Indices 1 2 3 4 5 6 
#
# 1 0.010571 -0.001528 -0.001093 0.000000 0.005865 0.000000
# 2 -0.001528 0.004003 -0.002357 0.000000 0.000639 0.000000
# 3 -0.001093 -0.002357 0.013928 0.000000 0.002547 0.000000
# 4 0.000000 0.000000 0.000000 0.021658 0.000000 0.009472
# 5 0.005865 0.000639 0.002547 0.000000 0.022824 0.000000
# 6 0.000000 0.000000 0.000000 0.009472 0.000000 0.026846
#
#
# Mechanical properties :
#
#
# Convention : Reuss Voigt Hill
#
# Bulk Modulus (GPa) = 53.92465 97.83506 75.87985
# Shear Modulus (GPa) = 43.11504 55.89701 49.50603
#
# Velocity S-wave (km/s) = 4.09514 4.66282 4.38817
# Velocity P-wave (km/s) = 6.58293 8.18801 7.42895
#
# Compressibility (1/GPa) = 0.01854439
#
# Stress axis : x y z
#
# Youngs Moduli (GPa) = 94.59537 249.81745 71.79925
#
# Poissons Ratio (x) = 0.38172 0.07850
# Poissons Ratio (y) = 0.14454 0.16927
# Poissons Ratio (z) = 0.10342 0.58894
#
# Static dielectric constant tensor:
#      x y z
#    x 2.045320 0.000000 -0.023000 
#    y 0.000000 2.271750 0.000000 
#    z -0.023000 0.000000 2.013320 
# 
# From -- ./inp_files/38308.got.cif
#   From: 2010.05.17/outbox.cif.g08.bks.cpg/sg14_20_cif.got.tgz:38308.got - 2010.06.03 17:49:19.
