data_PCOD9241389
_publ_section_title
;
Structure prediction by ZEFSAII (Michael W. Deem and Ramdas Pophale) SiO2 
 PCOD9241389
Probable space group: P 21/C
;
_chemical_formula_sum "Si O2"
_cell_formula_units_Z 32
_cell_length_a 15.549282
_cell_length_b 19.912154
_cell_length_c 8.008073
_cell_angle_alpha 90.000000
_cell_angle_beta 34.341021
_cell_angle_gamma 90.000000
_cell_volume 1398.704794
_symmetry_space_group_name_H-M "P 21/C"
_symmetry_group_IT_number 14
_symmetry_cell_setting 'monoclinic'
loop_
_space_group_symop_operation_xyz
x,y,z
-x,1/2+y,1/2-z
-x,-y,-z
x,1/2-y,1/2+z
loop_
_atom_site_type_symbol
_atom_site_label
_atom_site_fract_x
_atom_site_fract_y
_atom_site_fract_z
Si Si1 0.130910 0.415480 0.918289
Si Si2 0.793287 0.453401 0.339907
Si Si3 0.833784 0.779328 0.496473
Si Si4 0.660772 0.328052 0.672279
Si Si5 0.165170 0.780285 0.794744
Si Si6 0.138946 0.586018 0.143740
Si Si7 0.190188 0.043738 0.710911
Si Si8 0.337117 0.172526 0.547278
O O1 0.224090 0.466308 0.649989
O O2 0.164135 0.336356 0.861484
O O3 0.158287 0.434244 0.069165
O O4 0.956774 0.434207 0.157097
O O5 0.675742 0.407809 0.626975
O O6 0.798644 0.428292 0.139402
O O7 0.705135 0.800784 0.569262
O O8 0.792813 0.707170 0.632984
O O9 0.000397 0.780602 0.146601
O O10 0.705076 0.303867 0.784496
O O11 0.788374 0.290903 0.354490
O O12 0.498176 0.306433 0.862538
O O13 0.157108 0.837307 0.665750
O O14 0.217449 0.535420 0.151966
O O15 0.962635 0.562335 0.442252
O O16 0.319987 0.092410 0.568751
#
# Coordination Sequence:
#
# PCOD9241389 Si02
#       8
#     4   4   4   4   4   4   4   4
#     4   9  18  37  59  91 118 155 204 258 281 356
#     4  10  20  34  61  92 120 155 201 248 308 347
#     4  11  22  41  62  88 118 159 209 244 292 358
#     4  12  25  40  59  90 127 157 196 255 309 357
#     4  12  23  41  62  90 120 158 210 250 293 360
#     4  10  19  35  63  90 114 156 205 254 290 352
#     4   9  19  37  60  87 121 157 201 246 302 352
#     4  11  24  41  60  88 125 160 195 251 307 359
#
# _framework density 22.878309999999999
#
# number of rings (size 3 to 8) (size 9 to 14) (size 15 to 20)
#    0.000    1.500    3.750    2.250    1.750    0.000 
#    0.000    7.500    0.000    0.000    0.000    0.000 
#    0.000    0.000    0.000    0.000    0.000    0.000 
#
# Total GULP energy -178883.243914 kJ/mol
# GULP energy per Si atom -5590.101372 kJ/mol
# Density = 2.282624 g / cm^3
# Si number density = 22.878310 Si / 1000 Ang^3
#
#
#
# Elastic Constant Matrix: (Units=GPa)
#
#
# Indices 1 2 3 4 5 6 
#
# 1 96.3280 8.1301 15.1373 0.0000 -15.4369 0.0000
# 2 8.1301 68.8061 17.6980 0.0000 -6.7684 0.0000
# 3 15.1373 17.6980 10.4753 0.0000 -5.5502 0.0000
# 4 0.0000 0.0000 0.0000 24.5726 0.0000 3.9960
# 5 -15.4369 -6.7684 -5.5502 0.0000 24.7844 0.0000
# 6 0.0000 0.0000 0.0000 3.9960 0.0000 26.2764
#
#
#
# Elastic Compliance Matrix: (Units=1/GPa)
#
#
# Indices 1 2 3 4 5 6 
#
# 1 0.015425 0.006618 -0.031114 0.000000 0.004447 0.000000
# 2 0.006618 0.028750 -0.058766 0.000000 -0.001186 0.000000
# 3 -0.031114 -0.058766 0.250682 0.000000 0.020709 0.000000
# 4 0.000000 0.000000 0.000000 0.041728 0.000000 -0.006346
# 5 0.004447 -0.001186 0.020709 0.000000 0.047431 0.000000
# 6 0.000000 0.000000 0.000000 -0.006346 0.000000 0.039022
#
#
# Mechanical properties :
#
#
# Convention : Reuss Voigt Hill
#
# Bulk Modulus (GPa) = 7.79224 28.61556 18.20390
# Shear Modulus (GPa) = 7.90714 24.10295 16.00505
#
# Velocity S-wave (km/s) = 1.86110 3.24933 2.64781
# Velocity P-wave (km/s) = 2.83400 5.15872 4.16197
#
# Compressibility (1/GPa) = 0.12833276
#
# Stress axis : x y z
#
# Youngs Moduli (GPa) = 64.83108 34.78216 3.98912
#
# Poissons Ratio (x) = -0.23019 0.12412
# Poissons Ratio (y) = -0.42905 0.23442
# Poissons Ratio (z) = 2.01718 2.04400
#
# Static dielectric constant tensor:
#      x y z
#    x 1.862890 0.000000 0.025750 
#    y 0.000000 1.889640 0.000000 
#    z 0.025750 0.000000 1.818640 
# 
# From -- ./inp_files/16856.got.cif
#   From: 2010.05.17/outbox.cif.g08.bks.cpg/sg14_9_cif.got.tgz:16856.got - 2010.06.03 17:49:19.
