data_PCOD9241299
_publ_section_title
;
Structure prediction by ZEFSAII (Michael W. Deem and Ramdas Pophale) SiO2 
 PCOD9241299
Probable space group: P 21/C
;
_chemical_formula_sum "Si O2"
_cell_formula_units_Z 32
_cell_length_a 28.873479
_cell_length_b 13.170972
_cell_length_c 10.751432
_cell_angle_alpha 90.000000
_cell_angle_beta 25.268997
_cell_angle_gamma 90.000000
_cell_volume 1745.329632
_symmetry_space_group_name_H-M "P 21/C"
_symmetry_group_IT_number 14
_symmetry_cell_setting 'monoclinic'
loop_
_space_group_symop_operation_xyz
x,y,z
-x,1/2+y,1/2-z
-x,-y,-z
x,1/2-y,1/2+z
loop_
_atom_site_type_symbol
_atom_site_label
_atom_site_fract_x
_atom_site_fract_y
_atom_site_fract_z
Si Si1 0.213505 0.091967 0.697821
Si Si2 0.466937 0.152762 0.485990
Si Si3 0.938167 0.063779 0.827912
Si Si4 0.676447 0.024746 0.053727
Si Si5 0.960950 0.742396 0.781612
Si Si6 0.772606 0.621498 0.123957
Si Si7 0.395802 0.294210 0.883149
Si Si8 0.882948 0.089359 0.683295
O O1 0.241089 0.105131 0.487782
O O2 0.321030 0.111917 0.518604
O O3 0.125977 0.178755 0.949872
O O4 0.151574 0.986100 0.866380
O O5 0.577904 0.093833 0.246648
O O6 0.453490 0.244738 0.620134
O O7 0.459375 0.181733 0.357675
O O8 0.372134 0.070330 0.749023
O O9 0.887140 0.057157 0.815637
O O10 0.976974 0.175358 0.767887
O O11 0.045692 0.994077 0.563890
O O12 0.762277 0.088040 0.925112
O O13 0.740906 0.975962 0.781628
O O14 0.050385 0.807122 0.492283
O O15 0.891794 0.664711 0.865605
O O16 0.688789 0.707894 0.369431
#
# Coordination Sequence:
#
# PCOD9241299 Si02
#       8
#     4   4   4   4   4   4   4   4
#     4  10  20  33  59  88 112 152 194 236 288 341
#     4  10  21  38  65  86 111 154 196 246 290 343
#     4  10  20  35  55  84 117 152 192 237 282 352
#     4  10  21  39  59  83 117 156 192 234 300 345
#     4  10  20  34  54  87 117 154 190 235 284 348
#     4  10  19  35  59  85 116 150 192 238 286 348
#     4  10  19  37  63  89 114 143 199 245 289 341
#     4  10  20  37  57  80 118 155 192 233 293 348
#
# _framework density 18.334645999999999
#
# number of rings (size 3 to 8) (size 9 to 14) (size 15 to 20)
#    0.000    2.000    2.500    1.500    0.000    2.500 
#    4.500    0.625    0.000    0.000    0.000    0.000 
#    0.000    0.000    0.000    0.000    0.000    0.000 
#
# Total GULP energy -178366.564490 kJ/mol
# GULP energy per Si atom -5573.955140 kJ/mol
# Density = 1.829292 g / cm^3
# Si number density = 18.334646 Si / 1000 Ang^3
#
#
#
# Elastic Constant Matrix: (Units=GPa)
#
#
# Indices 1 2 3 4 5 6 
#
# 1 105.7402 11.7317 36.6558 0.0000 -6.3681 0.0000
# 2 11.7317 37.9815 16.2685 0.0000 -10.5161 0.0000
# 3 36.6558 16.2685 51.1204 0.0000 -8.3598 0.0000
# 4 0.0000 0.0000 0.0000 10.3560 0.0000 0.4761
# 5 -6.3681 -10.5161 -8.3598 0.0000 22.7222 0.0000
# 6 0.0000 0.0000 0.0000 0.4761 0.0000 22.2455
#
#
#
# Elastic Compliance Matrix: (Units=1/GPa)
#
#
# Indices 1 2 3 4 5 6 
#
# 1 0.012587 0.000030 -0.008997 0.000000 0.000231 0.000000
# 2 0.000030 0.033429 -0.008649 0.000000 0.012298 0.000000
# 3 -0.008997 -0.008649 0.029472 0.000000 0.004319 0.000000
# 4 0.000000 0.000000 0.000000 0.096658 0.000000 -0.002069
# 5 0.000231 0.012298 0.004319 0.000000 0.051355 0.000000
# 6 0.000000 0.000000 0.000000 -0.002069 0.000000 0.044997
#
#
# Mechanical properties :
#
#
# Convention : Reuss Voigt Hill
#
# Bulk Modulus (GPa) = 24.84136 36.01711 30.42924
# Shear Modulus (GPa) = 15.76556 19.74379 17.75468
#
# Velocity S-wave (km/s) = 2.93555 3.28511 3.11524
# Velocity P-wave (km/s) = 5.00682 5.83748 5.43803
#
# Compressibility (1/GPa) = 0.04025544
#
# Stress axis : x y z
#
# Youngs Moduli (GPa) = 79.44948 29.91430 33.93103
#
# Poissons Ratio (x) = -0.00090 0.30527
# Poissons Ratio (y) = -0.00238 0.29346
# Poissons Ratio (z) = 0.71480 0.25872
#
# Static dielectric constant tensor:
#      x y z
#    x 1.624440 0.000000 0.001150 
#    y 0.000000 1.654670 0.000000 
#    z 0.001150 0.000000 1.626820 
# 
# From -- ./inp_files/19524.got.cif
#   From: 2010.05.17/outbox.cif.g08.bks.cpg/sg14_10_cif.got.tgz:19524.got - 2010.06.03 17:49:19.
