data_PCOD9241555
_publ_section_title
;
Structure prediction by ZEFSAII (Michael W. Deem and Ramdas Pophale) SiO2 
 PCOD9241555
Probable space group: P 21/C
;
_chemical_formula_sum "Si O2"
_cell_formula_units_Z 24
_cell_length_a 18.469771
_cell_length_b 8.168388
_cell_length_c 22.683665
_cell_angle_alpha 90.000000
_cell_angle_beta 17.609866
_cell_angle_gamma 90.000000
_cell_volume 1035.345530
_symmetry_space_group_name_H-M "P 21/C"
_symmetry_group_IT_number 14
_symmetry_cell_setting 'monoclinic'
loop_
_space_group_symop_operation_xyz
x,y,z
-x,1/2+y,1/2-z
-x,-y,-z
x,1/2-y,1/2+z
loop_
_atom_site_type_symbol
_atom_site_label
_atom_site_fract_x
_atom_site_fract_y
_atom_site_fract_z
Si Si1 0.173891 0.559276 0.494881
Si Si2 0.170210 0.945596 0.499205
Si Si3 0.564480 0.064209 0.598794
Si Si4 0.542621 0.436287 0.623107
Si Si5 0.294898 0.933246 0.201451
Si Si6 0.196605 0.942621 0.797729
O O1 0.234139 0.752827 0.445142
O O2 0.352586 0.463138 0.312173
O O3 0.224425 0.501490 0.522484
O O4 0.904871 0.535631 0.680638
O O5 0.201974 0.986664 0.544175
O O6 0.351925 0.063168 0.324125
O O7 0.929447 0.966048 0.649255
O O8 0.587569 0.254680 0.565363
O O9 0.454161 0.980037 0.626749
O O10 0.408754 0.536991 0.677209
O O11 0.204946 0.746795 0.273444
O O12 0.500000 0.000000 0.000000
O O13 0.000000 0.000000 0.000000
#
# Coordination Sequence:
#
# PCOD9241555 Si02
#       6
#     4   4   4   4   4   4
#     4   9  18  33  60  93 115 143 199 258 303 354
#     4  10  19  36  61  87 117 155 200 251 304 365
#     4   9  18  33  60  93 115 143 199 258 303 354
#     4  10  19  36  61  87 117 155 200 251 304 365
#     4  12  26  40  55  85 127 165 203 253 312 374
#     4  10  19  36  62  89 118 157 205 259 311 366
#
# _framework density 23.180667
#
# number of rings (size 3 to 8) (size 9 to 14) (size 15 to 20)
#    0.000    2.000    0.000    5.500    0.000    4.000 
#    0.000   10.000    0.000    0.000    0.000    0.000 
#    0.000    0.000    0.000    0.000    0.000    0.000 
#
# Total GULP energy -133678.052862 kJ/mol
# GULP energy per Si atom -5569.918869 kJ/mol
# Density = 2.312791 g / cm^3
# Si number density = 23.180667 Si / 1000 Ang^3
#
#
#
# Elastic Constant Matrix: (Units=GPa)
#
#
# Indices 1 2 3 4 5 6 
#
# 1 123.0789 15.7500 75.3511 0.0000 -82.6249 0.0000
# 2 15.7500 84.3178 20.7613 0.0000 -19.6850 0.0000
# 3 75.3511 20.7613 -2.9188 0.0000 22.6675 0.0000
# 4 0.0000 0.0000 0.0000 6.4424 0.0000 -12.4735
# 5 -82.6249 -19.6850 22.6675 0.0000 27.3911 0.0000
# 6 0.0000 0.0000 0.0000 -12.4735 0.0000 28.2259
#
#
#
# Elastic Compliance Matrix: (Units=1/GPa)
#
#
# Indices 1 2 3 4 5 6 
#
# 1 0.001919 -0.002904 0.007761 0.000000 -0.002720 0.000000
# 2 -0.002904 0.011886 0.001059 0.000000 -0.001095 0.000000
# 3 0.007761 0.001059 0.007133 0.000000 0.018267 0.000000
# 4 0.000000 0.000000 0.000000 1.075110 0.000000 0.475108
# 5 -0.002720 -0.001095 0.018267 0.000000 0.012398 0.000000
# 6 0.000000 0.000000 0.000000 0.475108 0.000000 0.245386
#
#
# Mechanical properties :
#
#
# Convention : Reuss Voigt Hill
#
# Bulk Modulus (GPa) = 30.51743 47.57807 39.04775
# Shear Modulus (GPa) = 3.69569 18.58625 11.14097
#
# Velocity S-wave (km/s) = 1.26403 2.83468 2.19467
# Velocity P-wave (km/s) = 3.91458 5.59315 4.82738
#
# Compressibility (1/GPa) = 0.03276816
#
# Stress axis : x y z
#
# Youngs Moduli (GPa) = 521.04879 84.13237 140.18772
#
# Poissons Ratio (x) = 0.24436 -1.08793
# Poissons Ratio (y) = 1.51335 -0.14842
# Poissons Ratio (z) = -4.04363 -0.08907
#
# Static dielectric constant tensor:
#      x y z
#    x 2.034320 0.000000 -0.169560 
#    y 0.000000 1.757340 0.000000 
#    z -0.169560 0.000000 1.938120 
# 
# From -- ./inp_files/74219.got.cif
#   From: 2010.05.17/outbox.cif.g08.bks.cpg/sg14_38_cif.got.tgz:74219.got - 2010.06.03 17:49:19.
