data_PCOD9241403
_publ_section_title
;
Structure prediction by ZEFSAII (Michael W. Deem and Ramdas Pophale) SiO2 
 PCOD9241403
Probable space group: P 21/C
;
_chemical_formula_sum "Si O2"
_cell_formula_units_Z 28
_cell_length_a 17.188180
_cell_length_b 13.979793
_cell_length_c 8.662749
_cell_angle_alpha 90.000000
_cell_angle_beta 34.939455
_cell_angle_gamma 90.000000
_cell_volume 1192.124239
_symmetry_space_group_name_H-M "P 21/C"
_symmetry_group_IT_number 14
_symmetry_cell_setting 'monoclinic'
loop_
_space_group_symop_operation_xyz
x,y,z
-x,1/2+y,1/2-z
-x,-y,-z
x,1/2-y,1/2+z
loop_
_atom_site_type_symbol
_atom_site_label
_atom_site_fract_x
_atom_site_fract_y
_atom_site_fract_z
Si Si1 0.967148 0.550755 0.782997
Si Si2 0.511930 0.558700 0.680235
Si Si3 0.433676 0.252789 0.574499
Si Si4 0.598971 0.152381 0.049737
Si Si5 0.781051 0.499117 0.825533
Si Si6 0.702599 0.913417 0.131172
Si Si7 0.875958 0.082324 0.687687
O O1 0.835341 0.556277 0.886923
O O2 0.090291 0.554199 0.459940
O O3 0.020077 0.612171 0.845054
O O4 0.941576 0.450211 0.918344
O O5 0.587594 0.645971 0.474040
O O6 0.561685 0.453688 0.549595
O O7 0.559068 0.564189 0.781593
O O8 0.350079 0.565126 0.924893
O O9 0.496430 0.178683 0.352139
O O10 0.556176 0.272157 0.492389
O O11 0.302762 0.202486 0.863723
O O12 0.753266 0.153498 0.853788
O O13 0.731429 0.561407 0.761080
O O14 0.800761 0.985057 0.875336
#
# Coordination Sequence:
#
# PCOD9241403 Si02
#       7
#     4   4   4   4   4   4   4
#     4   9  19  35  62  99 117 177 220 264 308 384
#     4  11  22  39  65  98 134 166 210 261 333 385
#     4  12  23  39  59 104 130 166 208 255 339 381
#     4  11  24  39  65  99 129 167 207 266 329 390
#     4  10  19  35  64  99 126 165 225 259 321 382
#     4  10  21  37  60  93 134 165 201 267 320 390
#     4   9  20  39  62  95 128 168 222 258 324 378
#
# _framework density 23.487486000000001
#
# number of rings (size 3 to 8) (size 9 to 14) (size 15 to 20)
#    0.000    1.714    2.857    1.714    4.000    1.143 
#    0.000    0.000    0.000    0.000  234.000    0.000 
#    0.000    0.000    0.000    0.000    0.000    0.000 
#
# Total GULP energy -155919.395560 kJ/mol
# GULP energy per Si atom -5568.549841 kJ/mol
# Density = 2.343403 g / cm^3
# Si number density = 23.487486 Si / 1000 Ang^3
#
#
#
# Elastic Constant Matrix: (Units=GPa)
#
#
# Indices 1 2 3 4 5 6 
#
# 1 150.9776 10.5266 20.3115 0.0000 0.7452 0.0000
# 2 10.5266 68.8512 10.4902 0.0000 3.2732 0.0000
# 3 20.3115 10.4902 67.7524 0.0000 8.1841 0.0000
# 4 0.0000 0.0000 0.0000 19.2922 0.0000 2.0264
# 5 0.7452 3.2732 8.1841 0.0000 26.7110 0.0000
# 6 0.0000 0.0000 0.0000 2.0264 0.0000 34.5779
#
#
#
# Elastic Compliance Matrix: (Units=1/GPa)
#
#
# Indices 1 2 3 4 5 6 
#
# 1 0.006948 -0.000778 -0.002025 0.000000 0.000522 0.000000
# 2 -0.000778 0.014997 -0.001941 0.000000 -0.001221 0.000000
# 3 -0.002025 -0.001941 0.016233 0.000000 -0.004679 0.000000
# 4 0.000000 0.000000 0.000000 0.052155 0.000000 -0.003057
# 5 0.000522 -0.001221 -0.004679 0.000000 0.039007 0.000000
# 6 0.000000 0.000000 0.000000 -0.003057 0.000000 0.029099
#
#
# Mechanical properties :
#
#
# Convention : Reuss Voigt Hill
#
# Bulk Modulus (GPa) = 34.85864 41.13752 37.99808
# Shear Modulus (GPa) = 28.17047 32.53308 30.35178
#
# Velocity S-wave (km/s) = 3.46697 3.72576 3.59869
# Velocity P-wave (km/s) = 5.55878 6.00509 5.78624
#
# Compressibility (1/GPa) = 0.02868729
#
# Stress axis : x y z
#
# Youngs Moduli (GPa) = 143.93297 66.68046 61.60451
#
# Poissons Ratio (x) = 0.05191 0.12477
# Poissons Ratio (y) = 0.11205 0.11958
# Poissons Ratio (z) = 0.29152 0.12943
#
# Static dielectric constant tensor:
#      x y z
#    x 1.964610 0.000000 0.023230 
#    y 0.000000 1.947630 0.000000 
#    z 0.023230 0.000000 1.982750 
# 
# From -- ./inp_files/17984.got.cif
#   From: 2010.05.17/outbox.cif.g08.bks.cpg/sg14_9_cif.got.tgz:17984.got - 2010.06.03 17:49:19.
