data_PCOD9241125
_publ_section_title
;
Structure prediction by ZEFSAII (Michael W. Deem and Ramdas Pophale) SiO2 
 PCOD9241125
Probable space group: P 21/C
;
_chemical_formula_sum "Si O2"
_cell_formula_units_Z 16
_cell_length_a 10.362188
_cell_length_b 11.155896
_cell_length_c 5.519709
_cell_angle_alpha 90.000000
_cell_angle_beta 64.692879
_cell_angle_gamma 90.000000
_cell_volume 576.839079
_symmetry_space_group_name_H-M "P 21/C"
_symmetry_group_IT_number 14
_symmetry_cell_setting 'monoclinic'
loop_
_space_group_symop_operation_xyz
x,y,z
-x,1/2+y,1/2-z
-x,-y,-z
x,1/2-y,1/2+z
loop_
_atom_site_type_symbol
_atom_site_label
_atom_site_fract_x
_atom_site_fract_y
_atom_site_fract_z
Si Si1 0.073217 0.886168 0.065546
Si Si2 0.311807 0.598847 0.061248
Si Si3 0.766231 0.817788 0.439061
Si Si4 0.622591 0.089269 0.981066
O O1 0.940456 0.819861 0.292759
O O2 0.166898 0.834853 0.765436
O O3 0.205206 0.935396 0.124665
O O4 0.000000 0.000000 0.000000
O O5 0.277994 0.458022 0.040705
O O6 0.414176 0.605421 0.208411
O O7 0.370618 0.661359 0.776285
O O8 0.721645 0.753175 0.727410
O O9 0.500000 0.000000 0.000000
#
# Coordination Sequence:
#
# PCOD9241125 Si02
#       4
#     4   4   4   4
#     4   8  20  34  56  81 108 136 183 228 264 316
#     4   9  20  35  56  79 112 138 188 222 270 313
#     4  11  22  33  54  82 114 144 177 222 280 326
#     4  10  19  34  60  83 104 140 184 232 270 314
#
# _framework density 27.737373000000002
#
# number of rings (size 3 to 8) (size 9 to 14) (size 15 to 20)
#    1.500    1.000    0.000    2.250    3.500    2.000 
#    0.000    0.000    0.000    9.000    0.000    0.000 
#    0.000    0.000    0.000    0.000    0.000    0.000 
#
# Total GULP energy -89085.334275 kJ/mol
# GULP energy per Si atom -5567.833392 kJ/mol
# Density = 2.767424 g / cm^3
# Si number density = 27.737373 Si / 1000 Ang^3
#
#
#
# Elastic Constant Matrix: (Units=GPa)
#
#
# Indices 1 2 3 4 5 6 
#
# 1 138.0323 70.0874 58.4987 0.0000 32.7666 0.0000
# 2 70.0874 169.4755 29.4757 0.0000 15.6075 0.0000
# 3 58.4987 29.4757 192.6643 0.0000 36.3629 0.0000
# 4 0.0000 0.0000 0.0000 8.8709 0.0000 -23.3501
# 5 32.7666 15.6075 36.3629 0.0000 69.0981 0.0000
# 6 0.0000 0.0000 0.0000 -23.3501 0.0000 22.1012
#
#
#
# Elastic Compliance Matrix: (Units=1/GPa)
#
#
# Indices 1 2 3 4 5 6 
#
# 1 0.010828 -0.003820 -0.002106 0.000000 -0.003163 0.000000
# 2 -0.003820 0.007470 -0.000007 0.000000 0.000128 0.000000
# 3 -0.002106 -0.000007 0.006264 0.000000 -0.002296 0.000000
# 4 0.000000 0.000000 0.000000 -0.063297 0.000000 -0.066873
# 5 -0.003163 0.000128 -0.002296 0.000000 0.017152 0.000000
# 6 0.000000 0.000000 0.000000 -0.066873 0.000000 -0.025406
#
#
# Mechanical properties :
#
#
# Convention : Reuss Voigt Hill
#
# Bulk Modulus (GPa) = 78.77004 90.69952 84.73478
# Shear Modulus (GPa) = -161.86623 42.82139 -59.52242
#
# Velocity S-wave (km/s) = -7.64744 3.93340 -4.63744
# Velocity P-wave (km/s) = 7.03688 7.30748 1.39312
#
# Compressibility (1/GPa) = 0.01269518
#
# Stress axis : x y z
#
# Youngs Moduli (GPa) = 92.35257 133.87034 159.63364
#
# Poissons Ratio (x) = 0.51143 0.33622
# Poissons Ratio (y) = 0.35282 0.00112
# Poissons Ratio (z) = 0.19451 0.00094
#
# Static dielectric constant tensor:
#      x y z
#    x 2.101690 0.000000 0.008910 
#    y 0.000000 2.289380 0.000000 
#    z 0.008910 0.000000 2.290770 
# 
# From -- ./inp_files/1082.got.cif
#   From: 2010.05.17/outbox.cif.g08.bks.cpg/sg14_1_cif.got.tgz:1082.got - 2010.06.03 17:49:19.
