data_PCOD9241020
_publ_section_title
;
Structure prediction by ZEFSAII (Michael W. Deem and Ramdas Pophale) SiO2 
 PCOD9241020
Probable space group: P 21/C
;
_chemical_formula_sum "Si O2"
_cell_formula_units_Z 28
_cell_length_a 8.270147
_cell_length_b 7.095404
_cell_length_c 27.969906
_cell_angle_alpha 90.000000
_cell_angle_beta 38.982693
_cell_angle_gamma 90.000000
_cell_volume 1032.502516
_symmetry_space_group_name_H-M "P 21/C"
_symmetry_group_IT_number 14
_symmetry_cell_setting 'monoclinic'
loop_
_space_group_symop_operation_xyz
x,y,z
-x,1/2+y,1/2-z
-x,-y,-z
x,1/2-y,1/2+z
loop_
_atom_site_type_symbol
_atom_site_label
_atom_site_fract_x
_atom_site_fract_y
_atom_site_fract_z
Si Si1 0.746011 0.790977 0.908178
Si Si2 0.900655 0.477308 0.596018
Si Si3 0.486340 0.696159 0.246344
Si Si4 0.055209 0.300535 0.739483
Si Si5 0.226259 0.757600 0.471124
Si Si6 0.909271 0.991221 0.680094
Si Si7 0.553601 0.451001 0.850920
O O1 0.464910 0.808568 0.950273
O O2 0.855424 0.894494 0.929589
O O3 0.812532 0.566376 0.897928
O O4 0.927000 0.846313 0.820971
O O5 0.653469 0.458504 0.686668
O O6 0.818351 0.351172 0.568892
O O7 0.983065 0.681189 0.556574
O O8 0.274417 0.857162 0.302409
O O9 0.783521 0.704561 0.194729
O O10 0.496749 0.631144 0.189371
O O11 0.136570 0.482865 0.752540
O O12 0.271076 0.140646 0.696360
O O13 0.758025 0.302511 0.826557
O O14 0.310762 0.971012 0.436661
#
# Coordination Sequence:
#
# PCOD9241020 Si02
#       7
#     4   4   4   4   4   4   4
#     4  10  19  34  55  85 115 146 198 240 293 333
#     4  10  20  35  53  83 118 151 192 237 289 341
#     4  11  21  36  56  88 115 148 195 244 290 346
#     4  11  18  33  54  83 117 145 186 242 292 341
#     4  10  20  34  56  82 117 152 189 242 286 343
#     4  11  20  34  55  87 117 150 193 243 296 341
#     4  11  19  34  55  84 111 146 188 240 290 338
#
# _framework density 27.118580000000001
#
# number of rings (size 3 to 8) (size 9 to 14) (size 15 to 20)
#    0.000    1.429    5.714    4.714    0.000    0.000 
#    0.000    0.000    0.000    1.714    0.000    0.000 
#    0.000    0.000    0.000    0.000    0.000    0.000 
#
# Total GULP energy -155909.940603 kJ/mol
# GULP energy per Si atom -5568.212164 kJ/mol
# Density = 2.705686 g / cm^3
# Si number density = 27.118580 Si / 1000 Ang^3
#
#
#
# Elastic Constant Matrix: (Units=GPa)
#
#
# Indices 1 2 3 4 5 6 
#
# 1 129.5930 -6.2919 19.3030 0.0000 -7.9426 0.0000
# 2 -6.2919 14.8423 0.0953 0.0000 -0.8058 0.0000
# 3 19.3030 0.0953 66.2096 0.0000 -8.7956 0.0000
# 4 0.0000 0.0000 0.0000 31.2825 0.0000 1.7079
# 5 -7.9426 -0.8058 -8.7956 0.0000 13.6897 0.0000
# 6 0.0000 0.0000 0.0000 1.7079 0.0000 36.7146
#
#
#
# Elastic Compliance Matrix: (Units=1/GPa)
#
#
# Indices 1 2 3 4 5 6 
#
# 1 0.008428 0.003795 -0.001950 0.000000 0.003860 0.000000
# 2 0.003795 0.069313 -0.000406 0.000000 0.006020 0.000000
# 3 -0.001950 -0.000406 0.016967 0.000000 0.009746 0.000000
# 4 0.000000 0.000000 0.000000 0.032048 0.000000 -0.001491
# 5 0.003860 0.006020 0.009746 0.000000 0.081904 0.000000
# 6 0.000000 0.000000 0.000000 -0.001491 0.000000 0.027306
#
#
# Mechanical properties :
#
#
# Convention : Reuss Voigt Hill
#
# Bulk Modulus (GPa) = 10.24742 26.31754 18.28248
# Shear Modulus (GPa) = 18.82406 29.50659 24.16533
#
# Velocity S-wave (km/s) = 2.63751 3.30215 2.98837
# Velocity P-wave (km/s) = 3.61417 4.92591 4.32012
#
# Compressibility (1/GPa) = 0.09758552
#
# Stress axis : x y z
#
# Youngs Moduli (GPa) = 118.65629 14.42729 58.93684
#
# Poissons Ratio (x) = -0.05475 0.11491
# Poissons Ratio (y) = -0.45027 0.02395
# Poissons Ratio (z) = 0.23134 0.00586
#
# Static dielectric constant tensor:
#      x y z
#    x 2.331800 0.000000 -0.010380 
#    y 0.000000 2.514520 0.000000 
#    z -0.010380 0.000000 2.092430 
# 
# From -- ./inp_files/79465.got.cif
#   From: 2010.05.17/outbox.cif.g08.bks.cpg/sg14_40_cif.got.tgz:79465.got - 2010.06.03 17:49:19.
