data_PCOD9241400
_publ_section_title
;
Structure prediction by ZEFSAII (Michael W. Deem and Ramdas Pophale) SiO2 
 PCOD9241400
Probable space group: P 21/C
;
_chemical_formula_sum "Si O2"
_cell_formula_units_Z 32
_cell_length_a 11.553904
_cell_length_b 18.160545
_cell_length_c 8.464412
_cell_angle_alpha 90.000000
_cell_angle_beta 123.456922
_cell_angle_gamma 90.000000
_cell_volume 1481.756915
_symmetry_space_group_name_H-M "P 21/C"
_symmetry_group_IT_number 14
_symmetry_cell_setting 'monoclinic'
loop_
_space_group_symop_operation_xyz
x,y,z
-x,1/2+y,1/2-z
-x,-y,-z
x,1/2-y,1/2+z
loop_
_atom_site_type_symbol
_atom_site_label
_atom_site_fract_x
_atom_site_fract_y
_atom_site_fract_z
Si Si1 0.549009 0.173024 0.775177
Si Si2 0.753908 0.600520 0.433095
Si Si3 0.122968 0.211031 0.719035
Si Si4 0.217205 0.703284 0.809403
Si Si5 0.255877 0.557885 0.430517
Si Si6 0.842699 0.150571 0.392206
Si Si7 0.997650 0.135775 0.080442
Si Si8 0.598377 0.789975 0.638193
O O1 0.668210 0.181862 0.732683
O O2 0.520931 0.237101 0.882182
O O3 0.420176 0.182804 0.556212
O O4 0.604743 0.101632 0.910502
O O5 0.817717 0.660753 0.598632
O O6 0.729144 0.525891 0.506976
O O7 0.617006 0.637679 0.257940
O O8 0.866112 0.592394 0.375242
O O9 0.260978 0.242020 0.738998
O O10 0.007419 0.162040 0.541846
O O11 0.045326 0.288200 0.701291
O O12 0.200728 0.790357 0.774142
O O13 0.079756 0.665479 0.634200
O O14 0.225694 0.675387 0.994113
O O15 0.217123 0.574611 0.219170
O O16 0.116105 0.588438 0.413087
#
# Coordination Sequence:
#
# PCOD9241400 Si02
#       8
#     4   4   4   4   4   4   4   4
#     4  11  23  41  64  93 121 171 223 263 306 375
#     4  11  22  42  64  97 135 167 210 269 331 384
#     4  10  21  37  67  95 123 166 215 257 317 383
#     4  10  19  35  64  92 120 160 217 266 306 370
#     4  11  25  38  64  99 136 168 206 266 342 378
#     4  11  20  36  62  97 127 158 205 267 325 383
#     4   9  20  38  65  96 127 166 207 266 320 397
#     4  11  23  41  69  90 124 170 228 263 301 379
#
# _framework density 21.595984999999999
#
# number of rings (size 3 to 8) (size 9 to 14) (size 15 to 20)
#    0.000    1.500    2.500    4.125    3.500    1.000 
#    0.000    0.625    2.750    0.000    0.000    0.000 
#    0.000    0.000    0.000    0.000    0.000    0.000 
#
# Total GULP energy -178414.244320 kJ/mol
# GULP energy per Si atom -5575.445135 kJ/mol
# Density = 2.154683 g / cm^3
# Si number density = 21.595985 Si / 1000 Ang^3
#
#
#
# Elastic Constant Matrix: (Units=GPa)
#
#
# Indices 1 2 3 4 5 6 
#
# 1 68.6911 21.5491 6.3678 0.0000 1.2630 0.0000
# 2 21.5491 39.0992 24.1903 0.0000 1.2681 0.0000
# 3 6.3678 24.1903 99.7589 0.0000 1.0077 0.0000
# 4 0.0000 0.0000 0.0000 18.7547 0.0000 5.4455
# 5 1.2630 1.2681 1.0077 0.0000 30.9097 0.0000
# 6 0.0000 0.0000 0.0000 5.4455 0.0000 19.1083
#
#
#
# Elastic Compliance Matrix: (Units=1/GPa)
#
#
# Indices 1 2 3 4 5 6 
#
# 1 0.017784 -0.010695 0.001462 0.000000 -0.000336 0.000000
# 2 -0.010695 0.036553 -0.008173 0.000000 -0.000796 0.000000
# 3 0.001462 -0.008173 0.011914 0.000000 -0.000113 0.000000
# 4 0.000000 0.000000 0.000000 0.058130 0.000000 -0.016566
# 5 -0.000336 -0.000796 -0.000113 0.000000 0.032402 0.000000
# 6 0.000000 0.000000 0.000000 -0.016566 0.000000 0.057054
#
#
# Mechanical properties :
#
#
# Convention : Reuss Voigt Hill
#
# Bulk Modulus (GPa) = 31.80851 34.64040 33.22446
# Shear Modulus (GPa) = 19.29552 24.11734 21.70643
#
# Velocity S-wave (km/s) = 2.99235 3.34541 3.17379
# Velocity P-wave (km/s) = 5.16718 5.56753 5.37109
#
# Compressibility (1/GPa) = 0.03143813
#
# Stress axis : x y z
#
# Youngs Moduli (GPa) = 56.23147 27.35790 83.93611
#
# Poissons Ratio (x) = 0.29258 -0.12268
# Poissons Ratio (y) = 0.60137 0.68600
# Poissons Ratio (z) = -0.08218 0.22359
#
# Static dielectric constant tensor:
#      x y z
#    x 1.865860 0.000000 0.042470 
#    y 0.000000 1.765300 0.000000 
#    z 0.042470 0.000000 1.880060 
# 
# From -- ./inp_files/13904.got.cif
#   From: 2010.05.17/outbox.cif.g08.bks.cpg/sg14_7_cif.got.tgz:13904.got - 2010.06.03 17:49:19.
