data_PCOD9241619
_publ_section_title
;
Structure prediction by ZEFSAII (Michael W. Deem and Ramdas Pophale) SiO2 
 PCOD9241619
Probable space group: P 21/C
;
_chemical_formula_sum "Si O2"
_cell_formula_units_Z 28
_cell_length_a 21.244247
_cell_length_b 10.132478
_cell_length_c 8.615376
_cell_angle_alpha 90.000000
_cell_angle_beta 43.963546
_cell_angle_gamma 90.000000
_cell_volume 1287.408003
_symmetry_space_group_name_H-M "P 21/C"
_symmetry_group_IT_number 14
_symmetry_cell_setting 'monoclinic'
loop_
_space_group_symop_operation_xyz
x,y,z
-x,1/2+y,1/2-z
-x,-y,-z
x,1/2-y,1/2+z
loop_
_atom_site_type_symbol
_atom_site_label
_atom_site_fract_x
_atom_site_fract_y
_atom_site_fract_z
Si Si1 0.033552 0.678190 0.460392
Si Si2 0.225638 0.588271 0.091666
Si Si3 0.598030 0.060777 0.300092
Si Si4 0.102755 0.191074 0.538088
Si Si5 0.670538 0.202192 0.878204
Si Si6 0.896045 0.042588 0.668247
Si Si7 0.769566 0.574768 0.629640
O O1 0.117505 0.590191 0.261588
O O2 0.972143 0.634911 0.711650
O O3 0.960107 0.717221 0.460989
O O4 0.088226 0.810163 0.413850
O O5 0.263474 0.708693 0.131568
O O6 0.244853 0.460588 0.163866
O O7 0.275666 0.612722 0.840863
O O8 0.613927 0.188945 0.382011
O O9 0.500000 0.000000 0.500000
O O10 0.675890 0.954748 0.208527
O O11 0.614448 0.112117 0.096364
O O12 0.144912 0.069411 0.369512
O O13 0.179033 0.285616 0.475733
O O14 0.839907 0.031033 0.927102
O O15 0.000000 0.000000 0.500000
#
# Coordination Sequence:
#
# PCOD9241619 Si02
#       7
#     4   4   4   4   4   4   4
#     4  11  21  35  58  81 123 171 213 252 309 379
#     4  10  19  36  63  94 118 168 217 259 307 367
#     4  10  22  44  71  96 128 165 207 273 333 386
#     4  11  22  37  52  84 122 169 211 260 315 376
#     4   9  19  40  67  99 125 157 220 263 310 399
#     4  10  19  38  56  75 124 165 202 249 315 373
#     4  11  22  41  59  85 127 161 209 271 317 380
#
# _framework density 21.749127000000001
#
# number of rings (size 3 to 8) (size 9 to 14) (size 15 to 20)
#    0.000    1.714    2.857    5.143    0.000    0.571 
#    7.714    6.429    0.000    0.000    0.000    0.000 
#    0.000    0.000    0.000    0.000    0.000    0.000 
#
# Total GULP energy -156395.484633 kJ/mol
# GULP energy per Si atom -5585.553023 kJ/mol
# Density = 2.169962 g / cm^3
# Si number density = 21.749127 Si / 1000 Ang^3
#
#
#
# Elastic Constant Matrix: (Units=GPa)
#
#
# Indices 1 2 3 4 5 6 
#
# 1 85.3392 29.6314 77.3766 0.0000 -4.7103 0.0000
# 2 29.6314 74.4714 43.6612 0.0000 -2.2764 0.0000
# 3 77.3766 43.6612 148.3661 0.0000 7.0209 0.0000
# 4 0.0000 0.0000 0.0000 24.3167 0.0000 3.0394
# 5 -4.7103 -2.2764 7.0209 0.0000 39.4324 0.0000
# 6 0.0000 0.0000 0.0000 3.0394 0.0000 30.0119
#
#
#
# Elastic Compliance Matrix: (Units=1/GPa)
#
#
# Indices 1 2 3 4 5 6 
#
# 1 0.023465 -0.002276 -0.011793 0.000000 0.004771 0.000000
# 2 -0.002276 0.016577 -0.003755 0.000000 0.001354 0.000000
# 3 -0.011793 -0.003755 0.014192 0.000000 -0.004152 0.000000
# 4 0.000000 0.000000 0.000000 0.041651 0.000000 -0.004218
# 5 0.004771 0.001354 -0.004152 0.000000 0.026747 0.000000
# 6 0.000000 0.000000 0.000000 -0.004218 0.000000 0.033747
#
#
# Mechanical properties :
#
#
# Convention : Reuss Voigt Hill
#
# Bulk Modulus (GPa) = 53.80969 67.72389 60.76679
# Shear Modulus (GPa) = 25.22411 29.25270 27.23840
#
# Velocity S-wave (km/s) = 3.40924 3.67141 3.54275
# Velocity P-wave (km/s) = 6.34760 7.01275 6.68845
#
# Compressibility (1/GPa) = 0.01858401
#
# Stress axis : x y z
#
# Youngs Moduli (GPa) = 42.61741 60.32601 70.46162
#
# Poissons Ratio (x) = 0.13732 0.83097
# Poissons Ratio (y) = 0.09701 0.26459
# Poissons Ratio (z) = 0.50260 0.22653
#
# Static dielectric constant tensor:
#      x y z
#    x 1.843110 0.000000 0.080720 
#    y 0.000000 1.918770 0.000000 
#    z 0.080720 0.000000 1.850780 
# 
# From -- ./inp_files/18925.got.cif
#   From: 2010.05.17/outbox.cif.g08.bks.cpg/sg14_10_cif.got.tgz:18925.got - 2010.06.03 17:49:19.
