data_PCOD9241984
_publ_section_title
;
Structure prediction by ZEFSAII (Michael W. Deem and Ramdas Pophale) SiO2 
 PCOD9241984
Probable space group: P 21/C
;
_chemical_formula_sum "Si O2"
_cell_formula_units_Z 24
_cell_length_a 18.074979
_cell_length_b 11.966531
_cell_length_c 11.468046
_cell_angle_alpha 90.000000
_cell_angle_beta 23.035414
_cell_angle_gamma 90.000000
_cell_volume 970.611330
_symmetry_space_group_name_H-M "P 21/C"
_symmetry_group_IT_number 14
_symmetry_cell_setting 'monoclinic'
loop_
_space_group_symop_operation_xyz
x,y,z
-x,1/2+y,1/2-z
-x,-y,-z
x,1/2-y,1/2+z
loop_
_atom_site_type_symbol
_atom_site_label
_atom_site_fract_x
_atom_site_fract_y
_atom_site_fract_z
Si Si1 0.856675 0.365868 0.745806
Si Si2 0.252074 0.959329 0.059948
Si Si3 0.218427 0.285939 0.684670
Si Si4 0.424615 0.718581 0.445842
Si Si5 0.910474 0.502083 0.428321
Si Si6 0.438338 0.161966 0.541975
O O1 0.657980 0.303898 0.031838
O O2 0.863601 0.441207 0.618942
O O3 0.018013 0.273480 0.487670
O O4 0.907563 0.428426 0.791928
O O5 0.444251 0.918001 0.715452
O O6 0.092179 0.936300 0.191030
O O7 0.290729 0.887825 0.122026
O O8 0.220805 0.086332 0.143602
O O9 0.326583 0.264284 0.647590
O O10 0.350900 0.212181 0.404307
O O11 0.416780 0.786003 0.576846
O O12 0.732927 0.585125 0.664442
#
# Coordination Sequence:
#
# PCOD9241984 Si02
#       6
#     4   4   4   4   4   4
#     4  10  22  38  63  92 124 161 211 257 313 371
#     4  11  21  36  65  89 124 168 204 253 316 372
#     4  10  23  39  61  95 124 161 214 255 312 382
#     4  11  22  40  66  91 126 166 207 263 314 371
#     4  10  19  38  64  88 118 163 208 260 302 369
#     4  10  20  40  65  90 125 160 212 266 307 374
#
# _framework density 24.726685
#
# number of rings (size 3 to 8) (size 9 to 14) (size 15 to 20)
#    0.000    1.667    3.333    1.500    0.000    4.000 
#    0.000    0.000    0.000    0.000    0.000    0.000 
#    0.000    0.000    0.000    0.000    0.000    0.000 
#
# Total GULP energy -133748.963647 kJ/mol
# GULP energy per Si atom -5572.873485 kJ/mol
# Density = 2.467041 g / cm^3
# Si number density = 24.726685 Si / 1000 Ang^3
#
#
#
# Elastic Constant Matrix: (Units=GPa)
#
#
# Indices 1 2 3 4 5 6 
#
# 1 139.5820 69.5288 19.2069 0.0000 -18.8636 0.0000
# 2 69.5288 83.8069 -1.0503 0.0000 -3.0782 0.0000
# 3 19.2069 -1.0503 52.4125 0.0000 -6.1242 0.0000
# 4 0.0000 0.0000 0.0000 12.9522 0.0000 1.4059
# 5 -18.8636 -3.0782 -6.1242 0.0000 17.1688 0.0000
# 6 0.0000 0.0000 0.0000 1.4059 0.0000 54.3179
#
#
#
# Elastic Compliance Matrix: (Units=1/GPa)
#
#
# Indices 1 2 3 4 5 6 
#
# 1 0.016054 -0.012872 -0.004539 0.000000 0.013712 0.000000
# 2 -0.012872 0.022345 0.004153 0.000000 -0.008655 0.000000
# 3 -0.004539 0.004153 0.021214 0.000000 0.003325 0.000000
# 4 0.000000 0.000000 0.000000 0.077424 0.000000 -0.002004
# 5 0.013712 -0.008655 0.003325 0.000000 0.072945 0.000000
# 6 0.000000 0.000000 0.000000 -0.002004 0.000000 0.018462
#
#
# Mechanical properties :
#
#
# Convention : Reuss Voigt Hill
#
# Bulk Modulus (GPa) = 30.21229 50.13026 40.17128
# Shear Modulus (GPa) = 18.79758 29.42884 24.11321
#
# Velocity S-wave (km/s) = 2.76019 3.45362 3.12619
# Velocity P-wave (km/s) = 4.73320 6.01839 5.41407
#
# Compressibility (1/GPa) = 0.03309911
#
# Stress axis : x y z
#
# Youngs Moduli (GPa) = 62.29157 44.75234 47.13773
#
# Poissons Ratio (x) = 0.57604 0.21395
# Poissons Ratio (y) = 0.80180 -0.19579
# Poissons Ratio (z) = 0.28272 -0.18588
#
# Static dielectric constant tensor:
#      x y z
#    x 2.055660 0.000000 0.109050 
#    y 0.000000 2.074110 0.000000 
#    z 0.109050 0.000000 2.003360 
# 
# From -- ./inp_files/33862.got.cif
#   From: 2010.05.17/outbox.cif.g08.bks.cpg/sg14_17_cif.got.tgz:33862.got - 2010.06.03 17:49:19.
