data_PCOD9241860
_publ_section_title
;
Structure prediction by ZEFSAII (Michael W. Deem and Ramdas Pophale) SiO2 
 PCOD9241860
Probable space group: P 21/C
;
_chemical_formula_sum "Si O2"
_cell_formula_units_Z 28
_cell_length_a 8.580891
_cell_length_b 8.217710
_cell_length_c 25.796173
_cell_angle_alpha 90.000000
_cell_angle_beta 138.707042
_cell_angle_gamma 90.000000
_cell_volume 1200.391039
_symmetry_space_group_name_H-M "P 21/C"
_symmetry_group_IT_number 14
_symmetry_cell_setting 'monoclinic'
loop_
_space_group_symop_operation_xyz
x,y,z
-x,1/2+y,1/2-z
-x,-y,-z
x,1/2-y,1/2+z
loop_
_atom_site_type_symbol
_atom_site_label
_atom_site_fract_x
_atom_site_fract_y
_atom_site_fract_z
Si Si1 0.409490 0.662882 0.135119
Si Si2 0.985489 0.125202 0.916485
Si Si3 0.200784 0.640627 0.314824
Si Si4 0.287487 0.683340 0.929400
Si Si5 0.598771 0.410265 0.454753
Si Si6 0.827536 0.434123 0.262352
Si Si7 0.259337 0.452083 0.010411
O O1 0.271623 0.804255 0.131676
O O2 0.485560 0.764865 0.103714
O O3 0.611535 0.560502 0.213894
O O4 0.254828 0.523487 0.067124
O O5 0.967519 0.090470 0.850847
O O6 0.138028 0.281079 0.971016
O O7 0.127257 0.972538 0.977285
O O8 0.116399 0.740888 0.344524
O O9 0.439431 0.556738 0.394423
O O10 0.244529 0.757383 0.277599
O O11 0.999473 0.506451 0.260866
O O12 0.469953 0.576919 0.941073
O O13 0.424490 0.827532 0.994615
O O14 0.166235 0.579757 0.944336
#
# Coordination Sequence:
#
# PCOD9241860 Si02
#       7
#     4   4   4   4   4   4   4
#     4  11  25  45  62  94 136 176 220 257 324 398
#     4  12  24  43  67  94 130 174 222 262 317 396
#     4  12  23  42  66  94 135 163 218 275 339 383
#     4  10  19  37  67  97 127 153 217 281 322 371
#     4  11  22  43  70  96 123 175 224 277 317 382
#     4  12  27  42  63 100 136 175 210 274 343 390
#     4  10  21  39  69  96 121 168 219 272 322 376
#
# _framework density 23.325734000000001
#
# number of rings (size 3 to 8) (size 9 to 14) (size 15 to 20)
#    0.000    0.857    4.286    3.000    2.000    1.143 
#    2.571    1.429    0.000    0.000    0.000    0.000 
#    0.000    0.000    0.000    0.000    0.000    0.000 
#
# Total GULP energy -156121.652446 kJ/mol
# GULP energy per Si atom -5575.773302 kJ/mol
# Density = 2.327264 g / cm^3
# Si number density = 23.325734 Si / 1000 Ang^3
#
#
#
# Elastic Constant Matrix: (Units=GPa)
#
#
# Indices 1 2 3 4 5 6 
#
# 1 32.6461 7.5625 1.5829 0.0000 5.0360 0.0000
# 2 7.5625 98.6758 30.5515 0.0000 -1.9597 0.0000
# 3 1.5829 30.5515 55.1878 0.0000 2.7950 0.0000
# 4 0.0000 0.0000 0.0000 44.7641 0.0000 -0.1847
# 5 5.0360 -1.9597 2.7950 0.0000 23.8629 0.0000
# 6 0.0000 0.0000 0.0000 -0.1847 0.0000 38.8738
#
#
#
# Elastic Compliance Matrix: (Units=1/GPa)
#
#
# Indices 1 2 3 4 5 6 
#
# 1 0.032375 -0.002956 0.001073 0.000000 -0.007201 0.000000
# 2 -0.002956 0.012579 -0.007004 0.000000 0.002477 0.000000
# 3 0.001073 -0.007004 0.022138 0.000000 -0.003395 0.000000
# 4 0.000000 0.000000 0.000000 0.022340 0.000000 0.000106
# 5 -0.007201 0.002477 -0.003395 0.000000 0.044027 0.000000
# 6 0.000000 0.000000 0.000000 0.000106 0.000000 0.025725
#
#
# Mechanical properties :
#
#
# Convention : Reuss Voigt Hill
#
# Bulk Modulus (GPa) = 20.27708 29.54485 24.91096
# Shear Modulus (GPa) = 25.85345 31.28768 28.57057
#
# Velocity S-wave (km/s) = 3.33283 3.66640 3.50358
# Velocity P-wave (km/s) = 4.84997 5.53327 5.20285
#
# Compressibility (1/GPa) = 0.04931677
#
# Stress axis : x y z
#
# Youngs Moduli (GPa) = 30.88789 79.50066 45.17029
#
# Poissons Ratio (x) = 0.23503 -0.04845
# Poissons Ratio (y) = 0.09132 0.31637
# Poissons Ratio (z) = -0.03313 0.55682
#
# Static dielectric constant tensor:
#      x y z
#    x 1.957930 0.000000 0.054720 
#    y 0.000000 1.994930 0.000000 
#    z 0.054720 0.000000 1.894040 
# 
# From -- ./inp_files/46711.got.cif
#   From: 2010.05.17/outbox.cif.g08.bks.cpg/sg14_24_cif.got.tgz:46711.got - 2010.06.03 17:49:19.
