data_PCOD9241705
_publ_section_title
;
Structure prediction by ZEFSAII (Michael W. Deem and Ramdas Pophale) SiO2 
 PCOD9241705
Probable space group: P 21/C
;
_chemical_formula_sum "Si O2"
_cell_formula_units_Z 28
_cell_length_a 22.957868
_cell_length_b 13.027772
_cell_length_c 9.557647
_cell_angle_alpha 90.000000
_cell_angle_beta 155.914716
_cell_angle_gamma 90.000000
_cell_volume 1166.581325
_symmetry_space_group_name_H-M "P 21/C"
_symmetry_group_IT_number 14
_symmetry_cell_setting 'monoclinic'
loop_
_space_group_symop_operation_xyz
x,y,z
-x,1/2+y,1/2-z
-x,-y,-z
x,1/2-y,1/2+z
loop_
_atom_site_type_symbol
_atom_site_label
_atom_site_fract_x
_atom_site_fract_y
_atom_site_fract_z
Si Si1 0.844545 0.603280 0.612369
Si Si2 0.335710 0.307530 0.354605
Si Si3 0.424161 0.183006 0.774604
Si Si4 0.923926 0.915496 0.602729
Si Si5 0.186353 0.019626 0.230359
Si Si6 0.119000 0.714357 0.084035
Si Si7 0.722675 0.152736 0.351706
O O1 0.737529 0.700598 0.359232
O O2 0.796313 0.511969 0.401556
O O3 0.868726 0.570936 0.824294
O O4 0.995331 0.646048 0.883778
O O5 0.394887 0.291235 0.639304
O O6 0.459877 0.326391 0.515689
O O7 0.210013 0.388756 0.094932
O O8 0.272103 0.124705 0.439963
O O9 0.552217 0.141230 0.962586
O O10 0.016583 0.007434 0.869958
O O11 0.029842 0.816160 0.838068
O O12 0.243246 0.939215 0.466000
O O13 0.200909 0.666397 0.130281
O O14 0.228535 0.750113 0.445517
#
# Coordination Sequence:
#
# PCOD9241705 Si02
#       7
#     4   4   4   4   4   4   4
#     4  10  19  37  59  88 118 140 188 245 290 333
#     4  10  21  35  63  87 110 149 193 238 284 326
#     4  11  22  40  58  84 118 154 192 228 276 346
#     4  10  19  37  59  88 118 140 188 245 290 333
#     4  10  24  35  60  85 118 152 184 233 300 326
#     4  10  21  35  63  87 110 149 193 238 284 326
#     4  11  22  40  58  84 118 154 192 228 276 346
#
# _framework density 24.001756
#
# number of rings (size 3 to 8) (size 9 to 14) (size 15 to 20)
#    0.000    1.714    2.857    1.714    0.000    2.286 
#    0.000    0.000    0.000    1.714    0.000    0.000 
#    0.000    0.000    0.000    0.000    0.000    0.000 
#
# Total GULP energy -156115.396215 kJ/mol
# GULP energy per Si atom -5575.549865 kJ/mol
# Density = 2.394713 g / cm^3
# Si number density = 24.001756 Si / 1000 Ang^3
#
#
#
# Elastic Constant Matrix: (Units=GPa)
#
#
# Indices 1 2 3 4 5 6 
#
# 1 172.1543 8.4950 33.0417 0.0000 4.8301 0.0000
# 2 8.4950 32.3336 4.5532 0.0000 4.9595 0.0000
# 3 33.0417 4.5532 37.4114 0.0000 -8.8948 0.0000
# 4 0.0000 0.0000 0.0000 26.1705 0.0000 -10.3193
# 5 4.8301 4.9595 -8.8948 0.0000 32.3709 0.0000
# 6 0.0000 0.0000 0.0000 -10.3193 0.0000 20.6452
#
#
#
# Elastic Compliance Matrix: (Units=1/GPa)
#
#
# Indices 1 2 3 4 5 6 
#
# 1 0.007271 -0.000461 -0.007069 0.000000 -0.002957 0.000000
# 2 -0.000461 0.032738 -0.005085 0.000000 -0.006344 0.000000
# 3 -0.007069 -0.005085 0.036406 0.000000 0.011837 0.000000
# 4 0.000000 0.000000 0.000000 0.047591 0.000000 0.023788
# 5 -0.002957 -0.006344 0.011837 0.000000 0.035558 0.000000
# 6 0.000000 0.000000 0.000000 0.023788 0.000000 0.060327
#
#
# Mechanical properties :
#
#
# Convention : Reuss Voigt Hill
#
# Bulk Modulus (GPa) = 19.53712 37.11993 28.32853
# Shear Modulus (GPa) = 19.07064 28.89129 23.98097
#
# Velocity S-wave (km/s) = 2.82184 3.47322 3.16434
# Velocity P-wave (km/s) = 4.33296 5.61992 5.01787
#
# Compressibility (1/GPa) = 0.05118461
#
# Stress axis : x y z
#
# Youngs Moduli (GPa) = 137.52965 30.54551 27.46787
#
# Poissons Ratio (x) = 0.01410 0.19416
# Poissons Ratio (y) = 0.06346 0.13968
# Poissons Ratio (z) = 0.97215 0.15533
#
# Static dielectric constant tensor:
#      x y z
#    x 1.919690 0.000000 -0.039410 
#    y 0.000000 2.002150 0.000000 
#    z -0.039410 0.000000 1.999530 
# 
# From -- ./inp_files/16450.got.cif
#   From: 2010.05.17/outbox.cif.g08.bks.cpg/sg14_9_cif.got.tgz:16450.got - 2010.06.03 17:49:19.
