data_PCOD9241573
_publ_section_title
;
Structure prediction by ZEFSAII (Michael W. Deem and Ramdas Pophale) SiO2 
 PCOD9241573
Probable space group: P 21/C
;
_chemical_formula_sum "Si O2"
_cell_formula_units_Z 28
_cell_length_a 17.334922
_cell_length_b 8.605929
_cell_length_c 21.819613
_cell_angle_alpha 90.000000
_cell_angle_beta 23.411971
_cell_angle_gamma 90.000000
_cell_volume 1293.387260
_symmetry_space_group_name_H-M "P 21/C"
_symmetry_group_IT_number 14
_symmetry_cell_setting 'monoclinic'
loop_
_space_group_symop_operation_xyz
x,y,z
-x,1/2+y,1/2-z
-x,-y,-z
x,1/2-y,1/2+z
loop_
_atom_site_type_symbol
_atom_site_label
_atom_site_fract_x
_atom_site_fract_y
_atom_site_fract_z
Si Si1 0.102149 0.951648 0.363018
Si Si2 0.509714 0.871235 0.721545
Si Si3 0.168501 0.833664 0.129295
Si Si4 0.782397 0.356108 0.024278
Si Si5 0.593466 0.658525 0.305626
Si Si6 0.068225 0.366617 0.494362
Si Si7 0.845298 0.651143 0.431952
O O1 0.089124 0.766595 0.374584
O O2 0.310873 0.029115 0.219940
O O3 0.000000 0.000000 0.500000
O O4 0.951477 0.032088 0.425911
O O5 0.307315 0.775678 0.864985
O O6 0.540834 0.889421 0.773274
O O7 0.654890 0.755699 0.579983
O O8 0.593614 0.040443 0.641195
O O9 0.016928 0.769485 0.288513
O O10 0.160888 0.013554 0.113523
O O11 0.130262 0.735470 0.095996
O O12 0.390962 0.795278 0.983671
O O13 0.756913 0.785437 0.171031
O O14 0.000000 0.500000 0.500000
O O15 0.130688 0.418473 0.516999
#
# Coordination Sequence:
#
# PCOD9241573 Si02
#       7
#     4   4   4   4   4   4   4
#     4  10  19  37  63  89 129 162 206 255 322 373
#     4  10  19  36  61  94 122 159 212 265 307 372
#     4  11  25  41  64  91 127 169 213 266 320 385
#     4  11  20  37  64  94 127 161 212 265 317 376
#     4   9  20  40  61  93 125 161 210 260 314 380
#     4  10  22  40  65  97 126 161 212 266 314 375
#     4  11  23  40  64  89 128 166 214 263 321 372
#
# _framework density 21.648581
#
# number of rings (size 3 to 8) (size 9 to 14) (size 15 to 20)
#    0.000    1.714    4.286    2.571    4.000    0.000 
#    0.000    2.857    0.000    0.000    0.000    0.000 
#    0.000    0.000    0.000    0.000    0.000    0.000 
#
# Total GULP energy -155968.715962 kJ/mol
# GULP energy per Si atom -5570.311284 kJ/mol
# Density = 2.159931 g / cm^3
# Si number density = 21.648581 Si / 1000 Ang^3
#
#
#
# Elastic Constant Matrix: (Units=GPa)
#
#
# Indices 1 2 3 4 5 6 
#
# 1 40.1001 34.4777 22.6675 0.0000 -5.1475 0.0000
# 2 34.4777 116.7220 44.4079 0.0000 -0.7220 0.0000
# 3 22.6675 44.4079 116.6226 0.0000 10.4995 0.0000
# 4 0.0000 0.0000 0.0000 26.5037 0.0000 6.5931
# 5 -5.1475 -0.7220 10.4995 0.0000 27.6891 0.0000
# 6 0.0000 0.0000 0.0000 6.5931 0.0000 35.3626
#
#
#
# Elastic Compliance Matrix: (Units=1/GPa)
#
#
# Indices 1 2 3 4 5 6 
#
# 1 0.036154 -0.008977 -0.004341 0.000000 0.008133 0.000000
# 2 -0.008977 0.012332 -0.002930 0.000000 -0.000236 0.000000
# 3 -0.004341 -0.002930 0.010989 0.000000 -0.005050 0.000000
# 4 0.000000 0.000000 0.000000 0.039566 0.000000 -0.007377
# 5 0.008133 -0.000236 -0.005050 0.000000 0.039536 0.000000
# 6 0.000000 0.000000 0.000000 -0.007377 0.000000 0.029654
#
#
# Mechanical properties :
#
#
# Convention : Reuss Voigt Hill
#
# Bulk Modulus (GPa) = 37.06600 52.95010 45.00805
# Shear Modulus (GPa) = 23.84131 29.37051 26.60591
#
# Velocity S-wave (km/s) = 3.32217 3.68733 3.50950
# Velocity P-wave (km/s) = 5.64576 6.52997 6.10390
#
# Compressibility (1/GPa) = 0.02697890
#
# Stress axis : x y z
#
# Youngs Moduli (GPa) = 27.65933 81.08760 91.00295
#
# Poissons Ratio (x) = 0.72796 0.39504
# Poissons Ratio (y) = 0.24831 0.26661
# Poissons Ratio (z) = 0.12007 0.23756
#
# Static dielectric constant tensor:
#      x y z
#    x 1.944250 0.000000 -0.131410 
#    y 0.000000 1.895760 0.000000 
#    z -0.131410 0.000000 1.871620 
# 
# From -- ./inp_files/77913.got.cif
#   From: 2010.05.17/outbox.cif.g08.bks.cpg/sg14_39_cif.got.tgz:77913.got - 2010.06.03 17:49:19.
