data_PCOD9241099
_publ_section_title
;
Structure prediction by ZEFSAII (Michael W. Deem and Ramdas Pophale) SiO2 
 PCOD9241099
Probable space group: P 21/C
;
_chemical_formula_sum "Si O2"
_cell_formula_units_Z 32
_cell_length_a 8.756492
_cell_length_b 7.598342
_cell_length_c 26.835755
_cell_angle_alpha 90.000000
_cell_angle_beta 139.354562
_cell_angle_gamma 90.000000
_cell_volume 1163.040027
_symmetry_space_group_name_H-M "P 21/C"
_symmetry_group_IT_number 14
_symmetry_cell_setting 'monoclinic'
loop_
_space_group_symop_operation_xyz
x,y,z
-x,1/2+y,1/2-z
-x,-y,-z
x,1/2-y,1/2+z
loop_
_atom_site_type_symbol
_atom_site_label
_atom_site_fract_x
_atom_site_fract_y
_atom_site_fract_z
Si Si1 0.743914 0.888256 0.317892
Si Si2 0.740250 0.170201 0.556589
Si Si3 0.247252 0.205227 0.883536
Si Si4 0.704900 0.447244 0.158377
Si Si5 0.342162 0.704381 0.266344
Si Si6 0.260502 0.871552 0.587058
Si Si7 0.830385 0.717788 0.034138
Si Si8 0.442968 0.492363 0.595969
O O1 0.766621 0.015116 0.275676
O O2 0.718579 0.032714 0.354750
O O3 0.499843 0.785200 0.260846
O O4 0.986192 0.779358 0.385564
O O5 0.515703 0.264740 0.475306
O O6 0.717114 0.164950 0.610673
O O7 0.741908 0.968281 0.536339
O O8 0.190139 0.365667 0.832362
O O9 0.075025 0.203891 0.888544
O O10 0.301830 0.037670 0.863772
O O11 0.780682 0.352053 0.228362
O O12 0.435286 0.505576 0.099640
O O13 0.539666 0.640325 0.354383
O O14 0.346991 0.675942 0.593956
O O15 0.984365 0.837995 0.524321
O O16 0.699159 0.888805 0.981023
#
# Coordination Sequence:
#
# PCOD9241099 Si02
#       8
#     4   4   4   4   4   4   4   4
#     4  10  23  41  62  82 110 153 193 239 290 339
#     4  10  20  39  60  85 117 154 188 228 291 349
#     4  10  20  36  57  85 121 153 185 232 288 346
#     4   9  19  37  61  85 115 151 189 234 282 339
#     4  11  22  41  60  82 111 147 194 240 286 340
#     4   9  20  36  56  85 117 150 191 234 279 333
#     4  10  19  34  58  87 120 152 186 228 283 340
#     4  11  21  34  56  87 119 152 187 235 283 338
#
# _framework density 27.514099999999999
#
# number of rings (size 3 to 8) (size 9 to 14) (size 15 to 20)
#    0.000    2.000    0.000    4.500    0.000    3.000 
#    0.000   19.375    0.000    0.000    0.000    0.000 
#    0.000    0.000    0.000    0.000    0.000    0.000 
#
# Total GULP energy -178265.535123 kJ/mol
# GULP energy per Si atom -5570.797973 kJ/mol
# Density = 2.745148 g / cm^3
# Si number density = 27.514100 Si / 1000 Ang^3
#
#
#
# Elastic Constant Matrix: (Units=GPa)
#
#
# Indices 1 2 3 4 5 6 
#
# 1 176.3255 38.8035 16.8174 0.0000 9.0625 0.0000
# 2 38.8035 92.7617 3.0305 0.0000 12.4414 0.0000
# 3 16.8174 3.0305 30.4778 0.0000 -3.2770 0.0000
# 4 0.0000 0.0000 0.0000 38.1438 0.0000 5.8830
# 5 9.0625 12.4414 -3.2770 0.0000 50.8397 0.0000
# 6 0.0000 0.0000 0.0000 5.8830 0.0000 37.9490
#
#
#
# Elastic Compliance Matrix: (Units=1/GPa)
#
#
# Indices 1 2 3 4 5 6 
#
# 1 0.006603 -0.002544 -0.003474 0.000000 -0.000778 0.000000
# 2 -0.002544 0.012187 -0.000080 0.000000 -0.002534 0.000000
# 3 -0.003474 -0.000080 0.035047 0.000000 0.002898 0.000000
# 4 0.000000 0.000000 0.000000 0.026859 0.000000 -0.004164
# 5 -0.000778 -0.002534 0.002898 0.000000 0.020615 0.000000
# 6 0.000000 0.000000 0.000000 -0.004164 0.000000 0.026997
#
#
# Mechanical properties :
#
#
# Convention : Reuss Voigt Hill
#
# Bulk Modulus (GPa) = 24.01544 46.31864 35.16704
# Shear Modulus (GPa) = 32.38669 41.44740 36.91704
#
# Velocity S-wave (km/s) = 3.43460 3.88546 3.66696
# Velocity P-wave (km/s) = 4.94732 6.08277 5.54419
#
# Compressibility (1/GPa) = 0.04163987
#
# Stress axis : x y z
#
# Youngs Moduli (GPa) = 151.45723 82.05445 28.53290
#
# Poissons Ratio (x) = 0.20875 0.09912
# Poissons Ratio (y) = 0.38531 0.00230
# Poissons Ratio (z) = 0.52615 0.00660
#
# Static dielectric constant tensor:
#      x y z
#    x 2.351980 0.000000 0.134610 
#    y 0.000000 2.171660 0.000000 
#    z 0.134610 0.000000 2.340340 
# 
# From -- ./inp_files/79410.got.cif
#   From: 2010.05.17/outbox.cif.g08.bks.cpg/sg14_40_cif.got.tgz:79410.got - 2010.06.03 17:49:19.
