data_PCOD9241750
_publ_section_title
;
Structure prediction by ZEFSAII (Michael W. Deem and Ramdas Pophale) SiO2 
 PCOD9241750
Probable space group: P 21/C
;
_chemical_formula_sum "Si O2"
_cell_formula_units_Z 24
_cell_length_a 7.152576
_cell_length_b 18.654156
_cell_length_c 8.634089
_cell_angle_alpha 90.000000
_cell_angle_beta 52.080535
_cell_angle_gamma 90.000000
_cell_volume 908.788854
_symmetry_space_group_name_H-M "P 21/C"
_symmetry_group_IT_number 14
_symmetry_cell_setting 'monoclinic'
loop_
_space_group_symop_operation_xyz
x,y,z
-x,1/2+y,1/2-z
-x,-y,-z
x,1/2-y,1/2+z
loop_
_atom_site_type_symbol
_atom_site_label
_atom_site_fract_x
_atom_site_fract_y
_atom_site_fract_z
Si Si1 0.782692 0.748004 0.265676
Si Si2 0.036066 0.334150 0.066558
Si Si3 0.095297 0.522277 0.212699
Si Si4 0.573309 0.123623 0.983711
Si Si5 0.201241 0.399762 0.410627
Si Si6 0.678763 0.526156 0.179979
O O1 0.818892 0.772005 0.422463
O O2 0.563104 0.693062 0.378724
O O3 0.999796 0.701411 0.083323
O O4 0.770343 0.824331 0.187713
O O5 0.818750 0.351234 0.287932
O O6 0.192698 0.404160 0.961572
O O7 0.018844 0.589577 0.357766
O O8 0.859143 0.506748 0.228157
O O9 0.163873 0.460357 0.299169
O O10 0.296112 0.528764 0.976879
O O11 0.426447 0.093534 0.910505
O O12 0.552906 0.061933 0.125201
#
# Coordination Sequence:
#
# PCOD9241750 Si02
#       6
#     4   4   4   4   4   4
#     4  11  22  39  59  87 122 155 192 242 299 352
#     4  11  23  38  62  88 120 154 194 246 300 351
#     4   9  18  36  65  80 116 167 193 239 294 338
#     4  10  23  39  61  90 118 153 197 245 295 353
#     4  10  19  37  61  87 117 157 198 239 290 345
#     4   9  19  39  62  87 116 156 200 241 293 345
#
# _framework density 26.408774999999999
#
# number of rings (size 3 to 8) (size 9 to 14) (size 15 to 20)
#    0.000    2.000    3.333    0.000    2.333    0.000 
#    0.000    8.333    0.000    0.000    0.000    0.000 
#    0.000    0.000    0.000    0.000    0.000    0.000 
#
# Total GULP energy -134157.362860 kJ/mol
# GULP energy per Si atom -5589.890119 kJ/mol
# Density = 2.634867 g / cm^3
# Si number density = 26.408775 Si / 1000 Ang^3
#
#
#
# Elastic Constant Matrix: (Units=GPa)
#
#
# Indices 1 2 3 4 5 6 
#
# 1 73.6534 -0.1446 13.4379 0.0000 11.2658 0.0000
# 2 -0.1446 88.1597 48.7224 0.0000 4.4267 0.0000
# 3 13.4379 48.7224 186.9444 0.0000 -4.0879 0.0000
# 4 0.0000 0.0000 0.0000 63.8706 0.0000 17.0472
# 5 11.2658 4.4267 -4.0879 0.0000 44.1538 0.0000
# 6 0.0000 0.0000 0.0000 17.0472 0.0000 34.9519
#
#
#
# Elastic Compliance Matrix: (Units=1/GPa)
#
#
# Indices 1 2 3 4 5 6 
#
# 1 0.014428 0.000982 -0.001378 0.000000 -0.003907 0.000000
# 2 0.000982 0.013440 -0.003616 0.000000 -0.001933 0.000000
# 3 -0.001378 -0.003616 0.006419 0.000000 0.001308 0.000000
# 4 0.000000 0.000000 0.000000 0.018000 0.000000 -0.008779
# 5 -0.003907 -0.001933 0.001308 0.000000 0.023960 0.000000
# 6 0.000000 0.000000 0.000000 -0.008779 0.000000 0.032893
#
#
# Mechanical properties :
#
#
# Convention : Reuss Voigt Hill
#
# Bulk Modulus (GPa) = 38.07700 52.53211 45.30456
# Shear Modulus (GPa) = 39.70817 47.71138 43.70977
#
# Velocity S-wave (km/s) = 3.88183 4.25508 4.07273
# Velocity P-wave (km/s) = 5.87717 6.63898 6.26965
#
# Compressibility (1/GPa) = 0.02626257
#
# Stress axis : x y z
#
# Youngs Moduli (GPa) = 69.30876 74.40533 155.78277
#
# Poissons Ratio (x) = -0.07304 0.21473
# Poissons Ratio (y) = -0.06804 0.56325
# Poissons Ratio (z) = 0.09554 0.26902
#
# Static dielectric constant tensor:
#      x y z
#    x 2.176270 0.000000 -0.050430 
#    y 0.000000 2.125800 0.000000 
#    z -0.050430 0.000000 2.139850 
# 
# From -- ./inp_files/6307.got.cif
#   From: 2010.05.17/outbox.cif.g08.bks.cpg/sg14_4_cif.got.tgz:6307.got - 2010.06.03 17:49:19.
