data_PCOD9241175
_publ_section_title
;
Structure prediction by ZEFSAII (Michael W. Deem and Ramdas Pophale) SiO2 
 PCOD9241175
Probable space group: P 21/C
;
_chemical_formula_sum "Si O2"
_cell_formula_units_Z 32
_cell_length_a 16.891990
_cell_length_b 5.277199
_cell_length_c 17.162700
_cell_angle_alpha 90.000000
_cell_angle_beta 91.217589
_cell_angle_gamma 90.000000
_cell_volume 1529.578698
_symmetry_space_group_name_H-M "P 21/C"
_symmetry_group_IT_number 14
_symmetry_cell_setting 'monoclinic'
loop_
_space_group_symop_operation_xyz
x,y,z
-x,1/2+y,1/2-z
-x,-y,-z
x,1/2-y,1/2+z
loop_
_atom_site_type_symbol
_atom_site_label
_atom_site_fract_x
_atom_site_fract_y
_atom_site_fract_z
Si Si1 0.123745 0.987451 0.450934
Si Si2 0.133241 0.992956 0.756696
Si Si3 0.755462 0.110949 0.819567
Si Si4 0.867456 0.794908 0.898052
Si Si5 0.578522 0.830299 0.687113
Si Si6 0.744147 0.683310 0.157829
Si Si7 0.407423 0.831304 0.707804
Si Si8 0.964353 0.510081 0.602995
O O1 0.137793 0.069668 0.539969
O O2 0.202478 0.024823 0.400606
O O3 0.063287 0.205592 0.417817
O O4 0.087525 0.711780 0.438184
O O5 0.121491 0.198619 0.689717
O O6 0.202901 0.071452 0.819483
O O7 0.055475 0.964616 0.806292
O O8 0.168108 0.762282 0.709169
O O9 0.678065 0.280704 0.832289
O O10 0.785842 0.950653 0.893189
O O11 0.736496 0.942609 0.743182
O O12 0.945508 0.957252 0.916165
O O13 0.652916 0.790425 0.631091
O O14 0.487225 0.806568 0.658135
O O15 0.591415 0.604684 0.750682
O O16 0.582969 0.108524 0.727048
#
# Coordination Sequence:
#
# PCOD9241175 Si02
#       8
#     4   4   4   4   4   4   4   4
#     4  11  24  42  58  83 114 154 188 239 279 343
#     4  10  21  35  58  80 112 145 184 236 279 330
#     4  10  19  35  53  82 112 145 184 238 283 334
#     4  11  26  36  59  84 113 152 192 236 289 340
#     4   9  16  28  51  82 106 146 176 232 276 337
#     4   9  18  35  55  81 113 146 188 225 284 332
#     4   9  17  29  50  79 115 135 182 230 287 321
#     4  11  25  42  60  80 114 150 196 235 285 333
#
# _framework density 20.920794999999998
#
# number of rings (size 3 to 8) (size 9 to 14) (size 15 to 20)
#    0.000    2.000    2.500    0.750    5.250    0.000 
#    0.000    0.000    0.000    0.750    0.000    0.875 
#    0.000    0.000    0.000    0.000    0.000    0.000 
#
# Total GULP energy -178417.012816 kJ/mol
# GULP energy per Si atom -5575.531650 kJ/mol
# Density = 2.087318 g / cm^3
# Si number density = 20.920795 Si / 1000 Ang^3
#
#
#
# Elastic Constant Matrix: (Units=GPa)
#
#
# Indices 1 2 3 4 5 6 
#
# 1 84.4691 9.8555 36.4697 0.0000 -17.6775 0.0000
# 2 9.8555 76.4440 10.9788 0.0000 -2.5316 0.0000
# 3 36.4697 10.9788 53.9482 0.0000 -4.8333 0.0000
# 4 0.0000 0.0000 0.0000 17.0629 0.0000 -9.5983
# 5 -17.6775 -2.5316 -4.8333 0.0000 8.7845 0.0000
# 6 0.0000 0.0000 0.0000 -9.5983 0.0000 17.7784
#
#
#
# Elastic Compliance Matrix: (Units=1/GPa)
#
#
# Indices 1 2 3 4 5 6 
#
# 1 0.028612 0.000092 -0.014936 0.000000 0.049386 0.000000
# 2 0.000092 0.013528 -0.002576 0.000000 0.002666 0.000000
# 3 -0.014936 -0.002576 0.027767 0.000000 -0.015522 0.000000
# 4 0.000000 0.000000 0.000000 0.084168 0.000000 0.045441
# 5 0.049386 0.002666 -0.015522 0.000000 0.205445 0.000000
# 6 0.000000 0.000000 0.000000 0.045441 0.000000 0.080781
#
#
# Mechanical properties :
#
#
# Convention : Reuss Voigt Hill
#
# Bulk Modulus (GPa) = 28.51794 36.60770 32.56282
# Shear Modulus (GPa) = 10.27050 19.22899 14.74974
#
# Velocity S-wave (km/s) = 2.21808 3.03501 2.65812
# Velocity P-wave (km/s) = 4.49676 5.46058 5.00194
#
# Compressibility (1/GPa) = 0.03506565
#
# Stress axis : x y z
#
# Youngs Moduli (GPa) = 34.95034 73.92118 36.01384
#
# Poissons Ratio (x) = -0.00679 0.53791
# Poissons Ratio (y) = -0.00321 0.09278
# Poissons Ratio (z) = 0.52203 0.19044
#
# Static dielectric constant tensor:
#      x y z
#    x 1.850410 0.000000 0.034280 
#    y 0.000000 1.797620 0.000000 
#    z 0.034280 0.000000 1.761880 
# 
# From -- ./inp_files/58614.got.cif
#   From: 2010.05.17/outbox.cif.g08.bks.cpg/sg14_30_cif.got.tgz:58614.got - 2010.06.03 17:49:19.
