data_PCOD9241130
_publ_section_title
;
Structure prediction by ZEFSAII (Michael W. Deem and Ramdas Pophale) SiO2 
 PCOD9241130
Probable space group: P 21/C
;
_chemical_formula_sum "Si O2"
_cell_formula_units_Z 32
_cell_length_a 15.905326
_cell_length_b 6.821280
_cell_length_c 20.926991
_cell_angle_alpha 90.000000
_cell_angle_beta 140.440968
_cell_angle_gamma 90.000000
_cell_volume 1445.999029
_symmetry_space_group_name_H-M "P 21/C"
_symmetry_group_IT_number 14
_symmetry_cell_setting 'monoclinic'
loop_
_space_group_symop_operation_xyz
x,y,z
-x,1/2+y,1/2-z
-x,-y,-z
x,1/2-y,1/2+z
loop_
_atom_site_type_symbol
_atom_site_label
_atom_site_fract_x
_atom_site_fract_y
_atom_site_fract_z
Si Si1 0.695860 0.020901 0.206534
Si Si2 0.699668 0.530612 0.088919
Si Si3 0.457543 0.346899 0.877086
Si Si4 0.091061 0.803324 0.350115
Si Si5 0.123599 0.270420 0.098235
Si Si6 0.832531 0.383928 0.964459
Si Si7 0.194672 0.424472 0.359753
Si Si8 0.700494 0.394514 0.299002
O O1 0.567958 0.885010 0.144500
O O2 0.812439 0.889935 0.305496
O O3 0.721830 0.032260 0.146623
O O4 0.699993 0.227545 0.243918
O O5 0.645612 0.580509 0.127738
O O6 0.836487 0.415757 0.165259
O O7 0.720161 0.741513 0.067468
O O8 0.595921 0.404354 0.988163
O O9 0.422512 0.465665 0.792152
O O10 0.142149 0.892241 0.445950
O O11 0.140547 0.580623 0.377597
O O12 0.936509 0.831855 0.249367
O O13 0.176572 0.397382 0.069353
O O14 0.179701 0.051637 0.132503
O O15 0.966963 0.293536 0.012128
O O16 0.717447 0.237556 0.872687
#
# Coordination Sequence:
#
# PCOD9241130 Si02
#       8
#     4   4   4   4   4   4   4   4
#     4   9  18  34  59  89 116 148 198 255 300 367
#     4  10  22  41  59  88 118 160 200 255 309 369
#     4   9  20  39  65  83 117 155 208 254 300 363
#     4  12  23  37  57  85 124 159 194 251 319 377
#     4   9  18  35  54  84 119 158 196 253 296 361
#     4  10  21  34  54  84 123 157 203 246 307 373
#     4  11  22  36  57  88 122 157 196 245 318 379
#     4  10  19  34  60  87 111 152 205 250 306 358
#
# _framework density 22.130027999999999
#
# number of rings (size 3 to 8) (size 9 to 14) (size 15 to 20)
#    0.000    2.000    2.500    1.125    0.000    3.000 
#    0.000    3.750   11.000    0.000    0.000    0.000 
#    0.000    0.000    0.000    0.000    0.000    0.000 
#
# Total GULP energy -178563.328719 kJ/mol
# GULP energy per Si atom -5580.104022 kJ/mol
# Density = 2.207966 g / cm^3
# Si number density = 22.130028 Si / 1000 Ang^3
#
#
#
# Elastic Constant Matrix: (Units=GPa)
#
#
# Indices 1 2 3 4 5 6 
#
# 1 27.2568 18.3799 7.0211 0.0000 -0.1735 0.0000
# 2 18.3799 134.6687 26.7159 0.0000 -0.8404 0.0000
# 3 7.0211 26.7159 60.5454 0.0000 -5.7895 0.0000
# 4 0.0000 0.0000 0.0000 38.4038 0.0000 -4.2178
# 5 -0.1735 -0.8404 -5.7895 0.0000 11.1661 0.0000
# 6 0.0000 0.0000 0.0000 -4.2178 0.0000 13.2295
#
#
#
# Elastic Compliance Matrix: (Units=1/GPa)
#
#
# Indices 1 2 3 4 5 6 
#
# 1 0.040759 -0.005054 -0.002601 0.000000 -0.001096 0.000000
# 2 -0.005054 0.008783 -0.003402 0.000000 -0.001182 0.000000
# 3 -0.002601 -0.003402 0.019245 0.000000 0.009682 0.000000
# 4 0.000000 0.000000 0.000000 0.026984 0.000000 0.008603
# 5 -0.001096 -0.001182 0.009682 0.000000 0.094470 0.000000
# 6 0.000000 0.000000 0.000000 0.008603 0.000000 0.078332
#
#
# Mechanical properties :
#
#
# Convention : Reuss Voigt Hill
#
# Bulk Modulus (GPa) = 21.42602 36.30053 28.86327
# Shear Modulus (GPa) = 16.32675 23.91680 20.12177
#
# Velocity S-wave (km/s) = 2.71913 3.29103 3.01865
# Velocity P-wave (km/s) = 4.42279 5.55698 5.02201
#
# Compressibility (1/GPa) = 0.04667223
#
# Stress axis : x y z
#
# Youngs Moduli (GPa) = 24.53447 113.85654 51.96047
#
# Poissons Ratio (x) = 0.57539 0.13517
# Poissons Ratio (y) = 0.12399 0.17679
# Poissons Ratio (z) = 0.06383 0.38739
#
# Static dielectric constant tensor:
#      x y z
#    x 1.814910 0.000000 -0.006920 
#    y 0.000000 1.843260 0.000000 
#    z -0.006920 0.000000 1.818440 
# 
# From -- ./inp_files/74077.got.cif
#   From: 2010.05.17/outbox.cif.g08.bks.cpg/sg14_38_cif.got.tgz:74077.got - 2010.06.03 17:49:19.
