data_PCOD9241716
_publ_section_title
;
Structure prediction by ZEFSAII (Michael W. Deem and Ramdas Pophale) SiO2 
 PCOD9241716
Probable space group: P 21/C
;
_chemical_formula_sum "Si O2"
_cell_formula_units_Z 28
_cell_length_a 15.338478
_cell_length_b 15.959909
_cell_length_c 8.447034
_cell_angle_alpha 90.000000
_cell_angle_beta 41.435641
_cell_angle_gamma 90.000000
_cell_volume 1368.451700
_symmetry_space_group_name_H-M "P 21/C"
_symmetry_group_IT_number 14
_symmetry_cell_setting 'monoclinic'
loop_
_space_group_symop_operation_xyz
x,y,z
-x,1/2+y,1/2-z
-x,-y,-z
x,1/2-y,1/2+z
loop_
_atom_site_type_symbol
_atom_site_label
_atom_site_fract_x
_atom_site_fract_y
_atom_site_fract_z
Si Si1 0.357626 0.493570 0.902270
Si Si2 0.618349 0.574431 0.486259
Si Si3 0.216479 0.666268 0.172191
Si Si4 0.042672 0.777295 0.182155
Si Si5 0.140944 0.181171 0.297370
Si Si6 0.499703 0.718696 0.815216
Si Si7 0.344418 0.168624 0.586726
O O1 0.513987 0.514227 0.717151
O O2 0.355291 0.459741 0.725191
O O3 0.269351 0.576710 0.041697
O O4 0.306190 0.425253 0.096689
O O5 0.760042 0.603587 0.359907
O O6 0.533974 0.661076 0.614094
O O7 0.152674 0.723847 0.123989
O O8 0.109139 0.666047 0.457533
O O9 0.347595 0.711949 0.058143
O O10 0.945589 0.709821 0.232547
O O11 0.957331 0.830388 0.422203
O O12 0.229645 0.263239 0.218940
O O13 0.586761 0.681727 0.838654
O O14 0.549430 0.808658 0.694747
#
# Coordination Sequence:
#
# PCOD9241716 Si02
#       7
#     4   4   4   4   4   4   4
#     4  10  21  37  59  89 122 143 177 245 309 339
#     4   9  19  36  57  84 115 145 180 233 293 342
#     4  10  22  39  57  84 115 152 195 238 286 337
#     4  10  21  38  59  77 109 158 202 231 264 337
#     4  10  19  37  60  83 108 151 200 229 267 345
#     4  10  20  35  60  88 114 151 194 232 287 354
#     4  11  20  35  63  91 115 146 187 243 296 343
#
# _framework density 20.461079000000002
#
# number of rings (size 3 to 8) (size 9 to 14) (size 15 to 20)
#    0.000    2.000    0.000    5.143    0.000    4.571 
#    0.000   10.000    0.000    1.714    0.000    0.000 
#    0.000    0.000    0.000    0.000    0.000    0.000 
#
# Total GULP energy -156108.619816 kJ/mol
# GULP energy per Si atom -5575.307851 kJ/mol
# Density = 2.041451 g / cm^3
# Si number density = 20.461079 Si / 1000 Ang^3
#
#
#
# Elastic Constant Matrix: (Units=GPa)
#
#
# Indices 1 2 3 4 5 6 
#
# 1 77.4399 12.8083 12.4241 0.0000 -5.4372 0.0000
# 2 12.8083 60.1224 20.7114 0.0000 -3.1046 0.0000
# 3 12.4241 20.7114 65.1100 0.0000 7.0514 0.0000
# 4 0.0000 0.0000 0.0000 24.0345 0.0000 -2.2851
# 5 -5.4372 -3.1046 7.0514 0.0000 29.0200 0.0000
# 6 0.0000 0.0000 0.0000 -2.2851 0.0000 20.3958
#
#
#
# Elastic Compliance Matrix: (Units=1/GPa)
#
#
# Indices 1 2 3 4 5 6 
#
# 1 0.013822 -0.001993 -0.002322 0.000000 0.002941 0.000000
# 2 -0.001993 0.019327 -0.006112 0.000000 0.003179 0.000000
# 3 -0.002322 -0.006112 0.018347 0.000000 -0.005547 0.000000
# 4 0.000000 0.000000 0.000000 0.042055 0.000000 0.004712
# 5 0.002941 0.003179 -0.005547 0.000000 0.036698 0.000000
# 6 0.000000 0.000000 0.000000 0.004712 0.000000 0.049558
#
#
# Mechanical properties :
#
#
# Convention : Reuss Voigt Hill
#
# Bulk Modulus (GPa) = 32.63505 32.72888 32.68197
# Shear Modulus (GPa) = 23.71092 25.13860 24.42476
#
# Velocity S-wave (km/s) = 3.40785 3.50895 3.45877
# Velocity P-wave (km/s) = 5.60973 5.69626 5.65316
#
# Compressibility (1/GPa) = 0.03064190
#
# Stress axis : x y z
#
# Youngs Moduli (GPa) = 72.34920 51.74124 54.50596
#
# Poissons Ratio (x) = 0.10311 0.12656
# Poissons Ratio (y) = 0.14418 0.33314
# Poissons Ratio (z) = 0.16799 0.31624
#
# Static dielectric constant tensor:
#      x y z
#    x 1.739110 0.000000 0.005880 
#    y 0.000000 1.742130 0.000000 
#    z 0.005880 0.000000 1.762330 
# 
# From -- ./inp_files/16388.got.cif
#   From: 2010.05.17/outbox.cif.g08.bks.cpg/sg14_9_cif.got.tgz:16388.got - 2010.06.03 17:49:19.
