data_PCOD9241846
_publ_section_title
;
Structure prediction by ZEFSAII (Michael W. Deem and Ramdas Pophale) SiO2 
 PCOD9241846
Probable space group: P 21/C
;
_chemical_formula_sum "Si O2"
_cell_formula_units_Z 28
_cell_length_a 11.437988
_cell_length_b 13.697483
_cell_length_c 8.856145
_cell_angle_alpha 90.000000
_cell_angle_beta 126.338535
_cell_angle_gamma 90.000000
_cell_volume 1117.678274
_symmetry_space_group_name_H-M "P 21/C"
_symmetry_group_IT_number 14
_symmetry_cell_setting 'monoclinic'
loop_
_space_group_symop_operation_xyz
x,y,z
-x,1/2+y,1/2-z
-x,-y,-z
x,1/2-y,1/2+z
loop_
_atom_site_type_symbol
_atom_site_label
_atom_site_fract_x
_atom_site_fract_y
_atom_site_fract_z
Si Si1 0.950148 0.860137 0.751038
Si Si2 0.457922 0.469399 0.136677
Si Si3 0.771440 0.158177 0.213306
Si Si4 0.803045 0.795488 0.940093
Si Si5 0.872399 0.034106 0.526127
Si Si6 0.519222 0.702396 0.643739
Si Si7 0.321220 0.056060 0.958293
O O1 0.903161 0.825142 0.878525
O O2 0.844633 0.806836 0.548384
O O3 0.103845 0.822459 0.811320
O O4 0.942022 0.977125 0.724126
O O5 0.294061 0.498073 0.059339
O O6 0.493075 0.356049 0.206815
O O7 0.566104 0.527423 0.327748
O O8 0.500000 0.500000 0.000000
O O9 0.837445 0.143066 0.432512
O O10 0.632417 0.221018 0.057030
O O11 0.726362 0.045314 0.148961
O O12 0.637105 0.786232 0.755777
O O13 0.805505 0.877853 0.069971
O O14 0.000000 0.000000 0.500000
O O15 0.599191 0.623901 0.599398
#
# Coordination Sequence:
#
# PCOD9241846 Si02
#       7
#     4   4   4   4   4   4   4
#     4  11  24  41  66  93 134 172 220 270 335 401
#     4  11  20  35  65 101 125 158 227 278 311 389
#     4  10  21  43  69  91 128 173 228 268 326 394
#     4  12  24  42  66  95 134 177 219 271 340 403
#     4  10  19  37  65  94 123 170 211 264 327 391
#     4  11  21  43  67  92 131 175 214 269 343 396
#     4  11  21  38  70  93 122 176 220 270 324 397
#
# _framework density 25.051932000000001
#
# number of rings (size 3 to 8) (size 9 to 14) (size 15 to 20)
#    0.000    1.143    5.714    1.714    0.000    0.571 
#    2.571    1.429    0.000    0.000    0.000    0.000 
#    0.000    0.000    0.000    0.000    0.000    0.000 
#
# Total GULP energy -156125.570723 kJ/mol
# GULP energy per Si atom -5575.913240 kJ/mol
# Density = 2.499491 g / cm^3
# Si number density = 25.051932 Si / 1000 Ang^3
#
#
#
# Elastic Constant Matrix: (Units=GPa)
#
#
# Indices 1 2 3 4 5 6 
#
# 1 143.0648 31.0340 38.8850 0.0000 -11.8857 0.0000
# 2 31.0340 56.4809 20.7934 0.0000 -2.8003 0.0000
# 3 38.8850 20.7934 60.7330 0.0000 -13.2737 0.0000
# 4 0.0000 0.0000 0.0000 18.8267 0.0000 -6.0615
# 5 -11.8857 -2.8003 -13.2737 0.0000 51.2615 0.0000
# 6 0.0000 0.0000 0.0000 -6.0615 0.0000 39.4692
#
#
#
# Elastic Compliance Matrix: (Units=1/GPa)
#
#
# Indices 1 2 3 4 5 6 
#
# 1 0.008971 -0.003247 -0.004469 0.000000 0.000745 0.000000
# 2 -0.003247 0.021460 -0.005487 0.000000 -0.001001 0.000000
# 3 -0.004469 -0.005487 0.022168 0.000000 0.004404 0.000000
# 4 0.000000 0.000000 0.000000 0.055879 0.000000 0.008582
# 5 0.000745 -0.001001 0.004404 0.000000 0.020766 0.000000
# 6 0.000000 0.000000 0.000000 0.008582 0.000000 0.026654
#
#
# Mechanical properties :
#
#
# Convention : Reuss Voigt Hill
#
# Bulk Modulus (GPa) = 38.17930 49.07815 43.62873
# Shear Modulus (GPa) = 26.17318 33.21590 29.69454
#
# Velocity S-wave (km/s) = 3.23578 3.64522 3.44658
# Velocity P-wave (km/s) = 5.40680 6.11146 5.76990
#
# Compressibility (1/GPa) = 0.02619220
#
# Stress axis : x y z
#
# Youngs Moduli (GPa) = 111.47303 46.59923 45.10969
#
# Poissons Ratio (x) = 0.15130 0.20160
# Poissons Ratio (y) = 0.36193 0.24753
# Poissons Ratio (z) = 0.49818 0.25570
#
# Static dielectric constant tensor:
#      x y z
#    x 2.010810 0.000000 0.084170 
#    y 0.000000 2.043340 0.000000 
#    z 0.084170 0.000000 2.187450 
# 
# From -- ./inp_files/13196.got.cif
#   From: 2010.05.17/outbox.cif.g08.bks.cpg/sg14_7_cif.got.tgz:13196.got - 2010.06.03 17:49:19.
