data_PCOD9241584
_publ_section_title
;
Structure prediction by ZEFSAII (Michael W. Deem and Ramdas Pophale) SiO2 
 PCOD9241584
Probable space group: P 21/C
;
_chemical_formula_sum "Si O2"
_cell_formula_units_Z 32
_cell_length_a 9.265304
_cell_length_b 25.053513
_cell_length_c 13.464602
_cell_angle_alpha 90.000000
_cell_angle_beta 147.776053
_cell_angle_gamma 90.000000
_cell_volume 1666.618961
_symmetry_space_group_name_H-M "P 21/C"
_symmetry_group_IT_number 14
_symmetry_cell_setting 'monoclinic'
loop_
_space_group_symop_operation_xyz
x,y,z
-x,1/2+y,1/2-z
-x,-y,-z
x,1/2-y,1/2+z
loop_
_atom_site_type_symbol
_atom_site_label
_atom_site_fract_x
_atom_site_fract_y
_atom_site_fract_z
Si Si1 0.193843 0.779292 0.723544
Si Si2 0.447908 0.119609 0.108108
Si Si3 0.010943 0.686489 0.910477
Si Si4 0.571325 0.470508 0.940843
Si Si5 0.727032 0.770739 0.613297
Si Si6 0.676478 0.495906 0.796407
Si Si7 0.838917 0.578199 0.750699
Si Si8 0.396696 0.146578 0.296296
O O1 0.340516 0.836790 0.806827
O O2 0.069965 0.777310 0.540819
O O3 0.949933 0.777150 0.658274
O O4 0.430299 0.737825 0.892086
O O5 0.595756 0.064444 0.223237
O O6 0.315297 0.143808 0.131972
O O7 0.253986 0.104517 0.905665
O O8 0.809524 0.717889 0.722086
O O9 0.894610 0.626912 0.859673
O O10 0.302538 0.672952 0.032502
O O11 0.531808 0.505752 0.817963
O O12 0.411921 0.414785 0.838976
O O13 0.500000 0.500000 0.000000
O O14 0.885087 0.452625 0.115875
O O15 0.749750 0.818307 0.706515
O O16 0.628756 0.537645 0.679948
O O17 0.000000 0.500000 0.000000
#
# Coordination Sequence:
#
# PCOD9241584 Si02
#       8
#     4   4   4   4   4   4   4   4
#     4  11  25  38  64  88 120 160 207 254 306 369
#     4  10  20  39  59  89 118 163 202 256 317 366
#     4  10  22  39  60  85 124 159 205 253 309 364
#     4   9  19  36  58  84 118 159 195 251 314 362
#     4  12  23  41  61  90 120 162 207 253 310 368
#     4   9  18  34  59  85 116 157 199 245 299 367
#     4  10  19  36  62  85 120 160 204 253 307 373
#     4   9  21  39  59  85 121 159 199 251 310 366
#
# _framework density 19.200548000000001
#
# number of rings (size 3 to 8) (size 9 to 14) (size 15 to 20)
#    0.000    2.000    2.500    2.625    3.500    3.000 
#    0.000    3.750    0.000    0.000    0.000    0.000 
#    0.000    0.000    0.000    0.000    0.000    0.000 
#
# Total GULP energy -178292.999951 kJ/mol
# GULP energy per Si atom -5571.656248 kJ/mol
# Density = 1.915685 g / cm^3
# Si number density = 19.200548 Si / 1000 Ang^3
#
#
#
# Elastic Constant Matrix: (Units=GPa)
#
#
# Indices 1 2 3 4 5 6 
#
# 1 119.8819 54.3621 29.4247 0.0000 -19.6789 0.0000
# 2 54.3621 65.5596 14.6126 0.0000 -23.0693 0.0000
# 3 29.4247 14.6126 74.5550 0.0000 -22.7443 0.0000
# 4 0.0000 0.0000 0.0000 30.1974 0.0000 -9.2207
# 5 -19.6789 -23.0693 -22.7443 0.0000 18.2344 0.0000
# 6 0.0000 0.0000 0.0000 -9.2207 0.0000 27.2914
#
#
#
# Elastic Compliance Matrix: (Units=1/GPa)
#
#
# Indices 1 2 3 4 5 6 
#
# 1 0.014663 -0.014173 -0.005895 0.000000 -0.009460 0.000000
# 2 -0.014173 0.044920 0.015271 0.000000 0.060583 0.000000
# 3 -0.005895 0.015271 0.026957 0.000000 0.046583 0.000000
# 4 0.000000 0.000000 0.000000 0.036925 0.000000 0.012476
# 5 -0.009460 0.060583 0.046583 0.000000 0.179383 0.000000
# 6 0.000000 0.000000 0.000000 0.012476 0.000000 0.040857
#
#
# Mechanical properties :
#
#
# Convention : Reuss Voigt Hill
#
# Bulk Modulus (GPa) = 12.99603 50.75504 31.87553
# Shear Modulus (GPa) = 13.19449 25.91777 19.55613
#
# Velocity S-wave (km/s) = 2.62428 3.67801 3.19489
# Velocity P-wave (km/s) = 3.99571 6.67297 5.49974
#
# Compressibility (1/GPa) = 0.07694660
#
# Stress axis : x y z
#
# Youngs Moduli (GPa) = 68.20098 22.26190 37.09565
#
# Poissons Ratio (x) = 0.31552 0.21867
# Poissons Ratio (y) = 0.96661 -0.56650
# Poissons Ratio (z) = 0.40204 -0.33997
#
# Static dielectric constant tensor:
#      x y z
#    x 1.661030 0.000000 -0.037630 
#    y 0.000000 1.701850 0.000000 
#    z -0.037630 0.000000 1.737440 
# 
# From -- ./inp_files/27100.got.cif
#   From: 2010.05.17/outbox.cif.g08.bks.cpg/sg14_14_cif.got.tgz:27100.got - 2010.06.03 17:49:19.
