data_PCOD9241552
_publ_section_title
;
Structure prediction by ZEFSAII (Michael W. Deem and Ramdas Pophale) SiO2 
 PCOD9241552
Probable space group: P 21/C
;
_chemical_formula_sum "Si O2"
_cell_formula_units_Z 32
_cell_length_a 12.480719
_cell_length_b 12.140965
_cell_length_c 25.425878
_cell_angle_alpha 90.000000
_cell_angle_beta 24.994283
_cell_angle_gamma 90.000000
_cell_volume 1627.886375
_symmetry_space_group_name_H-M "P 21/C"
_symmetry_group_IT_number 14
_symmetry_cell_setting 'monoclinic'
loop_
_space_group_symop_operation_xyz
x,y,z
-x,1/2+y,1/2-z
-x,-y,-z
x,1/2-y,1/2+z
loop_
_atom_site_type_symbol
_atom_site_label
_atom_site_fract_x
_atom_site_fract_y
_atom_site_fract_z
Si Si1 0.114863 0.362418 0.421020
Si Si2 0.398806 0.675552 0.522229
Si Si3 0.719372 0.327217 0.678779
Si Si4 0.393660 0.062771 0.969757
Si Si5 0.247896 0.347286 0.812493
Si Si6 0.147893 0.505622 0.307304
Si Si7 0.195557 0.288771 0.228528
Si Si8 0.370093 0.589219 0.751123
O O1 0.074944 0.233607 0.424241
O O2 0.040359 0.426505 0.401771
O O3 0.399416 0.400020 0.309251
O O4 0.960686 0.377998 0.542394
O O5 0.468570 0.642390 0.550490
O O6 0.424193 0.562399 0.477107
O O7 0.611029 0.755222 0.403278
O O8 0.107082 0.716283 0.648506
O O9 0.514244 0.329353 0.723748
O O10 0.653540 0.410493 0.755267
O O11 0.766199 0.205973 0.680409
O O12 0.505518 0.078682 0.861944
O O13 0.089514 0.077061 0.106602
O O14 0.248624 0.292441 0.754572
O O15 0.208493 0.477975 0.830555
O O16 0.246288 0.415812 0.222606
#
# Coordination Sequence:
#
# PCOD9241552 Si02
#       8
#     4   4   4   4   4   4   4   4
#     4  10  20  34  54  85 121 157 192 245 292 370
#     4  10  22  40  64  93 113 154 217 259 303 352
#     4  11  21  32  56  86 122 156 199 235 300 371
#     4  10  20  37  64  83 115 156 210 256 291 361
#     4  10  21  34  55  86 121 155 197 243 300 362
#     4  10  19  36  61  86 116 159 199 247 300 364
#     4  10  22  39  65  90 119 161 202 258 306 358
#     4  11  20  35  55  86 119 157 196 247 301 362
#
# _framework density 19.657391000000001
#
# number of rings (size 3 to 8) (size 9 to 14) (size 15 to 20)
#    0.000    1.750    3.750    1.125    3.500    1.500 
#    0.000    2.500    0.000    7.500    0.000    0.000 
#    0.000    0.000    0.000    0.000    0.000    0.000 
#
# Total GULP energy -178296.332579 kJ/mol
# GULP energy per Si atom -5571.760393 kJ/mol
# Density = 1.961265 g / cm^3
# Si number density = 19.657391 Si / 1000 Ang^3
#
#
#
# Elastic Constant Matrix: (Units=GPa)
#
#
# Indices 1 2 3 4 5 6 
#
# 1 100.2438 32.8562 15.8089 0.0000 -10.4939 0.0000
# 2 32.8562 96.0117 17.3840 0.0000 -4.3949 0.0000
# 3 15.8089 17.3840 40.1279 0.0000 -2.9659 0.0000
# 4 0.0000 0.0000 0.0000 26.9073 0.0000 0.4528
# 5 -10.4939 -4.3949 -2.9659 0.0000 21.4979 0.0000
# 6 0.0000 0.0000 0.0000 0.4528 0.0000 29.3380
#
#
#
# Elastic Compliance Matrix: (Units=1/GPa)
#
#
# Indices 1 2 3 4 5 6 
#
# 1 0.012044 -0.003372 -0.002930 0.000000 0.004785 0.000000
# 2 -0.003372 0.012304 -0.003978 0.000000 0.000321 0.000000
# 3 -0.002930 -0.003978 0.027917 0.000000 0.001608 0.000000
# 4 0.000000 0.000000 0.000000 0.037174 0.000000 -0.000574
# 5 0.004785 0.000321 0.001608 0.000000 0.049139 0.000000
# 6 0.000000 0.000000 0.000000 -0.000574 0.000000 0.034094
#
#
# Mechanical properties :
#
#
# Convention : Reuss Voigt Hill
#
# Bulk Modulus (GPa) = 31.54169 40.94239 36.24204
# Shear Modulus (GPa) = 24.53352 26.90425 25.71889
#
# Velocity S-wave (km/s) = 3.53662 3.70355 3.62105
# Velocity P-wave (km/s) = 5.72341 6.25792 5.99662
#
# Compressibility (1/GPa) = 0.03170407
#
# Stress axis : x y z
#
# Youngs Moduli (GPa) = 83.02908 81.27243 35.82041
#
# Poissons Ratio (x) = 0.27405 0.10497
# Poissons Ratio (y) = 0.27997 0.14250
# Poissons Ratio (z) = 0.24331 0.32332
#
# Static dielectric constant tensor:
#      x y z
#    x 1.717270 0.000000 -0.048290 
#    y 0.000000 1.756300 0.000000 
#    z -0.048290 0.000000 1.700940 
# 
# From -- ./inp_files/73301.got.cif
#   From: 2010.05.17/outbox.cif.g08.bks.cpg/sg14_37_cif.got.tgz:73301.got - 2010.06.03 17:49:19.
