data_PCOD9241645
_publ_section_title
;
Structure prediction by ZEFSAII (Michael W. Deem and Ramdas Pophale) SiO2 
 PCOD9241645
Probable space group: P 21/C
;
_chemical_formula_sum "Si O2"
_cell_formula_units_Z 32
_cell_length_a 12.511527
_cell_length_b 17.405765
_cell_length_c 14.533915
_cell_angle_alpha 90.000000
_cell_angle_beta 148.266123
_cell_angle_gamma 90.000000
_cell_volume 1664.756935
_symmetry_space_group_name_H-M "P 21/C"
_symmetry_group_IT_number 14
_symmetry_cell_setting 'monoclinic'
loop_
_space_group_symop_operation_xyz
x,y,z
-x,1/2+y,1/2-z
-x,-y,-z
x,1/2-y,1/2+z
loop_
_atom_site_type_symbol
_atom_site_label
_atom_site_fract_x
_atom_site_fract_y
_atom_site_fract_z
Si Si1 0.933891 0.447124 0.035717
Si Si2 0.050696 0.981143 0.886164
Si Si3 0.351836 0.474013 0.022936
Si Si4 0.667721 0.964404 0.053928
Si Si5 0.573920 0.317767 0.143294
Si Si6 0.416318 0.659477 0.252021
Si Si7 0.006880 0.619286 0.529289
Si Si8 0.444087 0.136493 0.349583
O O1 0.135546 0.433068 0.245258
O O2 0.766646 0.494785 0.973508
O O3 0.815342 0.372148 0.912093
O O4 0.000000 0.500000 0.000000
O O5 0.226703 0.975373 0.939389
O O6 0.088129 0.933508 0.005328
O O7 0.832689 0.961363 0.683641
O O8 0.032413 0.068329 0.908990
O O9 0.474518 0.394402 0.116051
O O10 0.496025 0.545482 0.098886
O O11 0.554417 0.903169 0.906137
O O12 0.500000 0.000000 0.000000
O O13 0.525466 0.240053 0.160275
O O14 0.817122 0.322063 0.322392
O O15 0.511279 0.321701 0.990969
O O16 0.454855 0.663223 0.171129
O O17 0.793128 0.648993 0.338758
#
# Coordination Sequence:
#
# PCOD9241645 Si02
#       8
#     4   4   4   4   4   4   4   4
#     4  10  22  42  68  94 123 176 226 262 306 393
#     4  10  19  36  66 101 119 159 220 270 311 377
#     4  10  20  39  68  94 126 160 218 271 311 388
#     4  11  22  41  70  93 128 175 220 262 319 393
#     4  12  25  42  60 101 131 163 214 271 332 389
#     4  11  26  45  61  94 137 173 211 270 338 384
#     4  11  21  35  66  97 125 157 213 272 320 378
#     4  11  22  44  67  91 126 173 215 266 330 386
#
# _framework density 19.222026
#
# number of rings (size 3 to 8) (size 9 to 14) (size 15 to 20)
#    0.000    1.250    5.000    1.875    1.750    1.000 
#    6.750    0.000    0.000    0.000    0.000    0.000 
#    0.000    0.000    0.000    0.000    0.000    0.000 
#
# Total GULP energy -178542.827380 kJ/mol
# GULP energy per Si atom -5579.463356 kJ/mol
# Density = 1.917828 g / cm^3
# Si number density = 19.222026 Si / 1000 Ang^3
#
#
#
# Elastic Constant Matrix: (Units=GPa)
#
#
# Indices 1 2 3 4 5 6 
#
# 1 100.0009 29.7711 19.0344 0.0000 11.5223 0.0000
# 2 29.7711 70.6398 33.3457 0.0000 -3.4960 0.0000
# 3 19.0344 33.3457 119.5934 0.0000 17.3465 0.0000
# 4 0.0000 0.0000 0.0000 13.1746 0.0000 0.0700
# 5 11.5223 -3.4960 17.3465 0.0000 24.4498 0.0000
# 6 0.0000 0.0000 0.0000 0.0700 0.0000 16.2354
#
#
#
# Elastic Compliance Matrix: (Units=1/GPa)
#
#
# Indices 1 2 3 4 5 6 
#
# 1 0.012470 -0.005957 0.000727 0.000000 -0.007244 0.000000
# 2 -0.005957 0.020035 -0.006087 0.000000 0.009991 0.000000
# 3 0.000727 -0.006087 0.011280 0.000000 -0.009216 0.000000
# 4 0.000000 0.000000 0.000000 0.075906 0.000000 -0.000327
# 5 -0.007244 0.009991 -0.009216 0.000000 0.052281 0.000000
# 6 0.000000 0.000000 0.000000 -0.000327 0.000000 0.061595
#
#
# Mechanical properties :
#
#
# Convention : Reuss Voigt Hill
#
# Bulk Modulus (GPa) = 47.28135 50.50407 48.89271
# Shear Modulus (GPa) = 18.99331 24.64415 21.81873
#
# Velocity S-wave (km/s) = 3.14682 3.58450 3.37276
# Velocity P-wave (km/s) = 6.15257 6.59262 6.37639
#
# Compressibility (1/GPa) = 0.02114999
#
# Stress axis : x y z
#
# Youngs Moduli (GPa) = 80.19462 49.91305 88.65301
#
# Poissons Ratio (x) = 0.29733 -0.06445
# Poissons Ratio (y) = 0.47772 0.53965
# Poissons Ratio (z) = -0.05830 0.30383
#
# Static dielectric constant tensor:
#      x y z
#    x 1.708700 0.000000 0.012480 
#    y 0.000000 1.685240 0.000000 
#    z 0.012480 0.000000 1.687280 
# 
# From -- ./inp_files/45451.got.cif
#   From: 2010.05.17/outbox.cif.g08.bks.cpg/sg14_23_cif.got.tgz:45451.got - 2010.06.03 17:49:19.
