data_PCOD9241966
_publ_section_title
;
Structure prediction by ZEFSAII (Michael W. Deem and Ramdas Pophale) SiO2 
 PCOD9241966
Probable space group: P 21/C
;
_chemical_formula_sum "Si O2"
_cell_formula_units_Z 32
_cell_length_a 20.048212
_cell_length_b 18.447437
_cell_length_c 11.844765
_cell_angle_alpha 90.000000
_cell_angle_beta 155.984657
_cell_angle_gamma 90.000000
_cell_volume 1782.840725
_symmetry_space_group_name_H-M "P 21/C"
_symmetry_group_IT_number 14
_symmetry_cell_setting 'monoclinic'
loop_
_space_group_symop_operation_xyz
x,y,z
-x,1/2+y,1/2-z
-x,-y,-z
x,1/2-y,1/2+z
loop_
_atom_site_type_symbol
_atom_site_label
_atom_site_fract_x
_atom_site_fract_y
_atom_site_fract_z
Si Si1 0.752291 0.336115 0.181076
Si Si2 0.269108 0.086253 0.201667
Si Si3 0.607713 0.896329 0.860560
Si Si4 0.062273 0.345379 0.029511
Si Si5 0.966839 0.185175 0.799821
Si Si6 0.154168 0.927276 0.958687
Si Si7 0.586684 0.066217 0.837536
Si Si8 0.788022 0.330371 0.790274
O O1 0.876132 0.346562 0.269070
O O2 0.825850 0.374045 0.405435
O O3 0.737293 0.250079 0.174691
O O4 0.571804 0.368458 0.886332
O O5 0.359287 0.107578 0.223693
O O6 0.403585 0.076713 0.507888
O O7 0.132956 0.143587 0.026300
O O8 0.181671 0.009214 0.041552
O O9 0.618029 0.981392 0.906328
O O10 0.750786 0.852589 0.144270
O O11 0.012670 0.268972 0.896088
O O12 0.010853 0.409182 0.864180
O O13 0.949100 0.352081 0.966287
O O14 0.842894 0.175106 0.504013
O O15 0.296840 0.911653 0.087770
O O16 0.645765 0.114204 0.033974
#
# Coordination Sequence:
#
# PCOD9241966 Si02
#       8
#     4   4   4   4   4   4   4   4
#     4  11  22  40  60  83 126 158 188 244 303 355
#     4  11  21  38  64  90 119 153 204 245 288 352
#     4  11  21  39  64  90 116 151 208 248 284 341
#     4  10  22  38  62  90 116 156 206 244 284 357
#     4  11  24  39  58  89 124 157 192 240 306 353
#     4  10  19  38  63  87 116 157 197 247 291 341
#     4  10  21  37  64  92 115 152 206 245 288 345
#     4  10  22  40  59  87 123 157 193 244 301 353
#
# _framework density 17.948882999999999
#
# number of rings (size 3 to 8) (size 9 to 14) (size 15 to 20)
#    0.000    1.500    5.000    0.750    3.500    2.000 
#    0.000    1.875    0.000    0.000    0.000    0.000 
#    0.000    0.000    0.000    0.000    0.000    0.000 
#
# Total GULP energy -178610.966827 kJ/mol
# GULP energy per Si atom -5581.592713 kJ/mol
# Density = 1.790803 g / cm^3
# Si number density = 17.948883 Si / 1000 Ang^3
#
#
#
# Elastic Constant Matrix: (Units=GPa)
#
#
# Indices 1 2 3 4 5 6 
#
# 1 29.0164 19.4194 12.0840 0.0000 -9.1351 0.0000
# 2 19.4194 36.7614 14.1347 0.0000 -4.9321 0.0000
# 3 12.0840 14.1347 69.5161 0.0000 -18.9234 0.0000
# 4 0.0000 0.0000 0.0000 32.1760 0.0000 -0.9274
# 5 -9.1351 -4.9321 -18.9234 0.0000 25.7426 0.0000
# 6 0.0000 0.0000 0.0000 -0.9274 0.0000 26.5432
#
#
#
# Elastic Compliance Matrix: (Units=1/GPa)
#
#
# Indices 1 2 3 4 5 6 
#
# 1 0.058626 -0.028861 -0.000206 0.000000 0.015123 0.000000
# 2 -0.028861 0.043768 -0.005485 0.000000 -0.005888 0.000000
# 3 -0.000206 -0.005485 0.019040 0.000000 0.012873 0.000000
# 4 0.000000 0.000000 0.000000 0.031110 0.000000 0.001087
# 5 0.015123 -0.005888 0.012873 0.000000 0.052547 0.000000
# 6 0.000000 0.000000 0.000000 0.001087 0.000000 0.037712
#
#
# Mechanical properties :
#
#
# Convention : Reuss Voigt Hill
#
# Bulk Modulus (GPa) = 19.10981 25.17446 22.14213
# Shear Modulus (GPa) = 15.18133 22.86940 19.02536
#
# Velocity S-wave (km/s) = 2.91143 3.57338 3.25926
# Velocity P-wave (km/s) = 4.68741 5.57508 5.15041
#
# Compressibility (1/GPa) = 0.05232916
#
# Stress axis : x y z
#
# Youngs Moduli (GPa) = 17.05731 22.84790 52.51992
#
# Poissons Ratio (x) = 0.65942 0.01081
# Poissons Ratio (y) = 0.49230 0.28808
# Poissons Ratio (z) = 0.00351 0.12533
#
# Static dielectric constant tensor:
#      x y z
#    x 1.597860 0.000000 -0.013050 
#    y 0.000000 1.609620 0.000000 
#    z -0.013050 0.000000 1.613810 
# 
# From -- ./inp_files/26290.got.cif
#   From: 2010.05.17/outbox.cif.g08.bks.cpg/sg14_14_cif.got.tgz:26290.got - 2010.06.03 17:49:19.
