data_PCOD9241891
_publ_section_title
;
Structure prediction by ZEFSAII (Michael W. Deem and Ramdas Pophale) SiO2 
 PCOD9241891
Probable space group: P 21/C
;
_chemical_formula_sum "Si O2"
_cell_formula_units_Z 20
_cell_length_a 19.416114
_cell_length_b 10.058547
_cell_length_c 8.798690
_cell_angle_alpha 90.000000
_cell_angle_beta 149.679894
_cell_angle_gamma 90.000000
_cell_volume 867.483508
_symmetry_space_group_name_H-M "P 21/C"
_symmetry_group_IT_number 14
_symmetry_cell_setting 'monoclinic'
loop_
_space_group_symop_operation_xyz
x,y,z
-x,1/2+y,1/2-z
-x,-y,-z
x,1/2-y,1/2+z
loop_
_atom_site_type_symbol
_atom_site_label
_atom_site_fract_x
_atom_site_fract_y
_atom_site_fract_z
Si Si1 0.731024 0.202880 0.330094
Si Si2 0.752999 0.987248 0.858873
Si Si3 0.305039 0.446597 0.409806
Si Si4 0.425143 0.561940 0.213340
Si Si5 0.959840 0.023824 0.749826
O O1 0.708155 0.357517 0.275767
O O2 0.667931 0.103168 0.083398
O O3 0.684779 0.153511 0.408458
O O4 0.890627 0.169331 0.613677
O O5 0.654741 0.947748 0.533274
O O6 0.725107 0.928980 0.970601
O O7 0.909510 0.980389 0.108423
O O8 0.445615 0.377088 0.630766
O O9 0.165058 0.428435 0.045881
O O10 0.500000 0.500000 0.500000
O O11 0.000000 0.000000 0.000000
#
# Coordination Sequence:
#
# PCOD9241891 Si02
#       5
#     4   4   4   4   4
#     4   9  21  35  61  86 117 158 200 230 300 354
#     4  12  19  36  64  88 117 158 204 240 287 362
#     4   9  21  34  57  87 115 153 201 245 290 342
#     4  10  19  38  59  82 118 156 195 238 304 352
#     4  10  20  36  59  85 122 160 187 247 299 349
#
# _framework density 23.055194
#
# number of rings (size 3 to 8) (size 9 to 14) (size 15 to 20)
#    1.200    0.800    2.000    2.400    0.000    0.000 
#    0.000    0.000   22.000    0.000    0.000    0.000 
#    0.000    0.000    0.000    0.000    0.000    0.000 
#
# Total GULP energy -111348.407165 kJ/mol
# GULP energy per Si atom -5567.420358 kJ/mol
# Density = 2.300272 g / cm^3
# Si number density = 23.055194 Si / 1000 Ang^3
#
#
#
# Elastic Constant Matrix: (Units=GPa)
#
#
# Indices 1 2 3 4 5 6 
#
# 1 179.2052 -8.4210 54.4399 0.0000 31.3813 0.0000
# 2 -8.4210 16.1674 -6.7734 0.0000 5.5218 0.0000
# 3 54.4399 -6.7734 142.7194 0.0000 21.4945 0.0000
# 4 0.0000 0.0000 0.0000 10.6954 0.0000 -1.0555
# 5 31.3813 5.5218 21.4945 0.0000 49.1080 0.0000
# 6 0.0000 0.0000 0.0000 -1.0555 0.0000 8.8552
#
#
#
# Elastic Compliance Matrix: (Units=1/GPa)
#
#
# Indices 1 2 3 4 5 6 
#
# 1 0.007086 0.004345 -0.001864 0.000000 -0.004201 0.000000
# 2 0.004345 0.069720 0.003480 0.000000 -0.012139 0.000000
# 3 -0.001864 0.003480 0.008310 0.000000 -0.002837 0.000000
# 4 0.000000 0.000000 0.000000 0.094611 0.000000 0.011277
# 5 -0.004201 -0.012139 -0.002837 0.000000 0.025655 0.000000
# 6 0.000000 0.000000 0.000000 0.011277 0.000000 0.114272
#
#
# Mechanical properties :
#
#
# Convention : Reuss Voigt Hill
#
# Bulk Modulus (GPa) = 10.30535 46.28700 28.29617
# Shear Modulus (GPa) = 14.70250 33.65484 24.17867
#
# Velocity S-wave (km/s) = 2.52803 3.82481 3.24192
# Velocity P-wave (km/s) = 3.60566 6.29490 5.12965
#
# Compressibility (1/GPa) = 0.09703700
#
# Stress axis : x y z
#
# Youngs Moduli (GPa) = 141.11724 14.34316 120.33228
#
# Poissons Ratio (x) = -0.06232 0.22432
# Poissons Ratio (y) = -0.61312 -0.41872
# Poissons Ratio (z) = 0.26307 -0.04991
#
# Static dielectric constant tensor:
#      x y z
#    x 1.999760 0.000000 -0.176840 
#    y 0.000000 1.933140 0.000000 
#    z -0.176840 0.000000 2.203550 
# 
# From -- ./inp_files/17943.got.cif
#   From: 2010.05.17/outbox.cif.g08.bks.cpg/sg14_9_cif.got.tgz:17943.got - 2010.06.03 17:49:19.
