data_PCOD9241478
_publ_section_title
;
Structure prediction by ZEFSAII (Michael W. Deem and Ramdas Pophale) SiO2 
 PCOD9241478
Probable space group: P 21/C
;
_chemical_formula_sum "Si O2"
_cell_formula_units_Z 28
_cell_length_a 9.604958
_cell_length_b 12.688537
_cell_length_c 13.345675
_cell_angle_alpha 90.000000
_cell_angle_beta 70.283607
_cell_angle_gamma 90.000000
_cell_volume 1531.121982
_symmetry_space_group_name_H-M "P 21/C"
_symmetry_group_IT_number 14
_symmetry_cell_setting 'monoclinic'
loop_
_space_group_symop_operation_xyz
x,y,z
-x,1/2+y,1/2-z
-x,-y,-z
x,1/2-y,1/2+z
loop_
_atom_site_type_symbol
_atom_site_label
_atom_site_fract_x
_atom_site_fract_y
_atom_site_fract_z
Si Si1 0.147652 0.887803 0.388307
Si Si2 0.484525 0.550555 0.302238
Si Si3 0.663611 0.771657 0.678784
Si Si4 0.614073 0.347652 0.342980
Si Si5 0.395111 0.391933 0.153728
Si Si6 0.188869 0.093443 0.514763
Si Si7 0.670900 0.268377 0.547535
O O1 0.255981 0.868873 0.268269
O O2 0.182230 0.790315 0.453328
O O3 0.976109 0.895002 0.402532
O O4 0.187671 0.992237 0.441995
O O5 0.627116 0.623608 0.250283
O O6 0.523753 0.457129 0.368934
O O7 0.443073 0.492891 0.207869
O O8 0.363914 0.630293 0.375262
O O9 0.506270 0.734924 0.670179
O O10 0.703808 0.679239 0.746145
O O11 0.769423 0.805558 0.563426
O O12 0.671336 0.306586 0.433977
O O13 0.308149 0.418499 0.074131
O O14 0.537233 0.317577 0.094702
#
# Coordination Sequence:
#
# PCOD9241478 Si02
#       7
#     4   4   4   4   4   4   4
#     4  11  24  38  57  91 117 155 201 241 290 358
#     4  10  19  36  58  92 119 139 208 247 276 354
#     4  10  19  36  60  89 114 149 199 247 278 351
#     4  11  20  36  61  90 117 153 199 243 296 340
#     4  10  21  36  62  86 111 156 196 236 296 344
#     4  11  23  40  59  83 125 155 190 246 300 344
#     4  11  21  36  63  89 114 161 191 249 296 338
#
# _framework density 18.287243
#
# number of rings (size 3 to 8) (size 9 to 14) (size 15 to 20)
#    0.000    1.429    7.143    0.429    2.000    2.286 
#    0.000    1.429    0.000    4.286    0.000    0.000 
#    0.000    0.000    0.000    0.000    0.000    0.000 
#
# Total GULP energy -156160.927697 kJ/mol
# GULP energy per Si atom -5577.175989 kJ/mol
# Density = 1.824562 g / cm^3
# Si number density = 18.287243 Si / 1000 Ang^3
#
#
#
# Elastic Constant Matrix: (Units=GPa)
#
#
# Indices 1 2 3 4 5 6 
#
# 1 53.3208 18.1563 26.6699 0.0000 0.9148 0.0000
# 2 18.1563 70.9696 24.1932 0.0000 -4.3695 0.0000
# 3 26.6699 24.1932 75.2460 0.0000 -1.3539 0.0000
# 4 0.0000 0.0000 0.0000 19.1987 0.0000 3.0199
# 5 0.9148 -4.3695 -1.3539 0.0000 23.6267 0.0000
# 6 0.0000 0.0000 0.0000 3.0199 0.0000 19.3740
#
#
#
# Elastic Compliance Matrix: (Units=1/GPa)
#
#
# Indices 1 2 3 4 5 6 
#
# 1 0.023671 -0.003715 -0.007232 0.000000 -0.002018 0.000000
# 2 -0.003715 0.016574 -0.003959 0.000000 0.002982 0.000000
# 3 -0.007232 -0.003959 0.017135 0.000000 0.000530 0.000000
# 4 0.000000 0.000000 0.000000 0.053396 0.000000 -0.008323
# 5 -0.002018 0.002982 0.000530 0.000000 0.042985 0.000000
# 6 0.000000 0.000000 0.000000 -0.008323 0.000000 0.052913
#
#
# Mechanical properties :
#
#
# Convention : Reuss Voigt Hill
#
# Bulk Modulus (GPa) = 36.27132 37.50836 36.88984
# Shear Modulus (GPa) = 20.35212 21.14103 20.74657
#
# Velocity S-wave (km/s) = 3.33966 3.40377 3.37186
# Velocity P-wave (km/s) = 5.89477 6.00023 5.94773
#
# Compressibility (1/GPa) = 0.02756999
#
# Stress axis : x y z
#
# Youngs Moduli (GPa) = 42.24543 60.33557 58.35920
#
# Poissons Ratio (x) = 0.22414 0.42205
# Poissons Ratio (y) = 0.15693 0.23102
# Poissons Ratio (z) = 0.30551 0.23884
#
# Static dielectric constant tensor:
#      x y z
#    x 1.601780 0.000000 -0.005710 
#    y 0.000000 1.650510 0.000000 
#    z -0.005710 0.000000 1.652350 
# 
# From -- ./inp_files/39945.got.cif
#   From: 2010.05.17/outbox.cif.g08.bks.cpg/sg14_20_cif.got.tgz:39945.got - 2010.06.03 17:49:19.
