data_PCOD9241529
_publ_section_title
;
Structure prediction by ZEFSAII (Michael W. Deem and Ramdas Pophale) SiO2 
 PCOD9241529
Probable space group: P 21/C
;
_chemical_formula_sum "Si O2"
_cell_formula_units_Z 32
_cell_length_a 8.925853
_cell_length_b 21.582501
_cell_length_c 8.117718
_cell_angle_alpha 90.000000
_cell_angle_beta 127.424977
_cell_angle_gamma 90.000000
_cell_volume 1241.903569
_symmetry_space_group_name_H-M "P 21/C"
_symmetry_group_IT_number 14
_symmetry_cell_setting 'monoclinic'
loop_
_space_group_symop_operation_xyz
x,y,z
-x,1/2+y,1/2-z
-x,-y,-z
x,1/2-y,1/2+z
loop_
_atom_site_type_symbol
_atom_site_label
_atom_site_fract_x
_atom_site_fract_y
_atom_site_fract_z
Si Si1 0.178350 0.075109 0.475603
Si Si2 0.279362 0.332423 0.610346
Si Si3 0.802596 0.074491 0.017254
Si Si4 0.272820 0.294070 0.984972
Si Si5 0.685951 0.541163 0.268843
Si Si6 0.307991 0.958215 0.725865
Si Si7 0.718989 0.299771 0.291263
Si Si8 0.271378 0.831060 0.584345
O O1 0.188970 0.147416 0.526646
O O2 0.333973 0.062834 0.433394
O O3 0.992915 0.062116 0.244241
O O4 0.208837 0.024310 0.635219
O O5 0.195411 0.275285 0.454425
O O6 0.205745 0.402751 0.562441
O O7 0.258759 0.310348 0.784357
O O8 0.503590 0.335255 0.721015
O O9 0.648037 0.057754 0.054768
O O10 0.794332 0.145199 0.955892
O O11 0.777861 0.025610 0.854645
O O12 0.494996 0.294274 0.178638
O O13 0.486116 0.539292 0.224929
O O14 0.192443 0.897560 0.585619
O O15 0.741567 0.320217 0.118449
O O16 0.800880 0.231414 0.377400
#
# Coordination Sequence:
#
# PCOD9241529 Si02
#       8
#     4   4   4   4   4   4   4   4
#     4  11  23  40  57  83 119 154 189 235 290 341
#     4   8  17  32  56  85 107 137 190 237 274 324
#     4  12  24  37  56  88 121 150 187 239 292 339
#     4   9  18  35  58  81 109 146 186 230 277 335
#     4  10  21  39  61  83 109 152 199 236 277 342
#     4  11  22  39  60  85 113 151 197 238 280 338
#     4  10  19  36  60  86 114 151 192 234 282 341
#     4   9  18  34  59  85 111 145 192 241 279 330
#
# _framework density 25.766895000000002
#
# number of rings (size 3 to 8) (size 9 to 14) (size 15 to 20)
#    0.000    2.000    0.000    4.500    0.000    4.000 
#    0.000    6.250    0.000    0.000    0.000    0.000 
#    0.000    0.000    0.000    0.000    0.000    0.000 
#
# Total GULP energy -179005.392995 kJ/mol
# GULP energy per Si atom -5593.918531 kJ/mol
# Density = 2.570825 g / cm^3
# Si number density = 25.766895 Si / 1000 Ang^3
#
#
#
# Elastic Constant Matrix: (Units=GPa)
#
#
# Indices 1 2 3 4 5 6 
#
# 1 48.6446 -4.8107 -6.9260 0.0000 5.1572 0.0000
# 2 -4.8107 177.2156 24.3749 0.0000 -10.4682 0.0000
# 3 -6.9260 24.3749 26.8354 0.0000 0.9757 0.0000
# 4 0.0000 0.0000 0.0000 48.2371 0.0000 -9.0440
# 5 5.1572 -10.4682 0.9757 0.0000 27.2227 0.0000
# 6 0.0000 0.0000 0.0000 -9.0440 0.0000 26.7644
#
#
#
# Elastic Compliance Matrix: (Units=1/GPa)
#
#
# Indices 1 2 3 4 5 6 
#
# 1 0.021888 -0.000544 0.006310 0.000000 -0.004582 0.000000
# 2 -0.000544 0.006665 -0.006300 0.000000 0.002892 0.000000
# 3 0.006310 -0.006300 0.044805 0.000000 -0.005224 0.000000
# 4 0.000000 0.000000 0.000000 0.022133 0.000000 0.007479
# 5 -0.004582 0.002892 -0.005224 0.000000 0.038901 0.000000
# 6 0.000000 0.000000 0.000000 0.007479 0.000000 0.039890
#
#
# Mechanical properties :
#
#
# Convention : Reuss Voigt Hill
#
# Bulk Modulus (GPa) = 13.83324 30.88578 22.35951
# Shear Modulus (GPa) = 25.06919 36.44867 30.75893
#
# Velocity S-wave (km/s) = 3.12255 3.76514 3.45880
# Velocity P-wave (km/s) = 4.28727 5.56006 4.96463
#
# Compressibility (1/GPa) = 0.07228966
#
# Stress axis : x y z
#
# Youngs Moduli (GPa) = 45.68792 150.02808 22.31891
#
# Poissons Ratio (x) = 0.08168 -0.14084
# Poissons Ratio (y) = 0.02487 0.14061
# Poissons Ratio (z) = -0.28830 0.94517
#
# Static dielectric constant tensor:
#      x y z
#    x 2.203130 0.000000 0.045170 
#    y 0.000000 2.048890 0.000000 
#    z 0.045170 0.000000 2.003190 
# 
# From -- ./inp_files/14333.got.cif
#   From: 2010.05.17/outbox.cif.g08.bks.cpg/sg14_8_cif.got.tgz:14333.got - 2010.06.03 17:49:19.
