data_PCOD9241870
_publ_section_title
;
Structure prediction by ZEFSAII (Michael W. Deem and Ramdas Pophale) SiO2 
 PCOD9241870
Probable space group: P 21/C
;
_chemical_formula_sum "Si O2"
_cell_formula_units_Z 28
_cell_length_a 11.969071
_cell_length_b 9.434005
_cell_length_c 10.795217
_cell_angle_alpha 90.000000
_cell_angle_beta 114.429729
_cell_angle_gamma 90.000000
_cell_volume 1109.821609
_symmetry_space_group_name_H-M "P 21/C"
_symmetry_group_IT_number 14
_symmetry_cell_setting 'monoclinic'
loop_
_space_group_symop_operation_xyz
x,y,z
-x,1/2+y,1/2-z
-x,-y,-z
x,1/2-y,1/2+z
loop_
_atom_site_type_symbol
_atom_site_label
_atom_site_fract_x
_atom_site_fract_y
_atom_site_fract_z
Si Si1 0.754982 0.947141 0.760012
Si Si2 0.482825 0.510234 0.184812
Si Si3 0.143712 0.521051 0.448513
Si Si4 0.613067 0.179479 0.567020
Si Si5 0.874873 0.328159 0.941267
Si Si6 0.675360 0.476459 0.670362
Si Si7 0.062893 0.417339 0.844469
O O1 0.618319 0.919411 0.750071
O O2 0.815421 0.866316 0.672252
O O3 0.728860 0.104832 0.689074
O O4 0.846347 0.941220 0.917162
O O5 0.500070 0.384758 0.093673
O O6 0.422203 0.455099 0.281991
O O7 0.397115 0.623342 0.076215
O O8 0.163660 0.684947 0.505223
O O9 0.250126 0.459167 0.408410
O O10 0.026690 0.530993 0.306678
O O11 0.608261 0.344151 0.577408
O O12 0.777158 0.404950 0.806879
O O13 0.991512 0.308599 0.901409
O O14 0.909816 0.446380 0.058467
#
# Coordination Sequence:
#
# PCOD9241870 Si02
#       7
#     4   4   4   4   4   4   4
#     4  10  19  38  55  83 116 154 184 242 290 346
#     4   9  20  34  57  84 115 149 187 238 294 334
#     4  11  22  35  62  88 112 155 203 247 278 345
#     4   9  19  34  59  85 108 149 196 237 279 344
#     4  10  21  38  59  89 110 152 201 245 287 341
#     4  11  19  35  62  88 111 151 200 241 280 341
#     4  10  22  36  60  83 119 149 198 246 295 338
#
# _framework density 25.229278999999998
#
# number of rings (size 3 to 8) (size 9 to 14) (size 15 to 20)
#    0.857    1.143    1.429    3.000    2.000    0.571 
#    0.000    1.429    0.000    0.000    0.000    0.000 
#    0.000    0.000    0.000    0.000    0.000    0.000 
#
# Total GULP energy -156229.867865 kJ/mol
# GULP energy per Si atom -5579.638138 kJ/mol
# Density = 2.517186 g / cm^3
# Si number density = 25.229279 Si / 1000 Ang^3
#
#
#
# Elastic Constant Matrix: (Units=GPa)
#
#
# Indices 1 2 3 4 5 6 
#
# 1 151.4829 3.4679 34.3901 0.0000 -58.2912 0.0000
# 2 3.4679 34.4380 13.4621 0.0000 -3.1182 0.0000
# 3 34.3901 13.4621 142.2206 0.0000 -8.3021 0.0000
# 4 0.0000 0.0000 0.0000 18.3987 0.0000 3.4344
# 5 -58.2912 -3.1182 -8.3021 0.0000 56.2973 0.0000
# 6 0.0000 0.0000 0.0000 3.4344 0.0000 13.3757
#
#
#
# Elastic Compliance Matrix: (Units=1/GPa)
#
#
# Indices 1 2 3 4 5 6 
#
# 1 0.011592 0.000750 -0.002190 0.000000 0.011721 0.000000
# 2 0.000750 0.030291 -0.002931 0.000000 0.002022 0.000000
# 3 -0.002190 -0.002931 0.007763 0.000000 -0.001285 0.000000
# 4 0.000000 0.000000 0.000000 0.057088 0.000000 -0.014658
# 5 0.011721 0.002022 -0.001285 0.000000 0.029821 0.000000
# 6 0.000000 0.000000 0.000000 -0.014658 0.000000 0.078526
#
#
# Mechanical properties :
#
#
# Convention : Reuss Voigt Hill
#
# Bulk Modulus (GPa) = 24.44686 47.86463 36.15574
# Shear Modulus (GPa) = 21.05654 36.06910 28.56282
#
# Velocity S-wave (km/s) = 2.89209 3.78518 3.36836
# Velocity P-wave (km/s) = 4.56762 6.17385 5.43045
#
# Compressibility (1/GPa) = 0.04090505
#
# Stress axis : x y z
#
# Youngs Moduli (GPa) = 86.26995 33.01326 128.81253
#
# Poissons Ratio (x) = -0.02476 0.28206
# Poissons Ratio (y) = -0.06470 0.37749
# Poissons Ratio (z) = 0.18891 0.09675
#
# Static dielectric constant tensor:
#      x y z
#    x 2.154170 0.000000 0.020050 
#    y 0.000000 1.867500 0.000000 
#    z 0.020050 0.000000 1.967000 
# 
# From -- ./inp_files/28692.got.cif
#   From: 2010.05.17/outbox.cif.g08.bks.cpg/sg14_15_cif.got.tgz:28692.got - 2010.06.03 17:49:19.
