data_PCOD9241357
_publ_section_title
;
Structure prediction by ZEFSAII (Michael W. Deem and Ramdas Pophale) SiO2 
 PCOD9241357
Probable space group: P 21/C
;
_chemical_formula_sum "Si O2"
_cell_formula_units_Z 16
_cell_length_a 7.668089
_cell_length_b 14.666791
_cell_length_c 8.262716
_cell_angle_alpha 90.000000
_cell_angle_beta 144.189860
_cell_angle_gamma 90.000000
_cell_volume 543.720949
_symmetry_space_group_name_H-M "P 21/C"
_symmetry_group_IT_number 14
_symmetry_cell_setting 'monoclinic'
loop_
_space_group_symop_operation_xyz
x,y,z
-x,1/2+y,1/2-z
-x,-y,-z
x,1/2-y,1/2+z
loop_
_atom_site_type_symbol
_atom_site_label
_atom_site_fract_x
_atom_site_fract_y
_atom_site_fract_z
Si Si1 0.747875 0.414370 0.891836
Si Si2 0.428694 0.655656 0.806114
Si Si3 0.813948 0.990056 0.088214
Si Si4 0.837752 0.757198 0.868610
O O1 0.392085 0.403473 0.615109
O O2 0.773162 0.470577 0.740995
O O3 0.839936 0.466284 0.126756
O O4 0.988698 0.334598 0.062821
O O5 0.306919 0.565387 0.625719
O O6 0.559263 0.716189 0.755792
O O7 0.134028 0.697778 0.665337
O O8 0.703090 0.672927 0.134876
#
# Coordination Sequence:
#
# PCOD9241357 Si02
#       4
#     4   4   4   4
#     4  10  19  35  61  91 118 152 208 263 296 340
#     4  12  24  40  63  92 126 162 202 252 308 366
#     4  10  19  35  61  91 118 152 208 263 296 340
#     4  12  24  40  63  92 126 162 202 252 308 366
#
# _framework density 29.426862
#
# number of rings (size 3 to 8) (size 9 to 14) (size 15 to 20)
#    0.000    1.000    0.000   12.000    0.000    0.000 
#    0.000    0.000    0.000   30.000    0.000    0.000 
#    0.000    0.000    0.000    0.000    0.000    0.000 
#
# Total GULP energy -89303.876439 kJ/mol
# GULP energy per Si atom -5581.492277 kJ/mol
# Density = 2.935988 g / cm^3
# Si number density = 29.426862 Si / 1000 Ang^3
#
#
#
# Elastic Constant Matrix: (Units=GPa)
#
#
# Indices 1 2 3 4 5 6 
#
# 1 101.6825 28.1689 61.6957 0.0000 -3.6900 0.0000
# 2 28.1689 89.6794 71.8271 0.0000 -12.1018 0.0000
# 3 61.6957 71.8271 286.1236 0.0000 21.5940 0.0000
# 4 0.0000 0.0000 0.0000 52.5065 0.0000 -15.2952
# 5 -3.6900 -12.1018 21.5940 0.0000 66.7192 0.0000
# 6 0.0000 0.0000 0.0000 -15.2952 0.0000 20.9034
#
#
#
# Elastic Compliance Matrix: (Units=1/GPa)
#
#
# Indices 1 2 3 4 5 6 
#
# 1 0.011671 -0.001819 -0.002136 0.000000 0.001007 0.000000
# 2 -0.001819 0.015224 -0.003721 0.000000 0.003865 0.000000
# 3 -0.002136 -0.003721 0.005073 0.000000 -0.002435 0.000000
# 4 0.000000 0.000000 0.000000 0.024204 0.000000 0.017710
# 5 0.001007 0.003865 -0.002435 0.000000 0.016533 0.000000
# 6 0.000000 0.000000 0.000000 0.017710 0.000000 0.060798
#
#
# Mechanical properties :
#
#
# Convention : Reuss Voigt Hill
#
# Bulk Modulus (GPa) = 60.18347 88.98544 74.58446
# Shear Modulus (GPa) = 32.38429 49.07874 40.73152
#
# Velocity S-wave (km/s) = 3.32098 4.08833 3.72447
# Velocity P-wave (km/s) = 5.93308 7.25197 6.62543
#
# Compressibility (1/GPa) = 0.01661586
#
# Stress axis : x y z
#
# Youngs Moduli (GPa) = 85.68244 65.68405 197.10348
#
# Poissons Ratio (x) = 0.11951 0.42097
# Poissons Ratio (y) = 0.15590 0.73347
# Poissons Ratio (z) = 0.18300 0.24443
#
# Static dielectric constant tensor:
#      x y z
#    x 2.525000 0.000000 0.018190 
#    y 0.000000 2.639230 0.000000 
#    z 0.018190 0.000000 2.093850 
# 
# From -- ./inp_files/9596.got.cif
#   From: 2010.05.17/outbox.cif.g08.bks.cpg/sg14_5_cif.got.tgz:9596.got - 2010.06.03 17:49:19.
