data_PCOD9241594
_publ_section_title
;
Structure prediction by ZEFSAII (Michael W. Deem and Ramdas Pophale) SiO2 
 PCOD9241594
Probable space group: P 21/C
;
_chemical_formula_sum "Si O2"
_cell_formula_units_Z 32
_cell_length_a 24.588335
_cell_length_b 7.364940
_cell_length_c 16.763297
_cell_angle_alpha 90.000000
_cell_angle_beta 156.769997
_cell_angle_gamma 90.000000
_cell_volume 1197.347425
_symmetry_space_group_name_H-M "P 21/C"
_symmetry_group_IT_number 14
_symmetry_cell_setting 'monoclinic'
loop_
_space_group_symop_operation_xyz
x,y,z
-x,1/2+y,1/2-z
-x,-y,-z
x,1/2-y,1/2+z
loop_
_atom_site_type_symbol
_atom_site_label
_atom_site_fract_x
_atom_site_fract_y
_atom_site_fract_z
Si Si1 0.872303 0.371546 0.517678
Si Si2 0.602817 0.827715 0.445816
Si Si3 0.850405 0.866990 0.684305
Si Si4 0.175133 0.509423 0.128471
Si Si5 0.353527 0.384045 0.240287
Si Si6 0.900085 0.055942 0.238038
Si Si7 0.562829 0.200004 0.620917
Si Si8 0.345531 0.599536 0.497319
O O1 0.874289 0.155998 0.503493
O O2 0.917508 0.410656 0.668487
O O3 0.706004 0.405827 0.295183
O O4 0.996912 0.448134 0.629018
O O5 0.745540 0.928294 0.613525
O O6 0.523674 0.878926 0.420547
O O7 0.637456 0.615634 0.493908
O O8 0.495112 0.840440 0.226557
O O9 0.754394 0.865297 0.475883
O O10 0.875645 0.652601 0.728979
O O11 0.271640 0.371152 0.213159
O O12 0.256371 0.637800 0.298730
O O13 0.040663 0.400322 0.973961
O O14 0.476830 0.243695 0.423799
O O15 0.405505 0.592212 0.308018
O O16 0.759928 0.152715 0.074828
#
# Coordination Sequence:
#
# PCOD9241594 Si02
#       8
#     4   4   4   4   4   4   4   4
#     4  10  20  37  55  86 116 154 198 241 293 359
#     4  11  22  37  59  88 126 154 199 251 301 362
#     4  10  22  35  56  87 121 152 192 248 305 351
#     4  10  20  35  64  87 117 154 205 250 293 362
#     4  10  19  36  62  89 111 152 208 248 287 364
#     4  10  20  38  59  87 121 157 197 246 304 360
#     4  10  20  35  61  84 112 152 199 246 294 353
#     4  11  22  39  59  93 121 161 201 250 306 356
#
# _framework density 26.725740999999999
#
# number of rings (size 3 to 8) (size 9 to 14) (size 15 to 20)
#    0.000    1.750    3.750    1.125    3.500    0.000 
#    0.000    1.875    0.000    0.000    0.000    7.875 
#    0.000    0.000    0.000    0.000    0.000    0.000 
#
# Total GULP energy -178528.762837 kJ/mol
# GULP energy per Si atom -5579.023839 kJ/mol
# Density = 2.666491 g / cm^3
# Si number density = 26.725741 Si / 1000 Ang^3
#
#
#
# Elastic Constant Matrix: (Units=GPa)
#
#
# Indices 1 2 3 4 5 6 
#
# 1 77.4738 60.4200 44.3605 0.0000 73.1645 0.0000
# 2 60.4200 11.8271 74.1845 0.0000 -27.1794 0.0000
# 3 44.3605 74.1845 101.2607 0.0000 55.2611 0.0000
# 4 0.0000 0.0000 0.0000 26.9334 0.0000 -8.0451
# 5 73.1645 -27.1794 55.2611 0.0000 47.8277 0.0000
# 6 0.0000 0.0000 0.0000 -8.0451 0.0000 12.3504
#
#
#
# Elastic Compliance Matrix: (Units=1/GPa)
#
#
# Indices 1 2 3 4 5 6 
#
# 1 0.013121 0.009370 -0.012354 0.000000 -0.000474 0.000000
# 2 0.009370 0.003375 0.000535 0.000000 -0.013034 0.000000
# 3 -0.012354 0.000535 0.011952 0.000000 0.005393 0.000000
# 4 0.000000 0.000000 0.000000 0.046098 0.000000 0.030029
# 5 -0.000474 -0.013034 0.005393 0.000000 0.007995 0.000000
# 6 0.000000 0.000000 0.000000 0.030029 0.000000 0.100530
#
#
# Mechanical properties :
#
#
# Convention : Reuss Voigt Hill
#
# Bulk Modulus (GPa) = 42.46089 60.94350 51.70220
# Shear Modulus (GPa) = 25.53353 18.19541 21.86447
#
# Velocity S-wave (km/s) = 3.09429 2.61208 2.86336
# Velocity P-wave (km/s) = 5.35615 5.65244 5.50629
#
# Compressibility (1/GPa) = 0.02355108
#
# Stress axis : x y z
#
# Youngs Moduli (GPa) = 76.21119 296.25403 83.66502
#
# Poissons Ratio (x) = -2.77584 1.03361
# Poissons Ratio (y) = -0.71408 -0.04478
# Poissons Ratio (z) = 0.94153 -0.15857
#
# Static dielectric constant tensor:
#      x y z
#    x 2.240160 0.000000 0.057540 
#    y 0.000000 2.050660 0.000000 
#    z 0.057540 0.000000 2.328740 
# 
# From -- ./inp_files/62375.got.cif
#   From: 2010.05.17/outbox.cif.g08.bks.cpg/sg14_32_cif.got.tgz:62375.got - 2010.06.03 17:49:19.
