data_PCOD9241635
_publ_section_title
;
Structure prediction by ZEFSAII (Michael W. Deem and Ramdas Pophale) SiO2 
 PCOD9241635
Probable space group: P 21/C
;
_chemical_formula_sum "Si O2"
_cell_formula_units_Z 32
_cell_length_a 21.575104
_cell_length_b 15.532072
_cell_length_c 14.847220
_cell_angle_alpha 90.000000
_cell_angle_beta 19.405644
_cell_angle_gamma 90.000000
_cell_volume 1653.094618
_symmetry_space_group_name_H-M "P 21/C"
_symmetry_group_IT_number 14
_symmetry_cell_setting 'monoclinic'
loop_
_space_group_symop_operation_xyz
x,y,z
-x,1/2+y,1/2-z
-x,-y,-z
x,1/2-y,1/2+z
loop_
_atom_site_type_symbol
_atom_site_label
_atom_site_fract_x
_atom_site_fract_y
_atom_site_fract_z
Si Si1 0.885799 0.826369 0.771300
Si Si2 0.296856 0.756769 0.197313
Si Si3 0.111537 0.634510 0.319416
Si Si4 0.085169 0.029461 0.749949
Si Si5 0.214699 0.256708 0.779556
Si Si6 0.255519 0.470464 0.409386
Si Si7 0.473183 0.634566 0.095835
Si Si8 0.700314 0.826327 0.642433
O O1 0.809354 0.814090 0.775544
O O2 0.107149 0.809866 0.466054
O O3 0.829856 0.915367 0.893511
O O4 0.797363 0.750003 0.952535
O O5 0.268283 0.691155 0.152948
O O6 0.332254 0.697698 0.236854
O O7 0.479404 0.814083 0.935665
O O8 0.174277 0.555763 0.171566
O O9 0.991217 0.590402 0.564897
O O10 0.970577 0.697605 0.460420
O O11 0.223111 0.084641 0.500325
O O12 0.906346 0.999878 0.937282
O O13 0.389320 0.191155 0.532043
O O14 0.245972 0.309750 0.827493
O O15 0.365857 0.555795 0.288255
O O16 0.396840 0.409511 0.159327
#
# Coordination Sequence:
#
# PCOD9241635 Si02
#       8
#     4   4   4   4   4   4   4   4
#     4  11  21  40  63  92 133 169 211 264 326 374
#     4  10  20  38  65  93 127 166 217 263 313 397
#     4  10  19  36  64  94 122 156 214 271 317 374
#     4  11  20  35  65  93 126 162 208 272 332 358
#     4  10  20  38  65  93 127 166 217 263 313 397
#     4  11  20  35  65  93 126 162 208 272 332 358
#     4  10  19  36  64  94 122 156 214 271 317 374
#     4  11  21  40  63  92 133 169 211 264 326 374
#
# _framework density 19.357633
#
# number of rings (size 3 to 8) (size 9 to 14) (size 15 to 20)
#    0.000    1.500    7.500    0.000    0.000    0.000 
#    0.000   11.250    0.000    0.000    0.000    0.000 
#    0.000    0.000    0.000    0.000    0.000    0.000 
#
# Total GULP energy -178799.661422 kJ/mol
# GULP energy per Si atom -5587.489419 kJ/mol
# Density = 1.931357 g / cm^3
# Si number density = 19.357633 Si / 1000 Ang^3
#
#
#
# Elastic Constant Matrix: (Units=GPa)
#
#
# Indices 1 2 3 4 5 6 
#
# 1 99.1647 51.5360 67.0606 0.0000 -12.5803 0.0000
# 2 51.5360 96.0543 52.8928 0.0000 2.2988 0.0000
# 3 67.0606 52.8928 87.6390 0.0000 -3.7919 0.0000
# 4 0.0000 0.0000 0.0000 36.0350 0.0000 18.5670
# 5 -12.5803 2.2988 -3.7919 0.0000 24.8678 0.0000
# 6 0.0000 0.0000 0.0000 18.5670 0.0000 23.7018
#
#
#
# Elastic Compliance Matrix: (Units=1/GPa)
#
#
# Indices 1 2 3 4 5 6 
#
# 1 0.024128 -0.004904 -0.015055 0.000000 0.010364 0.000000
# 2 -0.004904 0.016799 -0.006605 0.000000 -0.005041 0.000000
# 3 -0.015055 -0.006605 0.026790 0.000000 -0.002921 0.000000
# 4 0.000000 0.000000 0.000000 0.046532 0.000000 -0.036451
# 5 0.010364 -0.005041 -0.002921 0.000000 0.045476 0.000000
# 6 0.000000 0.000000 0.000000 -0.036451 0.000000 0.070745
#
#
# Mechanical properties :
#
#
# Convention : Reuss Voigt Hill
#
# Bulk Modulus (GPa) = 68.53441 69.53744 69.03593
# Shear Modulus (GPa) = 17.33329 24.34551 20.83940
#
# Velocity S-wave (km/s) = 2.99561 3.55021 3.28464
# Velocity P-wave (km/s) = 6.88811 7.26676 7.07997
#
# Compressibility (1/GPa) = 0.01459121
#
# Stress axis : x y z
#
# Youngs Moduli (GPa) = 41.44487 59.52626 37.32694
#
# Poissons Ratio (x) = 0.29189 0.56196
# Poissons Ratio (y) = 0.20323 0.24654
# Poissons Ratio (z) = 0.62395 0.39316
#
# Static dielectric constant tensor:
#      x y z
#    x 1.669340 0.000000 -0.007580 
#    y 0.000000 1.674440 0.000000 
#    z -0.007580 0.000000 1.663990 
# 
# From -- ./inp_files/50674.got.cif
#   From: 2010.05.17/outbox.cif.g08.bks.cpg/sg14_26_cif.got.tgz:50674.got - 2010.06.03 17:49:19.
