data_PCOD9241834
_publ_section_title
;
Structure prediction by ZEFSAII (Michael W. Deem and Ramdas Pophale) SiO2 
 PCOD9241834
Probable space group: P 21/C
;
_chemical_formula_sum "Si O2"
_cell_formula_units_Z 28
_cell_length_a 26.523867
_cell_length_b 6.373483
_cell_length_c 17.274737
_cell_angle_alpha 90.000000
_cell_angle_beta 150.972123
_cell_angle_gamma 90.000000
_cell_volume 1417.024406
_symmetry_space_group_name_H-M "P 21/C"
_symmetry_group_IT_number 14
_symmetry_cell_setting 'monoclinic'
loop_
_space_group_symop_operation_xyz
x,y,z
-x,1/2+y,1/2-z
-x,-y,-z
x,1/2-y,1/2+z
loop_
_atom_site_type_symbol
_atom_site_label
_atom_site_fract_x
_atom_site_fract_y
_atom_site_fract_z
Si Si1 0.221832 0.117793 0.948163
Si Si2 0.027624 0.881185 0.617690
Si Si3 0.193474 0.303298 0.178451
Si Si4 0.333431 0.039384 0.251847
Si Si5 0.322510 0.614426 0.447706
Si Si6 0.465909 0.807236 0.007937
Si Si7 0.186214 0.991131 0.312213
O O1 0.210521 0.367039 0.919908
O O2 0.111542 0.020250 0.775277
O O3 0.308471 0.035018 0.003032
O O4 0.254511 0.031397 0.074791
O O5 0.087244 0.661026 0.685911
O O6 0.916798 0.845918 0.509351
O O7 0.000000 0.000000 0.500000
O O8 0.278946 0.187861 0.241856
O O9 0.240607 0.516158 0.276498
O O10 0.170825 0.151741 0.220976
O O11 0.436857 0.151193 0.358602
O O12 0.371545 0.823342 0.341689
O O13 0.428858 0.622575 0.543225
O O14 0.282778 0.841021 0.421035
O O15 0.500000 0.000000 0.000000
#
# Coordination Sequence:
#
# PCOD9241834 Si02
#       7
#     4   4   4   4   4   4   4
#     4  10  24  41  59  96 132 156 218 271 313 377
#     4  11  20  36  63  94 124 167 219 251 308 388
#     4  11  20  37  63  88 123 166 213 252 314 385
#     4  11  25  43  61  95 129 161 213 272 326 381
#     4  10  20  40  64  92 117 166 214 258 314 387
#     4  11  23  43  70  88 120 170 213 261 329 395
#     4  10  19  37  65  86 120 168 208 260 304 369
#
# _framework density 19.759715
#
# number of rings (size 3 to 8) (size 9 to 14) (size 15 to 20)
#    0.000    1.429    7.143    0.429    0.000    2.286 
#    7.714    0.000    0.000    0.000    0.000    0.000 
#    0.000    0.000    0.000    0.000    0.000    0.000 
#
# Total GULP energy -156231.216132 kJ/mol
# GULP energy per Si atom -5579.686290 kJ/mol
# Density = 1.971474 g / cm^3
# Si number density = 19.759715 Si / 1000 Ang^3
#
#
#
# Elastic Constant Matrix: (Units=GPa)
#
#
# Indices 1 2 3 4 5 6 
#
# 1 29.5402 1.8972 2.2385 0.0000 13.3597 0.0000
# 2 1.8972 87.5855 13.0415 0.0000 3.4732 0.0000
# 3 2.2385 13.0415 61.6006 0.0000 -9.4659 0.0000
# 4 0.0000 0.0000 0.0000 22.6725 0.0000 11.2543
# 5 13.3597 3.4732 -9.4659 0.0000 31.8782 0.0000
# 6 0.0000 0.0000 0.0000 11.2543 0.0000 20.8717
#
#
#
# Elastic Compliance Matrix: (Units=1/GPa)
#
#
# Indices 1 2 3 4 5 6 
#
# 1 0.042968 0.000535 -0.004663 0.000000 -0.019450 0.000000
# 2 0.000535 0.011934 -0.002913 0.000000 -0.002390 0.000000
# 3 -0.004663 -0.002913 0.018199 0.000000 0.007676 0.000000
# 4 0.000000 0.000000 0.000000 0.060226 0.000000 -0.032475
# 5 -0.019450 -0.002390 0.007676 0.000000 0.042060 0.000000
# 6 0.000000 0.000000 0.000000 -0.032475 0.000000 0.065422
#
#
# Mechanical properties :
#
#
# Convention : Reuss Voigt Hill
#
# Bulk Modulus (GPa) = 16.94407 23.67564 20.30986
# Shear Modulus (GPa) = 18.21055 25.85443 22.03249
#
# Velocity S-wave (km/s) = 3.03908 3.62116 3.34281
# Velocity P-wave (km/s) = 4.57256 5.43061 5.01995
#
# Compressibility (1/GPa) = 0.05901770
#
# Stress axis : x y z
#
# Youngs Moduli (GPa) = 23.27338 83.79164 54.94694
#
# Poissons Ratio (x) = -0.04482 0.25624
# Poissons Ratio (y) = -0.01245 0.16007
# Poissons Ratio (z) = 0.10853 0.24411
#
# Static dielectric constant tensor:
#      x y z
#    x 1.710870 0.000000 0.011960 
#    y 0.000000 1.703330 0.000000 
#    z 0.011960 0.000000 1.706920 
# 
# From -- ./inp_files/62158.got.cif
#   From: 2010.05.17/outbox.cif.g08.bks.cpg/sg14_32_cif.got.tgz:62158.got - 2010.06.03 17:49:19.
