data_PCOD9241275
_publ_section_title
;
Structure prediction by ZEFSAII (Michael W. Deem and Ramdas Pophale) SiO2 
 PCOD9241275
Probable space group: P 21/C
;
_chemical_formula_sum "Si O2"
_cell_formula_units_Z 28
_cell_length_a 8.138071
_cell_length_b 11.193935
_cell_length_c 13.758555
_cell_angle_alpha 90.000000
_cell_angle_beta 109.825768
_cell_angle_gamma 90.000000
_cell_volume 1179.074652
_symmetry_space_group_name_H-M "P 21/C"
_symmetry_group_IT_number 14
_symmetry_cell_setting 'monoclinic'
loop_
_space_group_symop_operation_xyz
x,y,z
-x,1/2+y,1/2-z
-x,-y,-z
x,1/2-y,1/2+z
loop_
_atom_site_type_symbol
_atom_site_label
_atom_site_fract_x
_atom_site_fract_y
_atom_site_fract_z
Si Si1 0.157004 0.374420 0.521790
Si Si2 0.142155 0.774878 0.434953
Si Si3 0.858878 0.062823 0.833190
Si Si4 0.026904 0.022504 0.336868
Si Si5 0.296405 0.809819 0.770737
Si Si6 0.679628 0.860741 0.490101
Si Si7 0.568915 0.097430 0.379538
O O1 0.214889 0.492619 0.589122
O O2 0.301252 0.273614 0.540395
O O3 0.996672 0.318193 0.551903
O O4 0.059921 0.404520 0.401203
O O5 0.272704 0.717689 0.380638
O O6 0.259316 0.837195 0.540960
O O7 0.030357 0.882702 0.364334
O O8 0.759321 0.182745 0.786472
O O9 0.863267 0.977121 0.741108
O O10 0.128295 0.091999 0.442071
O O11 0.847326 0.087845 0.280404
O O12 0.454452 0.857319 0.734846
O O13 0.573737 0.869621 0.568794
O O14 0.597862 0.954777 0.398008
#
# Coordination Sequence:
#
# PCOD9241275 Si02
#       7
#     4   4   4   4   4   4   4
#     4  11  19  36  58  86 115 150 186 244 293 336
#     4  10  20  34  60  84 112 149 191 237 288 338
#     4  10  21  32  58  84 118 141 190 245 292 340
#     4  10  19  35  58  87 107 144 199 238 284 336
#     4  11  19  36  59  84 114 151 189 246 285 338
#     4  10  21  38  62  82 114 154 191 242 285 346
#     4  10  21  39  58  83 118 153 196 229 289 351
#
# _framework density 23.747434999999999
#
# number of rings (size 3 to 8) (size 9 to 14) (size 15 to 20)
#    0.000    1.714    4.286    0.857    0.000    2.286 
#    2.571    0.714    9.429    0.000    0.000    0.000 
#    0.000    0.000    0.000    0.000    0.000    0.000 
#
# Total GULP energy -156491.681765 kJ/mol
# GULP energy per Si atom -5588.988634 kJ/mol
# Density = 2.369338 g / cm^3
# Si number density = 23.747435 Si / 1000 Ang^3
#
#
#
# Elastic Constant Matrix: (Units=GPa)
#
#
# Indices 1 2 3 4 5 6 
#
# 1 53.5623 23.5031 11.7062 0.0000 -14.7009 0.0000
# 2 23.5031 86.1287 28.7478 0.0000 -9.6517 0.0000
# 3 11.7062 28.7478 81.7845 0.0000 -7.5244 0.0000
# 4 0.0000 0.0000 0.0000 33.6016 0.0000 -16.5302
# 5 -14.7009 -9.6517 -7.5244 0.0000 23.4499 0.0000
# 6 0.0000 0.0000 0.0000 -16.5302 0.0000 26.2070
#
#
#
# Elastic Compliance Matrix: (Units=1/GPa)
#
#
# Indices 1 2 3 4 5 6 
#
# 1 0.024627 -0.005066 -0.000532 0.000000 0.013184 0.000000
# 2 -0.005066 0.014580 -0.004266 0.000000 0.001456 0.000000
# 3 -0.000532 -0.004266 0.014025 0.000000 0.002411 0.000000
# 4 0.000000 0.000000 0.000000 0.043150 0.000000 0.027217
# 5 0.013184 0.001456 0.002411 0.000000 0.052282 0.000000
# 6 0.000000 0.000000 0.000000 0.027217 0.000000 0.055325
#
#
# Mechanical properties :
#
#
# Convention : Reuss Voigt Hill
#
# Bulk Modulus (GPa) = 29.84559 38.82110 34.33335
# Shear Modulus (GPa) = 21.28717 27.15293 24.22005
#
# Velocity S-wave (km/s) = 2.99724 3.38510 3.19705
# Velocity P-wave (km/s) = 4.95713 5.62685 5.30258
#
# Compressibility (1/GPa) = 0.03350578
#
# Stress axis : x y z
#
# Youngs Moduli (GPa) = 40.60554 68.58752 71.30304
#
# Poissons Ratio (x) = 0.34744 0.03790
# Poissons Ratio (y) = 0.20569 0.30417
# Poissons Ratio (z) = 0.02158 0.29259
#
# Static dielectric constant tensor:
#      x y z
#    x 1.985180 0.000000 -0.007350 
#    y 0.000000 1.877790 0.000000 
#    z -0.007350 0.000000 1.972070 
# 
# From -- ./inp_files/39659.got.cif
#   From: 2010.05.17/outbox.cif.g08.bks.cpg/sg14_20_cif.got.tgz:39659.got - 2010.06.03 17:49:19.
