data_PCOD9241105
_publ_section_title
;
Structure prediction by ZEFSAII (Michael W. Deem and Ramdas Pophale) SiO2 
 PCOD9241105
Probable space group: P 21/C
;
_chemical_formula_sum "Si O2"
_cell_formula_units_Z 32
_cell_length_a 8.406070
_cell_length_b 8.638200
_cell_length_c 27.975609
_cell_angle_alpha 90.000000
_cell_angle_beta 48.965465
_cell_angle_gamma 90.000000
_cell_volume 1532.314733
_symmetry_space_group_name_H-M "P 21/C"
_symmetry_group_IT_number 14
_symmetry_cell_setting 'monoclinic'
loop_
_space_group_symop_operation_xyz
x,y,z
-x,1/2+y,1/2-z
-x,-y,-z
x,1/2-y,1/2+z
loop_
_atom_site_type_symbol
_atom_site_label
_atom_site_fract_x
_atom_site_fract_y
_atom_site_fract_z
Si Si1 0.145226 0.410329 0.151400
Si Si2 0.712774 0.668996 0.675698
Si Si3 0.683041 0.970202 0.734692
Si Si4 0.542726 0.371312 0.950429
Si Si5 0.362658 0.381558 0.651310
Si Si6 0.194219 0.949895 0.929135
Si Si7 0.858951 0.723643 0.444130
Si Si8 0.823657 0.080948 0.890656
O O1 0.327405 0.540020 0.116188
O O2 0.223735 0.266150 0.166304
O O3 0.128077 0.345930 0.100860
O O4 0.911364 0.469650 0.206396
O O5 0.704591 0.851994 0.686541
O O6 0.495320 0.598354 0.738815
O O7 0.740750 0.595846 0.617179
O O8 0.926268 0.611967 0.659628
O O9 0.607185 0.885097 0.797929
O O10 0.700284 0.231736 0.933280
O O11 0.500000 0.500000 0.000000
O O12 0.318457 0.288742 0.985001
O O13 0.601558 0.385821 0.584245
O O14 0.254809 0.527374 0.646099
O O15 0.088451 0.813912 0.918891
O O16 0.000000 0.000000 0.000000
O O17 0.784359 0.563036 0.434150
#
# Coordination Sequence:
#
# PCOD9241105 Si02
#       8
#     4   4   4   4   4   4   4   4
#     4  10  22  39  61  89 129 156 208 267 313 375
#     4  10  24  40  67  91 124 172 213 266 317 391
#     4  11  24  43  63  93 127 166 220 261 324 385
#     4  10  19  34  58  92 121 159 205 259 307 369
#     4  10  24  39  62  92 125 170 209 260 321 382
#     4  10  21  42  65  91 124 163 216 258 311 384
#     4   9  20  36  63  86 123 165 207 246 315 386
#     4  10  19  39  61  93 119 167 211 251 320 379
#
# _framework density 20.883436
#
# number of rings (size 3 to 8) (size 9 to 14) (size 15 to 20)
#    0.000    2.000    1.250    1.125    8.750    5.000 
#    0.000    4.375    0.000    0.000    0.000    0.000 
#    0.000    0.000    0.000    0.000    0.000    0.000 
#
# Total GULP energy -178356.528264 kJ/mol
# GULP energy per Si atom -5573.641508 kJ/mol
# Density = 2.083590 g / cm^3
# Si number density = 20.883436 Si / 1000 Ang^3
#
#
#
# Elastic Constant Matrix: (Units=GPa)
#
#
# Indices 1 2 3 4 5 6 
#
# 1 52.8709 8.4620 6.6027 0.0000 -13.8153 0.0000
# 2 8.4620 72.1871 24.8026 0.0000 -12.2804 0.0000
# 3 6.6027 24.8026 57.5588 0.0000 -19.5969 0.0000
# 4 0.0000 0.0000 0.0000 26.7467 0.0000 -13.7014
# 5 -13.8153 -12.2804 -19.5969 0.0000 26.8489 0.0000
# 6 0.0000 0.0000 0.0000 -13.7014 0.0000 25.9781
#
#
#
# Elastic Compliance Matrix: (Units=1/GPa)
#
#
# Indices 1 2 3 4 5 6 
#
# 1 0.022080 -0.001242 0.002232 0.000000 0.012422 0.000000
# 2 -0.001242 0.016525 -0.006151 0.000000 0.002430 0.000000
# 3 0.002232 -0.006151 0.025551 0.000000 0.016984 0.000000
# 4 0.000000 0.000000 0.000000 0.051229 0.000000 0.027019
# 5 0.012422 0.002430 0.016984 0.000000 0.057145 0.000000
# 6 0.000000 0.000000 0.000000 0.027019 0.000000 0.052744
#
#
# Mechanical properties :
#
#
# Convention : Reuss Voigt Hill
#
# Bulk Modulus (GPa) = 18.57584 29.15016 23.86300
# Shear Modulus (GPa) = 19.72062 25.43138 22.57600
#
# Velocity S-wave (km/s) = 3.07631 3.49345 3.29150
# Velocity P-wave (km/s) = 4.64032 5.50101 5.08889
#
# Compressibility (1/GPa) = 0.05383337
#
# Stress axis : x y z
#
# Youngs Moduli (GPa) = 45.28981 60.51333 39.13790
#
# Poissons Ratio (x) = 0.07514 -0.08734
# Poissons Ratio (y) = 0.05624 0.24074
# Poissons Ratio (z) = -0.10107 0.37223
#
# Static dielectric constant tensor:
#      x y z
#    x 1.780770 0.000000 -0.005270 
#    y 0.000000 1.783890 0.000000 
#    z -0.005270 0.000000 1.867550 
# 
# From -- ./inp_files/79395.got.cif
#   From: 2010.05.17/outbox.cif.g08.bks.cpg/sg14_40_cif.got.tgz:79395.got - 2010.06.03 17:49:19.
