data_PCOD9241582
_publ_section_title
;
Structure prediction by ZEFSAII (Michael W. Deem and Ramdas Pophale) SiO2 
 PCOD9241582
Probable space group: P 21/C
;
_chemical_formula_sum "Si O2"
_cell_formula_units_Z 20
_cell_length_a 12.794138
_cell_length_b 6.880653
_cell_length_c 13.540672
_cell_angle_alpha 90.000000
_cell_angle_beta 138.133901
_cell_angle_gamma 90.000000
_cell_volume 795.539831
_symmetry_space_group_name_H-M "P 21/C"
_symmetry_group_IT_number 14
_symmetry_cell_setting 'monoclinic'
loop_
_space_group_symop_operation_xyz
x,y,z
-x,1/2+y,1/2-z
-x,-y,-z
x,1/2-y,1/2+z
loop_
_atom_site_type_symbol
_atom_site_label
_atom_site_fract_x
_atom_site_fract_y
_atom_site_fract_z
Si Si1 0.211084 0.953906 0.108989
Si Si2 0.807652 0.795864 0.531859
Si Si3 0.565788 0.499954 0.402246
Si Si4 0.983819 0.154662 0.643734
Si Si5 0.263396 0.628341 0.286613
O O1 0.371095 0.922562 0.157489
O O2 0.229569 0.845667 0.225027
O O3 0.070194 0.840673 0.955224
O O4 0.181668 0.180112 0.064481
O O5 0.649916 0.711332 0.468761
O O6 0.829534 0.022869 0.543563
O O7 0.944466 0.720371 0.701791
O O8 0.385248 0.525729 0.297292
O O9 0.648020 0.376208 0.546472
O O10 0.110292 0.006581 0.685992
#
# Coordination Sequence:
#
# PCOD9241582 Si02
#       5
#     4   4   4   4   4
#     4  10  21  36  61  84 113 157 191 232 289 340
#     4   9  19  35  59  83 118 151 189 233 285 337
#     4   8  20  39  57  83 120 152 186 238 286 336
#     4  11  18  36  62  85 115 153 190 237 285 333
#     4  10  19  36  62  84 114 153 191 236 287 337
#
# _framework density 25.140163000000001
#
# number of rings (size 3 to 8) (size 9 to 14) (size 15 to 20)
#    1.200    1.200    2.000    0.600    0.000    2.400 
#    0.000    0.000    4.400    6.000    0.000    0.000 
#    0.000    0.000    0.000    0.000    0.000    0.000 
#
# Total GULP energy -111764.689069 kJ/mol
# GULP energy per Si atom -5588.234453 kJ/mol
# Density = 2.508294 g / cm^3
# Si number density = 25.140163 Si / 1000 Ang^3
#
#
#
# Elastic Constant Matrix: (Units=GPa)
#
#
# Indices 1 2 3 4 5 6 
#
# 1 96.6797 4.7214 -0.5546 0.0000 11.2538 0.0000
# 2 4.7214 63.5926 24.7946 0.0000 4.2585 0.0000
# 3 -0.5546 24.7946 84.9293 0.0000 -1.5344 0.0000
# 4 0.0000 0.0000 0.0000 28.6066 0.0000 -3.4929
# 5 11.2538 4.2585 -1.5344 0.0000 21.2221 0.0000
# 6 0.0000 0.0000 0.0000 -3.4929 0.0000 36.4239
#
#
#
# Elastic Compliance Matrix: (Units=1/GPa)
#
#
# Indices 1 2 3 4 5 6 
#
# 1 0.011037 -0.000476 0.000107 0.000000 -0.005749 0.000000
# 2 -0.000476 0.018101 -0.005356 0.000000 -0.003767 0.000000
# 3 0.000107 -0.005356 0.013375 0.000000 0.001985 0.000000
# 4 0.000000 0.000000 0.000000 0.035371 0.000000 0.003392
# 5 -0.005749 -0.003767 0.001985 0.000000 0.051069 0.000000
# 6 0.000000 0.000000 0.000000 0.003392 0.000000 0.027780
#
#
# Mechanical properties :
#
#
# Convention : Reuss Voigt Hill
#
# Bulk Modulus (GPa) = 32.19287 33.68051 32.93669
# Shear Modulus (GPa) = 28.00571 31.66654 29.83612
#
# Velocity S-wave (km/s) = 3.34126 3.55293 3.44872
# Velocity P-wave (km/s) = 5.26484 5.50066 5.38404
#
# Compressibility (1/GPa) = 0.03106278
#
# Stress axis : x y z
#
# Youngs Moduli (GPa) = 90.60822 55.24602 74.76859
#
# Poissons Ratio (x) = 0.02631 -0.00802
# Poissons Ratio (y) = 0.04315 0.40043
# Poissons Ratio (z) = -0.00972 0.29588
#
# Static dielectric constant tensor:
#      x y z
#    x 2.052400 0.000000 -0.012800 
#    y 0.000000 1.923770 0.000000 
#    z -0.012800 0.000000 1.941060 
# 
# From -- ./inp_files/46210.got.cif
#   From: 2010.05.17/outbox.cif.g08.bks.cpg/sg14_24_cif.got.tgz:46210.got - 2010.06.03 17:49:19.
