data_PCOD9241078
_publ_section_title
;
Structure prediction by ZEFSAII (Michael W. Deem and Ramdas Pophale) SiO2 
 PCOD9241078
Probable space group: P 21/C
;
_chemical_formula_sum "Si O2"
_cell_formula_units_Z 28
_cell_length_a 5.216229
_cell_length_b 11.947929
_cell_length_c 18.046608
_cell_angle_alpha 90.000000
_cell_angle_beta 65.783046
_cell_angle_gamma 90.000000
_cell_volume 1025.744328
_symmetry_space_group_name_H-M "P 21/C"
_symmetry_group_IT_number 14
_symmetry_cell_setting 'monoclinic'
loop_
_space_group_symop_operation_xyz
x,y,z
-x,1/2+y,1/2-z
-x,-y,-z
x,1/2-y,1/2+z
loop_
_atom_site_type_symbol
_atom_site_label
_atom_site_fract_x
_atom_site_fract_y
_atom_site_fract_z
Si Si1 0.594485 0.188732 0.807011
Si Si2 0.200765 0.437042 0.536821
Si Si3 0.602196 0.698152 0.032967
Si Si4 0.739468 0.500631 0.691955
Si Si5 0.846083 0.603701 0.821781
Si Si6 0.955378 0.413810 0.908745
Si Si7 0.672488 0.668442 0.274127
O O1 0.601700 0.231985 0.887409
O O2 0.577414 0.287762 0.750717
O O3 0.850719 0.114681 0.751785
O O4 0.296180 0.127169 0.832934
O O5 0.500000 0.500000 0.500000
O O6 0.231950 0.302867 0.521900
O O7 0.000000 0.500000 0.500000
O O8 0.034749 0.452995 0.633571
O O9 0.348309 0.629256 0.025206
O O10 0.808960 0.622593 0.059625
O O11 0.677935 0.520408 0.786464
O O12 0.501125 0.435346 0.675250
O O13 0.896295 0.544633 0.894172
O O14 0.728998 0.728736 0.822711
O O15 0.083380 0.367617 0.813389
#
# Coordination Sequence:
#
# PCOD9241078 Si02
#       7
#     4   4   4   4   4   4   4
#     4  10  19  34  57  87 124 158 202 261 314 394
#     4  12  25  41  64  93 130 177 215 265 325 389
#     4  11  22  39  58  90 125 169 210 253 318 394
#     4  11  23  38  59  93 131 164 210 267 328 391
#     4  11  21  37  61  92 126 165 210 266 337 390
#     4  11  22  38  61  87 127 166 208 260 325 390
#     4  10  22  34  58  91 125 160 205 268 328 378
#
# _framework density 27.297249999999998
#
# number of rings (size 3 to 8) (size 9 to 14) (size 15 to 20)
#    0.000    1.143    4.286    3.429    4.000    0.000 
#    0.000    0.000    0.000    1.714    0.000    0.000 
#    0.000    0.000    0.000    0.000    0.000    0.000 
#
# Total GULP energy -156383.435177 kJ/mol
# GULP energy per Si atom -5585.122685 kJ/mol
# Density = 2.723512 g / cm^3
# Si number density = 27.297250 Si / 1000 Ang^3
#
#
#
# Elastic Constant Matrix: (Units=GPa)
#
#
# Indices 1 2 3 4 5 6 
#
# 1 142.8622 43.0151 24.1948 0.0000 -14.9307 0.0000
# 2 43.0151 73.7440 9.9654 0.0000 15.5727 0.0000
# 3 24.1948 9.9654 82.9320 0.0000 3.7103 0.0000
# 4 0.0000 0.0000 0.0000 39.8501 0.0000 -3.8866
# 5 -14.9307 15.5727 3.7103 0.0000 31.7139 0.0000
# 6 0.0000 0.0000 0.0000 -3.8866 0.0000 62.0930
#
#
#
# Elastic Compliance Matrix: (Units=1/GPa)
#
#
# Indices 1 2 3 4 5 6 
#
# 1 0.010787 -0.007895 -0.002613 0.000000 0.009261 0.000000
# 2 -0.007895 0.021093 0.000400 0.000000 -0.014121 0.000000
# 3 -0.002613 0.000400 0.012904 0.000000 -0.002936 0.000000
# 4 0.000000 0.000000 0.000000 0.025248 0.000000 0.001580
# 5 0.009261 -0.014121 -0.002936 0.000000 0.043169 0.000000
# 6 0.000000 0.000000 0.000000 0.001580 0.000000 0.016204
#
#
# Mechanical properties :
#
#
# Convention : Reuss Voigt Hill
#
# Bulk Modulus (GPa) = 40.70028 50.43211 45.56619
# Shear Modulus (GPa) = 31.68370 41.55559 36.61964
#
# Velocity S-wave (km/s) = 3.41059 3.90595 3.66664
# Velocity P-wave (km/s) = 5.51832 6.23355 5.88681
#
# Compressibility (1/GPa) = 0.02456986
#
# Stress axis : x y z
#
# Youngs Moduli (GPa) = 92.70270 47.40820 77.49790
#
# Poissons Ratio (x) = 0.37428 0.20248
# Poissons Ratio (y) = 0.73187 -0.03103
# Poissons Ratio (z) = 0.24221 -0.01898
#
# Static dielectric constant tensor:
#      x y z
#    x 2.237200 0.000000 0.073110 
#    y 0.000000 2.241650 0.000000 
#    z 0.073110 0.000000 2.219700 
# 
# From -- ./inp_files/63299.got.cif
#   From: 2010.05.17/outbox.cif.g08.bks.cpg/sg14_32_cif.got.tgz:63299.got - 2010.06.03 17:49:19.
