data_PCOD9241672
_publ_section_title
;
Structure prediction by ZEFSAII (Michael W. Deem and Ramdas Pophale) SiO2 
 PCOD9241672
Probable space group: P 21/C
;
_chemical_formula_sum "Si O2"
_cell_formula_units_Z 28
_cell_length_a 27.680299
_cell_length_b 8.829421
_cell_length_c 9.810806
_cell_angle_alpha 90.000000
_cell_angle_beta 143.007875
_cell_angle_gamma 90.000000
_cell_volume 1442.751354
_symmetry_space_group_name_H-M "P 21/C"
_symmetry_group_IT_number 14
_symmetry_cell_setting 'monoclinic'
loop_
_space_group_symop_operation_xyz
x,y,z
-x,1/2+y,1/2-z
-x,-y,-z
x,1/2-y,1/2+z
loop_
_atom_site_type_symbol
_atom_site_label
_atom_site_fract_x
_atom_site_fract_y
_atom_site_fract_z
Si Si1 0.931380 0.407937 0.762947
Si Si2 0.264955 0.277510 0.953306
Si Si3 0.380776 0.464084 0.644693
Si Si4 0.842593 0.700769 0.550464
Si Si5 0.398081 0.457108 0.383517
Si Si6 0.526261 0.254782 0.056705
Si Si7 0.015292 0.643115 0.433942
O O1 0.856819 0.521864 0.605523
O O2 0.951263 0.387623 0.645069
O O3 0.929543 0.253890 0.847457
O O4 0.000000 0.500000 0.000000
O O5 0.194286 0.283199 0.902683
O O6 0.221476 0.281620 0.712413
O O7 0.314168 0.120447 0.083456
O O8 0.332709 0.405943 0.125009
O O9 0.355365 0.451816 0.431533
O O10 0.404966 0.634270 0.734438
O O11 0.462095 0.364482 0.840184
O O12 0.929032 0.775532 0.714012
O O13 0.435330 0.621835 0.445420
O O14 0.471628 0.337476 0.541698
O O15 0.000000 0.500000 0.500000
#
# Coordination Sequence:
#
# PCOD9241672 Si02
#       7
#     4   4   4   4   4   4   4
#     4  10  21  38  63  92 120 153 202 252 296 362
#     4  11  22  38  61  84 121 166 191 247 298 385
#     4  10  19  37  57  88 115 154 208 243 305 344
#     4  11  22  41  61  88 121 157 196 238 315 361
#     4  10  19  37  57  88 114 156 206 244 303 348
#     4   9  20  34  60  84 115 153 201 264 289 342
#     4  11  21  39  66  94 119 155 206 260 302 358
#
# _framework density 19.407364000000001
#
# number of rings (size 3 to 8) (size 9 to 14) (size 15 to 20)
#    0.000    1.714    1.429    5.143    0.000    0.000 
#    5.143    4.286    0.000    0.000    0.000    0.000 
#    0.000    0.000    0.000    0.000    0.000    0.000 
#
# Total GULP energy -155965.971225 kJ/mol
# GULP energy per Si atom -5570.213258 kJ/mol
# Density = 1.936319 g / cm^3
# Si number density = 19.407364 Si / 1000 Ang^3
#
#
#
# Elastic Constant Matrix: (Units=GPa)
#
#
# Indices 1 2 3 4 5 6 
#
# 1 34.1064 -13.0547 -0.8619 0.0000 -6.6463 0.0000
# 2 -13.0547 91.7008 28.2617 0.0000 -0.2778 0.0000
# 3 -0.8619 28.2617 65.2816 0.0000 -5.3601 0.0000
# 4 0.0000 0.0000 0.0000 21.4114 0.0000 -3.2103
# 5 -6.6463 -0.2778 -5.3601 0.0000 35.1649 0.0000
# 6 0.0000 0.0000 0.0000 -3.2103 0.0000 11.7786
#
#
#
# Elastic Compliance Matrix: (Units=1/GPa)
#
#
# Indices 1 2 3 4 5 6 
#
# 1 0.032370 0.005012 -0.001253 0.000000 0.005967 0.000000
# 2 0.005012 0.013379 -0.005711 0.000000 0.000183 0.000000
# 3 -0.001253 -0.005711 0.017976 0.000000 0.002458 0.000000
# 4 0.000000 0.000000 0.000000 0.048694 0.000000 0.013272
# 5 0.005967 0.000183 0.002458 0.000000 0.029941 0.000000
# 6 0.000000 0.000000 0.000000 0.013272 0.000000 0.088517
#
#
# Mechanical properties :
#
#
# Convention : Reuss Voigt Hill
#
# Bulk Modulus (GPa) = 16.71620 24.41989 20.56805
# Shear Modulus (GPa) = 19.62936 25.45389 22.54162
#
# Velocity S-wave (km/s) = 3.18376 3.62547 3.41177
# Velocity P-wave (km/s) = 4.70608 5.48958 5.11286
#
# Compressibility (1/GPa) = 0.05982220
#
# Stress axis : x y z
#
# Youngs Moduli (GPa) = 30.89316 74.74261 55.62993
#
# Poissons Ratio (x) = -0.37464 0.06969
# Poissons Ratio (y) = -0.15485 0.31770
# Poissons Ratio (z) = 0.03870 0.42685
#
# Static dielectric constant tensor:
#      x y z
#    x 1.700480 0.000000 -0.023070 
#    y 0.000000 1.715800 0.000000 
#    z -0.023070 0.000000 1.668670 
# 
# From -- ./inp_files/19686.got.cif
#   From: 2010.05.17/outbox.cif.g08.bks.cpg/sg14_10_cif.got.tgz:19686.got - 2010.06.03 17:49:19.
