data_PCOD9241617
_publ_section_title
;
Structure prediction by ZEFSAII (Michael W. Deem and Ramdas Pophale) SiO2 
 PCOD9241617
Probable space group: P 21/C
;
_chemical_formula_sum "Si O2"
_cell_formula_units_Z 24
_cell_length_a 14.488215
_cell_length_b 12.021948
_cell_length_c 11.150933
_cell_angle_alpha 90.000000
_cell_angle_beta 151.224558
_cell_angle_gamma 90.000000
_cell_volume 934.947443
_symmetry_space_group_name_H-M "P 21/C"
_symmetry_group_IT_number 14
_symmetry_cell_setting 'monoclinic'
loop_
_space_group_symop_operation_xyz
x,y,z
-x,1/2+y,1/2-z
-x,-y,-z
x,1/2-y,1/2+z
loop_
_atom_site_type_symbol
_atom_site_label
_atom_site_fract_x
_atom_site_fract_y
_atom_site_fract_z
Si Si1 0.881185 0.833853 0.316115
Si Si2 0.285855 0.381615 0.617921
Si Si3 0.255911 0.525828 0.182124
Si Si4 0.617013 0.527116 0.937156
Si Si5 0.908524 0.360022 0.332764
Si Si6 0.447228 0.696626 0.577902
O O1 0.728886 0.851208 0.038708
O O2 0.061616 0.905776 0.478011
O O3 0.964380 0.709134 0.425119
O O4 0.803074 0.900926 0.343372
O O5 0.418672 0.488682 0.770518
O O6 0.414005 0.286593 0.826048
O O7 0.072850 0.384564 0.423741
O O8 0.324751 0.530322 0.123924
O O9 0.393262 0.592779 0.430900
O O10 0.557996 0.647203 0.819149
O O11 0.787617 0.474398 0.213482
O O12 0.746745 0.266529 0.114675
#
# Coordination Sequence:
#
# PCOD9241617 Si02
#       6
#     4   4   4   4   4   4
#     4  10  20  37  63  89 118 156 192 246 297 339
#     4  11  22  36  59  88 120 159 189 242 302 342
#     4  10  19  36  63  93 116 144 202 253 291 343
#     4  11  21  37  59  90 119 151 194 249 297 346
#     4  10  23  38  54  89 123 149 195 248 287 355
#     4  10  22  36  58  88 119 151 190 242 298 344
#
# _framework density 25.669892000000001
#
# number of rings (size 3 to 8) (size 9 to 14) (size 15 to 20)
#    0.000    1.667    3.333    1.500    2.333    1.333 
#    0.000    0.833    0.000    2.000    0.000    0.000 
#    0.000    0.000    0.000    0.000    0.000    0.000 
#
# Total GULP energy -133903.848608 kJ/mol
# GULP energy per Si atom -5579.327025 kJ/mol
# Density = 2.561147 g / cm^3
# Si number density = 25.669892 Si / 1000 Ang^3
#
#
#
# Elastic Constant Matrix: (Units=GPa)
#
#
# Indices 1 2 3 4 5 6 
#
# 1 98.8757 7.9401 28.5999 0.0000 23.1350 0.0000
# 2 7.9401 79.3361 9.5876 0.0000 6.7747 0.0000
# 3 28.5999 9.5876 97.9582 0.0000 17.1907 0.0000
# 4 0.0000 0.0000 0.0000 39.2350 0.0000 1.8346
# 5 23.1350 6.7747 17.1907 0.0000 59.4411 0.0000
# 6 0.0000 0.0000 0.0000 1.8346 0.0000 26.7586
#
#
#
# Elastic Compliance Matrix: (Units=1/GPa)
#
#
# Indices 1 2 3 4 5 6 
#
# 1 0.011827 -0.000532 -0.002743 0.000000 -0.003749 0.000000
# 2 -0.000532 0.012855 -0.000929 0.000000 -0.000989 0.000000
# 3 -0.002743 -0.000929 0.011477 0.000000 -0.002146 0.000000
# 4 0.000000 0.000000 0.000000 0.025569 0.000000 -0.001753
# 5 -0.003749 -0.000989 -0.002146 0.000000 0.019016 0.000000
# 6 0.000000 0.000000 0.000000 -0.001753 0.000000 0.037491
#
#
# Mechanical properties :
#
#
# Convention : Reuss Voigt Hill
#
# Bulk Modulus (GPa) = 36.03598 40.93612 38.48605
# Shear Modulus (GPa) = 36.79346 40.42309 38.60827
#
# Velocity S-wave (km/s) = 3.79004 3.97259 3.88239
# Velocity P-wave (km/s) = 5.76379 6.08471 5.92642
#
# Compressibility (1/GPa) = 0.02775004
#
# Stress axis : x y z
#
# Youngs Moduli (GPa) = 84.55142 77.79302 87.13251
#
# Poissons Ratio (x) = 0.04139 0.23901
# Poissons Ratio (y) = 0.04498 0.08096
# Poissons Ratio (z) = 0.23193 0.07228
#
# Static dielectric constant tensor:
#      x y z
#    x 1.984760 0.000000 -0.037970 
#    y 0.000000 2.063030 0.000000 
#    z -0.037970 0.000000 2.072910 
# 
# From -- ./inp_files/32660.got.cif
#   From: 2010.05.17/outbox.cif.g08.bks.cpg/sg14_17_cif.got.tgz:32660.got - 2010.06.03 17:49:19.
