data_PCOD9241648
_publ_section_title
;
Structure prediction by ZEFSAII (Michael W. Deem and Ramdas Pophale) SiO2 
 PCOD9241648
Probable space group: P 21/C
;
_chemical_formula_sum "Si O2"
_cell_formula_units_Z 32
_cell_length_a 14.455638
_cell_length_b 13.641537
_cell_length_c 19.553029
_cell_angle_alpha 90.000000
_cell_angle_beta 157.047438
_cell_angle_gamma 90.000000
_cell_volume 1503.642340
_symmetry_space_group_name_H-M "P 21/C"
_symmetry_group_IT_number 14
_symmetry_cell_setting 'monoclinic'
loop_
_space_group_symop_operation_xyz
x,y,z
-x,1/2+y,1/2-z
-x,-y,-z
x,1/2-y,1/2+z
loop_
_atom_site_type_symbol
_atom_site_label
_atom_site_fract_x
_atom_site_fract_y
_atom_site_fract_z
Si Si1 0.209819 0.564907 0.674348
Si Si2 0.280136 0.881690 0.370787
Si Si3 0.359383 0.234026 0.946988
Si Si4 0.923165 0.794195 0.621718
Si Si5 0.567142 0.424303 0.875967
Si Si6 0.961055 0.617209 0.878785
Si Si7 0.854506 0.764981 0.926927
Si Si8 0.695413 0.066632 0.169871
O O1 0.255995 0.549240 0.787337
O O2 0.434099 0.529126 0.783098
O O3 0.000000 0.500000 0.500000
O O4 0.101247 0.673192 0.597298
O O5 0.499655 0.808472 0.505696
O O6 0.311690 0.925695 0.466826
O O7 0.052724 0.810932 0.218140
O O8 0.252831 0.297625 0.935250
O O9 0.165794 0.172386 0.772291
O O10 0.549512 0.154739 0.104742
O O11 0.815769 0.788050 0.473012
O O12 0.121019 0.879115 0.756001
O O13 0.363047 0.340097 0.734475
O O14 0.766245 0.400522 0.955823
O O15 0.896748 0.686438 0.897385
O O16 0.846236 0.510986 0.814485
O O17 0.500000 0.000000 0.000000
#
# Coordination Sequence:
#
# PCOD9241648 Si02
#       8
#     4   4   4   4   4   4   4   4
#     4   9  21  39  59  91 130 159 212 273 320 376
#     4  10  19  36  66  89 122 168 213 263 317 380
#     4  10  20  39  68  91 128 170 215 263 326 392
#     4  10  21  40  65  91 123 173 215 257 332 392
#     4  11  21  38  64  94 127 171 217 261 325 401
#     4  11  22  40  66  94 132 168 217 271 327 396
#     4  10  23  42  63  90 134 168 213 277 328 387
#     4   9  22  40  63  97 132 161 220 278 317 390
#
# _framework density 21.281656000000002
#
# number of rings (size 3 to 8) (size 9 to 14) (size 15 to 20)
#    0.000    2.000    2.500    0.375    1.750    3.500 
#    0.000    0.000   16.500    0.000    0.000    0.000 
#    0.000    0.000    0.000    0.000    0.000    0.000 
#
# Total GULP energy -178556.319998 kJ/mol
# GULP energy per Si atom -5579.885000 kJ/mol
# Density = 2.123322 g / cm^3
# Si number density = 21.281656 Si / 1000 Ang^3
#
#
#
# Elastic Constant Matrix: (Units=GPa)
#
#
# Indices 1 2 3 4 5 6 
#
# 1 53.8629 -7.9714 19.1968 0.0000 -4.1097 0.0000
# 2 -7.9714 37.9890 13.6665 0.0000 -8.3533 0.0000
# 3 19.1968 13.6665 71.2625 0.0000 1.4756 0.0000
# 4 0.0000 0.0000 0.0000 40.7051 0.0000 2.5898
# 5 -4.1097 -8.3533 1.4756 0.0000 23.2369 0.0000
# 6 0.0000 0.0000 0.0000 2.5898 0.0000 17.9897
#
#
#
# Elastic Compliance Matrix: (Units=1/GPa)
#
#
# Indices 1 2 3 4 5 6 
#
# 1 0.023646 0.009803 -0.008421 0.000000 0.008241 0.000000
# 2 0.009803 0.035164 -0.009695 0.000000 0.014991 0.000000
# 3 -0.008421 -0.009695 0.018287 0.000000 -0.006136 0.000000
# 4 0.000000 0.000000 0.000000 0.024794 0.000000 -0.003569
# 5 0.008241 0.014991 -0.006136 0.000000 0.050271 0.000000
# 6 0.000000 0.000000 0.000000 -0.003569 0.000000 0.056101
#
#
# Mechanical properties :
#
#
# Convention : Reuss Voigt Hill
#
# Bulk Modulus (GPa) = 16.53620 23.65537 20.09578
# Shear Modulus (GPa) = 20.40427 25.60116 23.00272
#
# Velocity S-wave (km/s) = 3.09976 3.47215 3.29123
# Velocity P-wave (km/s) = 4.53855 5.21670 4.88939
#
# Compressibility (1/GPa) = 0.06047338
#
# Stress axis : x y z
#
# Youngs Moduli (GPa) = 42.28986 28.43785 54.68284
#
# Poissons Ratio (x) = -0.27878 0.46046
# Poissons Ratio (y) = -0.41457 0.53015
# Poissons Ratio (z) = 0.35610 0.27570
#
# Static dielectric constant tensor:
#      x y z
#    x 1.748490 0.000000 -0.021910 
#    y 0.000000 1.782610 0.000000 
#    z -0.021910 0.000000 1.823400 
# 
# From -- ./inp_files/32755.got.cif
#   From: 2010.05.17/outbox.cif.g08.bks.cpg/sg14_17_cif.got.tgz:32755.got - 2010.06.03 17:49:19.
