data_PCOD9241044
_publ_section_title
;
Structure prediction by ZEFSAII (Michael W. Deem and Ramdas Pophale) SiO2 
 PCOD9241044
Probable space group: P 21/C
;
_chemical_formula_sum "Si O2"
_cell_formula_units_Z 32
_cell_length_a 19.486264
_cell_length_b 10.600031
_cell_length_c 25.570770
_cell_angle_alpha 90.000000
_cell_angle_beta 163.490522
_cell_angle_gamma 90.000000
_cell_volume 1500.941580
_symmetry_space_group_name_H-M "P 21/C"
_symmetry_group_IT_number 14
_symmetry_cell_setting 'monoclinic'
loop_
_space_group_symop_operation_xyz
x,y,z
-x,1/2+y,1/2-z
-x,-y,-z
x,1/2-y,1/2+z
loop_
_atom_site_type_symbol
_atom_site_label
_atom_site_fract_x
_atom_site_fract_y
_atom_site_fract_z
Si Si1 0.127209 0.696483 0.787628
Si Si2 0.862365 0.455955 0.768538
Si Si3 0.250571 0.462547 0.210239
Si Si4 0.500474 0.319818 0.789724
Si Si5 0.057574 0.297220 0.234172
Si Si6 0.319248 0.323186 0.769276
Si Si7 0.399821 0.041945 0.707080
Si Si8 0.781139 0.957541 0.706413
O O1 0.137276 0.826393 0.762831
O O2 0.951894 0.705858 0.709664
O O3 0.077449 0.575502 0.714776
O O4 0.399686 0.675501 0.008314
O O5 0.696514 0.457855 0.699301
O O6 0.825121 0.576408 0.704088
O O7 0.124537 0.473313 0.986793
O O8 0.228754 0.318476 0.213045
O O9 0.430692 0.466328 0.292468
O O10 0.000000 0.500000 0.000000
O O11 0.326172 0.340431 0.712159
O O12 0.460556 0.183679 0.735495
O O13 0.464813 0.432265 0.723682
O O14 0.776514 0.310346 0.011582
O O15 0.168506 0.169089 0.290773
O O16 0.176227 0.418587 0.702047
O O17 0.500000 0.000000 0.500000
#
# Coordination Sequence:
#
# PCOD9241044 Si02
#       8
#     4   4   4   4   4   4   4   4
#     4  10  21  33  54  86 114 144 189 230 278 339
#     4  10  19  34  56  81 109 144 185 234 273 331
#     4   9  17  33  57  76 102 145 188 226 274 328
#     4   9  19  35  57  79 107 145 186 234 280 336
#     4  10  19  36  58  77 111 155 186 223 289 337
#     4   9  18  36  55  77 112 149 181 225 285 340
#     4   9  19  35  56  79 107 141 187 229 279 334
#     4  10  20  36  55  81 116 152 183 227 282 341
#
# _framework density 21.319949999999999
#
# number of rings (size 3 to 8) (size 9 to 14) (size 15 to 20)
#    0.000    2.500    1.250    0.750    0.000    2.500 
#    2.250    1.250    0.000    3.000    0.000    0.000 
#    0.000    0.000    0.000    0.000    0.000    0.000 
#
# Total GULP energy -178477.148964 kJ/mol
# GULP energy per Si atom -5577.410905 kJ/mol
# Density = 2.127143 g / cm^3
# Si number density = 21.319950 Si / 1000 Ang^3
#
#
#
# Elastic Constant Matrix: (Units=GPa)
#
#
# Indices 1 2 3 4 5 6 
#
# 1 144.3075 115.4920 7.6418 0.0000 -15.1649 0.0000
# 2 115.4920 188.7451 6.0858 0.0000 -13.4334 0.0000
# 3 7.6418 6.0858 43.9618 0.0000 4.3460 0.0000
# 4 0.0000 0.0000 0.0000 26.8397 0.0000 -4.4371
# 5 -15.1649 -13.4334 4.3460 0.0000 10.0464 0.0000
# 6 0.0000 0.0000 0.0000 -4.4371 0.0000 43.0566
#
#
#
# Elastic Compliance Matrix: (Units=1/GPa)
#
#
# Indices 1 2 3 4 5 6 
#
# 1 0.014938 -0.008137 -0.002741 0.000000 0.012854 0.000000
# 2 -0.008137 0.010406 -0.000196 0.000000 0.001715 0.000000
# 3 -0.002741 -0.000196 0.024744 0.000000 -0.015103 0.000000
# 4 0.000000 0.000000 0.000000 0.037904 0.000000 0.003906
# 5 0.012854 0.001715 -0.015103 0.000000 0.127768 0.000000
# 6 0.000000 0.000000 0.000000 0.003906 0.000000 0.023628
#
#
# Mechanical properties :
#
#
# Convention : Reuss Voigt Hill
#
# Bulk Modulus (GPa) = 35.79127 70.60596 53.19861
# Shear Modulus (GPa) = 18.46055 32.50820 25.48438
#
# Velocity S-wave (km/s) = 2.94578 3.90908 3.46111
# Velocity P-wave (km/s) = 5.32863 7.31872 6.40148
#
# Compressibility (1/GPa) = 0.02793978
#
# Stress axis : x y z
#
# Youngs Moduli (GPa) = 66.94369 96.10152 40.41450
#
# Poissons Ratio (x) = 0.78200 0.11077
# Poissons Ratio (y) = 0.54474 0.00790
# Poissons Ratio (z) = 0.18349 0.01880
#
# Static dielectric constant tensor:
#      x y z
#    x 1.843440 0.000000 0.032390 
#    y 0.000000 1.751930 0.000000 
#    z 0.032390 0.000000 1.839470 
# 
# From -- ./inp_files/77019.got.cif
#   From: 2010.05.17/outbox.cif.g08.bks.cpg/sg14_39_cif.got.tgz:77019.got - 2010.06.03 17:49:19.
