data_PCOD9241690
_publ_section_title
;
Structure prediction by ZEFSAII (Michael W. Deem and Ramdas Pophale) SiO2 
 PCOD9241690
Probable space group: P 21/C
;
_chemical_formula_sum "Si O2"
_cell_formula_units_Z 28
_cell_length_a 5.597552
_cell_length_b 14.310184
_cell_length_c 16.404243
_cell_angle_alpha 90.000000
_cell_angle_beta 117.988215
_cell_angle_gamma 90.000000
_cell_volume 1160.331175
_symmetry_space_group_name_H-M "P 21/C"
_symmetry_group_IT_number 14
_symmetry_cell_setting 'monoclinic'
loop_
_space_group_symop_operation_xyz
x,y,z
-x,1/2+y,1/2-z
-x,-y,-z
x,1/2-y,1/2+z
loop_
_atom_site_type_symbol
_atom_site_label
_atom_site_fract_x
_atom_site_fract_y
_atom_site_fract_z
Si Si1 0.902174 0.093436 0.361007
Si Si2 0.609875 0.296384 0.512123
Si Si3 0.117064 0.394687 0.513452
Si Si4 0.415429 0.400162 0.023292
Si Si5 0.969548 0.231608 0.231842
Si Si6 0.851064 0.432864 0.214258
Si Si7 0.335393 0.083560 0.221153
O O1 0.878687 0.187190 0.302861
O O2 0.600197 0.058624 0.314581
O O3 0.090164 0.105636 0.469419
O O4 0.043967 0.012505 0.329900
O O5 0.331969 0.357910 0.478933
O O6 0.516954 0.188388 0.486200
O O7 0.770070 0.293300 0.624744
O O8 0.844724 0.332111 0.487452
O O9 0.315670 0.391258 0.624406
O O10 0.000000 0.500000 0.500000
O O11 0.567593 0.393218 0.133493
O O12 0.500000 0.500000 0.000000
O O13 0.026989 0.340571 0.245579
O O14 0.230307 0.173445 0.250739
O O15 0.839014 0.489183 0.295792
#
# Coordination Sequence:
#
# PCOD9241690 Si02
#       7
#     4   4   4   4   4   4   4
#     4  10  19  37  58  88 122 155 210 257 311 375
#     4  10  21  43  64  93 125 170 211 258 325 378
#     4  11  23  42  68  92 130 169 214 267 316 378
#     4   9  20  41  62  91 128 166 212 263 322 379
#     4   9  19  38  59  79 123 159 207 252 313 372
#     4   9  20  38  58  87 118 164 203 254 321 376
#     4  10  21  37  61  88 119 162 207 260 315 373
#
# _framework density 24.131039999999999
#
# number of rings (size 3 to 8) (size 9 to 14) (size 15 to 20)
#    0.000    2.286    1.429    0.429    0.000    2.857 
#   23.143    0.000    0.000    0.000    0.000    0.000 
#    0.000    0.000    0.000    0.000    0.000    0.000 
#
# Total GULP energy -155990.722305 kJ/mol
# GULP energy per Si atom -5571.097225 kJ/mol
# Density = 2.407612 g / cm^3
# Si number density = 24.131040 Si / 1000 Ang^3
#
#
#
# Elastic Constant Matrix: (Units=GPa)
#
#
# Indices 1 2 3 4 5 6 
#
# 1 74.9392 18.7195 22.8314 0.0000 27.8281 0.0000
# 2 18.7195 101.7642 4.3735 0.0000 12.7802 0.0000
# 3 22.8314 4.3735 52.8770 0.0000 18.0859 0.0000
# 4 0.0000 0.0000 0.0000 23.7189 0.0000 8.8331
# 5 27.8281 12.7802 18.0859 0.0000 29.4145 0.0000
# 6 0.0000 0.0000 0.0000 8.8331 0.0000 16.0517
#
#
#
# Elastic Compliance Matrix: (Units=1/GPa)
#
#
# Indices 1 2 3 4 5 6 
#
# 1 0.021141 -0.001566 -0.003027 0.000000 -0.017459 0.000000
# 2 -0.001566 0.010541 0.001094 0.000000 -0.003771 0.000000
# 3 -0.003027 0.001094 0.024454 0.000000 -0.012648 0.000000
# 4 0.000000 0.000000 0.000000 0.053027 0.000000 -0.029180
# 5 -0.017459 -0.003771 -0.012648 0.000000 0.059929 0.000000
# 6 0.000000 0.000000 0.000000 -0.029180 0.000000 0.078356
#
#
# Mechanical properties :
#
#
# Convention : Reuss Voigt Hill
#
# Bulk Modulus (GPa) = 20.35065 35.71432 28.03248
# Shear Modulus (GPa) = 18.46200 26.08078 22.27139
#
# Velocity S-wave (km/s) = 2.76900 3.29112 3.04128
# Velocity P-wave (km/s) = 4.32144 5.41056 4.89638
#
# Compressibility (1/GPa) = 0.04913849
#
# Stress axis : x y z
#
# Youngs Moduli (GPa) = 47.30181 94.86481 40.89249
#
# Poissons Ratio (x) = 0.14857 0.12379
# Poissons Ratio (y) = 0.07408 -0.04475
# Poissons Ratio (z) = 0.14319 -0.10381
#
# Static dielectric constant tensor:
#      x y z
#    x 2.042350 0.000000 0.061180 
#    y 0.000000 1.971290 0.000000 
#    z 0.061180 0.000000 1.982880 
# 
# From -- ./inp_files/63588.got.cif
#   From: 2010.05.17/outbox.cif.g08.bks.cpg/sg14_32_cif.got.tgz:63588.got - 2010.06.03 17:49:19.
