data_PCOD9241443
_publ_section_title
;
Structure prediction by ZEFSAII (Michael W. Deem and Ramdas Pophale) SiO2 
 PCOD9241443
Probable space group: P 21/C
;
_chemical_formula_sum "Si O2"
_cell_formula_units_Z 32
_cell_length_a 6.526676
_cell_length_b 16.042690
_cell_length_c 21.322965
_cell_angle_alpha 90.000000
_cell_angle_beta 44.548395
_cell_angle_gamma 90.000000
_cell_volume 1566.215837
_symmetry_space_group_name_H-M "P 21/C"
_symmetry_group_IT_number 14
_symmetry_cell_setting 'monoclinic'
loop_
_space_group_symop_operation_xyz
x,y,z
-x,1/2+y,1/2-z
-x,-y,-z
x,1/2-y,1/2+z
loop_
_atom_site_type_symbol
_atom_site_label
_atom_site_fract_x
_atom_site_fract_y
_atom_site_fract_z
Si Si1 0.616447 0.694612 0.179333
Si Si2 0.478743 0.877394 0.187565
Si Si3 0.837288 0.049942 0.632296
Si Si4 0.748779 0.810530 0.501711
Si Si5 0.406830 0.127269 0.977569
Si Si6 0.152950 0.898323 0.612042
Si Si7 0.921503 0.031794 0.914913
Si Si8 0.749084 0.040910 0.269444
O O1 0.508406 0.787631 0.214085
O O2 0.370667 0.623772 0.239814
O O3 0.896225 0.668946 0.158797
O O4 0.707304 0.691640 0.085955
O O5 0.247331 0.929597 0.277346
O O6 0.786936 0.924755 0.125087
O O7 0.429630 0.864031 0.124924
O O8 0.976166 0.131810 0.572680
O O9 0.537289 0.018633 0.666048
O O10 0.066869 0.973775 0.584303
O O11 0.746656 0.715711 0.477730
O O12 0.465961 0.856291 0.533835
O O13 0.180824 0.050580 0.026340
O O14 0.655557 0.097338 0.971618
O O15 0.157366 0.932354 0.681986
O O16 0.002028 0.000437 0.827062
#
# Coordination Sequence:
#
# PCOD9241443 Si02
#       8
#     4   4   4   4   4   4   4   4
#     4   9  20  35  56  79 110 144 179 221 270 320
#     4  10  20  37  57  79 110 144 180 222 273 318
#     4  10  21  34  55  81 108 144 182 221 268 324
#     4  10  21  35  53  82 111 140 182 224 266 319
#     4  10  21  36  57  80 108 145 179 226 271 318
#     4  10  19  36  57  78 111 146 178 216 275 319
#     4  10  20  36  58  80 111 140 185 223 266 323
#     4   9  20  35  55  83 110 142 179 224 264 318
#
# _framework density 20.431412000000002
#
# number of rings (size 3 to 8) (size 9 to 14) (size 15 to 20)
#    0.000    2.250    0.000    2.250    1.750    5.500 
#    0.000    0.000    2.750    0.000    0.000    0.000 
#    0.000    0.000    0.000    0.000    0.000    0.000 
#
# Total GULP energy -178628.060752 kJ/mol
# GULP energy per Si atom -5582.126899 kJ/mol
# Density = 2.038491 g / cm^3
# Si number density = 20.431412 Si / 1000 Ang^3
#
#
#
# Elastic Constant Matrix: (Units=GPa)
#
#
# Indices 1 2 3 4 5 6 
#
# 1 41.5456 32.7633 17.0664 0.0000 -7.1189 0.0000
# 2 32.7633 126.6868 23.1518 0.0000 -11.4650 0.0000
# 3 17.0664 23.1518 12.0457 0.0000 -5.6270 0.0000
# 4 0.0000 0.0000 0.0000 30.0439 0.0000 -1.5642
# 5 -7.1189 -11.4650 -5.6270 0.0000 15.2553 0.0000
# 6 0.0000 0.0000 0.0000 -1.5642 0.0000 16.2466
#
#
#
# Elastic Compliance Matrix: (Units=1/GPa)
#
#
# Indices 1 2 3 4 5 6 
#
# 1 0.057776 -0.000004 -0.083675 0.000000 -0.003905 0.000000
# 2 -0.000004 0.012172 -0.023096 0.000000 0.000627 0.000000
# 3 -0.083675 -0.023096 0.265327 0.000000 0.041462 0.000000
# 4 0.000000 0.000000 0.000000 0.033452 0.000000 0.003221
# 5 -0.003905 0.000627 0.041462 0.000000 0.079493 0.000000
# 6 0.000000 0.000000 0.000000 0.003221 0.000000 0.061862
#
#
# Mechanical properties :
#
#
# Convention : Reuss Voigt Hill
#
# Bulk Modulus (GPa) = 8.21516 36.24901 22.23208
# Shear Modulus (GPa) = 6.54273 19.46227 13.00250
#
# Velocity S-wave (km/s) = 1.79144 3.08971 2.52543
# Velocity P-wave (km/s) = 2.88246 5.52347 4.40553
#
# Compressibility (1/GPa) = 0.12172617
#
# Stress axis : x y z
#
# Youngs Moduli (GPa) = 17.30811 82.15567 3.76893
#
# Poissons Ratio (x) = 0.00032 0.31536
# Poissons Ratio (y) = 0.00007 0.08705
# Poissons Ratio (z) = 1.44825 1.89748
#
# Static dielectric constant tensor:
#      x y z
#    x 1.715150 0.000000 0.015630 
#    y 0.000000 1.743550 0.000000 
#    z 0.015630 0.000000 1.711570 
# 
# From -- ./inp_files/61457.got.cif
#   From: 2010.05.17/outbox.cif.g08.bks.cpg/sg14_31_cif.got.tgz:61457.got - 2010.06.03 17:49:19.
