data_PCOD9241496
_publ_section_title
;
Structure prediction by ZEFSAII (Michael W. Deem and Ramdas Pophale) SiO2 
 PCOD9241496
Probable space group: P 21/C
;
_chemical_formula_sum "Si O2"
_cell_formula_units_Z 28
_cell_length_a 18.651192
_cell_length_b 11.363402
_cell_length_c 21.165833
_cell_angle_alpha 90.000000
_cell_angle_beta 167.059454
_cell_angle_gamma 90.000000
_cell_volume 1004.573535
_symmetry_space_group_name_H-M "P 21/C"
_symmetry_group_IT_number 14
_symmetry_cell_setting 'monoclinic'
loop_
_space_group_symop_operation_xyz
x,y,z
-x,1/2+y,1/2-z
-x,-y,-z
x,1/2-y,1/2+z
loop_
_atom_site_type_symbol
_atom_site_label
_atom_site_fract_x
_atom_site_fract_y
_atom_site_fract_z
Si Si1 0.745101 0.276882 0.564792
Si Si2 0.890070 0.000522 0.298056
Si Si3 0.673937 0.815081 0.189534
Si Si4 0.282501 0.318139 0.452624
Si Si5 0.553153 0.491049 0.316575
Si Si6 0.504970 0.121912 0.562488
Si Si7 0.041619 0.589817 0.650427
O O1 0.391970 0.281952 0.293928
O O2 0.752265 0.402901 0.533512
O O3 0.922238 0.206335 0.775410
O O4 0.911476 0.201860 0.652251
O O5 0.944820 0.911380 0.404421
O O6 0.713433 0.909831 0.100065
O O7 0.647251 0.106730 0.100662
O O8 0.190174 0.047762 0.515546
O O9 0.678329 0.701628 0.148556
O O10 0.446058 0.381265 0.650893
O O11 0.460490 0.199746 0.586189
O O12 0.724476 0.516863 0.397180
O O13 0.857986 0.110734 0.835928
O O14 0.328357 0.998738 0.417967
#
# Coordination Sequence:
#
# PCOD9241496 Si02
#       7
#     4   4   4   4   4   4   4
#     4  10  19  36  59  86 117 154 195 241 294 341
#     4  10  21  38  58  86 120 150 196 247 290 349
#     4   9  19  38  58  85 118 154 191 246 298 338
#     4  10  20  38  59  86 120 155 193 248 292 342
#     4  11  21  37  61  92 114 154 201 242 293 352
#     4   9  17  36  61  82 115 162 189 232 301 353
#     4   9  19  35  59  86 118 156 195 234 295 352
#
# _framework density 27.872523000000001
#
# number of rings (size 3 to 8) (size 9 to 14) (size 15 to 20)
#    0.000    2.286    2.857    0.000    0.000    0.571 
#    7.714    0.000    0.000    0.857    0.000    0.000 
#    0.000    0.000    0.000    0.000    0.000    0.000 
#
# Total GULP energy -156103.026900 kJ/mol
# GULP energy per Si atom -5575.108104 kJ/mol
# Density = 2.780908 g / cm^3
# Si number density = 27.872523 Si / 1000 Ang^3
#
#
#
# Elastic Constant Matrix: (Units=GPa)
#
#
# Indices 1 2 3 4 5 6 
#
# 1 62.5868 30.2853 52.1306 0.0000 21.4703 0.0000
# 2 30.2853 131.9221 32.5589 0.0000 5.8829 0.0000
# 3 52.1306 32.5589 126.4484 0.0000 37.1060 0.0000
# 4 0.0000 0.0000 0.0000 21.2982 0.0000 27.5583
# 5 21.4703 5.8829 37.1060 0.0000 49.8464 0.0000
# 6 0.0000 0.0000 0.0000 27.5583 0.0000 25.6845
#
#
#
# Elastic Compliance Matrix: (Units=1/GPa)
#
#
# Indices 1 2 3 4 5 6 
#
# 1 0.026563 -0.003761 -0.008643 0.000000 -0.004563 0.000000
# 2 -0.003761 0.008650 -0.001091 0.000000 0.001411 0.000000
# 3 -0.008643 -0.001091 0.013591 0.000000 -0.006266 0.000000
# 4 0.000000 0.000000 0.000000 -0.120908 0.000000 0.129729
# 5 -0.004563 0.001411 -0.006266 0.000000 0.026525 0.000000
# 6 0.000000 0.000000 0.000000 0.129729 0.000000 -0.100260
#
#
# Mechanical properties :
#
#
# Convention : Reuss Voigt Hill
#
# Bulk Modulus (GPa) = 45.84390 61.21190 53.52790
# Shear Modulus (GPa) = -44.81178 33.09797 -5.85690
#
# Velocity S-wave (km/s) = -4.01401 3.44972 -1.45117
# Velocity P-wave (km/s) = 2.23599 6.15438 4.05443
#
# Compressibility (1/GPa) = 0.02181315
#
# Stress axis : x y z
#
# Youngs Moduli (GPa) = 37.64692 115.60734 73.57674
#
# Poissons Ratio (x) = 0.43483 0.63595
# Poissons Ratio (y) = 0.14160 0.08025
# Poissons Ratio (z) = 0.32540 0.12609
#
# Static dielectric constant tensor:
#      x y z
#    x 2.275690 0.000000 0.055420 
#    y 0.000000 2.161300 0.000000 
#    z 0.055420 0.000000 2.314940 
# 
# From -- ./inp_files/80661.got.cif
#   From: 2010.05.17/outbox.cif.g08.bks.cpg/sg14_41_cif.got.tgz:80661.got - 2010.06.03 17:49:19.
