data_PCOD9241317
_publ_section_title
;
Structure prediction by ZEFSAII (Michael W. Deem and Ramdas Pophale) SiO2 
 PCOD9241317
Probable space group: P 21/C
;
_chemical_formula_sum "Si O2"
_cell_formula_units_Z 32
_cell_length_a 15.794838
_cell_length_b 19.282725
_cell_length_c 5.432786
_cell_angle_alpha 90.000000
_cell_angle_beta 53.105676
_cell_angle_gamma 90.000000
_cell_volume 1323.296750
_symmetry_space_group_name_H-M "P 21/C"
_symmetry_group_IT_number 14
_symmetry_cell_setting 'monoclinic'
loop_
_space_group_symop_operation_xyz
x,y,z
-x,1/2+y,1/2-z
-x,-y,-z
x,1/2-y,1/2+z
loop_
_atom_site_type_symbol
_atom_site_label
_atom_site_fract_x
_atom_site_fract_y
_atom_site_fract_z
Si Si1 0.495631 0.915210 0.220339
Si Si2 0.024887 0.569500 0.723912
Si Si3 0.351175 0.031935 0.645929
Si Si4 0.675551 0.192597 0.275704
Si Si5 0.098506 0.789412 0.898888
Si Si6 0.526218 0.716410 0.407463
Si Si7 0.830641 0.523727 0.836827
Si Si8 0.780741 0.080021 0.798624
O O1 0.590953 0.923305 0.248103
O O2 0.407552 0.865005 0.490178
O O3 0.528338 0.867072 0.930947
O O4 0.438417 0.990336 0.329708
O O5 0.046943 0.635423 0.513994
O O6 0.083257 0.501787 0.511046
O O7 0.095554 0.584617 0.840182
O O8 0.899602 0.557245 0.934798
O O9 0.262826 0.065932 0.625648
O O10 0.282931 0.974340 0.918150
O O11 0.596367 0.256629 0.370103
O O12 0.774633 0.201777 0.286315
O O13 0.730454 0.154111 0.944797
O O14 0.069371 0.745419 0.192749
O O15 0.571793 0.747252 0.074764
O O16 0.776407 0.453947 0.039370
#
# Coordination Sequence:
#
# PCOD9241317 Si02
#       8
#     4   4   4   4   4   4   4   4
#     4   9  18  36  51  75 119 147 191 232 285 340
#     4   9  21  36  55  87 112 150 186 242 301 352
#     4   9  19  35  52  80 109 151 192 235 279 338
#     4   9  19  33  55  84 116 151 186 238 296 351
#     4  11  23  38  59  89 121 153 193 238 299 362
#     4  10  20  34  53  78 108 150 185 230 284 343
#     4  10  19  35  60  80 114 147 194 241 294 348
#     4   9  18  33  54  85 111 143 188 240 294 348
#
# _framework density 24.182027999999999
#
# number of rings (size 3 to 8) (size 9 to 14) (size 15 to 20)
#    0.000    2.500    0.000    2.625    5.250    0.000 
#    4.500    1.875    0.000    3.000    0.000    0.000 
#    0.000    0.000    0.000    0.000    0.000    0.000 
#
# Total GULP energy -178643.014843 kJ/mol
# GULP energy per Si atom -5582.594214 kJ/mol
# Density = 2.412699 g / cm^3
# Si number density = 24.182028 Si / 1000 Ang^3
#
#
#
# Elastic Constant Matrix: (Units=GPa)
#
#
# Indices 1 2 3 4 5 6 
#
# 1 103.2872 19.9704 22.0890 0.0000 2.2263 0.0000
# 2 19.9704 93.0160 11.2598 0.0000 -2.8172 0.0000
# 3 22.0890 11.2598 60.9883 0.0000 13.7891 0.0000
# 4 0.0000 0.0000 0.0000 37.4148 0.0000 4.6815
# 5 2.2263 -2.8172 13.7891 0.0000 28.4096 0.0000
# 6 0.0000 0.0000 0.0000 4.6815 0.0000 35.7873
#
#
#
# Elastic Compliance Matrix: (Units=1/GPa)
#
#
# Indices 1 2 3 4 5 6 
#
# 1 0.010825 -0.001845 -0.003760 0.000000 0.000793 0.000000
# 2 -0.001845 0.011450 -0.001949 0.000000 0.002226 0.000000
# 3 -0.003760 -0.001949 0.020326 0.000000 -0.009764 0.000000
# 4 0.000000 0.000000 0.000000 0.027172 0.000000 -0.003554
# 5 0.000793 0.002226 -0.009764 0.000000 0.040097 0.000000
# 6 0.000000 0.000000 0.000000 -0.003554 0.000000 0.028408
#
#
# Mechanical properties :
#
#
# Convention : Reuss Voigt Hill
#
# Bulk Modulus (GPa) = 36.37144 40.43666 38.40405
# Shear Modulus (GPa) = 30.75970 33.92050 32.34010
#
# Velocity S-wave (km/s) = 3.57039 3.74935 3.66096
# Velocity P-wave (km/s) = 5.66306 5.95832 5.81256
#
# Compressibility (1/GPa) = 0.02749410
#
# Stress axis : x y z
#
# Youngs Moduli (GPa) = 92.37543 87.33373 49.19895
#
# Poissons Ratio (x) = 0.16114 0.18497
# Poissons Ratio (y) = 0.17044 0.09589
# Poissons Ratio (z) = 0.34729 0.17022
#
# Static dielectric constant tensor:
#      x y z
#    x 1.962850 0.000000 0.081840 
#    y 0.000000 1.967910 0.000000 
#    z 0.081840 0.000000 2.056680 
# 
# From -- ./inp_files/3894.got.cif
#   From: 2010.05.17/outbox.cif.g08.bks.cpg/sg14_2_cif.got.tgz:3894.got - 2010.06.03 17:49:19.
