data_PCOD9241377
_publ_section_title
;
Structure prediction by ZEFSAII (Michael W. Deem and Ramdas Pophale) SiO2 
 PCOD9241377
Probable space group: P 21/C
;
_chemical_formula_sum "Si O2"
_cell_formula_units_Z 24
_cell_length_a 8.771136
_cell_length_b 16.538124
_cell_length_c 8.311077
_cell_angle_alpha 90.000000
_cell_angle_beta 91.077231
_cell_angle_gamma 90.000000
_cell_volume 1205.376254
_symmetry_space_group_name_H-M "P 21/C"
_symmetry_group_IT_number 14
_symmetry_cell_setting 'monoclinic'
loop_
_space_group_symop_operation_xyz
x,y,z
-x,1/2+y,1/2-z
-x,-y,-z
x,1/2-y,1/2+z
loop_
_atom_site_type_symbol
_atom_site_label
_atom_site_fract_x
_atom_site_fract_y
_atom_site_fract_z
Si Si1 0.158275 0.345148 0.400640
Si Si2 0.399330 0.483192 0.841391
Si Si3 0.191781 0.170796 0.283846
Si Si4 0.854220 0.066160 0.835764
Si Si5 0.689763 0.484124 0.654474
Si Si6 0.042892 0.556445 0.149864
O O1 0.221378 0.263003 0.326565
O O2 0.171698 0.336569 0.592459
O O3 0.258223 0.422414 0.350714
O O4 0.981910 0.364035 0.345531
O O5 0.310786 0.397424 0.846676
O O6 0.275416 0.553969 0.803093
O O7 0.512790 0.477615 0.690638
O O8 0.500000 0.500000 0.000000
O O9 0.033980 0.143057 0.365686
O O10 0.959984 0.987250 0.801469
O O11 0.759375 0.057939 0.997949
O O12 0.781268 0.444685 0.805400
O O13 0.000000 0.500000 0.000000
#
# Coordination Sequence:
#
# PCOD9241377 Si02
#       6
#     4   4   4   4   4   4
#     4  11  23  40  65  94 124 167 215 270 325 368
#     4  11  24  40  66  98 127 168 217 260 320 386
#     4  11  24  41  62  94 129 163 219 262 320 382
#     4  10  20  40  64  90 120 166 219 251 309 385
#     4  11  19  40  67  87 122 172 210 258 314 385
#     4  10  19  35  62  92 121 160 216 261 293 372
#
# _framework density 19.910798
#
# number of rings (size 3 to 8) (size 9 to 14) (size 15 to 20)
#    0.000    1.333    5.000    3.500    7.000    0.000 
#    0.000    1.667    0.000    0.000    0.000    0.000 
#    0.000    0.000    0.000    0.000    0.000    0.000 
#
# Total GULP energy -133839.913805 kJ/mol
# GULP energy per Si atom -5576.663075 kJ/mol
# Density = 1.986548 g / cm^3
# Si number density = 19.910798 Si / 1000 Ang^3
#
#
#
# Elastic Constant Matrix: (Units=GPa)
#
#
# Indices 1 2 3 4 5 6 
#
# 1 90.5206 26.4296 24.5102 0.0000 10.7673 0.0000
# 2 26.4296 99.9230 21.9854 0.0000 6.2170 0.0000
# 3 24.5102 21.9854 85.3017 0.0000 18.1752 0.0000
# 4 0.0000 0.0000 0.0000 20.5723 0.0000 -2.2406
# 5 10.7673 6.2170 18.1752 0.0000 41.6612 0.0000
# 6 0.0000 0.0000 0.0000 -2.2406 0.0000 21.7241
#
#
#
# Elastic Compliance Matrix: (Units=1/GPa)
#
#
# Indices 1 2 3 4 5 6 
#
# 1 0.012744 -0.002691 -0.002593 0.000000 -0.001761 0.000000
# 2 -0.002691 0.011184 -0.002097 0.000000 -0.000059 0.000000
# 3 -0.002593 -0.002097 0.014111 0.000000 -0.005173 0.000000
# 4 0.000000 0.000000 0.000000 0.049161 0.000000 0.005070
# 5 -0.001761 -0.000059 -0.005173 0.000000 0.026724 0.000000
# 6 0.000000 0.000000 0.000000 0.005070 0.000000 0.046555
#
#
# Mechanical properties :
#
#
# Convention : Reuss Voigt Hill
#
# Bulk Modulus (GPa) = 42.95931 46.84399 44.90165
# Shear Modulus (GPa) = 27.32230 30.31288 28.81759
#
# Velocity S-wave (km/s) = 3.70839 3.90607 3.80851
# Velocity P-wave (km/s) = 6.32131 6.62731 6.47611
#
# Compressibility (1/GPa) = 0.02327784
#
# Stress axis : x y z
#
# Youngs Moduli (GPa) = 78.46542 89.40986 70.86737
#
# Poissons Ratio (x) = 0.24058 0.18378
# Poissons Ratio (y) = 0.21113 0.14861
# Poissons Ratio (z) = 0.20348 0.18749
#
# Static dielectric constant tensor:
#      x y z
#    x 1.743200 0.000000 0.007310 
#    y 0.000000 1.683390 0.000000 
#    z 0.007310 0.000000 1.793640 
# 
# From -- ./inp_files/8535.got.cif
#   From: 2010.05.17/outbox.cif.g08.bks.cpg/sg14_5_cif.got.tgz:8535.got - 2010.06.03 17:49:19.
