data_PCOD9241228
_publ_section_title
;
Structure prediction by ZEFSAII (Michael W. Deem and Ramdas Pophale) SiO2 
 PCOD9241228
Probable space group: P 21/C
;
_chemical_formula_sum "Si O2"
_cell_formula_units_Z 28
_cell_length_a 14.353711
_cell_length_b 6.148023
_cell_length_c 19.335052
_cell_angle_alpha 90.000000
_cell_angle_beta 61.810662
_cell_angle_gamma 90.000000
_cell_volume 1503.882206
_symmetry_space_group_name_H-M "P 21/C"
_symmetry_group_IT_number 14
_symmetry_cell_setting 'monoclinic'
loop_
_space_group_symop_operation_xyz
x,y,z
-x,1/2+y,1/2-z
-x,-y,-z
x,1/2-y,1/2+z
loop_
_atom_site_type_symbol
_atom_site_label
_atom_site_fract_x
_atom_site_fract_y
_atom_site_fract_z
Si Si1 0.606423 0.211082 0.159704
Si Si2 0.542652 0.310561 0.434649
Si Si3 0.646195 0.484905 0.010550
Si Si4 0.628133 0.552080 0.272449
Si Si5 0.062038 0.685042 0.436847
Si Si6 0.858230 0.568935 0.999635
Si Si7 0.232775 0.130009 0.845660
O O1 0.640553 0.379808 0.206556
O O2 0.481374 0.176356 0.204269
O O3 0.667656 0.989880 0.154201
O O4 0.634234 0.310414 0.076064
O O5 0.500000 0.500000 0.500000
O O6 0.439459 0.175531 0.446142
O O7 0.607648 0.423304 0.350435
O O8 0.613401 0.137352 0.451969
O O9 0.766277 0.565619 0.975050
O O10 0.723340 0.723869 0.232265
O O11 0.147078 0.558400 0.360362
O O12 0.000000 0.500000 0.500000
O O13 0.970921 0.835182 0.435555
O O14 0.120827 0.834717 0.472904
O O15 0.816893 0.715280 0.078160
#
# Coordination Sequence:
#
# PCOD9241228 Si02
#       7
#     4   4   4   4   4   4   4
#     4  12  21  34  57  84 119 159 200 243 299 353
#     4  11  25  38  53  81 132 164 200 243 295 370
#     4  11  22  38  57  81 122 166 204 247 301 364
#     4  12  22  33  53  83 120 165 202 238 297 366
#     4   9  19  33  55  87 123 139 185 257 311 349
#     4  10  19  35  56  86 120 148 195 250 309 358
#     4  11  20  32  55  85 124 149 189 253 308 361
#
# _framework density 18.618478
#
# number of rings (size 3 to 8) (size 9 to 14) (size 15 to 20)
#    0.000    1.143    5.714    1.714    0.000    0.000 
#    0.000    0.000    0.000    0.000    0.000    0.000 
#  192.857    0.000    0.000    0.000    0.000    0.000 
#
# Total GULP energy -156270.514239 kJ/mol
# GULP energy per Si atom -5581.089794 kJ/mol
# Density = 1.857610 g / cm^3
# Si number density = 18.618478 Si / 1000 Ang^3
#
#
#
# Elastic Constant Matrix: (Units=GPa)
#
#
# Indices 1 2 3 4 5 6 
#
# 1 117.8899 40.1133 38.8538 0.0000 -15.5634 0.0000
# 2 40.1133 83.0724 33.4232 0.0000 -9.7382 0.0000
# 3 38.8538 33.4232 69.1064 0.0000 -9.2669 0.0000
# 4 0.0000 0.0000 0.0000 40.1961 0.0000 -15.6845
# 5 -15.5634 -9.7382 -9.2669 0.0000 24.4252 0.0000
# 6 0.0000 0.0000 0.0000 -15.6845 0.0000 41.4970
#
#
#
# Elastic Compliance Matrix: (Units=1/GPa)
#
#
# Indices 1 2 3 4 5 6 
#
# 1 0.011636 -0.003360 -0.004322 0.000000 0.004435 0.000000
# 2 -0.003360 0.016187 -0.005649 0.000000 0.002170 0.000000
# 3 -0.004322 -0.005649 0.019978 0.000000 0.002573 0.000000
# 4 0.000000 0.000000 0.000000 0.029182 0.000000 0.011030
# 5 0.004435 0.002170 0.002573 0.000000 0.045608 0.000000
# 6 0.000000 0.000000 0.000000 0.011030 0.000000 0.028267
#
#
# Mechanical properties :
#
#
# Convention : Reuss Voigt Hill
#
# Bulk Modulus (GPa) = 47.30694 54.98325 51.14509
# Shear Modulus (GPa) = 27.09056 31.73555 29.41306
#
# Velocity S-wave (km/s) = 3.81863 4.13306 3.97895
# Velocity P-wave (km/s) = 6.70122 7.23684 6.97418
#
# Compressibility (1/GPa) = 0.02113855
#
# Stress axis : x y z
#
# Youngs Moduli (GPa) = 85.94284 61.77749 50.05549
#
# Poissons Ratio (x) = 0.20755 0.21636
# Poissons Ratio (y) = 0.28873 0.28277
# Poissons Ratio (z) = 0.37148 0.34898
#
# Static dielectric constant tensor:
#      x y z
#    x 1.676340 0.000000 -0.038370 
#    y 0.000000 1.709630 0.000000 
#    z -0.038370 0.000000 1.632820 
# 
# From -- ./inp_files/58470.got.cif
#   From: 2010.05.17/outbox.cif.g08.bks.cpg/sg14_30_cif.got.tgz:58470.got - 2010.06.03 17:49:19.
