data_PCOD9241977
_publ_section_title
;
Structure prediction by ZEFSAII (Michael W. Deem and Ramdas Pophale) SiO2 
 PCOD9241977
Probable space group: P 21/C
;
_chemical_formula_sum "Si O2"
_cell_formula_units_Z 32
_cell_length_a 9.514181
_cell_length_b 10.518046
_cell_length_c 15.000057
_cell_angle_alpha 90.000000
_cell_angle_beta 72.061512
_cell_angle_gamma 90.000000
_cell_volume 1428.094439
_symmetry_space_group_name_H-M "P 21/C"
_symmetry_group_IT_number 14
_symmetry_cell_setting 'monoclinic'
loop_
_space_group_symop_operation_xyz
x,y,z
-x,1/2+y,1/2-z
-x,-y,-z
x,1/2-y,1/2+z
loop_
_atom_site_type_symbol
_atom_site_label
_atom_site_fract_x
_atom_site_fract_y
_atom_site_fract_z
Si Si1 0.440671 0.352007 0.819821
Si Si2 0.996501 0.953067 0.839477
Si Si3 0.199325 0.060656 0.646902
Si Si4 0.393985 0.665072 0.039760
Si Si5 0.908422 0.215514 0.904559
Si Si6 0.180647 0.192117 0.247453
Si Si7 0.400575 0.641054 0.829242
Si Si8 0.061022 0.820911 0.410643
O O1 0.472344 0.322318 0.917022
O O2 0.275697 0.328194 0.816692
O O3 0.469947 0.501980 0.796728
O O4 0.539418 0.255348 0.742842
O O5 0.851206 0.929269 0.806782
O O6 0.034049 0.821823 0.879734
O O7 0.956296 0.070609 0.910450
O O8 0.129172 0.992118 0.747298
O O9 0.251833 0.196417 0.674243
O O10 0.066787 0.091478 0.604379
O O11 0.318135 0.970531 0.578067
O O12 0.262854 0.765889 0.085307
O O13 0.576092 0.329045 0.070614
O O14 0.016811 0.260593 0.805312
O O15 0.939076 0.304461 0.983185
O O16 0.223471 0.633077 0.851653
#
# Coordination Sequence:
#
# PCOD9241977 Si02
#       8
#     4   4   4   4   4   4   4   4
#     4  12  26  45  68  97 140 186 225 284 336 416
#     4  10  19  38  63  97 132 164 215 276 343 394
#     4  10  20  37  65  97 127 169 219 279 329 407
#     4  11  24  44  70  96 139 178 228 283 342 408
#     4  10  22  38  65 101 128 170 217 281 340 398
#     4  10  22  37  63  97 128 173 225 268 333 401
#     4  11  27  45  71  97 134 187 232 275 350 410
#     4  10  22  39  68  97 132 167 220 285 340 399
#
# _framework density 22.407482999999999
#
# number of rings (size 3 to 8) (size 9 to 14) (size 15 to 20)
#    0.000    1.500    1.250    3.000    7.000    2.000 
#    2.250    0.625    0.000    0.000    0.000    0.000 
#    0.000    0.000    0.000    0.000    0.000    0.000 
#
# Total GULP energy -178967.989744 kJ/mol
# GULP energy per Si atom -5592.749680 kJ/mol
# Density = 2.235648 g / cm^3
# Si number density = 22.407483 Si / 1000 Ang^3
#
#
#
# Elastic Constant Matrix: (Units=GPa)
#
#
# Indices 1 2 3 4 5 6 
#
# 1 89.2071 5.3793 12.5040 0.0000 21.6213 0.0000
# 2 5.3793 89.7866 32.6684 0.0000 1.4002 0.0000
# 3 12.5040 32.6684 52.3950 0.0000 13.7383 0.0000
# 4 0.0000 0.0000 0.0000 29.4585 0.0000 3.6908
# 5 21.6213 1.4002 13.7383 0.0000 35.5058 0.0000
# 6 0.0000 0.0000 0.0000 3.6908 0.0000 24.6232
#
#
#
# Elastic Compliance Matrix: (Units=1/GPa)
#
#
# Indices 1 2 3 4 5 6 
#
# 1 0.013222 -0.000332 -0.000936 0.000000 -0.007676 0.000000
# 2 -0.000332 0.014756 -0.010040 0.000000 0.003505 0.000000
# 3 -0.000936 -0.010040 0.028174 0.000000 -0.009936 0.000000
# 4 0.000000 0.000000 0.000000 0.034596 0.000000 -0.005186
# 5 -0.007676 0.003505 -0.009936 0.000000 0.036545 0.000000
# 6 0.000000 0.000000 0.000000 -0.005186 0.000000 0.041389
#
#
# Mechanical properties :
#
#
# Convention : Reuss Voigt Hill
#
# Bulk Modulus (GPa) = 29.81841 36.94356 33.38099
# Shear Modulus (GPa) = 24.69430 29.97330 27.33380
#
# Velocity S-wave (km/s) = 3.32332 3.66135 3.49643
# Velocity P-wave (km/s) = 5.29738 5.86489 5.58834
#
# Compressibility (1/GPa) = 0.03353632
#
# Stress axis : x y z
#
# Youngs Moduli (GPa) = 75.63427 67.77009 35.49335
#
# Poissons Ratio (x) = 0.02250 0.03321
# Poissons Ratio (y) = 0.02511 0.35636
# Poissons Ratio (z) = 0.07076 0.68042
#
# Static dielectric constant tensor:
#      x y z
#    x 1.880200 0.000000 0.015590 
#    y 0.000000 1.839910 0.000000 
#    z 0.015590 0.000000 1.796340 
# 
# From -- ./inp_files/55409.got.cif
#   From: 2010.05.17/outbox.cif.g08.bks.cpg/sg14_28_cif.got.tgz:55409.got - 2010.06.03 17:49:19.
