data_PCOD9241070
_publ_section_title
;
Structure prediction by ZEFSAII (Michael W. Deem and Ramdas Pophale) SiO2 
 PCOD9241070
Probable space group: P 21/C
;
_chemical_formula_sum "Si O2"
_cell_formula_units_Z 28
_cell_length_a 10.346860
_cell_length_b 8.870378
_cell_length_c 14.128295
_cell_angle_alpha 90.000000
_cell_angle_beta 56.770998
_cell_angle_gamma 90.000000
_cell_volume 1084.675102
_symmetry_space_group_name_H-M "P 21/C"
_symmetry_group_IT_number 14
_symmetry_cell_setting 'monoclinic'
loop_
_space_group_symop_operation_xyz
x,y,z
-x,1/2+y,1/2-z
-x,-y,-z
x,1/2-y,1/2+z
loop_
_atom_site_type_symbol
_atom_site_label
_atom_site_fract_x
_atom_site_fract_y
_atom_site_fract_z
Si Si1 0.666572 0.916106 0.603665
Si Si2 0.900810 0.792421 0.093573
Si Si3 0.117482 0.977582 0.748350
Si Si4 0.155775 0.203826 0.183541
Si Si5 0.459908 0.423980 0.628937
Si Si6 0.622493 0.236441 0.344271
Si Si7 0.747720 0.246372 0.079144
O O1 0.595680 0.919664 0.738738
O O2 0.523666 0.874087 0.594745
O O3 0.790203 0.780367 0.560359
O O4 0.737572 0.077991 0.554603
O O5 0.830892 0.940199 0.173837
O O6 0.904270 0.680366 0.183393
O O7 0.076712 0.808799 0.993435
O O8 0.118095 0.121881 0.679138
O O9 0.229887 0.845334 0.669542
O O10 0.947066 0.912511 0.832363
O O11 0.336131 0.175017 0.121059
O O12 0.431988 0.595818 0.608719
O O13 0.630815 0.355046 0.564537
O O14 0.681988 0.247283 0.211993
#
# Coordination Sequence:
#
# PCOD9241070 Si02
#       7
#     4   4   4   4   4   4   4
#     4   9  18  33  53  82 112 147 177 217 279 344
#     4   9  21  34  57  85 111 142 185 233 284 323
#     4  10  20  35  58  77 108 144 194 229 268 330
#     4   9  19  36  56  77 105 145 195 224 265 327
#     4   9  18  32  55  80 106 152 186 218 267 337
#     4  10  20  32  57  83 109 148 186 218 276 340
#     4  10  19  34  57  83 120 139 174 235 286 329
#
# _framework density 25.814181999999999
#
# number of rings (size 3 to 8) (size 9 to 14) (size 15 to 20)
#    0.857    1.714    0.000    2.143    6.000    0.571 
#    0.000    0.714    0.000    1.714    0.000    0.000 
#    0.000    0.000    0.000    0.000    0.000    0.000 
#
# Total GULP energy -156607.055785 kJ/mol
# GULP energy per Si atom -5593.109135 kJ/mol
# Density = 2.575543 g / cm^3
# Si number density = 25.814182 Si / 1000 Ang^3
#
#
#
# Elastic Constant Matrix: (Units=GPa)
#
#
# Indices 1 2 3 4 5 6 
#
# 1 48.2193 -10.6958 31.3622 0.0000 -18.6866 0.0000
# 2 -10.6958 88.5625 30.2688 0.0000 -9.2578 0.0000
# 3 31.3622 30.2688 103.3483 0.0000 -11.1953 0.0000
# 4 0.0000 0.0000 0.0000 38.2612 0.0000 -12.4425
# 5 -18.6866 -9.2578 -11.1953 0.0000 46.5598 0.0000
# 6 0.0000 0.0000 0.0000 -12.4425 0.0000 40.7448
#
#
#
# Elastic Compliance Matrix: (Units=1/GPa)
#
#
# Indices 1 2 3 4 5 6 
#
# 1 0.036402 0.010102 -0.012531 0.000000 0.013605 0.000000
# 2 0.010102 0.015476 -0.007008 0.000000 0.005446 0.000000
# 3 -0.012531 -0.007008 0.015232 0.000000 -0.002760 0.000000
# 4 0.000000 0.000000 0.000000 0.029018 0.000000 0.008861
# 5 0.013605 0.005446 -0.002760 0.000000 0.027357 0.000000
# 6 0.000000 0.000000 0.000000 0.008861 0.000000 0.027249
#
#
# Mechanical properties :
#
#
# Convention : Reuss Voigt Hill
#
# Bulk Modulus (GPa) = 20.73197 38.00005 29.36601
# Shear Modulus (GPa) = 26.92672 37.72615 32.32644
#
# Velocity S-wave (km/s) = 3.23321 3.82704 3.54259
# Velocity P-wave (km/s) = 4.68901 5.85499 5.30414
#
# Compressibility (1/GPa) = 0.04823469
#
# Stress axis : x y z
#
# Youngs Moduli (GPa) = 27.47076 64.61634 65.64975
#
# Poissons Ratio (x) = -0.65272 0.82269
# Poissons Ratio (y) = -0.27750 0.46008
# Poissons Ratio (z) = 0.34425 0.45284
#
# Static dielectric constant tensor:
#      x y z
#    x 2.043980 0.000000 0.102320 
#    y 0.000000 1.995260 0.000000 
#    z 0.102320 0.000000 2.069010 
# 
# From -- ./inp_files/72966.got.cif
#   From: 2010.05.17/outbox.cif.g08.bks.cpg/sg14_37_cif.got.tgz:72966.got - 2010.06.03 17:49:19.
