data_PCOD9241045
_publ_section_title
;
Structure prediction by ZEFSAII (Michael W. Deem and Ramdas Pophale) SiO2 
 PCOD9241045
Probable space group: P 21/C
;
_chemical_formula_sum "Si O2"
_cell_formula_units_Z 28
_cell_length_a 22.125725
_cell_length_b 9.383770
_cell_length_c 18.933242
_cell_angle_alpha 90.000000
_cell_angle_beta 21.986650
_cell_angle_gamma 90.000000
_cell_volume 1471.718424
_symmetry_space_group_name_H-M "P 21/C"
_symmetry_group_IT_number 14
_symmetry_cell_setting 'monoclinic'
loop_
_space_group_symop_operation_xyz
x,y,z
-x,1/2+y,1/2-z
-x,-y,-z
x,1/2-y,1/2+z
loop_
_atom_site_type_symbol
_atom_site_label
_atom_site_fract_x
_atom_site_fract_y
_atom_site_fract_z
Si Si1 0.999826 0.546140 0.176404
Si Si2 0.167316 0.161846 0.606225
Si Si3 0.576726 0.734002 0.786275
Si Si4 0.555937 0.861695 0.032489
Si Si5 0.641715 0.442744 0.554375
Si Si6 0.444207 0.070089 0.408415
Si Si7 0.268929 0.041959 0.280350
O O1 0.958540 0.714175 0.233359
O O2 0.829539 0.467282 0.354576
O O3 0.092136 0.466469 0.141007
O O4 0.104895 0.511503 0.993015
O O5 0.294506 0.246121 0.417411
O O6 0.270266 0.089681 0.558030
O O7 0.421495 0.825441 0.931388
O O8 0.506047 0.578072 0.872852
O O9 0.667594 0.811815 0.751845
O O10 0.550191 0.693730 0.040505
O O11 0.561294 0.915286 0.107604
O O12 0.401238 0.925913 0.161413
O O13 0.710952 0.926687 0.824079
O O14 0.570084 0.406711 0.707865
#
# Coordination Sequence:
#
# PCOD9241045 Si02
#       7
#     4   4   4   4   4   4   4
#     4  11  21  35  54  85 118 141 184 238 286 327
#     4  10  22  33  51  87 112 147 182 234 291 320
#     4   9  19  35  54  79 109 146 186 226 275 334
#     4  10  20  39  58  81 108 150 194 219 268 346
#     4  10  19  34  56  81 109 145 184 230 278 326
#     4  11  19  35  57  80 111 142 190 229 268 336
#     4   9  22  37  56  82 111 149 185 226 279 330
#
# _framework density 19.025378
#
# number of rings (size 3 to 8) (size 9 to 14) (size 15 to 20)
#    0.000    2.000    2.857    1.714    4.000    1.143 
#    0.000    0.000    0.000    0.857    0.000    0.000 
#    0.000    0.000    0.000    0.000    0.000    0.000 
#
# Total GULP energy -156016.867202 kJ/mol
# GULP energy per Si atom -5572.030972 kJ/mol
# Density = 1.898208 g / cm^3
# Si number density = 19.025378 Si / 1000 Ang^3
#
#
#
# Elastic Constant Matrix: (Units=GPa)
#
#
# Indices 1 2 3 4 5 6 
#
# 1 33.1512 10.4621 5.3939 0.0000 1.7605 0.0000
# 2 10.4621 93.5569 15.1251 0.0000 -6.8694 0.0000
# 3 5.3939 15.1251 60.6502 0.0000 -2.8640 0.0000
# 4 0.0000 0.0000 0.0000 15.4588 0.0000 -5.2737
# 5 1.7605 -6.8694 -2.8640 0.0000 24.7770 0.0000
# 6 0.0000 0.0000 0.0000 -5.2737 0.0000 15.3801
#
#
#
# Elastic Compliance Matrix: (Units=1/GPa)
#
#
# Indices 1 2 3 4 5 6 
#
# 1 0.031788 -0.003465 -0.002126 0.000000 -0.003465 0.000000
# 2 -0.003465 0.011710 -0.002460 0.000000 0.003208 0.000000
# 3 -0.002126 -0.002460 0.017360 0.000000 0.001476 0.000000
# 4 0.000000 0.000000 0.000000 0.073257 0.000000 0.025119
# 5 -0.003465 0.003208 0.001476 0.000000 0.041666 0.000000
# 6 0.000000 0.000000 0.000000 0.025119 0.000000 0.073632
#
#
# Mechanical properties :
#
#
# Convention : Reuss Voigt Hill
#
# Bulk Modulus (GPa) = 22.34457 27.70228 25.02342
# Shear Modulus (GPa) = 17.82930 21.54832 19.68881
#
# Velocity S-wave (km/s) = 3.06458 3.36908 3.22043
# Velocity P-wave (km/s) = 4.92873 5.45221 5.19706
#
# Compressibility (1/GPa) = 0.04475361
#
# Stress axis : x y z
#
# Youngs Moduli (GPa) = 31.45795 85.40036 57.60241
#
# Poissons Ratio (x) = 0.29595 0.12249
# Poissons Ratio (y) = 0.10902 0.14173
# Poissons Ratio (z) = 0.06690 0.21012
#
# Static dielectric constant tensor:
#      x y z
#    x 1.708830 0.000000 0.018590 
#    y 0.000000 1.729490 0.000000 
#    z 0.018590 0.000000 1.672990 
# 
# From -- ./inp_files/64572.got.cif
#   From: 2010.05.17/outbox.cif.g08.bks.cpg/sg14_33_cif.got.tgz:64572.got - 2010.06.03 17:49:19.
