data_PCOD9241749
_publ_section_title
;
Structure prediction by ZEFSAII (Michael W. Deem and Ramdas Pophale) SiO2 
 PCOD9241749
Probable space group: P 21/C
;
_chemical_formula_sum "Si O2"
_cell_formula_units_Z 28
_cell_length_a 9.755020
_cell_length_b 9.988588
_cell_length_c 23.804964
_cell_angle_alpha 90.000000
_cell_angle_beta 30.958285
_cell_angle_gamma 90.000000
_cell_volume 1193.197843
_symmetry_space_group_name_H-M "P 21/C"
_symmetry_group_IT_number 14
_symmetry_cell_setting 'monoclinic'
loop_
_space_group_symop_operation_xyz
x,y,z
-x,1/2+y,1/2-z
-x,-y,-z
x,1/2-y,1/2+z
loop_
_atom_site_type_symbol
_atom_site_label
_atom_site_fract_x
_atom_site_fract_y
_atom_site_fract_z
Si Si1 0.523657 0.073011 0.432610
Si Si2 0.988633 0.743043 0.752044
Si Si3 0.720091 0.783227 0.738009
Si Si4 0.676794 0.300712 0.216571
Si Si5 0.560096 0.051101 0.859867
Si Si6 0.944695 0.463455 0.955611
Si Si7 0.185984 0.167074 0.072131
O O1 0.816644 0.130261 0.324688
O O2 0.370372 0.976220 0.443920
O O3 0.348570 0.207031 0.490610
O O4 0.500000 0.000000 0.500000
O O5 0.168627 0.621516 0.712552
O O6 0.863723 0.700817 0.736793
O O7 0.795293 0.800200 0.868315
O O8 0.482702 0.724252 0.784175
O O9 0.610382 0.909237 0.813016
O O10 0.936801 0.831445 0.615255
O O11 0.485556 0.346822 0.334649
O O12 0.879999 0.423782 0.137964
O O13 0.873470 0.179309 0.165486
O O14 0.341292 0.048252 0.986422
O O15 0.000000 0.500000 0.000000
#
# Coordination Sequence:
#
# PCOD9241749 Si02
#       7
#     4   4   4   4   4   4   4
#     4  10  19  37  61  87 114 159 203 252 302 354
#     4  10  21  37  61  88 118 158 202 254 305 371
#     4  11  22  39  60  90 125 155 205 258 306 372
#     4   9  21  38  58  88 119 159 202 254 302 369
#     4   9  21  42  59  83 124 161 200 250 313 368
#     4  10  22  37  61  90 119 155 206 256 304 358
#     4   9  20  37  60  81 122 163 194 248 312 367
#
# _framework density 23.466351
#
# number of rings (size 3 to 8) (size 9 to 14) (size 15 to 20)
#    0.000    2.286    1.429    0.857    8.000    2.286 
#    0.000    0.000    0.000    0.000    0.000    0.000 
#    0.000    0.000    0.000    0.000    0.000    0.000 
#
# Total GULP energy -156169.734651 kJ/mol
# GULP energy per Si atom -5577.490523 kJ/mol
# Density = 2.341294 g / cm^3
# Si number density = 23.466351 Si / 1000 Ang^3
#
#
#
# Elastic Constant Matrix: (Units=GPa)
#
#
# Indices 1 2 3 4 5 6 
#
# 1 166.7206 2.1505 -3.9552 0.0000 11.1606 0.0000
# 2 2.1505 16.8254 -10.6418 0.0000 -13.4262 0.0000
# 3 -3.9552 -10.6418 62.7905 0.0000 7.5043 0.0000
# 4 0.0000 0.0000 0.0000 24.1209 0.0000 6.6545
# 5 11.1606 -13.4262 7.5043 0.0000 32.7030 0.0000
# 6 0.0000 0.0000 0.0000 6.6545 0.0000 29.0163
#
#
#
# Elastic Compliance Matrix: (Units=1/GPa)
#
#
# Indices 1 2 3 4 5 6 
#
# 1 0.006296 -0.003595 0.000227 0.000000 -0.003677 0.000000
# 2 -0.003595 0.098419 0.011802 0.000000 0.038925 0.000000
# 3 0.000227 0.011802 0.017860 0.000000 0.000669 0.000000
# 4 0.000000 0.000000 0.000000 0.044258 0.000000 -0.010150
# 5 -0.003677 0.038925 0.000669 0.000000 0.047660 0.000000
# 6 0.000000 0.000000 0.000000 -0.010150 0.000000 0.036791
#
#
# Mechanical properties :
#
#
# Convention : Reuss Voigt Hill
#
# Bulk Modulus (GPa) = 7.17149 24.60484 15.88816
# Shear Modulus (GPa) = 17.80005 34.42025 26.11015
#
# Velocity S-wave (km/s) = 2.75714 3.83403 3.33928
# Velocity P-wave (km/s) = 3.63297 5.48704 4.65328
#
# Compressibility (1/GPa) = 0.13944103
#
# Stress axis : x y z
#
# Youngs Moduli (GPa) = 158.83261 10.16069 55.98976
#
# Poissons Ratio (x) = 0.03653 -0.01269
# Poissons Ratio (y) = 0.57104 -0.66077
# Poissons Ratio (z) = -0.03600 -0.11991
#
# Static dielectric constant tensor:
#      x y z
#    x 1.877410 0.000000 -0.000760 
#    y 0.000000 1.989050 0.000000 
#    z -0.000760 0.000000 1.973580 
# 
# From -- ./inp_files/65524.got.cif
#   From: 2010.05.17/outbox.cif.g08.bks.cpg/sg14_33_cif.got.tgz:65524.got - 2010.06.03 17:49:19.
