data_PCOD9241100
_publ_section_title
;
Structure prediction by ZEFSAII (Michael W. Deem and Ramdas Pophale) SiO2 
 PCOD9241100
Probable space group: P 21/C
;
_chemical_formula_sum "Si O2"
_cell_formula_units_Z 28
_cell_length_a 20.036631
_cell_length_b 12.805446
_cell_length_c 7.777696
_cell_angle_alpha 90.000000
_cell_angle_beta 43.820866
_cell_angle_gamma 90.000000
_cell_volume 1381.755439
_symmetry_space_group_name_H-M "P 21/C"
_symmetry_group_IT_number 14
_symmetry_cell_setting 'monoclinic'
loop_
_space_group_symop_operation_xyz
x,y,z
-x,1/2+y,1/2-z
-x,-y,-z
x,1/2-y,1/2+z
loop_
_atom_site_type_symbol
_atom_site_label
_atom_site_fract_x
_atom_site_fract_y
_atom_site_fract_z
Si Si1 0.887632 0.420362 0.578793
Si Si2 0.664122 0.324203 0.491684
Si Si3 0.556162 0.602398 0.472543
Si Si4 0.131745 0.785369 0.231060
Si Si5 0.529434 0.184728 0.532539
Si Si6 0.755234 0.994967 0.595337
Si Si7 0.049023 0.965860 0.588423
O O1 0.872540 0.350942 0.436082
O O2 0.908298 0.331865 0.684458
O O3 0.969702 0.502186 0.375730
O O4 0.796296 0.478474 0.830416
O O5 0.756604 0.285508 0.423765
O O6 0.616853 0.226509 0.486614
O O7 0.701143 0.407496 0.285318
O O8 0.581052 0.367827 0.772991
O O9 0.500000 0.500000 0.500000
O O10 0.532576 0.617511 0.719278
O O11 0.522319 0.709114 0.439764
O O12 0.671042 0.589401 0.240140
O O13 0.077563 0.849485 0.480737
O O14 0.850837 0.978495 0.536744
O O15 0.000000 0.000000 0.500000
#
# Coordination Sequence:
#
# PCOD9241100 Si02
#       7
#     4   4   4   4   4   4   4
#     4  11  21  36  60  88 123 156 204 257 316 373
#     4  10  19  34  58  88 118 160 209 269 312 350
#     4  11  24  43  63  93 130 167 212 262 323 386
#     4  10  20  33  59  89 119 151 206 263 315 359
#     4  10  22  40  60  89 131 164 213 266 313 376
#     4  11  22  38  61  90 123 167 206 257 318 373
#     4   9  21  41  59  90 121 156 207 257 313 379
#
# _framework density 20.264078000000001
#
# number of rings (size 3 to 8) (size 9 to 14) (size 15 to 20)
#    0.000    1.714    1.429    3.857    4.000    0.571 
#    0.000    4.286    0.000    0.000    0.000    0.000 
#    0.000    0.000    0.000    0.000    0.000    0.000 
#
# Total GULP energy -156055.117974 kJ/mol
# GULP energy per Si atom -5573.397071 kJ/mol
# Density = 2.021796 g / cm^3
# Si number density = 20.264078 Si / 1000 Ang^3
#
#
#
# Elastic Constant Matrix: (Units=GPa)
#
#
# Indices 1 2 3 4 5 6 
#
# 1 59.5935 20.2629 37.4968 0.0000 2.1501 0.0000
# 2 20.2629 67.7094 63.4900 0.0000 -8.4389 0.0000
# 3 37.4968 63.4900 200.8492 0.0000 12.0480 0.0000
# 4 0.0000 0.0000 0.0000 38.4435 0.0000 4.9087
# 5 2.1501 -8.4389 12.0480 0.0000 40.1237 0.0000
# 6 0.0000 0.0000 0.0000 4.9087 0.0000 23.3195
#
#
#
# Elastic Compliance Matrix: (Units=1/GPa)
#
#
# Indices 1 2 3 4 5 6 
#
# 1 0.019611 -0.003749 -0.002409 0.000000 -0.001116 0.000000
# 2 -0.003749 0.023531 -0.007177 0.000000 0.007305 0.000000
# 3 -0.002409 -0.007177 0.007923 0.000000 -0.003759 0.000000
# 4 0.000000 0.000000 0.000000 0.026731 0.000000 -0.005627
# 5 -0.001116 0.007305 -0.003759 0.000000 0.027648 0.000000
# 6 0.000000 0.000000 0.000000 -0.005627 0.000000 0.044067
#
#
# Mechanical properties :
#
#
# Convention : Reuss Voigt Hill
#
# Bulk Modulus (GPa) = 40.99159 63.40574 52.19866
# Shear Modulus (GPa) = 27.12803 34.17082 30.64943
#
# Velocity S-wave (km/s) = 3.66283 4.11088 3.89331
# Velocity P-wave (km/s) = 6.17746 7.34099 6.78422
#
# Compressibility (1/GPa) = 0.02439525
#
# Stress axis : x y z
#
# Youngs Moduli (GPa) = 50.99122 42.49779 126.21964
#
# Poissons Ratio (x) = 0.15932 0.30410
# Poissons Ratio (y) = 0.19116 0.90582
# Poissons Ratio (z) = 0.12285 0.30499
#
# Static dielectric constant tensor:
#      x y z
#    x 1.813050 0.000000 0.053670 
#    y 0.000000 1.740210 0.000000 
#    z 0.053670 0.000000 1.762010 
# 
# From -- ./inp_files/18926.got.cif
#   From: 2010.05.17/outbox.cif.g08.bks.cpg/sg14_10_cif.got.tgz:18926.got - 2010.06.03 17:49:19.
