data_PCOD9241597
_publ_section_title
;
Structure prediction by ZEFSAII (Michael W. Deem and Ramdas Pophale) SiO2 
 PCOD9241597
Probable space group: P 21/C
;
_chemical_formula_sum "Si O2"
_cell_formula_units_Z 24
_cell_length_a 17.659243
_cell_length_b 9.028055
_cell_length_c 20.038114
_cell_angle_alpha 90.000000
_cell_angle_beta 24.664074
_cell_angle_gamma 90.000000
_cell_volume 1333.118424
_symmetry_space_group_name_H-M "P 21/C"
_symmetry_group_IT_number 14
_symmetry_cell_setting 'monoclinic'
loop_
_space_group_symop_operation_xyz
x,y,z
-x,1/2+y,1/2-z
-x,-y,-z
x,1/2-y,1/2+z
loop_
_atom_site_type_symbol
_atom_site_label
_atom_site_fract_x
_atom_site_fract_y
_atom_site_fract_z
Si Si1 0.677079 0.686384 0.365664
Si Si2 0.548520 0.938546 0.386452
Si Si3 0.009529 0.149265 0.816870
Si Si4 0.863673 0.127231 0.081192
Si Si5 0.835744 0.333375 0.837553
Si Si6 0.752540 0.357317 0.273345
O O1 0.663631 0.791999 0.311758
O O2 0.770154 0.531609 0.272312
O O3 0.467571 0.663278 0.555692
O O4 0.796480 0.772220 0.324479
O O5 0.368507 0.894383 0.491818
O O6 0.500000 0.000000 0.500000
O O7 0.667749 0.055032 0.251683
O O8 0.905098 0.236799 0.843215
O O9 0.908467 0.154700 0.968701
O O10 0.041943 0.978176 0.772216
O O11 0.855725 0.279745 0.129485
O O12 0.000000 0.000000 0.000000
O O13 0.821562 0.232873 0.782655
#
# Coordination Sequence:
#
# PCOD9241597 Si02
#       6
#     4   4   4   4   4   4
#     4  10  19  36  62  90 116 164 207 253 298 387
#     4  11  18  41  66  84 119 173 210 245 318 388
#     4  12  23  38  61  92 124 159 209 266 314 367
#     4  12  20  38  66  92 116 165 217 259 304 379
#     4  11  22  40  59  88 125 168 200 258 323 380
#     4  10  20  37  64  89 118 163 217 248 306 384
#
# _framework density 18.002901999999999
#
# number of rings (size 3 to 8) (size 9 to 14) (size 15 to 20)
#    0.000    1.000    8.333    1.000    0.000    0.667 
#    0.000    8.333    0.000    0.000    0.000    0.000 
#    0.000    0.000    0.000    0.000    0.000    0.000 
#
# Total GULP energy -133920.409979 kJ/mol
# GULP energy per Si atom -5580.017082 kJ/mol
# Density = 1.796193 g / cm^3
# Si number density = 18.002902 Si / 1000 Ang^3
#
#
#
# Elastic Constant Matrix: (Units=GPa)
#
#
# Indices 1 2 3 4 5 6 
#
# 1 131.9554 57.8305 63.4545 0.0000 0.1309 0.0000
# 2 57.8305 149.0649 41.0626 0.0000 11.2601 0.0000
# 3 63.4545 41.0626 62.1666 0.0000 7.0236 0.0000
# 4 0.0000 0.0000 0.0000 31.3236 0.0000 -5.4617
# 5 0.1309 11.2601 7.0236 0.0000 25.3354 0.0000
# 6 0.0000 0.0000 0.0000 -5.4617 0.0000 40.6477
#
#
#
# Elastic Compliance Matrix: (Units=1/GPa)
#
#
# Indices 1 2 3 4 5 6 
#
# 1 0.015993 -0.002371 -0.015349 0.000000 0.005226 0.000000
# 2 -0.002371 0.008674 -0.002968 0.000000 -0.003020 0.000000
# 3 -0.015349 -0.002968 0.034640 0.000000 -0.008205 0.000000
# 4 0.000000 0.000000 0.000000 0.032691 0.000000 0.004393
# 5 0.005226 -0.003020 -0.008205 0.000000 0.043060 0.000000
# 6 0.000000 0.000000 0.000000 0.004393 0.000000 0.025192
#
#
# Mechanical properties :
#
#
# Convention : Reuss Voigt Hill
#
# Bulk Modulus (GPa) = 55.76795 74.20912 64.98853
# Shear Modulus (GPa) = 24.08445 31.51729 27.80087
#
# Velocity S-wave (km/s) = 3.66158 4.18865 3.93395
# Velocity P-wave (km/s) = 6.99433 8.04383 7.53737
#
# Compressibility (1/GPa) = 0.01793145
#
# Stress axis : x y z
#
# Youngs Moduli (GPa) = 62.52633 115.28520 28.86860
#
# Poissons Ratio (x) = 0.27339 0.44310
# Poissons Ratio (y) = 0.14827 0.08567
# Poissons Ratio (z) = 0.95970 0.34214
#
# Static dielectric constant tensor:
#      x y z
#    x 1.577240 0.000000 -0.023600 
#    y 0.000000 1.655680 0.000000 
#    z -0.023600 0.000000 1.641340 
# 
# From -- ./inp_files/58985.got.cif
#   From: 2010.05.17/outbox.cif.g08.bks.cpg/sg14_30_cif.got.tgz:58985.got - 2010.06.03 17:49:19.
