data_PCOD9241701
_publ_section_title
;
Structure prediction by ZEFSAII (Michael W. Deem and Ramdas Pophale) SiO2 
 PCOD9241701
Probable space group: P 21/C
;
_chemical_formula_sum "Si O2"
_cell_formula_units_Z 32
_cell_length_a 9.220722
_cell_length_b 15.877858
_cell_length_c 12.995460
_cell_angle_alpha 90.000000
_cell_angle_beta 45.247796
_cell_angle_gamma 90.000000
_cell_volume 1351.150301
_symmetry_space_group_name_H-M "P 21/C"
_symmetry_group_IT_number 14
_symmetry_cell_setting 'monoclinic'
loop_
_space_group_symop_operation_xyz
x,y,z
-x,1/2+y,1/2-z
-x,-y,-z
x,1/2-y,1/2+z
loop_
_atom_site_type_symbol
_atom_site_label
_atom_site_fract_x
_atom_site_fract_y
_atom_site_fract_z
Si Si1 0.112276 0.296339 0.101147
Si Si2 0.120101 0.562366 0.089120
Si Si3 0.340965 0.898036 0.917579
Si Si4 0.567972 0.781882 0.948655
Si Si5 0.241451 0.415590 0.872505
Si Si6 0.329199 0.750946 0.754504
Si Si7 0.090673 0.057399 0.786860
Si Si8 0.533425 0.642384 0.807521
O O1 0.895840 0.279898 0.159792
O O2 0.091509 0.366102 0.202028
O O3 0.217928 0.214714 0.098550
O O4 0.248516 0.332818 0.939711
O O5 0.909598 0.599155 0.148218
O O6 0.111301 0.526836 0.208670
O O7 0.154186 0.483068 0.995729
O O8 0.321401 0.616490 0.968328
O O9 0.537427 0.946237 0.774735
O O10 0.308552 0.822625 0.851245
O O11 0.433652 0.859645 0.977624
O O12 0.125233 0.940475 0.047101
O O13 0.430302 0.726706 0.095355
O O14 0.607226 0.727287 0.827451
O O15 0.461672 0.672118 0.731468
O O16 0.285788 0.076047 0.762036
#
# Coordination Sequence:
#
# PCOD9241701 Si02
#       8
#     4   4   4   4   4   4   4   4
#     4  10  19  37  59  86 121 159 201 235 304 364
#     4  10  21  41  65  83 114 167 211 247 289 357
#     4  11  23  38  59  94 126 153 199 253 313 354
#     4  10  22  36  60  93 122 156 189 255 305 360
#     4  10  21  37  63  89 115 160 207 247 295 359
#     4  11  21  36  62  89 126 154 193 250 309 361
#     4  10  22  38  59  90 121 157 201 255 292 354
#     4  10  22  39  63  88 118 163 207 239 303 368
#
# _framework density 23.683523000000001
#
# number of rings (size 3 to 8) (size 9 to 14) (size 15 to 20)
#    0.000    1.750    3.750    0.375    1.750    2.500 
#    0.000    0.625    0.000    0.000    0.000    0.000 
#    0.000    0.000    0.000    0.000    0.000    0.000 
#
# Total GULP energy -178669.300973 kJ/mol
# GULP energy per Si atom -5583.415655 kJ/mol
# Density = 2.362962 g / cm^3
# Si number density = 23.683523 Si / 1000 Ang^3
#
#
#
# Elastic Constant Matrix: (Units=GPa)
#
#
# Indices 1 2 3 4 5 6 
#
# 1 132.8065 16.2681 31.9484 0.0000 -19.4303 0.0000
# 2 16.2681 12.1362 -4.7526 0.0000 3.6429 0.0000
# 3 31.9484 -4.7526 102.3844 0.0000 -7.4246 0.0000
# 4 0.0000 0.0000 0.0000 -2.0232 0.0000 -6.1756
# 5 -19.4303 3.6429 -7.4246 0.0000 36.0165 0.0000
# 6 0.0000 0.0000 0.0000 -6.1756 0.0000 21.3869
#
#
#
# Elastic Compliance Matrix: (Units=1/GPa)
#
#
# Indices 1 2 3 4 5 6 
#
# 1 0.012142 -0.020231 -0.004167 0.000000 0.007738 0.000000
# 2 -0.020231 0.119848 0.010361 0.000000 -0.020901 0.000000
# 3 -0.004167 0.010361 0.011481 0.000000 -0.000929 0.000000
# 4 0.000000 0.000000 0.000000 -0.262713 0.000000 -0.075860
# 5 0.007738 -0.020901 -0.000929 0.000000 0.033862 0.000000
# 6 0.000000 0.000000 0.000000 -0.075860 0.000000 0.024853
#
#
# Mechanical properties :
#
#
# Convention : Reuss Voigt Hill
#
# Bulk Modulus (GPa) = 8.66576 37.13945 22.90260
# Shear Modulus (GPa) = 831.45563 24.66693 428.06128
#
# Velocity S-wave (km/s) = 18.75717 3.23076 13.45863
# Velocity P-wave (km/s) = 21.74340 5.44359 15.84942
#
# Compressibility (1/GPa) = 0.11539675
#
# Stress axis : x y z
#
# Youngs Moduli (GPa) = 82.35545 8.34389 87.10093
#
# Poissons Ratio (x) = 0.16881 0.36295
# Poissons Ratio (y) = 1.66614 -0.90242
# Poissons Ratio (z) = 0.34317 -0.08645
#
# Static dielectric constant tensor:
#      x y z
#    x 1.919750 0.000000 -0.016220 
#    y 0.000000 1.952630 0.000000 
#    z -0.016220 0.000000 1.906790 
# 
# From -- ./inp_files/42040.got.cif
#   From: 2010.05.17/outbox.cif.g08.bks.cpg/sg14_22_cif.got.tgz:42040.got - 2010.06.03 17:49:19.
