data_PCOD9241886
_publ_section_title
;
Structure prediction by ZEFSAII (Michael W. Deem and Ramdas Pophale) SiO2 
 PCOD9241886
Probable space group: P 21/C
;
_chemical_formula_sum "Si O2"
_cell_formula_units_Z 24
_cell_length_a 7.316458
_cell_length_b 9.243400
_cell_length_c 15.467025
_cell_angle_alpha 90.000000
_cell_angle_beta 69.265179
_cell_angle_gamma 90.000000
_cell_volume 978.266994
_symmetry_space_group_name_H-M "P 21/C"
_symmetry_group_IT_number 14
_symmetry_cell_setting 'monoclinic'
loop_
_space_group_symop_operation_xyz
x,y,z
-x,1/2+y,1/2-z
-x,-y,-z
x,1/2-y,1/2+z
loop_
_atom_site_type_symbol
_atom_site_label
_atom_site_fract_x
_atom_site_fract_y
_atom_site_fract_z
Si Si1 0.620054 0.153909 0.390263
Si Si2 0.193007 0.725230 0.894246
Si Si3 0.793716 0.607257 0.959168
Si Si4 0.777545 0.065030 0.795283
Si Si5 0.203121 0.004711 0.799853
Si Si6 0.369671 0.251556 0.679032
O O1 0.394080 0.138492 0.450945
O O2 0.684535 0.319558 0.376301
O O3 0.755840 0.054419 0.429252
O O4 0.663932 0.086759 0.289036
O O5 0.197538 0.643902 0.800493
O O6 0.414844 0.705186 0.888235
O O7 0.998219 0.655223 0.966682
O O8 0.177470 0.899355 0.885604
O O9 0.769666 0.705084 0.876576
O O10 0.988736 0.020987 0.795294
O O11 0.650151 0.921590 0.805569
O O12 0.302895 0.162650 0.775693
#
# Coordination Sequence:
#
# PCOD9241886 Si02
#       6
#     4   4   4   4   4   4
#     4   9  20  36  62  81 114 156 191 235 296 344
#     4  11  21  36  60  85 115 151 194 243 286 347
#     4  10  20  40  58  82 119 153 189 240 291 353
#     4  11  19  37  63  85 112 155 195 239 289 342
#     4  10  19  38  58  86 112 152 193 239 291 340
#     4  11  21  35  60  86 117 149 195 240 291 340
#
# _framework density 24.533180999999999
#
# number of rings (size 3 to 8) (size 9 to 14) (size 15 to 20)
#    0.000    1.667    5.000    2.000    0.000    0.667 
#    0.000    8.333    7.333    0.000    0.000    0.000 
#    0.000    0.000    0.000    0.000    0.000    0.000 
#
# Total GULP energy -134206.320366 kJ/mol
# GULP energy per Si atom -5591.930015 kJ/mol
# Density = 2.447734 g / cm^3
# Si number density = 24.533181 Si / 1000 Ang^3
#
#
#
# Elastic Constant Matrix: (Units=GPa)
#
#
# Indices 1 2 3 4 5 6 
#
# 1 124.3332 31.1510 30.9108 0.0000 -39.1275 0.0000
# 2 31.1510 180.8126 50.9319 0.0000 -26.7308 0.0000
# 3 30.9108 50.9319 65.0583 0.0000 -37.3672 0.0000
# 4 0.0000 0.0000 0.0000 14.2767 0.0000 1.5287
# 5 -39.1275 -26.7308 -37.3672 0.0000 41.0953 0.0000
# 6 0.0000 0.0000 0.0000 1.5287 0.0000 18.7888
#
#
#
# Elastic Compliance Matrix: (Units=1/GPa)
#
#
# Indices 1 2 3 4 5 6 
#
# 1 0.011667 -0.000805 0.002441 0.000000 0.012805 0.000000
# 2 -0.000805 0.007167 -0.006261 0.000000 -0.001797 0.000000
# 3 0.002441 -0.006261 0.037904 0.000000 0.032717 0.000000
# 4 0.000000 0.000000 0.000000 0.070660 0.000000 -0.005749
# 5 0.012805 -0.001797 0.032717 0.000000 0.065106 0.000000
# 6 0.000000 0.000000 0.000000 -0.005749 0.000000 0.053691
#
#
# Mechanical properties :
#
#
# Convention : Reuss Voigt Hill
#
# Bulk Modulus (GPa) = 21.05702 66.24349 43.65025
# Shear Modulus (GPa) = 18.43162 31.97952 25.20557
#
# Velocity S-wave (km/s) = 2.74395 3.61435 3.20880
# Velocity P-wave (km/s) = 4.31749 6.66920 5.61778
#
# Compressibility (1/GPa) = 0.04749010
#
# Stress axis : x y z
#
# Youngs Moduli (GPa) = 85.70957 139.52676 26.38261
#
# Poissons Ratio (x) = 0.11228 -0.06441
# Poissons Ratio (y) = 0.06897 0.16517
# Poissons Ratio (z) = -0.20924 0.87352
#
# Static dielectric constant tensor:
#      x y z
#    x 1.942400 0.000000 0.030370 
#    y 0.000000 1.974370 0.000000 
#    z 0.030370 0.000000 1.988700 
# 
# From -- ./inp_files/54576.got.cif
#   From: 2010.05.17/outbox.cif.g08.bks.cpg/sg14_28_cif.got.tgz:54576.got - 2010.06.03 17:49:19.
