data_PCOD9241383
_publ_section_title
;
Structure prediction by ZEFSAII (Michael W. Deem and Ramdas Pophale) SiO2 
 PCOD9241383
Probable space group: P 21/C
;
_chemical_formula_sum "Si O2"
_cell_formula_units_Z 28
_cell_length_a 7.174758
_cell_length_b 21.800598
_cell_length_c 12.440449
_cell_angle_alpha 90.000000
_cell_angle_beta 41.123547
_cell_angle_gamma 90.000000
_cell_volume 1279.763087
_symmetry_space_group_name_H-M "P 21/C"
_symmetry_group_IT_number 14
_symmetry_cell_setting 'monoclinic'
loop_
_space_group_symop_operation_xyz
x,y,z
-x,1/2+y,1/2-z
-x,-y,-z
x,1/2-y,1/2+z
loop_
_atom_site_type_symbol
_atom_site_label
_atom_site_fract_x
_atom_site_fract_y
_atom_site_fract_z
Si Si1 0.513447 0.635489 0.272680
Si Si2 0.646869 0.179805 0.392761
Si Si3 0.703583 0.796477 0.893841
Si Si4 0.359154 0.064416 0.590994
Si Si5 0.980966 0.070656 0.544487
Si Si6 0.458163 0.084205 0.908318
Si Si7 0.833360 0.039225 0.949851
O O1 0.394672 0.662207 0.214047
O O2 0.532820 0.682998 0.361728
O O3 0.834087 0.610364 0.117937
O O4 0.315781 0.579151 0.394017
O O5 0.416679 0.231594 0.518051
O O6 0.583348 0.119421 0.491804
O O7 0.962020 0.204745 0.273082
O O8 0.649361 0.849828 0.006024
O O9 0.156777 0.079007 0.577995
O O10 0.154446 0.056363 0.781620
O O11 0.500000 0.000000 0.500000
O O12 0.660820 0.086808 0.716217
O O13 0.000000 0.000000 0.500000
O O14 0.654567 0.057877 0.920391
O O15 0.215265 0.032562 0.006366
#
# Coordination Sequence:
#
# PCOD9241383 Si02
#       7
#     4   4   4   4   4   4   4
#     4  10  23  43  68  95 135 172 226 279 333 399
#     4  11  27  46  66 100 133 176 231 278 333 411
#     4  11  26  46  69  92 136 179 223 274 339 397
#     4  10  22  39  62  92 137 166 221 283 331 390
#     4  10  19  35  62  97 129 170 217 267 335 397
#     4   9  18  35  63  93 128 170 214 263 329 397
#     4   9  17  35  65  92 126 171 212 267 335 388
#
# _framework density 21.879049999999999
#
# number of rings (size 3 to 8) (size 9 to 14) (size 15 to 20)
#    0.000    2.000    1.429    0.857   12.000    1.143 
#    2.571    2.143    0.000    0.000    0.000    0.000 
#    0.000    0.000    0.000    0.000    0.000    0.000 
#
# Total GULP energy -156560.835022 kJ/mol
# GULP energy per Si atom -5591.458394 kJ/mol
# Density = 2.182925 g / cm^3
# Si number density = 21.879050 Si / 1000 Ang^3
#
#
#
# Elastic Constant Matrix: (Units=GPa)
#
#
# Indices 1 2 3 4 5 6 
#
# 1 65.0651 9.7775 22.8060 0.0000 -4.9902 0.0000
# 2 9.7775 124.4390 65.3360 0.0000 -1.0843 0.0000
# 3 22.8060 65.3360 154.7293 0.0000 -10.1241 0.0000
# 4 0.0000 0.0000 0.0000 35.2909 0.0000 1.4865
# 5 -4.9902 -1.0843 -10.1241 0.0000 38.1006 0.0000
# 6 0.0000 0.0000 0.0000 1.4865 0.0000 22.3456
#
#
#
# Elastic Compliance Matrix: (Units=1/GPa)
#
#
# Indices 1 2 3 4 5 6 
#
# 1 0.016293 -0.000075 -0.002270 0.000000 0.001529 0.000000
# 2 -0.000075 0.010355 -0.004419 0.000000 -0.000890 0.000000
# 3 -0.002270 -0.004419 0.008789 0.000000 0.001912 0.000000
# 4 0.000000 0.000000 0.000000 0.028416 0.000000 -0.001890
# 5 0.001529 -0.000890 0.001912 0.000000 0.026929 0.000000
# 6 0.000000 0.000000 0.000000 -0.001890 0.000000 0.044877
#
#
# Mechanical properties :
#
#
# Convention : Reuss Voigt Hill
#
# Bulk Modulus (GPa) = 45.64559 60.00806 52.82682
# Shear Modulus (GPa) = 31.95085 35.56834 33.75959
#
# Velocity S-wave (km/s) = 3.82559 4.03635 3.93238
# Velocity P-wave (km/s) = 6.35779 7.01495 6.69444
#
# Compressibility (1/GPa) = 0.02190792
#
# Stress axis : x y z
#
# Youngs Moduli (GPa) = 61.37476 96.57499 113.78192
#
# Poissons Ratio (x) = 0.00726 0.25826
# Poissons Ratio (y) = 0.00461 0.50286
# Poissons Ratio (z) = 0.13931 0.42681
#
# Static dielectric constant tensor:
#      x y z
#    x 1.795800 0.000000 0.015600 
#    y 0.000000 1.746080 0.000000 
#    z 0.015600 0.000000 1.790000 
# 
# From -- ./inp_files/42030.got.cif
#   From: 2010.05.17/outbox.cif.g08.bks.cpg/sg14_22_cif.got.tgz:42030.got - 2010.06.03 17:49:19.
