data_PCOD9241639
_publ_section_title
;
Structure prediction by ZEFSAII (Michael W. Deem and Ramdas Pophale) SiO2 
 PCOD9241639
Probable space group: P 21/C
;
_chemical_formula_sum "Si O2"
_cell_formula_units_Z 32
_cell_length_a 18.337747
_cell_length_b 16.642548
_cell_length_c 5.105517
_cell_angle_alpha 90.000000
_cell_angle_beta 86.982637
_cell_angle_gamma 90.000000
_cell_volume 1555.976417
_symmetry_space_group_name_H-M "P 21/C"
_symmetry_group_IT_number 14
_symmetry_cell_setting 'monoclinic'
loop_
_space_group_symop_operation_xyz
x,y,z
-x,1/2+y,1/2-z
-x,-y,-z
x,1/2-y,1/2+z
loop_
_atom_site_type_symbol
_atom_site_label
_atom_site_fract_x
_atom_site_fract_y
_atom_site_fract_z
Si Si1 0.925108 0.929410 0.802634
Si Si2 0.659408 0.201928 0.366140
Si Si3 0.915396 0.041118 0.305644
Si Si4 0.760552 0.056079 0.198768
Si Si5 0.286652 0.468106 0.796556
Si Si6 0.791190 0.807278 0.795386
Si Si7 0.545386 0.528861 0.241997
Si Si8 0.484456 0.204292 0.390712
O O1 0.911879 0.999379 0.589688
O O2 0.866980 0.858496 0.776126
O O3 0.918341 0.968733 0.091233
O O4 0.010367 0.908703 0.741407
O O5 0.677939 0.227374 0.657327
O O6 0.700929 0.123499 0.265368
O O7 0.572055 0.191639 0.364144
O O8 0.841043 0.086760 0.254037
O O9 0.742930 0.984546 0.406997
O O10 0.755468 0.021943 0.908536
O O11 0.270915 0.375878 0.724059
O O12 0.370563 0.497041 0.767622
O O13 0.786676 0.743590 0.561409
O O14 0.500000 0.500000 0.500000
O O15 0.549736 0.624364 0.214654
O O16 0.500000 0.500000 0.000000
O O17 0.465588 0.224652 0.692363
#
# Coordination Sequence:
#
# PCOD9241639 Si02
#       8
#     4   4   4   4   4   4   4   4
#     4  10  20  38  59  92 117 160 211 246 301 362
#     4  10  21  36  56  86 115 150 190 243 312 371
#     4  10  19  36  65  86 121 155 206 257 292 362
#     4  12  21  40  64  91 123 162 201 264 298 379
#     4  12  25  40  63  92 122 162 219 249 321 378
#     4  12  24  40  61  91 135 172 209 265 315 370
#     4  12  25  42  63  91 121 158 206 276 315 364
#     4  10  21  38  59  79 112 155 196 236 304 380
#
# _framework density 20.565863
#
# number of rings (size 3 to 8) (size 9 to 14) (size 15 to 20)
#    0.000    1.000    2.500    5.250    0.000    3.000 
#    0.000    1.250    0.000    0.000    0.000    0.000 
#    0.000    0.000    0.000    0.000    0.000    0.000 
#
# Total GULP energy -178882.659581 kJ/mol
# GULP energy per Si atom -5590.083112 kJ/mol
# Density = 2.051905 g / cm^3
# Si number density = 20.565863 Si / 1000 Ang^3
#
#
#
# Elastic Constant Matrix: (Units=GPa)
#
#
# Indices 1 2 3 4 5 6 
#
# 1 91.8300 0.4743 25.1297 0.0000 9.2425 0.0000
# 2 0.4743 36.2252 -4.8110 0.0000 6.5054 0.0000
# 3 25.1297 -4.8110 93.4665 0.0000 6.4544 0.0000
# 4 0.0000 0.0000 0.0000 33.8073 0.0000 2.2867
# 5 9.2425 6.5054 6.4544 0.0000 22.1574 0.0000
# 6 0.0000 0.0000 0.0000 2.2867 0.0000 37.0809
#
#
#
# Elastic Compliance Matrix: (Units=1/GPa)
#
#
# Indices 1 2 3 4 5 6 
#
# 1 0.012126 0.000214 -0.002955 0.000000 -0.004260 0.000000
# 2 0.000214 0.029568 0.002113 0.000000 -0.009386 0.000000
# 3 -0.002955 0.002113 0.011797 0.000000 -0.002824 0.000000
# 4 0.000000 0.000000 0.000000 0.029703 0.000000 -0.001832
# 5 -0.004260 -0.009386 -0.002824 0.000000 0.050487 0.000000
# 6 0.000000 0.000000 0.000000 -0.001832 0.000000 0.027081
#
#
# Mechanical properties :
#
#
# Convention : Reuss Voigt Hill
#
# Bulk Modulus (GPa) = 19.14443 29.23419 24.18931
# Shear Modulus (GPa) = 27.86576 31.99105 29.92841
#
# Velocity S-wave (km/s) = 3.68496 3.94831 3.81891
# Velocity P-wave (km/s) = 5.23778 5.91873 5.58863
#
# Compressibility (1/GPa) = 0.05223453
#
# Stress axis : x y z
#
# Youngs Moduli (GPa) = 82.46733 33.81989 84.76521
#
# Poissons Ratio (x) = -0.00723 0.25049
# Poissons Ratio (y) = -0.01763 -0.17908
# Poissons Ratio (z) = 0.24369 -0.07145
#
# Static dielectric constant tensor:
#      x y z
#    x 1.781380 0.000000 -0.002150 
#    y 0.000000 1.721110 0.000000 
#    z -0.002150 0.000000 1.716530 
# 
# From -- ./inp_files/4187.got.cif
#   From: 2010.05.17/outbox.cif.g08.bks.cpg/sg14_3_cif.got.tgz:4187.got - 2010.06.03 17:49:19.
