data_PCOD9241333
_publ_section_title
;
Structure prediction by ZEFSAII (Michael W. Deem and Ramdas Pophale) SiO2 
 PCOD9241333
Probable space group: P 21/C
;
_chemical_formula_sum "Si O2"
_cell_formula_units_Z 32
_cell_length_a 13.397292
_cell_length_b 22.219056
_cell_length_c 13.811314
_cell_angle_alpha 90.000000
_cell_angle_beta 20.879618
_cell_angle_gamma 90.000000
_cell_volume 1465.285342
_symmetry_space_group_name_H-M "P 21/C"
_symmetry_group_IT_number 14
_symmetry_cell_setting 'monoclinic'
loop_
_space_group_symop_operation_xyz
x,y,z
-x,1/2+y,1/2-z
-x,-y,-z
x,1/2-y,1/2+z
loop_
_atom_site_type_symbol
_atom_site_label
_atom_site_fract_x
_atom_site_fract_y
_atom_site_fract_z
Si Si1 0.076846 0.219541 0.916372
Si Si2 0.647636 0.979915 0.072414
Si Si3 0.631052 0.117427 0.054819
Si Si4 0.486593 0.174030 0.380533
Si Si5 0.949423 0.453833 0.958792
Si Si6 0.970240 0.605173 0.430438
Si Si7 0.054479 0.355134 0.000912
Si Si8 0.438822 0.430765 0.055330
O O1 0.243525 0.204611 0.665717
O O2 0.131615 0.173580 0.957257
O O3 0.115835 0.287058 0.915577
O O4 0.758677 0.205234 0.177974
O O5 0.314255 0.971345 0.369022
O O6 0.712135 0.051340 0.021930
O O7 0.774969 0.957668 0.855705
O O8 0.799036 0.936498 0.012212
O O9 0.541616 0.166794 0.216642
O O10 0.346881 0.110376 0.251219
O O11 0.873828 0.139777 0.762815
O O12 0.457424 0.104233 0.438593
O O13 0.901138 0.389460 0.052372
O O14 0.000000 0.500000 0.000000
O O15 0.872511 0.578026 0.622150
O O16 0.304309 0.599326 0.115989
O O17 0.500000 0.500000 0.000000
#
# Coordination Sequence:
#
# PCOD9241333 Si02
#       8
#     4   4   4   4   4   4   4   4
#     4  10  23  46  62  88 134 170 216 251 317 393
#     4  12  23  40  66  99 131 157 218 270 319 393
#     4  12  23  40  67  98 124 161 215 271 321 374
#     4  10  22  40  65  92 126 164 211 264 306 386
#     4  12  23  43  64  91 130 168 210 268 329 377
#     4  10  22  38  61  90 127 166 199 262 311 368
#     4  12  25  43  67  88 129 177 212 266 321 372
#     4  10  19  35  60  91 127 164 199 243 321 378
#
# _framework density 21.838747999999999
#
# number of rings (size 3 to 8) (size 9 to 14) (size 15 to 20)
#    0.000    1.000    2.500    4.500    0.000    3.000 
#    6.750    0.000    0.000    0.000    0.000    0.000 
#    0.000    0.000    0.000    0.000    0.000    0.000 
#
# Total GULP energy -178537.469186 kJ/mol
# GULP energy per Si atom -5579.295912 kJ/mol
# Density = 2.178904 g / cm^3
# Si number density = 21.838748 Si / 1000 Ang^3
#
#
#
# Elastic Constant Matrix: (Units=GPa)
#
#
# Indices 1 2 3 4 5 6 
#
# 1 40.0276 13.5242 -4.4729 0.0000 11.1359 0.0000
# 2 13.5242 132.6888 11.0597 0.0000 19.1984 0.0000
# 3 -4.4729 11.0597 86.6943 0.0000 6.7969 0.0000
# 4 0.0000 0.0000 0.0000 23.4579 0.0000 -0.3675
# 5 11.1359 19.1984 6.7969 0.0000 33.7981 0.0000
# 6 0.0000 0.0000 0.0000 -0.3675 0.0000 24.7180
#
#
#
# Elastic Compliance Matrix: (Units=1/GPa)
#
#
# Indices 1 2 3 4 5 6 
#
# 1 0.028302 -0.001814 0.002379 0.000000 -0.008773 0.000000
# 2 -0.001814 0.008369 -0.000849 0.000000 -0.003985 0.000000
# 3 0.002379 -0.000849 0.011978 0.000000 -0.002711 0.000000
# 4 0.000000 0.000000 0.000000 0.042639 0.000000 0.000634
# 5 -0.008773 -0.003985 -0.002711 0.000000 0.035287 0.000000
# 6 0.000000 0.000000 0.000000 0.000634 0.000000 0.040466
#
#
# Mechanical properties :
#
#
# Convention : Reuss Voigt Hill
#
# Bulk Modulus (GPa) = 20.79717 33.29250 27.04483
# Shear Modulus (GPa) = 27.22789 32.34812 29.78800
#
# Velocity S-wave (km/s) = 3.53479 3.85284 3.69724
# Velocity P-wave (km/s) = 5.11893 5.92202 5.53506
#
# Compressibility (1/GPa) = 0.04808347
#
# Stress axis : x y z
#
# Youngs Moduli (GPa) = 35.33291 119.49344 83.48402
#
# Poissons Ratio (x) = 0.21671 -0.19864
# Poissons Ratio (y) = 0.06408 0.07085
# Poissons Ratio (z) = -0.08407 0.10142
#
# Static dielectric constant tensor:
#      x y z
#    x 1.836360 0.000000 0.008140 
#    y 0.000000 1.788060 0.000000 
#    z 0.008140 0.000000 1.786650 
# 
# From -- ./inp_files/47656.got.cif
#   From: 2010.05.17/outbox.cif.g08.bks.cpg/sg14_24_cif.got.tgz:47656.got - 2010.06.03 17:49:19.
