data_PCOD9241442
_publ_section_title
;
Structure prediction by ZEFSAII (Michael W. Deem and Ramdas Pophale) SiO2 
 PCOD9241442
Probable space group: P 21/C
;
_chemical_formula_sum "Si O2"
_cell_formula_units_Z 20
_cell_length_a 7.231405
_cell_length_b 11.778272
_cell_length_c 12.582847
_cell_angle_alpha 90.000000
_cell_angle_beta 46.962901
_cell_angle_gamma 90.000000
_cell_volume 783.336288
_symmetry_space_group_name_H-M "P 21/C"
_symmetry_group_IT_number 14
_symmetry_cell_setting 'monoclinic'
loop_
_space_group_symop_operation_xyz
x,y,z
-x,1/2+y,1/2-z
-x,-y,-z
x,1/2-y,1/2+z
loop_
_atom_site_type_symbol
_atom_site_label
_atom_site_fract_x
_atom_site_fract_y
_atom_site_fract_z
Si Si1 0.066663 0.312708 0.897669
Si Si2 0.301985 0.125227 0.684795
Si Si3 0.740530 0.370064 0.436957
Si Si4 0.551204 0.710050 0.089344
Si Si5 0.534394 0.968743 0.762731
O O1 0.242521 0.256525 0.736198
O O2 0.163557 0.441773 0.853418
O O3 0.173440 0.266128 0.967747
O O4 0.809557 0.249663 0.971457
O O5 0.410369 0.125440 0.524911
O O6 0.463572 0.074566 0.717641
O O7 0.014822 0.076697 0.802923
O O8 0.597555 0.320273 0.390634
O O9 0.592740 0.452552 0.573677
O O10 0.428288 0.635571 0.230586
#
# Coordination Sequence:
#
# PCOD9241442 Si02
#       5
#     4   4   4   4   4
#     4   8  22  32  58  78 114 140 176 228 264 312
#     4  10  20  37  57  81 111 141 179 227 266 315
#     4  10  19  36  57  78 108 146 177 220 270 317
#     4  10  19  36  57  78 108 146 177 220 270 317
#     4  10  20  37  57  81 111 141 179 227 266 315
#
# _framework density 25.53182
#
# number of rings (size 3 to 8) (size 9 to 14) (size 15 to 20)
#    2.400    0.000    2.000    1.200    2.800    0.000 
#    0.000    4.000    0.000    0.000    0.000    0.000 
#    0.000    0.000    0.000    0.000    0.000    0.000 
#
# Total GULP energy -111346.032070 kJ/mol
# GULP energy per Si atom -5567.301604 kJ/mol
# Density = 2.547371 g / cm^3
# Si number density = 25.531820 Si / 1000 Ang^3
#
#
#
# Elastic Constant Matrix: (Units=GPa)
#
#
# Indices 1 2 3 4 5 6 
#
# 1 82.9933 16.1430 4.8196 0.0000 24.1107 0.0000
# 2 16.1430 41.8061 7.2297 0.0000 -8.5027 0.0000
# 3 4.8196 7.2297 56.2189 0.0000 16.1910 0.0000
# 4 0.0000 0.0000 0.0000 28.9128 0.0000 11.8801
# 5 24.1107 -8.5027 16.1910 0.0000 38.0585 0.0000
# 6 0.0000 0.0000 0.0000 11.8801 0.0000 31.2782
#
#
#
# Elastic Compliance Matrix: (Units=1/GPa)
#
#
# Indices 1 2 3 4 5 6 
#
# 1 0.018742 -0.011351 0.004562 0.000000 -0.016350 0.000000
# 2 -0.011351 0.033527 -0.008623 0.000000 0.018350 0.000000
# 3 0.004562 -0.008623 0.022670 0.000000 -0.014461 0.000000
# 4 0.000000 0.000000 0.000000 0.040983 0.000000 -0.015566
# 5 -0.016350 0.018350 -0.014461 0.000000 0.046885 0.000000
# 6 0.000000 0.000000 0.000000 -0.015566 0.000000 0.037884
#
#
# Mechanical properties :
#
#
# Convention : Reuss Voigt Hill
#
# Bulk Modulus (GPa) = 22.66872 26.37810 24.52341
# Shear Modulus (GPa) = 20.30703 29.83830 25.07266
#
# Velocity S-wave (km/s) = 2.82328 3.42229 3.13711
# Velocity P-wave (km/s) = 4.41879 5.09608 4.76947
#
# Compressibility (1/GPa) = 0.04411365
#
# Stress axis : x y z
#
# Youngs Moduli (GPa) = 53.35568 29.82713 44.11070
#
# Poissons Ratio (x) = 0.33858 -0.20123
# Poissons Ratio (y) = 0.60566 0.38037
# Poissons Ratio (z) = -0.24340 0.25720
#
# Static dielectric constant tensor:
#      x y z
#    x 2.081390 0.000000 -0.008790 
#    y 0.000000 2.084780 0.000000 
#    z -0.008790 0.000000 1.966360 
# 
# From -- ./inp_files/24455.got.cif
#   From: 2010.05.17/outbox.cif.g08.bks.cpg/sg14_13_cif.got.tgz:24455.got - 2010.06.03 17:49:19.
