data_PCOD9241185
_publ_section_title
;
Structure prediction by ZEFSAII (Michael W. Deem and Ramdas Pophale) SiO2 
 PCOD9241185
Probable space group: P 21/C
;
_chemical_formula_sum "Si O2"
_cell_formula_units_Z 26
_cell_length_a 4.994650
_cell_length_b 17.460645
_cell_length_c 15.729675
_cell_angle_alpha 90.000000
_cell_angle_beta 120.268795
_cell_angle_gamma 90.000000
_cell_volume 1184.767219
_symmetry_space_group_name_H-M "P 21/C"
_symmetry_group_IT_number 14
_symmetry_cell_setting 'monoclinic'
loop_
_space_group_symop_operation_xyz
x,y,z
-x,1/2+y,1/2-z
-x,-y,-z
x,1/2-y,1/2+z
loop_
_atom_site_type_symbol
_atom_site_label
_atom_site_fract_x
_atom_site_fract_y
_atom_site_fract_z
Si Si1 0.473244 0.108846 0.732775
Si Si2 0.385159 0.404642 0.403001
Si Si3 0.000000 0.500000 0.500000
Si Si4 0.893406 0.976207 0.824008
Si Si5 0.174439 0.242003 0.597574
Si Si6 0.990286 0.229175 0.883670
Si Si7 0.836799 0.321299 0.699955
O O1 0.283167 0.089309 0.787911
O O2 0.286564 0.154728 0.632809
O O3 0.720817 0.170811 0.809586
O O4 0.654941 0.031281 0.738129
O O5 0.299890 0.321160 0.420787
O O6 0.737532 0.427080 0.467782
O O7 0.150573 0.465156 0.412399
O O8 0.247670 0.455180 0.607313
O O9 0.055794 0.907705 0.803147
O O10 0.983242 0.247335 0.480135
O O11 0.993981 0.269207 0.652251
O O12 0.480409 0.295210 0.641984
O O13 0.970519 0.297656 0.813537
#
# Coordination Sequence:
#
# PCOD9241185 Si02
#       7
#     4   4   2   4   4   4   4
#     4   9  21  40  58  85 120 161 201 247 305 366
#     4  10  19  35  54  82 123 152 194 245 310 363
#     4  10  20  30  54  86 116 154 192 238 320 366
#     4  10  22  34  55  85 121 157 195 259 300 362
#     4  11  24  40  64  88 122 164 202 251 307 358
#     4  10  22  40  60  86 123 161 208 249 300 367
#     4  11  25  39  62  94 122 157 211 252 301 364
#
# _framework density 21.945238
#
# number of rings (size 3 to 8) (size 9 to 14) (size 15 to 20)
#    0.000    1.846    1.538    1.385   12.923    0.000 
#    0.000    0.769    0.000    0.923    0.000    0.000 
#    0.000    0.000    0.000    0.000    0.000    0.000 
#
# Total GULP energy -144874.618376 kJ/mol
# GULP energy per Si atom -5572.100707 kJ/mol
# Density = 2.189529 g / cm^3
# Si number density = 21.945238 Si / 1000 Ang^3
#
#
#
# Elastic Constant Matrix: (Units=GPa)
#
#
# Indices 1 2 3 4 5 6 
#
# 1 79.8722 9.4560 12.2391 0.0000 -8.0803 0.0000
# 2 9.4560 83.2675 30.9308 0.0000 -6.5738 0.0000
# 3 12.2391 30.9308 100.8433 0.0000 -11.4767 0.0000
# 4 0.0000 0.0000 0.0000 36.1973 0.0000 -8.7694
# 5 -8.0803 -6.5738 -11.4767 0.0000 16.9111 0.0000
# 6 0.0000 0.0000 0.0000 -8.7694 0.0000 26.9508
#
#
#
# Elastic Compliance Matrix: (Units=1/GPa)
#
#
# Indices 1 2 3 4 5 6 
#
# 1 0.013288 -0.000798 -0.000738 0.000000 0.005538 0.000000
# 2 -0.000798 0.013712 -0.003843 0.000000 0.002341 0.000000
# 3 -0.000738 -0.003843 0.011893 0.000000 0.006225 0.000000
# 4 0.000000 0.000000 0.000000 0.029990 0.000000 0.009758
# 5 0.005538 0.002341 0.006225 0.000000 0.066914 0.000000
# 6 0.000000 0.000000 0.000000 0.009758 0.000000 0.040280
#
#
# Mechanical properties :
#
#
# Convention : Reuss Voigt Hill
#
# Bulk Modulus (GPa) = 35.54039 41.02609 38.28324
# Shear Modulus (GPa) = 25.48264 30.10232 27.79248
#
# Velocity S-wave (km/s) = 3.41132 3.70767 3.56258
# Velocity P-wave (km/s) = 5.63439 6.08805 5.86561
#
# Compressibility (1/GPa) = 0.02813700
#
# Stress axis : x y z
#
# Youngs Moduli (GPa) = 75.25717 72.92727 84.08338
#
# Poissons Ratio (x) = 0.05817 0.06203
# Poissons Ratio (y) = 0.06003 0.32310
# Poissons Ratio (z) = 0.05552 0.28023
#
# Static dielectric constant tensor:
#      x y z
#    x 2.051420 0.000000 -0.153120 
#    y 0.000000 1.953230 0.000000 
#    z -0.153120 0.000000 1.930840 
# 
# From -- ./inp_files/21254.got.cif
#   From: 2010.05.17/outbox.cif.g08.bks.cpg/sg14_11_cif.got.tgz:21254.got - 2010.06.03 17:49:19.
