data_PCOD9241066
_publ_section_title
;
Structure prediction by ZEFSAII (Michael W. Deem and Ramdas Pophale) SiO2 
 PCOD9241066
Probable space group: P 21/C
;
_chemical_formula_sum "Si O2"
_cell_formula_units_Z 24
_cell_length_a 13.583022
_cell_length_b 7.805224
_cell_length_c 17.742335
_cell_angle_alpha 90.000000
_cell_angle_beta 149.750043
_cell_angle_gamma 90.000000
_cell_volume 947.605824
_symmetry_space_group_name_H-M "P 21/C"
_symmetry_group_IT_number 14
_symmetry_cell_setting 'monoclinic'
loop_
_space_group_symop_operation_xyz
x,y,z
-x,1/2+y,1/2-z
-x,-y,-z
x,1/2-y,1/2+z
loop_
_atom_site_type_symbol
_atom_site_label
_atom_site_fract_x
_atom_site_fract_y
_atom_site_fract_z
Si Si1 0.832333 0.996728 0.140561
Si Si2 0.599026 0.547337 0.909149
Si Si3 0.131187 0.216503 0.620590
Si Si4 0.443416 0.841254 0.160083
Si Si5 0.228614 0.119385 0.333875
Si Si6 0.010929 0.634554 0.118792
O O1 0.832288 0.135182 0.209733
O O2 0.044513 0.010419 0.242512
O O3 0.796325 0.816974 0.156142
O O4 0.680617 0.035790 0.974798
O O5 0.622632 0.350203 0.901789
O O6 0.437244 0.619733 0.744879
O O7 0.589337 0.563007 0.992796
O O8 0.800159 0.642867 0.019202
O O9 0.333356 0.145534 0.719592
O O10 0.198079 0.361196 0.723945
O O11 0.997898 0.257677 0.459450
O O12 0.031277 0.057199 0.597357
#
# Coordination Sequence:
#
# PCOD9241066 Si02
#       6
#     4   4   4   4   4   4
#     4  10  19  34  57  80 107 147 187 219 263 326
#     4  10  21  37  56  78 110 148 181 219 272 331
#     4   9  18  33  55  81 111 141 179 227 267 310
#     4  11  21  35  57  82 109 141 183 229 270 317
#     4  10  20  36  57  80 110 146 183 220 268 327
#     4   8  17  34  54  76 109 150 181 209 264 335
#
# _framework density 25.326988
#
# number of rings (size 3 to 8) (size 9 to 14) (size 15 to 20)
#    0.000    2.333    0.000    4.000    0.000    3.333 
#    0.000    3.333    0.000   32.000    0.000    0.000 
#    0.000    0.000    0.000    0.000    0.000    0.000 
#
# Total GULP energy -133976.057729 kJ/mol
# GULP energy per Si atom -5582.335739 kJ/mol
# Density = 2.526934 g / cm^3
# Si number density = 25.326988 Si / 1000 Ang^3
#
#
#
# Elastic Constant Matrix: (Units=GPa)
#
#
# Indices 1 2 3 4 5 6 
#
# 1 97.8408 -8.3140 27.4122 0.0000 -26.0693 0.0000
# 2 -8.3140 119.5073 78.2573 0.0000 -63.2402 0.0000
# 3 27.4122 78.2573 198.6595 0.0000 -110.0402 0.0000
# 4 0.0000 0.0000 0.0000 38.4487 0.0000 -10.7926
# 5 -26.0693 -63.2402 -110.0402 0.0000 103.1983 0.0000
# 6 0.0000 0.0000 0.0000 -10.7926 0.0000 18.5481
#
#
#
# Elastic Compliance Matrix: (Units=1/GPa)
#
#
# Indices 1 2 3 4 5 6 
#
# 1 0.011927 0.003645 -0.000429 0.000000 0.004789 0.000000
# 2 0.003645 0.013722 -0.001809 0.000000 0.007401 0.000000
# 3 -0.000429 -0.001809 0.012535 0.000000 0.012149 0.000000
# 4 0.000000 0.000000 0.000000 0.031086 0.000000 0.018088
# 5 0.004789 0.007401 0.012149 0.000000 0.028390 0.000000
# 6 0.000000 0.000000 0.000000 0.018088 0.000000 0.064439
#
#
# Mechanical properties :
#
#
# Convention : Reuss Voigt Hill
#
# Bulk Modulus (GPa) = 24.39145 67.85762 46.12453
# Shear Modulus (GPa) = 28.90991 53.28251 41.09621
#
# Velocity S-wave (km/s) = 3.38223 4.59168 4.03255
# Velocity P-wave (km/s) = 4.99040 7.41364 6.31927
#
# Compressibility (1/GPa) = 0.04099797
#
# Stress axis : x y z
#
# Youngs Moduli (GPa) = 83.84642 72.87495 79.77477
#
# Poissons Ratio (x) = -0.26561 0.03419
# Poissons Ratio (y) = -0.30560 0.14433
# Poissons Ratio (z) = 0.03594 0.13184
#
# Static dielectric constant tensor:
#      x y z
#    x 2.052290 0.000000 -0.068120 
#    y 0.000000 2.018750 0.000000 
#    z -0.068120 0.000000 2.095000 
# 
# From -- ./inp_files/59132.got.cif
#   From: 2010.05.17/outbox.cif.g08.bks.cpg/sg14_30_cif.got.tgz:59132.got - 2010.06.03 17:49:19.
