data_PCOD9241252
_publ_section_title
;
Structure prediction by ZEFSAII (Michael W. Deem and Ramdas Pophale) SiO2 
 PCOD9241252
Probable space group: P 21/C
;
_chemical_formula_sum "Si O2"
_cell_formula_units_Z 32
_cell_length_a 11.835029
_cell_length_b 9.319862
_cell_length_c 15.706971
_cell_angle_alpha 90.000000
_cell_angle_beta 55.792000
_cell_angle_gamma 90.000000
_cell_volume 1432.774536
_symmetry_space_group_name_H-M "P 21/C"
_symmetry_group_IT_number 14
_symmetry_cell_setting 'monoclinic'
loop_
_space_group_symop_operation_xyz
x,y,z
-x,1/2+y,1/2-z
-x,-y,-z
x,1/2-y,1/2+z
loop_
_atom_site_type_symbol
_atom_site_label
_atom_site_fract_x
_atom_site_fract_y
_atom_site_fract_z
Si Si1 0.411753 0.430985 0.267057
Si Si2 0.866453 0.646064 0.689511
Si Si3 0.082360 0.821944 0.823088
Si Si4 0.614452 0.265436 0.775441
Si Si5 0.435172 0.181678 0.001410
Si Si6 0.120906 0.818396 0.600832
Si Si7 0.822927 0.859039 0.412500
Si Si8 0.634798 0.107341 0.040144
O O1 0.276625 0.344577 0.298218
O O2 0.427588 0.566124 0.196977
O O3 0.534727 0.323783 0.236631
O O4 0.380491 0.525680 0.364780
O O5 0.927895 0.487951 0.645629
O O6 0.840805 0.645804 0.802070
O O7 0.976084 0.768355 0.624759
O O8 0.222462 0.761031 0.803260
O O9 0.106597 0.814106 0.710254
O O10 0.944101 0.737043 0.899792
O O11 0.563533 0.191722 0.883566
O O12 0.326275 0.294097 0.013189
O O13 0.500333 0.195308 0.066993
O O14 0.361099 0.028217 0.026196
O O15 0.234981 0.706734 0.523072
O O16 0.161929 0.979690 0.562203
#
# Coordination Sequence:
#
# PCOD9241252 Si02
#       8
#     4   4   4   4   4   4   4   4
#     4  10  23  37  57  87 116 163 191 242 300 359
#     4   9  20  37  56  83 120 154 192 236 305 350
#     4   9  18  38  56  83 115 154 189 245 289 346
#     4  10  21  40  60  83 123 152 196 239 298 349
#     4  10  21  38  59  88 115 155 196 248 283 350
#     4  10  19  35  57  88 114 150 195 246 288 346
#     4  10  21  34  62  91 113 145 202 252 294 331
#     4  10  21  37  58  85 117 156 199 230 301 353
#
# _framework density 22.334287
#
# number of rings (size 3 to 8) (size 9 to 14) (size 15 to 20)
#    0.000    2.250    1.250    0.750    1.750    4.000 
#    0.000    1.250    0.000    6.750    0.000    0.000 
#    0.000    0.000    0.000    0.000    0.000    0.000 
#
# Total GULP energy -178728.171972 kJ/mol
# GULP energy per Si atom -5585.255374 kJ/mol
# Density = 2.228345 g / cm^3
# Si number density = 22.334287 Si / 1000 Ang^3
#
#
#
# Elastic Constant Matrix: (Units=GPa)
#
#
# Indices 1 2 3 4 5 6 
#
# 1 147.0277 30.1165 15.5390 0.0000 -7.2263 0.0000
# 2 30.1165 41.4965 8.7151 0.0000 -3.2150 0.0000
# 3 15.5390 8.7151 21.9377 0.0000 -8.1820 0.0000
# 4 0.0000 0.0000 0.0000 18.3037 0.0000 -2.6880
# 5 -7.2263 -3.2150 -8.1820 0.0000 18.8667 0.0000
# 6 0.0000 0.0000 0.0000 -2.6880 0.0000 37.9533
#
#
#
# Elastic Compliance Matrix: (Units=1/GPa)
#
#
# Indices 1 2 3 4 5 6 
#
# 1 0.008277 -0.005211 -0.003509 0.000000 0.000761 0.000000
# 2 -0.005211 0.029573 -0.008258 0.000000 -0.000538 0.000000
# 3 -0.003509 -0.008258 0.060033 0.000000 0.023284 0.000000
# 4 0.000000 0.000000 0.000000 0.055208 0.000000 0.003910
# 5 0.000761 -0.000538 0.023284 0.000000 0.063301 0.000000
# 6 0.000000 0.000000 0.000000 0.003910 0.000000 0.026625
#
#
# Mechanical properties :
#
#
# Convention : Reuss Voigt Hill
#
# Bulk Modulus (GPa) = 15.64259 35.46700 25.55480
# Shear Modulus (GPa) = 16.76263 25.43084 21.09674
#
# Velocity S-wave (km/s) = 2.74256 3.37804 3.07675
# Velocity P-wave (km/s) = 4.12891 5.57938 4.90802
#
# Compressibility (1/GPa) = 0.06392804
#
# Stress axis : x y z
#
# Youngs Moduli (GPa) = 120.81465 33.81443 16.65737
#
# Poissons Ratio (x) = 0.17622 0.05845
# Poissons Ratio (y) = 0.62961 0.13755
# Poissons Ratio (z) = 0.42393 0.27923
#
# Static dielectric constant tensor:
#      x y z
#    x 1.856460 0.000000 0.048370 
#    y 0.000000 1.846760 0.000000 
#    z 0.048370 0.000000 1.850300 
# 
# From -- ./inp_files/57266.got.cif
#   From: 2010.05.17/outbox.cif.g08.bks.cpg/sg14_29_cif.got.tgz:57266.got - 2010.06.03 17:49:19.
