data_PCOD9241676
_publ_section_title
;
Structure prediction by ZEFSAII (Michael W. Deem and Ramdas Pophale) SiO2 
 PCOD9241676
Probable space group: P 21/C
;
_chemical_formula_sum "Si O2"
_cell_formula_units_Z 28
_cell_length_a 7.135756
_cell_length_b 8.541925
_cell_length_c 28.357292
_cell_angle_alpha 90.000000
_cell_angle_beta 53.263894
_cell_angle_gamma 90.000000
_cell_volume 1385.189631
_symmetry_space_group_name_H-M "P 21/C"
_symmetry_group_IT_number 14
_symmetry_cell_setting 'monoclinic'
loop_
_space_group_symop_operation_xyz
x,y,z
-x,1/2+y,1/2-z
-x,-y,-z
x,1/2-y,1/2+z
loop_
_atom_site_type_symbol
_atom_site_label
_atom_site_fract_x
_atom_site_fract_y
_atom_site_fract_z
Si Si1 0.292215 0.054139 0.921757
Si Si2 0.983748 0.084614 0.223281
Si Si3 0.355695 0.304607 0.591435
Si Si4 0.718434 0.757973 0.253242
Si Si5 0.508129 0.774120 0.682666
Si Si6 0.623856 0.397392 0.120438
Si Si7 0.077582 0.293350 0.539356
O O1 0.444931 0.125206 0.856980
O O2 0.447262 0.937252 0.930287
O O3 0.193803 0.188640 0.970717
O O4 0.078684 0.952256 0.933179
O O5 0.759228 0.195080 0.263811
O O6 0.135174 0.140669 0.156083
O O7 0.145369 0.112483 0.244634
O O8 0.883193 0.910805 0.233161
O O9 0.468430 0.150852 0.598529
O O10 0.268332 0.284580 0.551679
O O11 0.648627 0.735829 0.210118
O O12 0.491652 0.794343 0.319748
O O13 0.592312 0.925623 0.640871
O O14 0.889084 0.344929 0.072226
#
# Coordination Sequence:
#
# PCOD9241676 Si02
#       7
#     4   4   4   4   4   4   4
#     4  10  22  36  59  87 108 143 195 228 268 335
#     4  10  21  35  56  83 111 143 184 224 276 338
#     4  10  19  37  58  80 110 147 185 231 274 322
#     4  10  21  36  56  81 112 145 178 227 278 330
#     4  11  22  37  55  84 116 145 181 230 280 330
#     4   9  22  36  54  82 111 145 188 223 276 340
#     4  10  20  39  59  79 111 149 186 233 275 315
#
# _framework density 20.213837999999999
#
# number of rings (size 3 to 8) (size 9 to 14) (size 15 to 20)
#    0.000    2.000    0.000    3.000    0.000   12.000 
#    0.000    0.714    0.000    0.000    0.000    0.000 
#    0.000    0.000    0.000    0.000    0.000    0.000 
#
# Total GULP energy -156482.691242 kJ/mol
# GULP energy per Si atom -5588.667544 kJ/mol
# Density = 2.016783 g / cm^3
# Si number density = 20.213838 Si / 1000 Ang^3
#
#
#
# Elastic Constant Matrix: (Units=GPa)
#
#
# Indices 1 2 3 4 5 6 
#
# 1 110.7838 31.4732 19.8208 0.0000 13.3906 0.0000
# 2 31.4732 40.1844 11.8703 0.0000 -0.5529 0.0000
# 3 19.8208 11.8703 33.5005 0.0000 -5.5523 0.0000
# 4 0.0000 0.0000 0.0000 29.7678 0.0000 -6.5598
# 5 13.3906 -0.5529 -5.5523 0.0000 25.4184 0.0000
# 6 0.0000 0.0000 0.0000 -6.5598 0.0000 19.2139
#
#
#
# Elastic Compliance Matrix: (Units=1/GPa)
#
#
# Indices 1 2 3 4 5 6 
#
# 1 0.013824 -0.009045 -0.006447 0.000000 -0.008888 0.000000
# 2 -0.009045 0.033776 -0.005919 0.000000 0.004207 0.000000
# 3 -0.006447 -0.005919 0.037667 0.000000 0.011496 0.000000
# 4 0.000000 0.000000 0.000000 0.036326 0.000000 0.012402
# 5 -0.008888 0.004207 0.011496 0.000000 0.046626 0.000000
# 6 0.000000 0.000000 0.000000 0.012402 0.000000 0.056280
#
#
# Mechanical properties :
#
#
# Convention : Reuss Voigt Hill
#
# Bulk Modulus (GPa) = 23.56005 34.53304 29.04655
# Shear Modulus (GPa) = 17.76385 22.96697 20.36541
#
# Velocity S-wave (km/s) = 2.96767 3.37441 3.17756
# Velocity P-wave (km/s) = 4.83978 5.68359 5.27857
#
# Compressibility (1/GPa) = 0.04244473
#
# Stress axis : x y z
#
# Youngs Moduli (GPa) = 72.33790 29.60693 26.54818
#
# Poissons Ratio (x) = 0.26780 0.17116
# Poissons Ratio (y) = 0.65430 0.15714
# Poissons Ratio (z) = 0.46637 0.17524
#
# Static dielectric constant tensor:
#      x y z
#    x 1.694380 0.000000 -0.017280 
#    y 0.000000 1.726570 0.000000 
#    z -0.017280 0.000000 1.712780 
# 
# From -- ./inp_files/78757.got.cif
#   From: 2010.05.17/outbox.cif.g08.bks.cpg/sg14_40_cif.got.tgz:78757.got - 2010.06.03 17:49:19.
