data_PCOD9241668
_publ_section_title
;
Structure prediction by ZEFSAII (Michael W. Deem and Ramdas Pophale) SiO2 
 PCOD9241668
Probable space group: P 21/C
;
_chemical_formula_sum "Si O2"
_cell_formula_units_Z 28
_cell_length_a 14.125659
_cell_length_b 8.034197
_cell_length_c 14.529533
_cell_angle_alpha 90.000000
_cell_angle_beta 139.094106
_cell_angle_gamma 90.000000
_cell_volume 1079.751544
_symmetry_space_group_name_H-M "P 21/C"
_symmetry_group_IT_number 14
_symmetry_cell_setting 'monoclinic'
loop_
_space_group_symop_operation_xyz
x,y,z
-x,1/2+y,1/2-z
-x,-y,-z
x,1/2-y,1/2+z
loop_
_atom_site_type_symbol
_atom_site_label
_atom_site_fract_x
_atom_site_fract_y
_atom_site_fract_z
Si Si1 0.007551 0.789348 0.307537
Si Si2 0.166929 0.506815 0.774384
Si Si3 0.828352 0.031817 0.287029
Si Si4 0.502146 0.760529 0.842963
Si Si5 0.185838 0.855170 0.100711
Si Si6 0.626649 0.874665 0.274096
Si Si7 0.583702 0.248762 0.523237
O O1 0.870849 0.667708 0.208170
O O2 0.958389 0.954151 0.326328
O O3 0.068941 0.855419 0.256563
O O4 0.119079 0.678307 0.451304
O O5 0.145692 0.505438 0.647610
O O6 0.325938 0.579797 0.907321
O O7 0.764098 0.895103 0.310109
O O8 0.858042 0.189716 0.373651
O O9 0.699740 0.101848 0.126404
O O10 0.360029 0.645078 0.720886
O O11 0.635995 0.702647 0.881113
O O12 0.520035 0.761503 0.965105
O O13 0.441821 0.941383 0.771289
O O14 0.507294 0.766476 0.134105
#
# Coordination Sequence:
#
# PCOD9241668 Si02
#       7
#     4   4   4   4   4   4   4
#     4  12  21  37  56  82 116 145 181 235 278 328
#     4  10  22  36  58  84 107 145 191 224 279 339
#     4   9  20  35  56  83 109 146 188 218 272 342
#     4   9  19  34  58  83 105 144 189 218 275 339
#     4   9  20  39  57  78 111 149 183 230 277 324
#     4  10  19  37  57  78 111 145 180 231 275 323
#     4   9  19  40  56  74 110 150 182 228 276 323
#
# _framework density 25.931891
#
# number of rings (size 3 to 8) (size 9 to 14) (size 15 to 20)
#    0.000    2.857    0.000    5.143    0.000    2.286 
#    0.000   14.286    0.000    0.000    0.000    0.000 
#    0.000    0.000    0.000    0.000    0.000    0.000 
#
# Total GULP energy -156609.367603 kJ/mol
# GULP energy per Si atom -5593.191700 kJ/mol
# Density = 2.587287 g / cm^3
# Si number density = 25.931891 Si / 1000 Ang^3
#
#
#
# Elastic Constant Matrix: (Units=GPa)
#
#
# Indices 1 2 3 4 5 6 
#
# 1 75.5812 -1.4643 8.0305 0.0000 -19.3716 0.0000
# 2 -1.4643 50.6977 -5.0357 0.0000 1.7486 0.0000
# 3 8.0305 -5.0357 76.4943 0.0000 -10.0230 0.0000
# 4 0.0000 0.0000 0.0000 23.8303 0.0000 3.2089
# 5 -19.3716 1.7486 -10.0230 0.0000 20.9969 0.0000
# 6 0.0000 0.0000 0.0000 3.2089 0.0000 40.0187
#
#
#
# Elastic Compliance Matrix: (Units=1/GPa)
#
#
# Indices 1 2 3 4 5 6 
#
# 1 0.017334 -0.000027 0.000293 0.000000 0.016135 0.000000
# 2 -0.000027 0.019878 0.001164 0.000000 -0.001125 0.000000
# 3 0.000293 0.001164 0.014018 0.000000 0.006865 0.000000
# 4 0.000000 0.000000 0.000000 0.042421 0.000000 -0.003402
# 5 0.016135 -0.001125 0.006865 0.000000 0.065882 0.000000
# 6 0.000000 0.000000 0.000000 -0.003402 0.000000 0.025261
#
#
# Mechanical properties :
#
#
# Convention : Reuss Voigt Hill
#
# Bulk Modulus (GPa) = 18.48740 22.87046 20.67893
# Shear Modulus (GPa) = 25.00418 30.38535 27.69476
#
# Velocity S-wave (km/s) = 3.10857 3.42678 3.27154
# Velocity P-wave (km/s) = 4.47537 4.94931 4.71829
#
# Compressibility (1/GPa) = 0.05409088
#
# Stress axis : x y z
#
# Youngs Moduli (GPa) = 57.68843 50.30582 71.33546
#
# Poissons Ratio (x) = 0.00135 -0.02087
# Poissons Ratio (y) = 0.00154 -0.08304
# Poissons Ratio (z) = -0.01688 -0.05856
#
# Static dielectric constant tensor:
#      x y z
#    x 2.017650 0.000000 0.015910 
#    y 0.000000 2.071200 0.000000 
#    z 0.015910 0.000000 2.048900 
# 
# From -- ./inp_files/46539.got.cif
#   From: 2010.05.17/outbox.cif.g08.bks.cpg/sg14_24_cif.got.tgz:46539.got - 2010.06.03 17:49:19.
