data_PCOD9241719
_publ_section_title
;
Structure prediction by ZEFSAII (Michael W. Deem and Ramdas Pophale) SiO2 
 PCOD9241719
Probable space group: P 21/C
;
_chemical_formula_sum "Si O2"
_cell_formula_units_Z 24
_cell_length_a 15.177010
_cell_length_b 8.903453
_cell_length_c 17.734066
_cell_angle_alpha 90.000000
_cell_angle_beta 151.757262
_cell_angle_gamma 90.000000
_cell_volume 1133.979236
_symmetry_space_group_name_H-M "P 21/C"
_symmetry_group_IT_number 14
_symmetry_cell_setting 'monoclinic'
loop_
_space_group_symop_operation_xyz
x,y,z
-x,1/2+y,1/2-z
-x,-y,-z
x,1/2-y,1/2+z
loop_
_atom_site_type_symbol
_atom_site_label
_atom_site_fract_x
_atom_site_fract_y
_atom_site_fract_z
Si Si1 0.680921 0.826190 0.121312
Si Si2 0.017373 0.920198 0.662433
Si Si3 0.691515 0.304559 0.124478
Si Si4 0.247242 0.572493 0.662774
Si Si5 0.089635 0.247411 0.064127
Si Si6 0.651368 0.559735 0.980581
O O1 0.753193 0.794597 0.259725
O O2 0.702233 0.690128 0.078325
O O3 0.823528 0.955902 0.204849
O O4 0.455366 0.824273 0.960279
O O5 0.120623 0.767513 0.765698
O O6 0.966980 0.874312 0.538217
O O7 0.827060 0.959242 0.559732
O O8 0.735402 0.400240 0.233061
O O9 0.611334 0.412973 0.000767
O O10 0.165135 0.408043 0.583762
O O11 0.093024 0.696340 0.526042
O O12 0.456620 0.595466 0.791990
#
# Coordination Sequence:
#
# PCOD9241719 Si02
#       6
#     4   4   4   4   4   4
#     4  11  20  39  63  83 112 160 196 232 282 355
#     4  11  24  34  55  91 126 138 187 256 301 319
#     4  10  19  38  63  81 109 157 202 229 277 360
#     4   9  18  36  63  81 105 156 203 222 276 362
#     4  10  19  37  60  84 112 156 194 230 282 359
#     4  11  20  39  58  86 114 153 196 243 285 337
#
# _framework density 21.16441
#
# number of rings (size 3 to 8) (size 9 to 14) (size 15 to 20)
#    0.000    1.667    3.333    3.000    0.000    0.000 
#    3.000    0.000    0.000    0.000    0.000    0.000 
#    0.000    0.000    0.000    0.000    0.000    0.000 
#
# Total GULP energy -133718.537101 kJ/mol
# GULP energy per Si atom -5571.605713 kJ/mol
# Density = 2.111624 g / cm^3
# Si number density = 21.164410 Si / 1000 Ang^3
#
#
#
# Elastic Constant Matrix: (Units=GPa)
#
#
# Indices 1 2 3 4 5 6 
#
# 1 49.1869 22.4970 12.6414 0.0000 38.2923 0.0000
# 2 22.4970 44.0025 12.9117 0.0000 15.7685 0.0000
# 3 12.6414 12.9117 90.3265 0.0000 25.3545 0.0000
# 4 0.0000 0.0000 0.0000 32.4074 0.0000 7.7338
# 5 38.2923 15.7685 25.3545 0.0000 40.1516 0.0000
# 6 0.0000 0.0000 0.0000 7.7338 0.0000 17.4859
#
#
#
# Elastic Compliance Matrix: (Units=1/GPa)
#
#
# Indices 1 2 3 4 5 6 
#
# 1 0.108542 -0.022800 0.017760 0.000000 -0.105777 0.000000
# 2 -0.022800 0.031320 -0.004785 0.000000 0.012466 0.000000
# 3 0.017760 -0.004785 0.016404 0.000000 -0.025417 0.000000
# 4 0.000000 0.000000 0.000000 0.034498 0.000000 -0.015258
# 5 -0.105777 0.012466 -0.025417 0.000000 0.136939 0.000000
# 6 0.000000 0.000000 0.000000 -0.015258 0.000000 0.063938
#
#
# Mechanical properties :
#
#
# Convention : Reuss Voigt Hill
#
# Bulk Modulus (GPa) = 7.31979 31.06847 19.19413
# Shear Modulus (GPa) = 10.94499 27.04002 18.99251
#
# Velocity S-wave (km/s) = 2.27654 3.57826 2.99888
# Velocity P-wave (km/s) = 3.22122 5.63767 4.59127
#
# Compressibility (1/GPa) = 0.13661587
#
# Stress axis : x y z
#
# Youngs Moduli (GPa) = 9.21299 31.92885 60.96124
#
# Poissons Ratio (x) = 0.72797 -1.08266
# Poissons Ratio (y) = 0.21005 0.29171
# Poissons Ratio (z) = -0.16362 0.15279
#
# Static dielectric constant tensor:
#      x y z
#    x 1.749460 0.000000 0.032670 
#    y 0.000000 1.824840 0.000000 
#    z 0.032670 0.000000 1.764890 
# 
# From -- ./inp_files/58983.got.cif
#   From: 2010.05.17/outbox.cif.g08.bks.cpg/sg14_30_cif.got.tgz:58983.got - 2010.06.03 17:49:19.
