data_PCOD9241115
_publ_section_title
;
Structure prediction by ZEFSAII (Michael W. Deem and Ramdas Pophale) SiO2 
 PCOD9241115
Probable space group: P 21/C
;
_chemical_formula_sum "Si O2"
_cell_formula_units_Z 28
_cell_length_a 9.464669
_cell_length_b 14.123479
_cell_length_c 15.313554
_cell_angle_alpha 90.000000
_cell_angle_beta 148.273664
_cell_angle_gamma 90.000000
_cell_volume 1076.453951
_symmetry_space_group_name_H-M "P 21/C"
_symmetry_group_IT_number 14
_symmetry_cell_setting 'monoclinic'
loop_
_space_group_symop_operation_xyz
x,y,z
-x,1/2+y,1/2-z
-x,-y,-z
x,1/2-y,1/2+z
loop_
_atom_site_type_symbol
_atom_site_label
_atom_site_fract_x
_atom_site_fract_y
_atom_site_fract_z
Si Si1 0.314796 0.713267 0.862917
Si Si2 0.090728 0.148868 0.997080
Si Si3 0.748519 0.415889 0.677982
Si Si4 0.013166 0.105563 0.670396
Si Si5 0.152822 0.149428 0.548237
Si Si6 0.540800 0.958141 0.409445
Si Si7 0.049302 0.544303 0.405042
O O1 0.145665 0.688741 0.687534
O O2 0.429982 0.819232 0.921555
O O3 0.093656 0.688736 0.821972
O O4 0.544849 0.633657 0.974749
O O5 0.207032 0.053308 0.014173
O O6 0.263623 0.243461 0.098372
O O7 0.970120 0.116586 0.025818
O O8 0.734976 0.531837 0.681259
O O9 0.865728 0.413969 0.641464
O O10 0.938494 0.383888 0.860693
O O11 0.038664 0.138826 0.584661
O O12 0.763874 0.033890 0.549461
O O13 0.391199 0.077332 0.652135
O O14 0.253267 0.005264 0.261959
#
# Coordination Sequence:
#
# PCOD9241115 Si02
#       7
#     4   4   4   4   4   4   4
#     4  10  20  35  63  85 115 153 200 233 282 353
#     4   9  19  38  56  82 114 157 195 230 290 348
#     4  10  19  34  59  86 112 154 189 237 291 336
#     4  11  20  38  60  87 120 151 190 247 295 339
#     4  10  22  36  58  89 120 147 192 243 296 341
#     4  10  20  36  57  90 113 149 195 248 280 340
#     4  10  19  36  63  81 112 159 197 235 285 352
#
# _framework density 26.011330000000001
#
# number of rings (size 3 to 8) (size 9 to 14) (size 15 to 20)
#    0.000    2.000    2.857    3.000    2.000    0.000 
#   10.286    0.000    0.000    1.714    0.000    0.000 
#    0.000    0.000    0.000    0.000    0.000    0.000 
#
# Total GULP energy -156165.044580 kJ/mol
# GULP energy per Si atom -5577.323021 kJ/mol
# Density = 2.595213 g / cm^3
# Si number density = 26.011330 Si / 1000 Ang^3
#
#
#
# Elastic Constant Matrix: (Units=GPa)
#
#
# Indices 1 2 3 4 5 6 
#
# 1 129.6525 32.7114 39.3799 0.0000 -42.7661 0.0000
# 2 32.7114 161.5174 36.3032 0.0000 -11.9385 0.0000
# 3 39.3799 36.3032 36.8767 0.0000 -15.1612 0.0000
# 4 0.0000 0.0000 0.0000 14.4241 0.0000 16.2915
# 5 -42.7661 -11.9385 -15.1612 0.0000 52.3194 0.0000
# 6 0.0000 0.0000 0.0000 16.2915 0.0000 29.0390
#
#
#
# Elastic Compliance Matrix: (Units=1/GPa)
#
#
# Indices 1 2 3 4 5 6 
#
# 1 0.013865 0.000478 -0.012003 0.000000 0.007964 0.000000
# 2 0.000478 0.007979 -0.008465 0.000000 -0.000241 0.000000
# 3 -0.012003 -0.008465 0.049316 0.000000 0.002548 0.000000
# 4 0.000000 0.000000 0.000000 0.189242 0.000000 -0.106169
# 5 0.007964 -0.000241 0.002548 0.000000 0.026307 0.000000
# 6 0.000000 0.000000 0.000000 -0.106169 0.000000 0.093999
#
#
# Mechanical properties :
#
#
# Convention : Reuss Voigt Hill
#
# Bulk Modulus (GPa) = 32.07060 60.53730 46.30395
# Shear Modulus (GPa) = 11.59875 33.79998 22.69937
#
# Velocity S-wave (km/s) = 2.11395 3.60868 2.95731
# Velocity P-wave (km/s) = 4.27956 6.37866 5.43148
#
# Compressibility (1/GPa) = 0.03118121
#
# Stress axis : x y z
#
# Youngs Moduli (GPa) = 72.12499 125.32535 20.27740
#
# Poissons Ratio (x) = -0.05996 0.24338
# Poissons Ratio (y) = -0.03451 0.17165
# Poissons Ratio (z) = 0.86569 1.06091
#
# Static dielectric constant tensor:
#      x y z
#    x 2.042060 0.000000 0.065630 
#    y 0.000000 2.138820 0.000000 
#    z 0.065630 0.000000 2.189930 
# 
# From -- ./inp_files/41265.got.cif
#   From: 2010.05.17/outbox.cif.g08.bks.cpg/sg14_21_cif.got.tgz:41265.got - 2010.06.03 17:49:19.
