data_PCOD9241760
_publ_section_title
;
Structure prediction by ZEFSAII (Michael W. Deem and Ramdas Pophale) SiO2 
 PCOD9241760
Probable space group: P 21/C
;
_chemical_formula_sum "Si O2"
_cell_formula_units_Z 28
_cell_length_a 11.047244
_cell_length_b 14.322361
_cell_length_c 7.729847
_cell_angle_alpha 90.000000
_cell_angle_beta 78.396747
_cell_angle_gamma 90.000000
_cell_volume 1198.042436
_symmetry_space_group_name_H-M "P 21/C"
_symmetry_group_IT_number 14
_symmetry_cell_setting 'monoclinic'
loop_
_space_group_symop_operation_xyz
x,y,z
-x,1/2+y,1/2-z
-x,-y,-z
x,1/2-y,1/2+z
loop_
_atom_site_type_symbol
_atom_site_label
_atom_site_fract_x
_atom_site_fract_y
_atom_site_fract_z
Si Si1 0.267749 0.728063 0.633572
Si Si2 0.455852 0.815992 0.361941
Si Si3 0.157124 0.559402 0.493415
Si Si4 0.423833 0.118053 0.184209
Si Si5 0.832376 0.970035 0.633210
Si Si6 0.931096 0.112895 0.322155
Si Si7 0.617232 0.543009 0.682803
O O1 0.375087 0.799382 0.553223
O O2 0.341321 0.669996 0.759600
O O3 0.238480 0.653963 0.491579
O O4 0.143050 0.789745 0.674807
O O5 0.536524 0.724074 0.299262
O O6 0.553733 0.898005 0.350128
O O7 0.141169 0.530271 0.697972
O O8 0.052088 0.582145 0.384089
O O9 0.241226 0.484366 0.369532
O O10 0.300899 0.077578 0.310138
O O11 0.536012 0.049249 0.191871
O O12 0.404669 0.104668 0.983245
O O13 0.854441 0.037639 0.462215
O O14 0.938054 0.889926 0.616894
#
# Coordination Sequence:
#
# PCOD9241760 Si02
#       7
#     4   4   4   4   4   4   4
#     4  12  21  37  63  95 123 159 219 263 310 386
#     4  12  21  35  63  95 125 163 208 267 323 387
#     4  11  22  42  68  93 127 170 215 266 325 383
#     4  10  19  38  59  89 127 164 205 254 330 385
#     4  10  24  42  64  89 129 171 209 270 319 383
#     4  11  23  42  64  94 124 167 223 266 313 378
#     4  10  19  37  61  90 128 166 198 262 330 381
#
# _framework density 23.371458000000001
#
# number of rings (size 3 to 8) (size 9 to 14) (size 15 to 20)
#    0.000    1.143    4.286    3.857    0.000    1.143 
#    0.000    7.143    0.000    0.000    0.000    0.000 
#    0.000    0.000    0.000    0.000    0.000    0.000 
#
# Total GULP energy -156156.362283 kJ/mol
# GULP energy per Si atom -5577.012939 kJ/mol
# Density = 2.331826 g / cm^3
# Si number density = 23.371458 Si / 1000 Ang^3
#
#
#
# Elastic Constant Matrix: (Units=GPa)
#
#
# Indices 1 2 3 4 5 6 
#
# 1 50.3583 23.4571 20.5610 0.0000 11.6050 0.0000
# 2 23.4571 54.7630 -7.0670 0.0000 6.8107 0.0000
# 3 20.5610 -7.0670 69.0396 0.0000 12.0364 0.0000
# 4 0.0000 0.0000 0.0000 23.3837 0.0000 -11.0008
# 5 11.6050 6.8107 12.0364 0.0000 35.9312 0.0000
# 6 0.0000 0.0000 0.0000 -11.0008 0.0000 35.0884
#
#
#
# Elastic Compliance Matrix: (Units=1/GPa)
#
#
# Indices 1 2 3 4 5 6 
#
# 1 0.031646 -0.014361 -0.010182 0.000000 -0.004088 0.000000
# 2 -0.014361 0.025700 0.007379 0.000000 -0.002705 0.000000
# 3 -0.010182 0.007379 0.019056 0.000000 -0.004493 0.000000
# 4 0.000000 0.000000 0.000000 0.050164 0.000000 0.015727
# 5 -0.004088 -0.002705 -0.004493 0.000000 0.031169 0.000000
# 6 0.000000 0.000000 0.000000 0.015727 0.000000 0.033430
#
#
# Mechanical properties :
#
#
# Convention : Reuss Voigt Hill
#
# Bulk Modulus (GPa) = 23.76700 27.56256 25.66478
# Shear Modulus (GPa) = 20.87527 28.02799 24.45163
#
# Velocity S-wave (km/s) = 2.99188 3.46676 3.23804
# Velocity P-wave (km/s) = 4.70388 5.27669 4.99849
#
# Compressibility (1/GPa) = 0.04207514
#
# Stress axis : x y z
#
# Youngs Moduli (GPa) = 31.59918 38.90978 52.47825
#
# Poissons Ratio (x) = 0.55878 0.53433
# Poissons Ratio (y) = 0.45379 -0.38725
# Poissons Ratio (z) = 0.32174 -0.28712
#
# Static dielectric constant tensor:
#      x y z
#    x 1.901310 0.000000 0.000890 
#    y 0.000000 1.930630 0.000000 
#    z 0.000890 0.000000 2.004250 
# 
# From -- ./inp_files/12792.got.cif
#   From: 2010.05.17/outbox.cif.g08.bks.cpg/sg14_7_cif.got.tgz:12792.got - 2010.06.03 17:49:19.
