data_PCOD9241627
_publ_section_title
;
Structure prediction by ZEFSAII (Michael W. Deem and Ramdas Pophale) SiO2 
 PCOD9241627
Probable space group: P 21/C
;
_chemical_formula_sum "Si O2"
_cell_formula_units_Z 30
_cell_length_a 9.606564
_cell_length_b 13.314212
_cell_length_c 10.235510
_cell_angle_alpha 90.000000
_cell_angle_beta 101.712742
_cell_angle_gamma 90.000000
_cell_volume 1281.901171
_symmetry_space_group_name_H-M "P 21/C"
_symmetry_group_IT_number 14
_symmetry_cell_setting 'monoclinic'
loop_
_space_group_symop_operation_xyz
x,y,z
-x,1/2+y,1/2-z
-x,-y,-z
x,1/2-y,1/2+z
loop_
_atom_site_type_symbol
_atom_site_label
_atom_site_fract_x
_atom_site_fract_y
_atom_site_fract_z
Si Si1 0.249242 0.484324 0.059028
Si Si2 0.139415 0.413963 0.639519
Si Si3 0.103132 0.872200 0.731708
Si Si4 0.280425 0.954228 0.970312
Si Si5 0.500000 0.000000 0.500000
Si Si6 0.450438 0.093225 0.802980
Si Si7 0.885816 0.722519 0.031079
Si Si8 0.620784 0.687848 0.161473
O O1 0.176503 0.569209 0.127451
O O2 0.409605 0.455738 0.153344
O O3 0.320831 0.513065 0.937898
O O4 0.148963 0.386869 0.039505
O O5 0.158813 0.498140 0.535637
O O6 0.088378 0.309710 0.565302
O O7 0.295182 0.379506 0.718060
O O8 0.028224 0.436695 0.732701
O O9 0.019323 0.780304 0.653804
O O10 0.219002 0.865812 0.867987
O O11 0.404797 0.926688 0.093403
O O12 0.336009 0.038660 0.877350
O O13 0.511879 0.880758 0.563112
O O14 0.438690 0.211987 0.783606
O O15 0.741928 0.733117 0.087691
#
# Coordination Sequence:
#
# PCOD9241627 Si02
#       8
#     4   4   4   4   2   4   4   4
#     4  10  20  40  61  93 122 165 205 265 310 375
#     4  11  20  38  65  91 123 171 217 254 315 388
#     4  10  23  37  60  87 124 162 211 261 313 370
#     4  10  21  37  60  92 126 165 206 266 316 371
#     4  10  22  38  64  90 134 158 210 258 324 366
#     4  10  19  36  64  89 125 165 208 260 314 372
#     4  10  20  37  64  87 119 166 215 250 306 377
#     4  10  20  37  63  95 120 168 213 259 307 388
#
# _framework density 23.402739
#
# number of rings (size 3 to 8) (size 9 to 14) (size 15 to 20)
#    0.000    1.867    2.667    1.600    0.000    0.000 
#    2.400    0.000    8.800    0.000    0.000    0.000 
#    0.000    0.000    0.000    0.000    0.000    0.000 
#
# Total GULP energy -167026.017545 kJ/mol
# GULP energy per Si atom -5567.533918 kJ/mol
# Density = 2.334947 g / cm^3
# Si number density = 23.402739 Si / 1000 Ang^3
#
#
#
# Elastic Constant Matrix: (Units=GPa)
#
#
# Indices 1 2 3 4 5 6 
#
# 1 76.8125 20.8927 6.8640 0.0000 -0.9080 0.0000
# 2 20.8927 54.8938 26.5929 0.0000 7.4003 0.0000
# 3 6.8640 26.5929 96.0037 0.0000 20.0759 0.0000
# 4 0.0000 0.0000 0.0000 28.0045 0.0000 -7.2383
# 5 -0.9080 7.4003 20.0759 0.0000 34.8684 0.0000
# 6 0.0000 0.0000 0.0000 -7.2383 0.0000 4.0547
#
#
#
# Elastic Compliance Matrix: (Units=1/GPa)
#
#
# Indices 1 2 3 4 5 6 
#
# 1 0.014615 -0.005897 0.000281 0.000000 0.001470 0.000000
# 2 -0.005897 0.023469 -0.005691 0.000000 -0.001858 0.000000
# 3 0.000281 -0.005691 0.013322 0.000000 -0.006455 0.000000
# 4 0.000000 0.000000 0.000000 0.066299 0.000000 0.118353
# 5 0.001470 -0.001858 -0.006455 0.000000 0.032829 0.000000
# 6 0.000000 0.000000 0.000000 0.118353 0.000000 0.457902
#
#
# Mechanical properties :
#
#
# Convention : Reuss Voigt Hill
#
# Bulk Modulus (GPa) = 34.73062 37.37882 36.05472
# Shear Modulus (GPa) = 7.80462 24.94289 16.37375
#
# Velocity S-wave (km/s) = 1.82816 3.26822 2.64796
# Velocity P-wave (km/s) = 4.39646 5.49985 4.97881
#
# Compressibility (1/GPa) = 0.02879303
#
# Stress axis : x y z
#
# Youngs Moduli (GPa) = 68.42343 42.61016 75.06149
#
# Poissons Ratio (x) = 0.25126 -0.02109
# Poissons Ratio (y) = 0.40348 0.42715
# Poissons Ratio (z) = -0.01923 0.24248
#
# Static dielectric constant tensor:
#      x y z
#    x 3.175850 0.000000 -1.015410 
#    y 0.000000 2.014210 0.000000 
#    z -1.015410 0.000000 2.820200 
# 
# From -- ./inp_files/25615.got.cif
#   From: 2010.05.17/outbox.cif.g08.bks.cpg/sg14_13_cif.got.tgz:25615.got - 2010.06.03 17:49:19.
