data_PCOD9241339
_publ_section_title
;
Structure prediction by ZEFSAII (Michael W. Deem and Ramdas Pophale) SiO2 
 PCOD9241339
Probable space group: P 21/C
;
_chemical_formula_sum "Si O2"
_cell_formula_units_Z 32
_cell_length_a 6.896250
_cell_length_b 11.116737
_cell_length_c 27.804148
_cell_angle_alpha 90.000000
_cell_angle_beta 126.577054
_cell_angle_gamma 90.000000
_cell_volume 1711.771744
_symmetry_space_group_name_H-M "P 21/C"
_symmetry_group_IT_number 14
_symmetry_cell_setting 'monoclinic'
loop_
_space_group_symop_operation_xyz
x,y,z
-x,1/2+y,1/2-z
-x,-y,-z
x,1/2-y,1/2+z
loop_
_atom_site_type_symbol
_atom_site_label
_atom_site_fract_x
_atom_site_fract_y
_atom_site_fract_z
Si Si1 0.064664 0.454811 0.180278
Si Si2 0.986484 0.715209 0.151801
Si Si3 0.564802 0.595750 0.580462
Si Si4 0.762786 0.340848 0.219321
Si Si5 0.251188 0.256568 0.650230
Si Si6 0.848897 0.436619 0.557210
Si Si7 0.213747 0.876088 0.115824
Si Si8 0.606872 0.532732 0.269178
O O1 0.122821 0.366945 0.144943
O O2 0.324317 0.508261 0.234315
O O3 0.923624 0.575661 0.146288
O O4 0.937506 0.374866 0.201892
O O5 0.753513 0.796101 0.107773
O O6 0.106937 0.763912 0.219276
O O7 0.161782 0.746643 0.132103
O O8 0.717318 0.476338 0.587859
O O9 0.357182 0.604666 0.509588
O O10 0.431774 0.603975 0.611763
O O11 0.514899 0.273322 0.167575
O O12 0.687751 0.468815 0.232352
O O13 0.318669 0.330677 0.709282
O O14 0.060615 0.338826 0.593884
O O15 0.976447 0.560572 0.558145
O O16 0.264354 0.957006 0.170036
#
# Coordination Sequence:
#
# PCOD9241339 Si02
#       8
#     4   4   4   4   4   4   4   4
#     4  11  22  34  54  77 111 150 184 223 281 332
#     4  10  21  36  51  84 112 138 190 226 270 337
#     4  10  19  35  61  84 109 144 178 234 279 323
#     4  10  21  35  54  79 106 148 185 221 274 330
#     4  10  21  36  53  78 114 144 176 232 275 328
#     4   9  20  36  56  88 111 134 191 229 273 333
#     4   9  18  34  58  79 109 144 177 230 287 317
#     4   9  19  34  52  77 108 138 181 231 267 330
#
# _framework density 18.69408
#
# number of rings (size 3 to 8) (size 9 to 14) (size 15 to 20)
#    0.000    2.250    1.250    1.875    1.750    4.000 
#    0.000    0.625    0.000    1.500    0.000    0.000 
#    0.000    0.000    0.000    0.000    0.000    0.000 
#
# Total GULP energy -178221.597827 kJ/mol
# GULP energy per Si atom -5569.424932 kJ/mol
# Density = 1.865153 g / cm^3
# Si number density = 18.694080 Si / 1000 Ang^3
#
#
#
# Elastic Constant Matrix: (Units=GPa)
#
#
# Indices 1 2 3 4 5 6 
#
# 1 52.8947 -2.1807 -11.3742 0.0000 -2.5550 0.0000
# 2 -2.1807 75.6220 9.5812 0.0000 1.2519 0.0000
# 3 -11.3742 9.5812 51.1816 0.0000 16.8497 0.0000
# 4 0.0000 0.0000 0.0000 18.5932 0.0000 8.2365
# 5 -2.5550 1.2519 16.8497 0.0000 20.7811 0.0000
# 6 0.0000 0.0000 0.0000 8.2365 0.0000 18.5467
#
#
#
# Elastic Compliance Matrix: (Units=1/GPa)
#
#
# Indices 1 2 3 4 5 6 
#
# 1 0.019891 -0.000026 0.004938 0.000000 -0.001557 0.000000
# 2 -0.000026 0.013589 -0.003109 0.000000 0.001699 0.000000
# 3 0.004938 -0.003109 0.028587 0.000000 -0.022384 0.000000
# 4 0.000000 0.000000 0.000000 0.066955 0.000000 -0.029734
# 5 -0.001557 0.001699 -0.022384 0.000000 0.065976 0.000000
# 6 0.000000 0.000000 0.000000 -0.029734 0.000000 0.067123
#
#
# Mechanical properties :
#
#
# Convention : Reuss Voigt Hill
#
# Bulk Modulus (GPa) = 15.22725 19.08342 17.15534
# Shear Modulus (GPa) = 17.83127 23.82901 20.83014
#
# Velocity S-wave (km/s) = 3.09179 3.57414 3.34168
# Velocity P-wave (km/s) = 4.57261 5.22141 4.90774
#
# Compressibility (1/GPa) = 0.06567174
#
# Stress axis : x y z
#
# Youngs Moduli (GPa) = 50.27398 73.59063 34.98108
#
# Poissons Ratio (x) = 0.00193 -0.17273
# Poissons Ratio (y) = 0.00132 0.10875
# Poissons Ratio (z) = -0.24824 0.22879
#
# Static dielectric constant tensor:
#      x y z
#    x 1.692680 0.000000 0.022090 
#    y 0.000000 1.689720 0.000000 
#    z 0.022090 0.000000 1.675820 
# 
# From -- ./inp_files/69934.got.cif
#   From: 2010.05.17/outbox.cif.g08.bks.cpg/sg14_35_cif.got.tgz:69934.got - 2010.06.03 17:49:19.
