data_PCOD9241656
_publ_section_title
;
Structure prediction by ZEFSAII (Michael W. Deem and Ramdas Pophale) SiO2 
 PCOD9241656
Probable space group: P 21/C
;
_chemical_formula_sum "Si O2"
_cell_formula_units_Z 32
_cell_length_a 8.623766
_cell_length_b 14.222222
_cell_length_c 19.098029
_cell_angle_alpha 90.000000
_cell_angle_beta 136.082854
_cell_angle_gamma 90.000000
_cell_volume 1624.699178
_symmetry_space_group_name_H-M "P 21/C"
_symmetry_group_IT_number 14
_symmetry_cell_setting 'monoclinic'
loop_
_space_group_symop_operation_xyz
x,y,z
-x,1/2+y,1/2-z
-x,-y,-z
x,1/2-y,1/2+z
loop_
_atom_site_type_symbol
_atom_site_label
_atom_site_fract_x
_atom_site_fract_y
_atom_site_fract_z
Si Si1 0.224258 0.245647 0.150443
Si Si2 0.335034 0.988461 0.742267
Si Si3 0.217319 0.065565 0.567167
Si Si4 0.989894 0.644616 0.804218
Si Si5 0.784620 0.559415 0.447987
Si Si6 0.487887 0.670337 0.935264
Si Si7 0.161636 0.180730 0.903211
Si Si8 0.305402 0.732371 0.232618
O O1 0.156462 0.330986 0.076774
O O2 0.084395 0.264089 0.174726
O O3 0.209008 0.149059 0.102876
O O4 0.490061 0.255355 0.252803
O O5 0.381656 0.018747 0.677581
O O6 0.138555 0.055925 0.704536
O O7 0.560293 0.998092 0.859281
O O8 0.271155 0.879221 0.725178
O O9 0.351800 0.086722 0.540270
O O10 0.000000 0.000000 0.500000
O O11 0.901989 0.654013 0.696382
O O12 0.257585 0.636304 0.894510
O O13 0.776703 0.596440 0.524690
O O14 0.000000 0.500000 0.500000
O O15 0.399735 0.727636 0.837429
O O16 0.642021 0.741959 0.028799
O O17 0.930645 0.221751 0.859792
#
# Coordination Sequence:
#
# PCOD9241656 Si02
#       8
#     4   4   4   4   4   4   4   4
#     4   9  20  44  57  91 126 160 208 270 304 378
#     4  10  21  40  57  97 125 162 212 268 313 370
#     4  10  19  36  67  87 118 167 220 251 305 381
#     4  10  24  38  64  91 135 163 199 270 330 375
#     4  11  24  39  68  97 122 165 228 263 308 383
#     4  10  20  41  58  90 127 165 204 258 315 384
#     4  11  21  41  64  91 120 174 204 258 323 379
#     4   9  19  39  66  80 122 163 214 250 313 369
#
# _framework density 19.695954
#
# number of rings (size 3 to 8) (size 9 to 14) (size 15 to 20)
#    0.000    2.000    3.750    0.750    7.000    1.500 
#    4.500    6.875    0.000    0.000    0.000    0.000 
#    0.000    0.000    0.000    0.000    0.000    0.000 
#
# Total GULP energy -178477.997787 kJ/mol
# GULP energy per Si atom -5577.437431 kJ/mol
# Density = 1.965113 g / cm^3
# Si number density = 19.695954 Si / 1000 Ang^3
#
#
#
# Elastic Constant Matrix: (Units=GPa)
#
#
# Indices 1 2 3 4 5 6 
#
# 1 101.9451 24.0043 24.9368 0.0000 20.4462 0.0000
# 2 24.0043 67.9869 13.2333 0.0000 18.6627 0.0000
# 3 24.9368 13.2333 77.5220 0.0000 18.4301 0.0000
# 4 0.0000 0.0000 0.0000 31.0975 0.0000 8.3404
# 5 20.4462 18.6627 18.4301 0.0000 35.5811 0.0000
# 6 0.0000 0.0000 0.0000 8.3404 0.0000 29.8386
#
#
#
# Elastic Compliance Matrix: (Units=1/GPa)
#
#
# Indices 1 2 3 4 5 6 
#
# 1 0.011840 -0.002557 -0.002365 0.000000 -0.004238 0.000000
# 2 -0.002557 0.017790 -0.000394 0.000000 -0.007658 0.000000
# 3 -0.002365 -0.000394 0.015231 0.000000 -0.006324 0.000000
# 4 0.000000 0.000000 0.000000 0.034763 0.000000 -0.009717
# 5 -0.004238 -0.007658 -0.006324 0.000000 0.037832 0.000000
# 6 0.000000 0.000000 0.000000 -0.009717 0.000000 0.036230
#
#
# Mechanical properties :
#
#
# Convention : Reuss Voigt Hill
#
# Bulk Modulus (GPa) = 29.21381 41.31142 35.26262
# Shear Modulus (GPa) = 28.45341 31.65539 30.05440
#
# Velocity S-wave (km/s) = 3.80496 4.01334 3.91054
# Velocity P-wave (km/s) = 5.84535 6.51890 6.19129
#
# Compressibility (1/GPa) = 0.03423039
#
# Stress axis : x y z
#
# Youngs Moduli (GPa) = 84.46297 56.21061 65.65621
#
# Poissons Ratio (x) = 0.14371 0.15525
# Poissons Ratio (y) = 0.21595 0.02586
# Poissons Ratio (z) = 0.19972 0.02214
#
# Static dielectric constant tensor:
#      x y z
#    x 1.721140 0.000000 -0.006600 
#    y 0.000000 1.709120 0.000000 
#    z -0.006600 0.000000 1.727780 
# 
# From -- ./inp_files/65852.got.cif
#   From: 2010.05.17/outbox.cif.g08.bks.cpg/sg14_33_cif.got.tgz:65852.got - 2010.06.03 17:49:19.
