data_PCOD9241817
_publ_section_title
;
Structure prediction by ZEFSAII (Michael W. Deem and Ramdas Pophale) SiO2 
 PCOD9241817
Probable space group: P 21/C
;
_chemical_formula_sum "Si O2"
_cell_formula_units_Z 28
_cell_length_a 11.487288
_cell_length_b 8.171201
_cell_length_c 14.521982
_cell_angle_alpha 90.000000
_cell_angle_beta 124.533115
_cell_angle_gamma 90.000000
_cell_volume 1122.924075
_symmetry_space_group_name_H-M "P 21/C"
_symmetry_group_IT_number 14
_symmetry_cell_setting 'monoclinic'
loop_
_space_group_symop_operation_xyz
x,y,z
-x,1/2+y,1/2-z
-x,-y,-z
x,1/2-y,1/2+z
loop_
_atom_site_type_symbol
_atom_site_label
_atom_site_fract_x
_atom_site_fract_y
_atom_site_fract_z
Si Si1 0.680515 0.199088 0.400479
Si Si2 0.015595 0.647135 0.772190
Si Si3 0.185537 0.554395 0.399723
Si Si4 0.613476 0.639453 0.975687
Si Si5 0.799877 0.485582 0.793274
Si Si6 0.642388 0.704814 0.309883
Si Si7 0.697297 0.017182 0.681710
O O1 0.729529 0.351191 0.484168
O O2 0.781503 0.157885 0.359015
O O3 0.522208 0.218871 0.291027
O O4 0.671761 0.033134 0.459220
O O5 0.047186 0.827063 0.823178
O O6 0.162409 0.595693 0.793206
O O7 0.894616 0.620557 0.640873
O O8 0.957062 0.541570 0.832714
O O9 0.265504 0.555210 0.336546
O O10 0.652573 0.783350 0.924047
O O11 0.444159 0.621642 0.896771
O O12 0.665207 0.641953 0.103091
O O13 0.722926 0.639807 0.804071
O O14 0.702245 0.544438 0.287977
#
# Coordination Sequence:
#
# PCOD9241817 Si02
#       7
#     4   4   4   4   4   4   4
#     4  10  20  39  62  88 120 165 207 255 312 363
#     4  10  21  39  65  87 126 163 205 252 314 369
#     4  10  22  40  62  89 120 167 205 252 313 367
#     4   9  20  36  62  92 113 165 211 247 315 365
#     4   9  23  39  61  91 127 161 208 257 307 373
#     4  10  21  38  61  93 123 155 213 261 308 364
#     4  10  19  37  64  88 123 160 207 259 300 378
#
# _framework density 24.934899999999999
#
# number of rings (size 3 to 8) (size 9 to 14) (size 15 to 20)
#    0.857    1.429    1.429    0.857    2.000    1.143 
#    2.571    3.571    0.000    0.000    0.000    0.000 
#    0.000    0.000    0.000    0.000    0.000    0.000 
#
# Total GULP energy -156377.256952 kJ/mol
# GULP energy per Si atom -5584.902034 kJ/mol
# Density = 2.487815 g / cm^3
# Si number density = 24.934900 Si / 1000 Ang^3
#
#
#
# Elastic Constant Matrix: (Units=GPa)
#
#
# Indices 1 2 3 4 5 6 
#
# 1 130.4873 22.0878 13.8324 0.0000 -12.4982 0.0000
# 2 22.0878 49.0864 -2.4329 0.0000 9.3159 0.0000
# 3 13.8324 -2.4329 63.6897 0.0000 1.1839 0.0000
# 4 0.0000 0.0000 0.0000 29.4409 0.0000 -0.1802
# 5 -12.4982 9.3159 1.1839 0.0000 32.0575 0.0000
# 6 0.0000 0.0000 0.0000 -0.1802 0.0000 38.9869
#
#
#
# Elastic Compliance Matrix: (Units=1/GPa)
#
#
# Indices 1 2 3 4 5 6 
#
# 1 0.009311 -0.005302 -0.002322 0.000000 0.005257 0.000000
# 2 -0.005302 0.024637 0.002266 0.000000 -0.009311 0.000000
# 3 -0.002322 0.002266 0.016332 0.000000 -0.002167 0.000000
# 4 0.000000 0.000000 0.000000 0.033967 0.000000 0.000157
# 5 0.005257 -0.009311 -0.002167 0.000000 0.036029 0.000000
# 6 0.000000 0.000000 0.000000 0.000157 0.000000 0.025650
#
#
# Mechanical properties :
#
#
# Convention : Reuss Voigt Hill
#
# Bulk Modulus (GPa) = 25.27639 34.47091 29.87365
# Shear Modulus (GPa) = 29.44071 34.08214 31.76143
#
# Velocity S-wave (km/s) = 3.43986 3.70110 3.57287
# Velocity P-wave (km/s) = 5.09272 5.66732 5.38769
#
# Compressibility (1/GPa) = 0.03956262
#
# Stress axis : x y z
#
# Youngs Moduli (GPa) = 107.40221 40.58855 61.22819
#
# Poissons Ratio (x) = 0.21522 0.14220
# Poissons Ratio (y) = 0.56949 -0.13873
# Poissons Ratio (z) = 0.24943 -0.09197
#
# Static dielectric constant tensor:
#      x y z
#    x 1.941960 0.000000 -0.033150 
#    y 0.000000 2.142540 0.000000 
#    z -0.033150 0.000000 2.007310 
# 
# From -- ./inp_files/44438.got.cif
#   From: 2010.05.17/outbox.cif.g08.bks.cpg/sg14_23_cif.got.tgz:44438.got - 2010.06.03 17:49:19.
