data_PCOD9241773
_publ_section_title
;
Structure prediction by ZEFSAII (Michael W. Deem and Ramdas Pophale) SiO2 
 PCOD9241773
Probable space group: P 21/C
;
_chemical_formula_sum "Si O2"
_cell_formula_units_Z 32
_cell_length_a 12.571658
_cell_length_b 5.102565
_cell_length_c 31.609777
_cell_angle_alpha 90.000000
_cell_angle_beta 38.291630
_cell_angle_gamma 90.000000
_cell_volume 1256.490095
_symmetry_space_group_name_H-M "P 21/C"
_symmetry_group_IT_number 14
_symmetry_cell_setting 'monoclinic'
loop_
_space_group_symop_operation_xyz
x,y,z
-x,1/2+y,1/2-z
-x,-y,-z
x,1/2-y,1/2+z
loop_
_atom_site_type_symbol
_atom_site_label
_atom_site_fract_x
_atom_site_fract_y
_atom_site_fract_z
Si Si1 0.099899 0.873176 0.736750
Si Si2 0.151888 0.543427 0.899387
Si Si3 0.355001 0.776017 0.092795
Si Si4 0.576122 0.568094 0.247554
Si Si5 0.304996 0.456536 0.393752
Si Si6 0.172985 0.738494 0.515161
Si Si7 0.945733 0.549334 0.367445
Si Si8 0.673720 0.602772 0.972224
O O1 0.282146 0.785845 0.661213
O O2 0.971895 0.628613 0.766052
O O3 0.099521 0.936641 0.786614
O O4 0.233731 0.508700 0.826738
O O5 0.189186 0.838655 0.902316
O O6 0.958799 0.443959 0.964455
O O7 0.262467 0.338534 0.893358
O O8 0.363241 0.508762 0.062757
O O9 0.210852 0.942802 0.113830
O O10 0.553668 0.844632 0.024231
O O11 0.462158 0.365224 0.254689
O O12 0.499896 0.522569 0.318104
O O13 0.249502 0.533718 0.458059
O O14 0.059793 0.609913 0.587906
O O15 0.325139 0.895915 0.490393
O O16 0.873279 0.825154 0.405040
#
# Coordination Sequence:
#
# PCOD9241773 Si02
#       8
#     4   4   4   4   4   4   4   4
#     4  10  19  37  62  87 110 152 199 242 285 357
#     4  10  21  38  62  86 112 161 197 239 292 356
#     4   9  19  37  61  85 109 162 199 235 296 356
#     4   8  16  34  58  81 105 142 195 236 276 341
#     4  10  21  38  62  85 114 157 202 235 293 359
#     4  11  24  35  55  88 121 151 192 253 296 347
#     4  10  21  36  59  84 123 154 197 250 297 351
#     4  10  20  37  58  84 121 151 196 245 297 347
#
# _framework density 25.467768
#
# number of rings (size 3 to 8) (size 9 to 14) (size 15 to 20)
#    0.000    2.250    1.250    1.125    3.500    0.000 
#    2.250    0.000    2.750    0.000    0.000    0.000 
#    0.000    0.000    0.000    0.000    0.000    0.000 
#
# Total GULP energy -178680.550209 kJ/mol
# GULP energy per Si atom -5583.767194 kJ/mol
# Density = 2.540980 g / cm^3
# Si number density = 25.467768 Si / 1000 Ang^3
#
#
#
# Elastic Constant Matrix: (Units=GPa)
#
#
# Indices 1 2 3 4 5 6 
#
# 1 52.6116 10.5501 30.0922 0.0000 8.8797 0.0000
# 2 10.5501 79.7401 13.9490 0.0000 12.5800 0.0000
# 3 30.0922 13.9490 195.2823 0.0000 19.5775 0.0000
# 4 0.0000 0.0000 0.0000 40.1745 0.0000 5.2434
# 5 8.8797 12.5800 19.5775 0.0000 25.3727 0.0000
# 6 0.0000 0.0000 0.0000 5.2434 0.0000 24.5350
#
#
#
# Elastic Compliance Matrix: (Units=1/GPa)
#
#
# Indices 1 2 3 4 5 6 
#
# 1 0.021702 -0.001656 -0.002760 0.000000 -0.004644 0.000000
# 2 -0.001656 0.013750 -0.000110 0.000000 -0.006153 0.000000
# 3 -0.002760 -0.000110 0.005909 0.000000 -0.003539 0.000000
# 4 0.000000 0.000000 0.000000 0.025606 0.000000 -0.005472
# 5 -0.004644 -0.006153 -0.003539 0.000000 0.046819 0.000000
# 6 0.000000 0.000000 0.000000 -0.005472 0.000000 0.041928
#
#
# Mechanical properties :
#
#
# Convention : Reuss Voigt Hill
#
# Bulk Modulus (GPa) = 30.95209 48.53517 39.74363
# Shear Modulus (GPa) = 28.48449 36.21929 32.35189
#
# Velocity S-wave (km/s) = 3.34796 3.77525 3.56800
# Velocity P-wave (km/s) = 5.20816 6.17270 5.71083
#
# Compressibility (1/GPa) = 0.03230800
#
# Stress axis : x y z
#
# Youngs Moduli (GPa) = 46.07896 72.72858 169.24028
#
# Poissons Ratio (x) = 0.12042 0.46715
# Poissons Ratio (y) = 0.07629 0.01865
# Poissons Ratio (z) = 0.12719 0.00801
#
# Static dielectric constant tensor:
#      x y z
#    x 2.278320 0.000000 -0.070430 
#    y 0.000000 2.015560 0.000000 
#    z -0.070430 0.000000 2.048610 
# 
# From -- ./inp_files/80131.got.cif
#   From: 2010.05.17/outbox.cif.g08.bks.cpg/sg14_41_cif.got.tgz:80131.got - 2010.06.03 17:49:19.
