data_PCOD9241688
_publ_section_title
;
Structure prediction by ZEFSAII (Michael W. Deem and Ramdas Pophale) SiO2 
 PCOD9241688
Probable space group: P 21/C
;
_chemical_formula_sum "Si O2"
_cell_formula_units_Z 32
_cell_length_a 11.677366
_cell_length_b 20.544197
_cell_length_c 11.780871
_cell_angle_alpha 90.000000
_cell_angle_beta 142.814231
_cell_angle_gamma 90.000000
_cell_volume 1708.192544
_symmetry_space_group_name_H-M "P 21/C"
_symmetry_group_IT_number 14
_symmetry_cell_setting 'monoclinic'
loop_
_space_group_symop_operation_xyz
x,y,z
-x,1/2+y,1/2-z
-x,-y,-z
x,1/2-y,1/2+z
loop_
_atom_site_type_symbol
_atom_site_label
_atom_site_fract_x
_atom_site_fract_y
_atom_site_fract_z
Si Si1 0.294330 0.671339 0.522863
Si Si2 0.247403 0.563433 0.308069
Si Si3 0.682849 0.584199 0.593377
Si Si4 0.689846 0.838800 0.872379
Si Si5 0.344564 0.194347 0.550285
Si Si6 0.583361 0.298189 0.019607
Si Si7 0.944652 0.203765 0.957337
Si Si8 0.920255 0.850917 0.475085
O O1 0.243914 0.605602 0.419946
O O2 0.472602 0.662720 0.745773
O O3 0.362019 0.727515 0.488825
O O4 0.123877 0.694886 0.468125
O O5 0.456176 0.577470 0.423993
O O6 0.231327 0.487082 0.317054
O O7 0.082105 0.594538 0.102272
O O8 0.719725 0.610926 0.497003
O O9 0.766098 0.631410 0.757112
O O10 0.679962 0.767580 0.922864
O O11 0.495603 0.842159 0.645987
O O12 0.870954 0.836186 0.933308
O O13 0.408141 0.202313 0.470338
O O14 0.173096 0.154912 0.472886
O O15 0.772224 0.316609 0.237538
O O16 0.989917 0.280272 0.977505
#
# Coordination Sequence:
#
# PCOD9241688 Si02
#       8
#     4   4   4   4   4   4   4   4
#     4  10  19  37  58  87 122 151 195 239 303 358
#     4  11  23  40  62  82 119 167 204 249 290 357
#     4  11  25  41  57  89 120 160 209 244 295 357
#     4  10  23  35  59  85 122 152 192 246 294 361
#     4   9  20  35  59  87 119 144 190 252 297 355
#     4  10  20  36  57  90 118 150 184 240 311 348
#     4  10  23  33  60  94 118 149 188 252 306 360
#     4  11  22  37  64  90 119 155 198 254 302 356
#
# _framework density 18.733250999999999
#
# number of rings (size 3 to 8) (size 9 to 14) (size 15 to 20)
#    0.000    1.750    2.500    1.125   10.500    0.000 
#    0.000    0.625    0.000    1.500    0.000    0.000 
#    0.000    0.000    0.000    0.000    0.000    0.000 
#
# Total GULP energy -178447.788086 kJ/mol
# GULP energy per Si atom -5576.493378 kJ/mol
# Density = 1.869061 g / cm^3
# Si number density = 18.733251 Si / 1000 Ang^3
#
#
#
# Elastic Constant Matrix: (Units=GPa)
#
#
# Indices 1 2 3 4 5 6 
#
# 1 108.6026 41.8037 41.3031 0.0000 -5.1545 0.0000
# 2 41.8037 44.2340 26.1025 0.0000 5.6890 0.0000
# 3 41.3031 26.1025 72.2152 0.0000 -0.1762 0.0000
# 4 0.0000 0.0000 0.0000 24.4536 0.0000 -2.0854
# 5 -5.1545 5.6890 -0.1762 0.0000 23.1903 0.0000
# 6 0.0000 0.0000 0.0000 -2.0854 0.0000 17.4028
#
#
#
# Elastic Compliance Matrix: (Units=1/GPa)
#
#
# Indices 1 2 3 4 5 6 
#
# 1 0.016620 -0.014008 -0.004425 0.000000 0.007097 0.000000
# 2 -0.014008 0.041772 -0.007120 0.000000 -0.013415 0.000000
# 3 -0.004425 -0.007120 0.018954 0.000000 0.000907 0.000000
# 4 0.000000 0.000000 0.000000 0.041316 0.000000 0.004951
# 5 0.007097 -0.013415 0.000907 0.000000 0.047997 0.000000
# 6 0.000000 0.000000 0.000000 0.004951 0.000000 0.058055
#
#
# Mechanical properties :
#
#
# Convention : Reuss Voigt Hill
#
# Bulk Modulus (GPa) = 38.10902 49.27451 43.69176
# Shear Modulus (GPa) = 17.57060 20.73217 19.15138
#
# Velocity S-wave (km/s) = 3.06590 3.33033 3.20084
# Velocity P-wave (km/s) = 5.73761 6.41470 6.08558
#
# Compressibility (1/GPa) = 0.02624050
#
# Stress axis : x y z
#
# Youngs Moduli (GPa) = 60.16972 23.93930 52.75957
#
# Poissons Ratio (x) = 0.33535 0.23345
# Poissons Ratio (y) = 0.84287 0.37563
# Poissons Ratio (z) = 0.26624 0.17044
#
# Static dielectric constant tensor:
#      x y z
#    x 1.683430 0.000000 0.003180 
#    y 0.000000 1.602620 0.000000 
#    z 0.003180 0.000000 1.704380 
# 
# From -- ./inp_files/30454.got.cif
#   From: 2010.05.17/outbox.cif.g08.bks.cpg/sg14_16_cif.got.tgz:30454.got - 2010.06.03 17:49:19.
