data_PCOD9241999
_publ_section_title
;
Structure prediction by ZEFSAII (Michael W. Deem and Ramdas Pophale) SiO2 
 PCOD9241999
Probable space group: P 21/C
;
_chemical_formula_sum "Si O2"
_cell_formula_units_Z 32
_cell_length_a 5.433298
_cell_length_b 10.681834
_cell_length_c 22.723837
_cell_angle_alpha 90.000000
_cell_angle_beta 70.760493
_cell_angle_gamma 90.000000
_cell_volume 1245.178832
_symmetry_space_group_name_H-M "P 21/C"
_symmetry_group_IT_number 14
_symmetry_cell_setting 'monoclinic'
loop_
_space_group_symop_operation_xyz
x,y,z
-x,1/2+y,1/2-z
-x,-y,-z
x,1/2-y,1/2+z
loop_
_atom_site_type_symbol
_atom_site_label
_atom_site_fract_x
_atom_site_fract_y
_atom_site_fract_z
Si Si1 0.012198 0.032211 0.620866
Si Si2 0.430505 0.817473 0.317813
Si Si3 0.123647 0.024585 0.742921
Si Si4 0.449715 0.710348 0.200013
Si Si5 0.091143 0.122219 0.868494
Si Si6 0.311351 0.897355 0.914706
Si Si7 0.246959 0.275525 0.544205
Si Si8 0.681863 0.204732 0.425334
O O1 0.167698 0.161021 0.594177
O O2 0.716568 0.076989 0.631951
O O3 0.994209 0.991195 0.691014
O O4 0.154321 0.921489 0.574850
O O5 0.331540 0.804387 0.258162
O O6 0.388882 0.687918 0.352942
O O7 0.729708 0.848015 0.285934
O O8 0.359803 0.923991 0.731219
O O9 0.004859 0.043587 0.816995
O O10 0.744266 0.758123 0.167452
O O11 0.346141 0.713804 0.142424
O O12 0.855274 0.174156 0.925077
O O13 0.276539 0.037392 0.894225
O O14 0.542558 0.867850 0.941942
O O15 0.018838 0.846458 0.952199
O O16 0.405620 0.212090 0.478579
#
# Coordination Sequence:
#
# PCOD9241999 Si02
#       8
#     4   4   4   4   4   4   4   4
#     4  10  21  41  66  96 132 177 229 288 350 408
#     4  10  19  39  62  95 129 170 222 277 347 406
#     4  10  19  38  64  96 133 170 224 283 350 408
#     4  10  22  39  63  97 134 174 224 284 347 408
#     4  11  24  40  65  98 137 180 231 287 349 413
#     4  11  25  46  71  98 134 186 228 279 339 415
#     4  11  26  47  72  97 138 186 236 280 340 411
#     4  11  25  42  63  99 132 182 233 288 339 412
#
# _framework density 25.699119
#
# number of rings (size 3 to 8) (size 9 to 14) (size 15 to 20)
#    0.000    1.500    2.500    1.875    3.500    1.000 
#    0.000    1.875    0.000    0.000    0.000    0.000 
#    0.000    0.000    0.000    0.000    0.000    0.000 
#
# Total GULP energy -178694.183541 kJ/mol
# GULP energy per Si atom -5584.193236 kJ/mol
# Density = 2.564063 g / cm^3
# Si number density = 25.699119 Si / 1000 Ang^3
#
#
#
# Elastic Constant Matrix: (Units=GPa)
#
#
# Indices 1 2 3 4 5 6 
#
# 1 75.1886 17.9709 23.3161 0.0000 -7.4255 0.0000
# 2 17.9709 77.3752 17.1371 0.0000 -8.1838 0.0000
# 3 23.3161 17.1371 81.9567 0.0000 -0.7588 0.0000
# 4 0.0000 0.0000 0.0000 24.7038 0.0000 -2.2536
# 5 -7.4255 -8.1838 -0.7588 0.0000 35.8357 0.0000
# 6 0.0000 0.0000 0.0000 -2.2536 0.0000 29.0611
#
#
#
# Elastic Compliance Matrix: (Units=1/GPa)
#
#
# Indices 1 2 3 4 5 6 
#
# 1 0.015320 -0.002443 -0.003824 0.000000 0.002536 0.000000
# 2 -0.002443 0.014280 -0.002266 0.000000 0.002707 0.000000
# 3 -0.003824 -0.002266 0.013754 0.000000 -0.001019 0.000000
# 4 0.000000 0.000000 0.000000 0.040768 0.000000 0.003161
# 5 0.002536 0.002707 -0.001019 0.000000 0.029027 0.000000
# 6 0.000000 0.000000 0.000000 0.003161 0.000000 0.034655
#
#
# Mechanical properties :
#
#
# Convention : Reuss Voigt Hill
#
# Bulk Modulus (GPa) = 38.04072 39.04096 38.54084
# Shear Modulus (GPa) = 28.79646 29.65988 29.22817
#
# Velocity S-wave (km/s) = 3.35105 3.40092 3.37608
# Velocity P-wave (km/s) = 5.45960 5.53590 5.49788
#
# Compressibility (1/GPa) = 0.02628762
#
# Stress axis : x y z
#
# Youngs Moduli (GPa) = 65.27382 70.03020 72.70693
#
# Poissons Ratio (x) = 0.17109 0.27804
# Poissons Ratio (y) = 0.15947 0.16474
# Poissons Ratio (z) = 0.24962 0.15867
#
# Static dielectric constant tensor:
#      x y z
#    x 2.094460 0.000000 0.039200 
#    y 0.000000 2.073810 0.000000 
#    z 0.039200 0.000000 1.995070 
# 
# From -- ./inp_files/71226.got.cif
#   From: 2010.05.17/outbox.cif.g08.bks.cpg/sg14_36_cif.got.tgz:71226.got - 2010.06.03 17:49:19.
