data_PCOD9241859
_publ_section_title
;
Structure prediction by ZEFSAII (Michael W. Deem and Ramdas Pophale) SiO2 
 PCOD9241859
Probable space group: P 21/C
;
_chemical_formula_sum "Si O2"
_cell_formula_units_Z 30
_cell_length_a 23.975312
_cell_length_b 7.644277
_cell_length_c 15.246483
_cell_angle_alpha 90.000000
_cell_angle_beta 25.178382
_cell_angle_gamma 90.000000
_cell_volume 1188.793709
_symmetry_space_group_name_H-M "P 21/C"
_symmetry_group_IT_number 14
_symmetry_cell_setting 'monoclinic'
loop_
_space_group_symop_operation_xyz
x,y,z
-x,1/2+y,1/2-z
-x,-y,-z
x,1/2-y,1/2+z
loop_
_atom_site_type_symbol
_atom_site_label
_atom_site_fract_x
_atom_site_fract_y
_atom_site_fract_z
Si Si1 0.198113 0.257307 0.326838
Si Si2 0.313753 0.598508 0.620620
Si Si3 0.316185 0.912792 0.905394
Si Si4 0.868129 0.553062 0.851621
Si Si5 0.000000 0.500000 0.500000
Si Si6 0.406428 0.531452 0.988687
Si Si7 0.595670 0.029581 0.720445
Si Si8 0.068919 0.107683 0.188135
O O1 0.211610 0.050219 0.293578
O O2 0.338347 0.352808 0.115528
O O3 0.141045 0.305587 0.502199
O O4 0.106853 0.357702 0.387275
O O5 0.312599 0.590959 0.516292
O O6 0.315810 0.802911 0.644595
O O7 0.455543 0.531571 0.451716
O O8 0.440789 0.033664 0.700671
O O9 0.356535 0.719555 0.816980
O O10 0.173697 0.970882 0.075447
O O11 0.894827 0.441687 0.726983
O O12 0.951213 0.731156 0.716986
O O13 0.936029 0.462594 0.836882
O O14 0.716189 0.593592 0.074838
O O15 0.412334 0.531892 0.874202
#
# Coordination Sequence:
#
# PCOD9241859 Si02
#       8
#     4   4   4   4   2   4   4   4
#     4  11  22  43  60  97 129 168 215 266 324 388
#     4  10  21  38  66  98 122 167 219 266 316 384
#     4  10  20  37  61  94 124 166 209 268 323 380
#     4  11  22  43  62  92 124 174 220 260 326 386
#     4  10  22  40  74  84 130 176 216 280 306 384
#     4  10  20  37  65  91 126 160 213 265 318 371
#     4  10  19  37  67  92 122 165 218 267 312 384
#     4  11  25  40  62  89 130 170 207 265 335 385
#
# _framework density 25.235665000000001
#
# number of rings (size 3 to 8) (size 9 to 14) (size 15 to 20)
#    0.000    1.600    2.667    2.400    1.867    0.533 
#    7.200    2.000    0.000    0.000    0.000    0.000 
#    0.000    0.000    0.000    0.000    0.000    0.000 
#
# Total GULP energy -167291.971973 kJ/mol
# GULP energy per Si atom -5576.399066 kJ/mol
# Density = 2.517823 g / cm^3
# Si number density = 25.235665 Si / 1000 Ang^3
#
#
#
# Elastic Constant Matrix: (Units=GPa)
#
#
# Indices 1 2 3 4 5 6 
#
# 1 60.9500 -1.5801 16.8837 0.0000 -18.4868 0.0000
# 2 -1.5801 85.8572 -0.0603 0.0000 2.4726 0.0000
# 3 16.8837 -0.0603 39.9704 0.0000 -11.6511 0.0000
# 4 0.0000 0.0000 0.0000 27.2352 0.0000 -16.1337
# 5 -18.4868 2.4726 -11.6511 0.0000 31.3332 0.0000
# 6 0.0000 0.0000 0.0000 -16.1337 0.0000 21.7486
#
#
#
# Elastic Compliance Matrix: (Units=1/GPa)
#
#
# Indices 1 2 3 4 5 6 
#
# 1 0.021173 0.000090 -0.005949 0.000000 0.010273 0.000000
# 2 0.000090 0.011677 -0.000307 0.000000 -0.000983 0.000000
# 3 -0.005949 -0.000307 0.029738 0.000000 0.007572 0.000000
# 4 0.000000 0.000000 0.000000 0.065502 0.000000 0.048591
# 5 0.010273 -0.000983 0.007572 0.000000 0.040870 0.000000
# 6 0.000000 0.000000 0.000000 0.048591 0.000000 0.082026
#
#
# Mechanical properties :
#
#
# Convention : Reuss Voigt Hill
#
# Bulk Modulus (GPa) = 19.89801 24.14045 22.01923
# Shear Modulus (GPa) = 17.85268 27.49900 22.67584
#
# Velocity S-wave (km/s) = 2.66266 3.30462 3.00086
# Velocity P-wave (km/s) = 4.16593 4.91401 4.55535
#
# Compressibility (1/GPa) = 0.05025628
#
# Stress axis : x y z
#
# Youngs Moduli (GPa) = 47.22983 85.63856 33.62683
#
# Poissons Ratio (x) = -0.00768 0.20004
# Poissons Ratio (y) = -0.00423 0.01031
# Poissons Ratio (z) = 0.28097 0.02626
#
# Static dielectric constant tensor:
#      x y z
#    x 2.022270 0.000000 0.049210 
#    y 0.000000 2.024530 0.000000 
#    z 0.049210 0.000000 2.000810 
# 
# From -- ./inp_files/50236.got.cif
#   From: 2010.05.17/outbox.cif.g08.bks.cpg/sg14_26_cif.got.tgz:50236.got - 2010.06.03 17:49:19.
