data_PCOD9241444
_publ_section_title
;
Structure prediction by ZEFSAII (Michael W. Deem and Ramdas Pophale) SiO2 
 PCOD9241444
Probable space group: P 21/C
;
_chemical_formula_sum "Si O2"
_cell_formula_units_Z 32
_cell_length_a 28.097814
_cell_length_b 8.242035
_cell_length_c 16.194082
_cell_angle_alpha 90.000000
_cell_angle_beta 21.919401
_cell_angle_gamma 90.000000
_cell_volume 1399.985589
_symmetry_space_group_name_H-M "P 21/C"
_symmetry_group_IT_number 14
_symmetry_cell_setting 'monoclinic'
loop_
_space_group_symop_operation_xyz
x,y,z
-x,1/2+y,1/2-z
-x,-y,-z
x,1/2-y,1/2+z
loop_
_atom_site_type_symbol
_atom_site_label
_atom_site_fract_x
_atom_site_fract_y
_atom_site_fract_z
Si Si1 0.327385 0.708832 0.510648
Si Si2 0.692804 0.920328 0.520662
Si Si3 0.389524 0.205013 0.508092
Si Si4 0.806895 0.574495 0.560229
Si Si5 0.585591 0.071845 0.967538
Si Si6 0.153710 0.923096 0.161035
Si Si7 0.221030 0.579741 0.972250
Si Si8 0.957895 0.902169 0.356510
O O1 0.336653 0.680474 0.592598
O O2 0.217748 0.598457 0.646020
O O3 0.312746 0.898428 0.511042
O O4 0.466306 0.658307 0.249404
O O5 0.696172 0.801584 0.437428
O O6 0.791697 0.943133 0.436041
O O7 0.560168 0.886012 0.780326
O O8 0.322060 0.084938 0.681168
O O9 0.393565 0.384337 0.539729
O O10 0.782209 0.557776 0.501624
O O11 0.887218 0.733467 0.456470
O O12 0.909357 0.429574 0.408052
O O13 0.636989 0.095815 0.792995
O O14 0.004762 0.936954 0.374960
O O15 0.185394 0.747581 0.070449
O O16 0.136437 0.531981 0.030917
#
# Coordination Sequence:
#
# PCOD9241444 Si02
#       8
#     4   4   4   4   4   4   4   4
#     4   9  20  37  57  81 120 149 182 237 285 331
#     4   9  21  37  55  84 118 148 191 230 282 337
#     4  10  20  37  56  86 116 146 188 235 282 341
#     4  10  20  36  60  79 112 149 189 233 286 330
#     4  10  20  35  58  84 115 152 185 236 282 335
#     4   9  20  36  56  82 112 147 187 233 283 335
#     4  11  19  36  60  80 111 154 191 230 282 335
#     4  10  19  36  57  78 112 148 186 239 271 334
#
# _framework density 22.857378000000001
#
# number of rings (size 3 to 8) (size 9 to 14) (size 15 to 20)
#    0.750    1.500    2.500    0.375    1.750    1.500 
#    0.000    1.250    2.750    0.000    0.000    0.000 
#    0.000    0.000    0.000    0.000    0.000    0.000 
#
# Total GULP energy -178259.698115 kJ/mol
# GULP energy per Si atom -5570.615566 kJ/mol
# Density = 2.280535 g / cm^3
# Si number density = 22.857378 Si / 1000 Ang^3
#
#
#
# Elastic Constant Matrix: (Units=GPa)
#
#
# Indices 1 2 3 4 5 6 
#
# 1 15.8130 21.1550 5.4859 0.0000 -5.4905 0.0000
# 2 21.1550 34.6111 12.9941 0.0000 -9.3851 0.0000
# 3 5.4859 12.9941 27.8852 0.0000 -3.0275 0.0000
# 4 0.0000 0.0000 0.0000 9.0960 0.0000 -15.5317
# 5 -5.4905 -9.3851 -3.0275 0.0000 10.6923 0.0000
# 6 0.0000 0.0000 0.0000 -15.5317 0.0000 19.6968
#
#
#
# Elastic Compliance Matrix: (Units=1/GPa)
#
#
# Indices 1 2 3 4 5 6 
#
# 1 0.383234 -0.253533 0.041220 0.000000 -0.014077 0.000000
# 2 -0.253533 0.212331 -0.044328 0.000000 0.043633 0.000000
# 3 0.041220 -0.044328 0.047956 0.000000 -0.004164 0.000000
# 4 0.000000 0.000000 0.000000 -0.317324 0.000000 -0.250222
# 5 -0.014077 0.043633 -0.004164 0.000000 0.123417 0.000000
# 6 0.000000 0.000000 0.000000 -0.250222 0.000000 -0.146540
#
#
# Mechanical properties :
#
#
# Convention : Reuss Voigt Hill
#
# Bulk Modulus (GPa) = 7.67816 17.50883 12.59349
# Shear Modulus (GPa) = 5.81552 10.47531 8.14542
#
# Velocity S-wave (km/s) = 1.59681 2.14309 1.88979
# Velocity P-wave (km/s) = 2.60119 3.71490 3.20676
#
# Compressibility (1/GPa) = 0.13023955
#
# Stress axis : x y z
#
# Youngs Moduli (GPa) = 2.60937 4.70964 20.85241
#
# Poissons Ratio (x) = 1.19405 -0.85955
# Poissons Ratio (y) = 0.66156 0.92435
# Poissons Ratio (z) = -0.10756 0.20877
#
# Static dielectric constant tensor:
#      x y z
#    x 1.945640 0.000000 -0.038890 
#    y 0.000000 1.853890 0.000000 
#    z -0.038890 0.000000 1.859070 
# 
# From -- ./inp_files/51901.got.cif
#   From: 2010.05.17/outbox.cif.g08.bks.cpg/sg14_26_cif.got.tgz:51901.got - 2010.06.03 17:49:19.
