data_PCOD9241395
_publ_section_title
;
Structure prediction by ZEFSAII (Michael W. Deem and Ramdas Pophale) SiO2 
 PCOD9241395
Probable space group: P 21/C
;
_chemical_formula_sum "Si O2"
_cell_formula_units_Z 26
_cell_length_a 15.133456
_cell_length_b 14.697994
_cell_length_c 11.597795
_cell_angle_alpha 90.000000
_cell_angle_beta 156.060075
_cell_angle_gamma 90.000000
_cell_volume 1046.792760
_symmetry_space_group_name_H-M "P 21/C"
_symmetry_group_IT_number 14
_symmetry_cell_setting 'monoclinic'
loop_
_space_group_symop_operation_xyz
x,y,z
-x,1/2+y,1/2-z
-x,-y,-z
x,1/2-y,1/2+z
loop_
_atom_site_type_symbol
_atom_site_label
_atom_site_fract_x
_atom_site_fract_y
_atom_site_fract_z
Si Si1 0.485694 0.254925 0.684663
Si Si2 0.351526 0.091607 0.199351
Si Si3 0.749083 0.133966 0.338909
Si Si4 0.844325 0.864477 0.340806
Si Si5 0.500000 0.000000 0.000000
Si Si6 0.330830 0.072212 0.443417
Si Si7 0.940474 0.964204 0.672800
O O1 0.407638 0.314655 0.700645
O O2 0.703361 0.296160 0.885447
O O3 0.304267 0.280285 0.371744
O O4 0.483470 0.147331 0.685696
O O5 0.310185 0.100045 0.286070
O O6 0.558083 0.026284 0.426693
O O7 0.140379 0.033497 0.908100
O O8 0.547790 0.108753 0.017782
O O9 0.956612 0.145980 0.510435
O O10 0.738508 0.029709 0.384046
O O11 0.943108 0.882513 0.585351
O O12 0.698192 0.954907 0.144349
O O13 0.115922 0.066466 0.266043
#
# Coordination Sequence:
#
# PCOD9241395 Si02
#       7
#     4   4   4   4   2   4   4
#     4  11  24  43  69  99 138 181 237 290 339 417
#     4  11  25  48  69  96 143 185 228 287 351 423
#     4  10  19  35  63  99 135 171 221 284 343 399
#     4  10  21  35  65 103 132 168 225 290 345 402
#     4   8  16  28  54  90 130 164 204 270 338 394
#     4  11  27  46  68  99 138 193 233 278 358 419
#     4  11  21  41  71  98 134 181 225 287 352 414
#
# _framework density 24.837772999999999
#
# number of rings (size 3 to 8) (size 9 to 14) (size 15 to 20)
#    0.000    1.538    3.077    2.308    4.308    2.462 
#    0.000    0.000    0.000    0.000    0.000    0.000 
#    0.000    0.000    0.000    0.000    0.000    0.000 
#
# Total GULP energy -144772.358410 kJ/mol
# GULP energy per Si atom -5568.167631 kJ/mol
# Density = 2.478124 g / cm^3
# Si number density = 24.837773 Si / 1000 Ang^3
#
#
#
# Elastic Constant Matrix: (Units=GPa)
#
#
# Indices 1 2 3 4 5 6 
#
# 1 196.8375 16.9760 32.8769 0.0000 -4.0405 0.0000
# 2 16.9760 55.9957 -11.8078 0.0000 -18.7589 0.0000
# 3 32.8769 -11.8078 51.8608 0.0000 -3.3373 0.0000
# 4 0.0000 0.0000 0.0000 12.7714 0.0000 -7.6767
# 5 -4.0405 -18.7589 -3.3373 0.0000 42.6096 0.0000
# 6 0.0000 0.0000 0.0000 -7.6767 0.0000 15.8024
#
#
#
# Elastic Compliance Matrix: (Units=1/GPa)
#
#
# Indices 1 2 3 4 5 6 
#
# 1 0.006121 -0.003256 -0.004700 0.000000 -0.001221 0.000000
# 2 -0.003256 0.024295 0.008306 0.000000 0.011038 0.000000
# 3 -0.004700 0.008306 0.024483 0.000000 0.005129 0.000000
# 4 0.000000 0.000000 0.000000 0.110594 0.000000 0.053726
# 5 -0.001221 0.011038 0.005129 0.000000 0.028614 0.000000
# 6 0.000000 0.000000 0.000000 0.053726 0.000000 0.089381
#
#
# Mechanical properties :
#
#
# Convention : Reuss Voigt Hill
#
# Bulk Modulus (GPa) = 17.98621 42.30937 30.14779
# Shear Modulus (GPa) = 16.59351 32.01327 24.30339
#
# Velocity S-wave (km/s) = 2.58752 3.59401 3.13147
# Velocity P-wave (km/s) = 4.02296 5.85609 5.02385
#
# Compressibility (1/GPa) = 0.05559814
#
# Stress axis : x y z
#
# Youngs Moduli (GPa) = 163.36776 41.16121 40.84420
#
# Poissons Ratio (x) = 0.13402 0.19198
# Poissons Ratio (y) = 0.53192 -0.33925
# Poissons Ratio (z) = 0.76789 -0.34188
#
# Static dielectric constant tensor:
#      x y z
#    x 2.116660 0.000000 0.028630 
#    y 0.000000 1.982300 0.000000 
#    z 0.028630 0.000000 2.355750 
# 
# From -- ./inp_files/32823.got.cif
#   From: 2010.05.17/outbox.cif.g08.bks.cpg/sg14_17_cif.got.tgz:32823.got - 2010.06.03 17:49:19.
