data_PCOD9241424
_publ_section_title
;
Structure prediction by ZEFSAII (Michael W. Deem and Ramdas Pophale) SiO2 
 PCOD9241424
Probable space group: P 21/C
;
_chemical_formula_sum "Si O2"
_cell_formula_units_Z 32
_cell_length_a 9.414018
_cell_length_b 21.879679
_cell_length_c 17.568913
_cell_angle_alpha 90.000000
_cell_angle_beta 150.870059
_cell_angle_gamma 90.000000
_cell_volume 1761.587516
_symmetry_space_group_name_H-M "P 21/C"
_symmetry_group_IT_number 14
_symmetry_cell_setting 'monoclinic'
loop_
_space_group_symop_operation_xyz
x,y,z
-x,1/2+y,1/2-z
-x,-y,-z
x,1/2-y,1/2+z
loop_
_atom_site_type_symbol
_atom_site_label
_atom_site_fract_x
_atom_site_fract_y
_atom_site_fract_z
Si Si1 0.727284 0.974124 0.717040
Si Si2 0.624356 0.813083 0.403607
Si Si3 0.379009 0.414847 0.988953
Si Si4 0.710129 0.054401 0.195759
Si Si5 0.618435 0.898961 0.809663
Si Si6 0.268521 0.781736 0.654687
Si Si7 0.735728 0.151059 0.901508
Si Si8 0.387482 0.566016 0.519007
O O1 0.626556 0.926818 0.603781
O O2 0.605331 0.951854 0.740464
O O3 0.078081 0.969797 0.884178
O O4 0.610455 0.039172 0.634952
O O5 0.571591 0.846630 0.458179
O O6 0.458799 0.749308 0.311380
O O7 0.489832 0.855989 0.273802
O O8 0.961843 0.802892 0.544264
O O9 0.054025 0.433832 0.864861
O O10 0.527741 0.079974 0.180603
O O11 0.608740 0.083706 0.067918
O O12 0.640640 0.982432 0.154682
O O13 0.443803 0.838312 0.702786
O O14 0.956647 0.879869 0.975397
O O15 0.223131 0.724575 0.576317
O O16 0.622102 0.120842 0.925569
#
# Coordination Sequence:
#
# PCOD9241424 Si02
#       8
#     4   4   4   4   4   4   4   4
#     4   9  22  36  57  79 118 146 186 225 281 337
#     4  10  20  35  62  78 110 148 183 231 279 324
#     4  10  20  39  54  84 113 151 181 233 277 335
#     4  10  21  33  57  80 118 138 187 228 273 333
#     4  11  20  35  57  81 107 149 183 231 280 326
#     4  10  19  36  55  82 107 141 188 231 267 328
#     4   9  20  35  58  75 110 144 186 222 272 333
#     4   9  20  38  52  83 111 153 177 229 276 330
#
# _framework density 18.165433
#
# number of rings (size 3 to 8) (size 9 to 14) (size 15 to 20)
#    0.750    1.500    2.500    0.000    3.500    2.500 
#    0.000    1.250    0.000    0.000    0.000    0.000 
#    0.000    0.000    0.000    0.000    0.000    0.000 
#
# Total GULP energy -178288.298128 kJ/mol
# GULP energy per Si atom -5571.509317 kJ/mol
# Density = 1.812409 g / cm^3
# Si number density = 18.165433 Si / 1000 Ang^3
#
#
#
# Elastic Constant Matrix: (Units=GPa)
#
#
# Indices 1 2 3 4 5 6 
#
# 1 90.3728 0.9759 -1.9165 0.0000 -0.7292 0.0000
# 2 0.9759 17.6703 -4.5572 0.0000 -1.2253 0.0000
# 3 -1.9165 -4.5572 45.5751 0.0000 8.7189 0.0000
# 4 0.0000 0.0000 0.0000 17.3605 0.0000 1.4334
# 5 -0.7292 -1.2253 8.7189 0.0000 10.5353 0.0000
# 6 0.0000 0.0000 0.0000 1.4334 0.0000 30.5989
#
#
#
# Elastic Compliance Matrix: (Units=1/GPa)
#
#
# Indices 1 2 3 4 5 6 
#
# 1 0.011081 -0.000496 0.000333 0.000000 0.000433 0.000000
# 2 -0.000496 0.058160 0.005355 0.000000 0.002298 0.000000
# 3 0.000333 0.005355 0.026575 0.000000 -0.021347 0.000000
# 4 0.000000 0.000000 0.000000 0.057826 0.000000 -0.002709
# 5 0.000433 0.002298 -0.021347 0.000000 0.112883 0.000000
# 6 0.000000 0.000000 0.000000 -0.002709 0.000000 0.032808
#
#
# Mechanical properties :
#
#
# Convention : Reuss Voigt Hill
#
# Bulk Modulus (GPa) = 9.41604 15.84696 12.63150
# Shear Modulus (GPa) = 15.41555 22.30670 18.86112
#
# Velocity S-wave (km/s) = 2.91627 3.50805 3.22576
# Velocity P-wave (km/s) = 4.06623 5.01509 4.56538
#
# Compressibility (1/GPa) = 0.10620173
#
# Stress axis : x y z
#
# Youngs Moduli (GPa) = 90.24295 17.19398 37.62899
#
# Poissons Ratio (x) = 0.00853 -0.01255
# Poissons Ratio (y) = 0.04475 -0.20151
# Poissons Ratio (z) = -0.03009 -0.09208
#
# Static dielectric constant tensor:
#      x y z
#    x 1.607140 0.000000 -0.010170 
#    y 0.000000 1.634630 0.000000 
#    z -0.010170 0.000000 1.630640 
# 
# From -- ./inp_files/56273.got.cif
#   From: 2010.05.17/outbox.cif.g08.bks.cpg/sg14_29_cif.got.tgz:56273.got - 2010.06.03 17:49:19.
