data_PCOD9241106
_publ_section_title
;
Structure prediction by ZEFSAII (Michael W. Deem and Ramdas Pophale) SiO2 
 PCOD9241106
Probable space group: P 21/C
;
_chemical_formula_sum "Si O2"
_cell_formula_units_Z 24
_cell_length_a 7.171694
_cell_length_b 10.187908
_cell_length_c 12.611908
_cell_angle_alpha 90.000000
_cell_angle_beta 87.581599
_cell_angle_gamma 90.000000
_cell_volume 920.662754
_symmetry_space_group_name_H-M "P 21/C"
_symmetry_group_IT_number 14
_symmetry_cell_setting 'monoclinic'
loop_
_space_group_symop_operation_xyz
x,y,z
-x,1/2+y,1/2-z
-x,-y,-z
x,1/2-y,1/2+z
loop_
_atom_site_type_symbol
_atom_site_label
_atom_site_fract_x
_atom_site_fract_y
_atom_site_fract_z
Si Si1 0.056417 0.327366 0.364107
Si Si2 0.799260 0.408682 0.644540
Si Si3 0.386518 0.478173 0.135336
Si Si4 0.205901 0.289830 0.667161
Si Si5 0.690637 0.263764 0.967615
Si Si6 0.312371 0.934778 0.206392
O O1 0.156757 0.451971 0.414128
O O2 0.200290 0.244862 0.292912
O O3 0.914928 0.243190 0.437340
O O4 0.906816 0.395783 0.285506
O O5 0.720430 0.450594 0.761097
O O6 0.673079 0.314424 0.576823
O O7 0.993995 0.332123 0.650033
O O8 0.280477 0.342177 0.110978
O O9 0.380494 0.590322 0.046814
O O10 0.582073 0.441749 0.185941
O O11 0.320194 0.422934 0.653016
O O12 0.606442 0.173478 0.875476
#
# Coordination Sequence:
#
# PCOD9241106 Si02
#       6
#     4   4   4   4   4   4
#     4   8  18  34  55  82 104 144 182 225 266 325
#     4  10  19  35  57  83 111 143 194 225 269 332
#     4  11  21  36  57  82 117 146 182 231 282 328
#     4  10  19  34  59  81 109 147 183 233 276 319
#     4  10  20  34  60  80 112 146 188 227 275 325
#     4   9  20  35  56  81 111 146 182 226 279 331
#
# _framework density 26.068179000000001
#
# number of rings (size 3 to 8) (size 9 to 14) (size 15 to 20)
#    1.000    1.333    1.667    1.500    0.000    1.333 
#    0.000    0.000    0.000    5.000    0.000    0.000 
#    0.000    0.000    0.000    0.000    0.000    0.000 
#
# Total GULP energy -134123.390152 kJ/mol
# GULP energy per Si atom -5588.474590 kJ/mol
# Density = 2.600885 g / cm^3
# Si number density = 26.068179 Si / 1000 Ang^3
#
#
#
# Elastic Constant Matrix: (Units=GPa)
#
#
# Indices 1 2 3 4 5 6 
#
# 1 61.8198 27.4004 4.0603 0.0000 6.1246 0.0000
# 2 27.4004 200.7864 30.2639 0.0000 1.4720 0.0000
# 3 4.0603 30.2639 64.9446 0.0000 14.4410 0.0000
# 4 0.0000 0.0000 0.0000 18.7068 0.0000 -5.8625
# 5 6.1246 1.4720 14.4410 0.0000 23.8768 0.0000
# 6 0.0000 0.0000 0.0000 -5.8625 0.0000 42.2531
#
#
#
# Elastic Compliance Matrix: (Units=1/GPa)
#
#
# Indices 1 2 3 4 5 6 
#
# 1 0.017743 -0.002569 0.001230 0.000000 -0.005137 0.000000
# 2 -0.002569 0.005767 -0.002998 0.000000 0.002116 0.000000
# 3 0.001230 -0.002998 0.019349 0.000000 -0.011833 0.000000
# 4 0.000000 0.000000 0.000000 0.055887 0.000000 0.007754
# 5 -0.005137 0.002116 -0.011833 0.000000 0.050226 0.000000
# 6 0.000000 0.000000 0.000000 0.007754 0.000000 0.024743
#
#
# Mechanical properties :
#
#
# Convention : Reuss Voigt Hill
#
# Bulk Modulus (GPa) = 29.25165 50.11111 39.68138
# Shear Modulus (GPa) = 25.80216 34.68909 30.24562
#
# Velocity S-wave (km/s) = 3.14951 3.65184 3.40994
# Velocity P-wave (km/s) = 4.94687 6.08655 5.54606
#
# Compressibility (1/GPa) = 0.03418610
#
# Stress axis : x y z
#
# Youngs Moduli (GPa) = 56.36077 173.39162 51.68256
#
# Poissons Ratio (x) = 0.44545 -0.06357
# Poissons Ratio (y) = 0.14479 0.15492
# Poissons Ratio (z) = -0.06933 0.51974
#
# Static dielectric constant tensor:
#      x y z
#    x 2.075050 0.000000 -0.038780 
#    y 0.000000 2.032330 0.000000 
#    z -0.038780 0.000000 2.091500 
# 
# From -- ./inp_files/39433.got.cif
#   From: 2010.05.17/outbox.cif.g08.bks.cpg/sg14_20_cif.got.tgz:39433.got - 2010.06.03 17:49:19.
