data_PCOD9241574
_publ_section_title
;
Structure prediction by ZEFSAII (Michael W. Deem and Ramdas Pophale) SiO2 
 PCOD9241574
Probable space group: P 21/C
;
_chemical_formula_sum "Si O2"
_cell_formula_units_Z 32
_cell_length_a 22.845002
_cell_length_b 10.329372
_cell_length_c 17.707009
_cell_angle_alpha 90.000000
_cell_angle_beta 21.527183
_cell_angle_gamma 90.000000
_cell_volume 1533.234094
_symmetry_space_group_name_H-M "P 21/C"
_symmetry_group_IT_number 14
_symmetry_cell_setting 'monoclinic'
loop_
_space_group_symop_operation_xyz
x,y,z
-x,1/2+y,1/2-z
-x,-y,-z
x,1/2-y,1/2+z
loop_
_atom_site_type_symbol
_atom_site_label
_atom_site_fract_x
_atom_site_fract_y
_atom_site_fract_z
Si Si1 0.958327 0.056490 0.920058
Si Si2 0.549767 0.776666 0.077335
Si Si3 0.274513 0.700740 0.799195
Si Si4 0.964579 0.370718 0.806262
Si Si5 0.377910 0.691526 0.017878
Si Si6 0.295348 0.124432 0.957946
Si Si7 0.200748 0.417609 0.257768
Si Si8 0.264402 0.829100 0.005564
O O1 0.093096 0.115983 0.813773
O O2 0.813083 0.157729 0.082827
O O3 0.019014 0.991292 0.770689
O O4 0.897072 0.941545 0.048776
O O5 0.422124 0.840466 0.175270
O O6 0.637234 0.852733 0.038873
O O7 0.437125 0.677861 0.258119
O O8 0.675043 0.695956 0.879599
O O9 0.348678 0.723046 0.627787
O O10 0.131508 0.607765 0.999555
O O11 0.857064 0.267576 0.889278
O O12 0.134728 0.306240 0.622429
O O13 0.289998 0.553205 0.133592
O O14 0.293514 0.771819 0.052997
O O15 0.558620 0.657920 0.773977
O O16 0.227315 0.978725 0.043570
#
# Coordination Sequence:
#
# PCOD9241574 Si02
#       8
#     4   4   4   4   4   4   4   4
#     4  10  21  34  62  91 122 158 201 261 315 362
#     4  10  21  36  59  87 124 159 204 257 305 369
#     4  10  23  39  61  94 126 158 212 263 310 368
#     4  11  21  38  57  90 124 163 200 251 315 376
#     4  10  21  40  65  93 124 160 208 268 309 365
#     4  11  23  39  64  91 124 168 211 249 322 376
#     4  10  19  36  61  95 121 153 206 264 310 359
#     4  10  21  41  62  91 123 164 203 257 315 379
#
# _framework density 20.870916000000001
#
# number of rings (size 3 to 8) (size 9 to 14) (size 15 to 20)
#    0.000    1.750    2.500    2.250    1.750    1.000 
#    0.000    2.500    2.750    0.000    0.000    0.000 
#    0.000    0.000    0.000    0.000    0.000    0.000 
#
# Total GULP energy -178217.478113 kJ/mol
# GULP energy per Si atom -5569.296191 kJ/mol
# Density = 2.082341 g / cm^3
# Si number density = 20.870916 Si / 1000 Ang^3
#
#
#
# Elastic Constant Matrix: (Units=GPa)
#
#
# Indices 1 2 3 4 5 6 
#
# 1 66.6934 -8.3059 13.5010 0.0000 -15.6799 0.0000
# 2 -8.3059 20.2339 -2.1043 0.0000 -4.7093 0.0000
# 3 13.5010 -2.1043 65.2789 0.0000 -15.6179 0.0000
# 4 0.0000 0.0000 0.0000 22.6103 0.0000 3.8289
# 5 -15.6799 -4.7093 -15.6179 0.0000 34.2545 0.0000
# 6 0.0000 0.0000 0.0000 3.8289 0.0000 17.1773
#
#
#
# Elastic Compliance Matrix: (Units=1/GPa)
#
#
# Indices 1 2 3 4 5 6 
#
# 1 0.018644 0.009670 -0.001329 0.000000 0.009257 0.000000
# 2 0.009670 0.056894 0.003103 0.000000 0.013663 0.000000
# 3 -0.001329 0.003103 0.017567 0.000000 0.007827 0.000000
# 4 0.000000 0.000000 0.000000 0.045963 0.000000 -0.010245
# 5 0.009257 0.013663 0.007827 0.000000 0.038878 0.000000
# 6 0.000000 0.000000 0.000000 -0.010245 0.000000 0.060500
#
#
# Mechanical properties :
#
#
# Convention : Reuss Voigt Hill
#
# Bulk Modulus (GPa) = 8.62142 17.59865 13.11004
# Shear Modulus (GPa) = 19.66784 24.74944 22.20864
#
# Velocity S-wave (km/s) = 3.07311 3.44733 3.26559
# Velocity P-wave (km/s) = 4.09046 4.92909 4.52922
#
# Compressibility (1/GPa) = 0.11599016
#
# Stress axis : x y z
#
# Youngs Moduli (GPa) = 53.63725 17.57658 56.92651
#
# Poissons Ratio (x) = -0.16996 0.07568
# Poissons Ratio (y) = -0.51865 -0.17664
# Poissons Ratio (z) = 0.07131 -0.05454
#
# Static dielectric constant tensor:
#      x y z
#    x 1.798650 0.000000 -0.001970 
#    y 0.000000 1.754500 0.000000 
#    z -0.001970 0.000000 1.789070 
# 
# From -- ./inp_files/55611.got.cif
#   From: 2010.05.17/outbox.cif.g08.bks.cpg/sg14_28_cif.got.tgz:55611.got - 2010.06.03 17:49:19.
