data_PCOD9241229
_publ_section_title
;
Structure prediction by ZEFSAII (Michael W. Deem and Ramdas Pophale) SiO2 
 PCOD9241229
Probable space group: P 21/C
;
_chemical_formula_sum "Si O2"
_cell_formula_units_Z 32
_cell_length_a 21.316502
_cell_length_b 7.361812
_cell_length_c 16.168048
_cell_angle_alpha 90.000000
_cell_angle_beta 153.673938
_cell_angle_gamma 90.000000
_cell_volume 1125.203930
_symmetry_space_group_name_H-M "P 21/C"
_symmetry_group_IT_number 14
_symmetry_cell_setting 'monoclinic'
loop_
_space_group_symop_operation_xyz
x,y,z
-x,1/2+y,1/2-z
-x,-y,-z
x,1/2-y,1/2+z
loop_
_atom_site_type_symbol
_atom_site_label
_atom_site_fract_x
_atom_site_fract_y
_atom_site_fract_z
Si Si1 0.870684 0.398429 0.610862
Si Si2 0.232592 0.783274 0.720727
Si Si3 0.327899 0.588682 0.166761
Si Si4 0.741446 0.883757 0.827852
Si Si5 0.530379 0.339969 0.897229
Si Si6 0.015451 0.749827 0.090397
Si Si7 0.869091 0.873769 0.693629
Si Si8 0.402118 0.255642 0.567247
O O1 0.729936 0.278608 0.439563
O O2 0.822772 0.584138 0.511571
O O3 0.934901 0.381372 0.776858
O O4 0.987209 0.319007 0.683978
O O5 0.276156 0.916967 0.699549
O O6 0.261767 0.582961 0.716823
O O7 0.077401 0.801137 0.574974
O O8 0.333671 0.776945 0.919369
O O9 0.238759 0.454423 0.003650
O O10 0.496875 0.606373 0.363356
O O11 0.586530 0.818166 0.668704
O O12 0.847622 0.769997 0.897906
O O13 0.465859 0.281165 0.734221
O O14 0.569950 0.552665 0.934602
O O15 0.081135 0.950636 0.192382
O O16 0.767351 0.736451 0.622778
#
# Coordination Sequence:
#
# PCOD9241229 Si02
#       8
#     4   4   4   4   4   4   4   4
#     4   9  18  35  59  80 115 149 194 242 293 337
#     4  11  21  36  57  83 120 156 191 241 299 343
#     4  10  21  37  58  88 119 154 197 249 291 348
#     4  10  21  34  57  85 116 145 197 244 286 350
#     4  12  23  37  63  86 116 154 202 243 297 347
#     4  10  19  35  56  88 111 154 193 244 289 347
#     4  10  20  37  60  86 116 153 202 247 288 346
#     4  12  21  39  61  88 116 157 200 250 286 351
#
# _framework density 28.439288999999999
#
# number of rings (size 3 to 8) (size 9 to 14) (size 15 to 20)
#    0.000    1.500    5.000    2.250    0.000    0.000 
#    0.000    1.250    0.000    0.000    0.000    0.000 
#    0.000    0.000    0.000    0.000    0.000    0.000 
#
# Total GULP energy -179449.244810 kJ/mol
# GULP energy per Si atom -5607.788900 kJ/mol
# Density = 2.837456 g / cm^3
# Si number density = 28.439289 Si / 1000 Ang^3
#
#
#
# Elastic Constant Matrix: (Units=GPa)
#
#
# Indices 1 2 3 4 5 6 
#
# 1 181.3305 20.3310 39.7377 0.0000 32.5475 0.0000
# 2 20.3310 68.6650 28.3746 0.0000 9.3742 0.0000
# 3 39.7377 28.3746 92.0627 0.0000 35.3404 0.0000
# 4 0.0000 0.0000 0.0000 38.8158 0.0000 4.7273
# 5 32.5475 9.3742 35.3404 0.0000 73.6023 0.0000
# 6 0.0000 0.0000 0.0000 4.7273 0.0000 32.5364
#
#
#
# Elastic Compliance Matrix: (Units=1/GPa)
#
#
# Indices 1 2 3 4 5 6 
#
# 1 0.006330 -0.000901 -0.001746 0.000000 -0.001846 0.000000
# 2 -0.000901 0.016828 -0.005061 0.000000 0.000685 0.000000
# 3 -0.001746 -0.005061 0.015486 0.000000 -0.006019 0.000000
# 4 0.000000 0.000000 0.000000 0.026227 0.000000 -0.003811
# 5 -0.001846 0.000685 -0.006019 0.000000 0.017206 0.000000
# 6 0.000000 0.000000 0.000000 -0.003811 0.000000 0.031288
#
#
# Mechanical properties :
#
#
# Convention : Reuss Voigt Hill
#
# Bulk Modulus (GPa) = 43.04934 57.66053 50.35494
# Shear Modulus (GPa) = 36.62406 45.89856 41.26131
#
# Velocity S-wave (km/s) = 3.59248 4.02171 3.81314
# Velocity P-wave (km/s) = 5.69017 6.47183 6.09355
#
# Compressibility (1/GPa) = 0.02322916
#
# Stress axis : x y z
#
# Youngs Moduli (GPa) = 157.98450 59.42517 64.57405
#
# Poissons Ratio (x) = 0.05352 0.11274
# Poissons Ratio (y) = 0.14229 0.32679
# Poissons Ratio (z) = 0.27583 0.30073
#
# Static dielectric constant tensor:
#      x y z
#    x 2.207130 0.000000 -0.025120 
#    y 0.000000 2.248690 0.000000 
#    z -0.025120 0.000000 2.160280 
# 
# From -- ./inp_files/61223.got.cif
#   From: 2010.05.17/outbox.cif.g08.bks.cpg/sg14_31_cif.got.tgz:61223.got - 2010.06.03 17:49:19.
