data_PCOD9241264
_publ_section_title
;
Structure prediction by ZEFSAII (Michael W. Deem and Ramdas Pophale) SiO2 
 PCOD9241264
Probable space group: P 21/C
;
_chemical_formula_sum "Si O2"
_cell_formula_units_Z 28
_cell_length_a 15.342583
_cell_length_b 18.049972
_cell_length_c 10.652569
_cell_angle_alpha 90.000000
_cell_angle_beta 154.461679
_cell_angle_gamma 90.000000
_cell_volume 1271.809825
_symmetry_space_group_name_H-M "P 21/C"
_symmetry_group_IT_number 14
_symmetry_cell_setting 'monoclinic'
loop_
_space_group_symop_operation_xyz
x,y,z
-x,1/2+y,1/2-z
-x,-y,-z
x,1/2-y,1/2+z
loop_
_atom_site_type_symbol
_atom_site_label
_atom_site_fract_x
_atom_site_fract_y
_atom_site_fract_z
Si Si1 0.775860 0.334409 0.212927
Si Si2 0.482761 0.299501 0.039905
Si Si3 0.794790 0.640178 0.139835
Si Si4 0.784018 0.334830 0.650430
Si Si5 0.458400 0.358686 0.421734
Si Si6 0.896963 0.956294 0.479381
Si Si7 0.149543 0.983683 0.311365
O O1 0.566897 0.328056 0.017539
O O2 0.820791 0.251591 0.225558
O O3 0.770334 0.401260 0.105946
O O4 0.963575 0.354419 0.549489
O O5 0.629137 0.334370 0.334165
O O6 0.266189 0.325760 0.806278
O O7 0.492286 0.210616 0.057001
O O8 0.709805 0.555840 0.022570
O O9 0.688286 0.674657 0.879996
O O10 0.669331 0.371027 0.622267
O O11 0.980727 0.379288 0.867982
O O12 0.337695 0.428046 0.324007
O O13 0.932109 0.001456 0.654707
O O14 0.000000 0.000000 0.500000
O O15 0.000000 0.000000 0.000000
#
# Coordination Sequence:
#
# PCOD9241264 Si02
#       7
#     4   4   4   4   4   4   4
#     4  10  20  35  58  83 112 151 200 244 293 364
#     4  10  19  35  58  84 114 155 198 241 301 360
#     4   9  18  34  56  81 118 152 189 252 303 348
#     4  10  21  37  59  85 118 159 196 249 311 360
#     4   9  20  37  57  86 118 152 202 249 297 364
#     4  11  23  41  63  88 124 164 203 254 313 364
#     4   9  19  37  57  84 115 150 197 244 294 360
#
# _framework density 22.015868999999999
#
# number of rings (size 3 to 8) (size 9 to 14) (size 15 to 20)
#    0.000    2.286    0.000    3.429    0.000    3.429 
#    0.000   21.429    0.000    0.000    0.000    0.000 
#    0.000    0.000    0.000    0.000    0.000    0.000 
#
# Total GULP energy -155952.079221 kJ/mol
# GULP energy per Si atom -5569.717115 kJ/mol
# Density = 2.196576 g / cm^3
# Si number density = 22.015869 Si / 1000 Ang^3
#
#
#
# Elastic Constant Matrix: (Units=GPa)
#
#
# Indices 1 2 3 4 5 6 
#
# 1 150.4412 74.2912 11.8145 0.0000 21.7171 0.0000
# 2 74.2912 111.0448 14.3076 0.0000 11.1053 0.0000
# 3 11.8145 14.3076 30.4345 0.0000 18.0765 0.0000
# 4 0.0000 0.0000 0.0000 22.5664 0.0000 7.8263
# 5 21.7171 11.1053 18.0765 0.0000 26.0663 0.0000
# 6 0.0000 0.0000 0.0000 7.8263 0.0000 45.8005
#
#
#
# Elastic Compliance Matrix: (Units=1/GPa)
#
#
# Indices 1 2 3 4 5 6 
#
# 1 0.011170 -0.007123 0.004655 0.000000 -0.009500 0.000000
# 2 -0.007123 0.014169 -0.006521 0.000000 0.004420 0.000000
# 3 0.004655 -0.006521 0.059121 0.000000 -0.042099 0.000000
# 4 0.000000 0.000000 0.000000 0.047105 0.000000 -0.008049
# 5 -0.009500 0.004420 -0.042099 0.000000 0.073590 0.000000
# 6 0.000000 0.000000 0.000000 -0.008049 0.000000 0.023209
#
#
# Mechanical properties :
#
#
# Convention : Reuss Voigt Hill
#
# Bulk Modulus (GPa) = 15.04183 54.74966 34.89575
# Shear Modulus (GPa) = 18.62167 31.65379 25.13773
#
# Velocity S-wave (km/s) = 2.91147 3.79591 3.38272
# Velocity P-wave (km/s) = 4.26020 6.64336 5.58048
#
# Compressibility (1/GPa) = 0.06648128
#
# Stress axis : x y z
#
# Youngs Moduli (GPa) = 89.52242 70.57706 16.91448
#
# Poissons Ratio (x) = 0.50271 -0.07873
# Poissons Ratio (y) = 0.63766 0.11031
# Poissons Ratio (z) = -0.41671 0.46026
#
# Static dielectric constant tensor:
#      x y z
#    x 1.920460 0.000000 -0.041540 
#    y 0.000000 1.894070 0.000000 
#    z -0.041540 0.000000 1.886170 
# 
# From -- ./inp_files/32931.got.cif
#   From: 2010.05.17/outbox.cif.g08.bks.cpg/sg14_17_cif.got.tgz:32931.got - 2010.06.03 17:49:19.
