data_PCOD9241035
_publ_section_title
;
Structure prediction by ZEFSAII (Michael W. Deem and Ramdas Pophale) SiO2 
 PCOD9241035
Probable space group: P 21/C
;
_chemical_formula_sum "Si O2"
_cell_formula_units_Z 28
_cell_length_a 9.428898
_cell_length_b 14.963899
_cell_length_c 13.555108
_cell_angle_alpha 90.000000
_cell_angle_beta 40.556903
_cell_angle_gamma 90.000000
_cell_volume 1243.533829
_symmetry_space_group_name_H-M "P 21/C"
_symmetry_group_IT_number 14
_symmetry_cell_setting 'monoclinic'
loop_
_space_group_symop_operation_xyz
x,y,z
-x,1/2+y,1/2-z
-x,-y,-z
x,1/2-y,1/2+z
loop_
_atom_site_type_symbol
_atom_site_label
_atom_site_fract_x
_atom_site_fract_y
_atom_site_fract_z
Si Si1 0.508515 0.325226 0.669638
Si Si2 0.754072 0.521744 0.096135
Si Si3 0.405565 0.042269 0.650655
Si Si4 0.321360 0.186379 0.921582
Si Si5 0.680115 0.299241 0.365489
Si Si6 0.846856 0.130167 0.150015
Si Si7 0.837282 0.651873 0.867351
O O1 0.372529 0.417485 0.756567
O O2 0.553870 0.297498 0.534868
O O3 0.737891 0.338921 0.605582
O O4 0.382637 0.249135 0.797694
O O5 0.595788 0.445314 0.131961
O O6 0.000000 0.500000 0.000000
O O7 0.772765 0.585979 0.990604
O O8 0.269778 0.124196 0.678811
O O9 0.500000 0.000000 0.500000
O O10 0.246028 0.966658 0.776783
O O11 0.539797 0.149016 0.856551
O O12 0.108039 0.129459 0.011630
O O13 0.241654 0.253172 0.050949
O O14 0.748851 0.202731 0.281536
O O15 0.903888 0.348528 0.271511
#
# Coordination Sequence:
#
# PCOD9241035 Si02
#       7
#     4   4   4   4   4   4   4
#     4   9  19  35  54  78 107 138 176 221 268 317
#     4   9  18  35  55  77 106 140 178 218 262 318
#     4   9  17  34  57  76 103 142 176 213 266 323
#     4   9  19  36  54  77 108 142 178 219 263 317
#     4  10  19  34  56  80 106 137 178 228 266 308
#     4   9  19  36  54  77 107 140 179 222 266 318
#     4   9  19  36  54  77 108 139 177 219 261 317
#
# _framework density 22.516476000000001
#
# number of rings (size 3 to 8) (size 9 to 14) (size 15 to 20)
#    0.000    2.857    0.000    2.571    0.000    4.571 
#    0.000   21.429    0.000    1.714    0.000    0.000 
#    0.000    0.000    0.000    0.000    0.000    0.000 
#
# Total GULP energy -156310.480716 kJ/mol
# GULP energy per Si atom -5582.517168 kJ/mol
# Density = 2.246523 g / cm^3
# Si number density = 22.516476 Si / 1000 Ang^3
#
#
#
# Elastic Constant Matrix: (Units=GPa)
#
#
# Indices 1 2 3 4 5 6 
#
# 1 146.2985 38.3855 44.7457 0.0000 -13.2980 0.0000
# 2 38.3855 34.7850 8.6117 0.0000 -2.8180 0.0000
# 3 44.7457 8.6117 80.7124 0.0000 -0.8461 0.0000
# 4 0.0000 0.0000 0.0000 16.4138 0.0000 -2.8788
# 5 -13.2980 -2.8180 -0.8461 0.0000 48.8794 0.0000
# 6 0.0000 0.0000 0.0000 -2.8788 0.0000 34.8715
#
#
#
# Elastic Compliance Matrix: (Units=1/GPa)
#
#
# Indices 1 2 3 4 5 6 
#
# 1 0.011624 -0.011342 -0.005209 0.000000 0.002418 0.000000
# 2 -0.011342 0.040728 0.001935 0.000000 -0.000704 0.000000
# 3 -0.005209 0.001935 0.015060 0.000000 -0.001045 0.000000
# 4 0.000000 0.000000 0.000000 0.061819 0.000000 0.005104
# 5 0.002418 -0.000704 -0.001045 0.000000 0.021058 0.000000
# 6 0.000000 0.000000 0.000000 0.005104 0.000000 0.029098
#
#
# Mechanical properties :
#
#
# Convention : Reuss Voigt Hill
#
# Bulk Modulus (GPa) = 26.19146 49.47575 37.83361
# Shear Modulus (GPa) = 22.58913 31.36981 26.97947
#
# Velocity S-wave (km/s) = 3.17081 3.73660 3.46527
# Velocity P-wave (km/s) = 5.00627 6.37472 5.73149
#
# Compressibility (1/GPa) = 0.03818038
#
# Stress axis : x y z
#
# Youngs Moduli (GPa) = 86.02796 24.55323 66.40146
#
# Poissons Ratio (x) = 0.27848 0.34587
# Poissons Ratio (y) = 0.97572 -0.12848
# Poissons Ratio (z) = 0.44810 -0.04751
#
# Static dielectric constant tensor:
#      x y z
#    x 1.846200 0.000000 -0.055510 
#    y 0.000000 1.967010 0.000000 
#    z -0.055510 0.000000 1.879580 
# 
# From -- ./inp_files/41767.got.cif
#   From: 2010.05.17/outbox.cif.g08.bks.cpg/sg14_21_cif.got.tgz:41767.got - 2010.06.03 17:49:19.
