data_PCOD9241520
_publ_section_title
;
Structure prediction by ZEFSAII (Michael W. Deem and Ramdas Pophale) SiO2 
 PCOD9241520
Probable space group: P 21/C
;
_chemical_formula_sum "Si O2"
_cell_formula_units_Z 24
_cell_length_a 13.701095
_cell_length_b 15.182513
_cell_length_c 7.640544
_cell_angle_alpha 90.000000
_cell_angle_beta 140.784828
_cell_angle_gamma 90.000000
_cell_volume 1004.850383
_symmetry_space_group_name_H-M "P 21/C"
_symmetry_group_IT_number 14
_symmetry_cell_setting 'monoclinic'
loop_
_space_group_symop_operation_xyz
x,y,z
-x,1/2+y,1/2-z
-x,-y,-z
x,1/2-y,1/2+z
loop_
_atom_site_type_symbol
_atom_site_label
_atom_site_fract_x
_atom_site_fract_y
_atom_site_fract_z
Si Si1 0.129065 0.927396 0.125607
Si Si2 0.830114 0.468146 0.719872
Si Si3 0.427970 0.903672 0.945173
Si Si4 0.710934 0.648481 0.675465
Si Si5 0.611067 0.543550 0.014206
Si Si6 0.849026 0.672784 0.250091
O O1 0.290608 0.960750 0.432124
O O2 0.164953 0.930259 0.968243
O O3 0.032094 0.839782 0.032043
O O4 0.000000 0.000000 0.000000
O O5 0.752623 0.405897 0.760157
O O6 0.731976 0.558164 0.599747
O O7 0.000000 0.500000 0.000000
O O8 0.528834 0.838859 0.965307
O O9 0.501838 0.896965 0.242179
O O10 0.500000 0.000000 0.000000
O O11 0.789920 0.729003 0.688777
O O12 0.800170 0.639919 0.987088
O O13 0.750594 0.611560 0.246610
O O14 0.500000 0.500000 0.000000
#
# Coordination Sequence:
#
# PCOD9241520 Si02
#       6
#     4   4   4   4   4   4
#     4  10  21  35  58  89 120 154 206 240 299 359
#     4  11  20  38  64  86 119 159 203 254 295 361
#     4   9  20  36  59  88 115 156 207 240 302 360
#     4  10  22  38  59  84 123 158 202 247 307 360
#     4  10  19  36  60  85 113 155 204 253 286 350
#     4  10  22  37  56  87 122 160 197 245 307 359
#
# _framework density 23.884155
#
# number of rings (size 3 to 8) (size 9 to 14) (size 15 to 20)
#    0.000    2.000    3.333    0.000    7.000    0.000 
#    0.000    1.667    0.000    2.000    0.000    0.000 
#    0.000    0.000    0.000    0.000    0.000    0.000 
#
# Total GULP energy -133707.261305 kJ/mol
# GULP energy per Si atom -5571.135888 kJ/mol
# Density = 2.382979 g / cm^3
# Si number density = 23.884155 Si / 1000 Ang^3
#
#
#
# Elastic Constant Matrix: (Units=GPa)
#
#
# Indices 1 2 3 4 5 6 
#
# 1 149.2096 35.0425 20.9500 0.0000 33.2688 0.0000
# 2 35.0425 65.9358 -10.2470 0.0000 12.1774 0.0000
# 3 20.9500 -10.2470 60.5113 0.0000 26.1817 0.0000
# 4 0.0000 0.0000 0.0000 21.0852 0.0000 9.9916
# 5 33.2688 12.1774 26.1817 0.0000 51.5893 0.0000
# 6 0.0000 0.0000 0.0000 9.9916 0.0000 43.7684
#
#
#
# Elastic Compliance Matrix: (Units=1/GPa)
#
#
# Indices 1 2 3 4 5 6 
#
# 1 0.008839 -0.004409 -0.002295 0.000000 -0.003495 0.000000
# 2 -0.004409 0.019637 0.007210 0.000000 -0.005451 0.000000
# 3 -0.002295 0.007210 0.023881 0.000000 -0.012342 0.000000
# 4 0.000000 0.000000 0.000000 0.053179 0.000000 -0.012140
# 5 -0.003495 -0.005451 -0.012342 0.000000 0.029188 0.000000
# 6 0.000000 0.000000 0.000000 -0.012140 0.000000 0.025619
#
#
# Mechanical properties :
#
#
# Convention : Reuss Voigt Hill
#
# Bulk Modulus (GPa) = 18.73679 40.79418 29.76548
# Shear Modulus (GPa) = 28.22960 38.61600 33.42280
#
# Velocity S-wave (km/s) = 3.44166 4.02531 3.74488
# Velocity P-wave (km/s) = 4.86367 6.22264 5.58465
#
# Compressibility (1/GPa) = 0.05337095
#
# Stress axis : x y z
#
# Youngs Moduli (GPa) = 113.13791 50.92520 41.87356
#
# Poissons Ratio (x) = 0.22451 0.09608
# Poissons Ratio (y) = 0.49879 -0.30192
# Poissons Ratio (z) = 0.25960 -0.36719
#
# Static dielectric constant tensor:
#      x y z
#    x 1.990410 0.000000 -0.058360 
#    y 0.000000 1.943950 0.000000 
#    z -0.058360 0.000000 2.183890 
# 
# From -- ./inp_files/9102.got.cif
#   From: 2010.05.17/outbox.cif.g08.bks.cpg/sg14_5_cif.got.tgz:9102.got - 2010.06.03 17:49:19.
