data_PCOD9241810
_publ_section_title
;
Structure prediction by ZEFSAII (Michael W. Deem and Ramdas Pophale) SiO2 
 PCOD9241810
Probable space group: P 21/C
;
_chemical_formula_sum "Si O2"
_cell_formula_units_Z 20
_cell_length_a 6.885077
_cell_length_b 12.722141
_cell_length_c 11.147192
_cell_angle_alpha 90.000000
_cell_angle_beta 63.892778
_cell_angle_gamma 90.000000
_cell_volume 876.793534
_symmetry_space_group_name_H-M "P 21/C"
_symmetry_group_IT_number 14
_symmetry_cell_setting 'monoclinic'
loop_
_space_group_symop_operation_xyz
x,y,z
-x,1/2+y,1/2-z
-x,-y,-z
x,1/2-y,1/2+z
loop_
_atom_site_type_symbol
_atom_site_label
_atom_site_fract_x
_atom_site_fract_y
_atom_site_fract_z
Si Si1 0.529419 0.212394 0.188809
Si Si2 0.362612 0.584612 0.968987
Si Si3 0.871906 0.409218 0.470153
Si Si4 0.075073 0.321214 0.929935
Si Si5 0.825923 0.382107 0.210328
O O1 0.517327 0.304265 0.089845
O O2 0.305724 0.182254 0.307915
O O3 0.688945 0.272168 0.240954
O O4 0.646489 0.114037 0.096976
O O5 0.046491 0.359944 0.075704
O O6 0.121459 0.614757 0.081962
O O7 0.500000 0.500000 0.000000
O O8 0.846495 0.425850 0.335609
O O9 0.000000 0.500000 0.500000
O O10 0.998152 0.299422 0.449507
O O11 0.306261 0.547069 0.848618
#
# Coordination Sequence:
#
# PCOD9241810 Si02
#       5
#     4   4   4   4   4
#     4   8  18  36  64 102 142 188 235 302 362 422
#     4   7  15  34  66 100 140 186 240 288 357 436
#     4  10  19  37  64 108 145 184 233 300 369 440
#     4   8  18  36  64 103 138 189 238 294 368 421
#     4   7  18  33  63  97 140 179 242 277 371 420
#
# _framework density 22.810386999999999
#
# number of rings (size 3 to 8) (size 9 to 14) (size 15 to 20)
#    2.400    1.600    0.000    0.000    0.000    1.600 
#    0.000   10.000    0.000    4.800    0.000    9.800 
#    0.000    0.000    0.000    0.000    0.000    0.000 
#
# Total GULP energy -111442.810606 kJ/mol
# GULP energy per Si atom -5572.140530 kJ/mol
# Density = 2.275847 g / cm^3
# Si number density = 22.810387 Si / 1000 Ang^3
#
#
#
# Elastic Constant Matrix: (Units=GPa)
#
#
# Indices 1 2 3 4 5 6 
#
# 1 136.0942 78.2806 131.9316 0.0000 -13.2394 0.0000
# 2 78.2806 112.3786 61.6766 0.0000 -5.2724 0.0000
# 3 131.9316 61.6766 185.2873 0.0000 -29.5411 0.0000
# 4 0.0000 0.0000 0.0000 2.6189 0.0000 0.3420
# 5 -13.2394 -5.2724 -29.5411 0.0000 68.4688 0.0000
# 6 0.0000 0.0000 0.0000 0.3420 0.0000 44.9823
#
#
#
# Elastic Compliance Matrix: (Units=1/GPa)
#
#
# Indices 1 2 3 4 5 6 
#
# 1 0.034827 -0.012865 -0.021048 0.000000 -0.003338 0.000000
# 2 -0.012865 0.015678 0.004013 0.000000 0.000451 0.000000
# 3 -0.021048 0.004013 0.019811 0.000000 0.004787 0.000000
# 4 0.000000 0.000000 0.000000 0.382215 0.000000 -0.002906
# 5 -0.003338 0.000451 0.004787 0.000000 0.016060 0.000000
# 6 0.000000 0.000000 0.000000 -0.002906 0.000000 0.022253
#
#
# Mechanical properties :
#
#
# Convention : Reuss Voigt Hill
#
# Bulk Modulus (GPa) = 95.07731 108.61530 101.84631
# Shear Modulus (GPa) = 9.02282 34.00543 21.51412
#
# Velocity S-wave (km/s) = 1.99102 3.86526 3.07444
# Velocity P-wave (km/s) = 6.85986 8.22437 7.57291
#
# Compressibility (1/GPa) = 0.01051776
#
# Stress axis : x y z
#
# Youngs Moduli (GPa) = 28.71313 63.78217 50.47594
#
# Poissons Ratio (x) = 0.82054 1.06243
# Poissons Ratio (y) = 0.36939 -0.20257
# Poissons Ratio (z) = 0.60436 -0.25597
#
# Static dielectric constant tensor:
#      x y z
#    x 1.901390 0.000000 -0.008710 
#    y 0.000000 1.896910 0.000000 
#    z -0.008710 0.000000 1.876400 
# 
# From -- ./inp_files/23759.got.cif
#   From: 2010.05.17/outbox.cif.g08.bks.cpg/sg14_12_cif.got.tgz:23759.got - 2010.06.03 17:49:19.
