data_PCOD9241546
_publ_section_title
;
Structure prediction by ZEFSAII (Michael W. Deem and Ramdas Pophale) SiO2 
 PCOD9241546
Probable space group: P 21/C
;
_chemical_formula_sum "Si O2"
_cell_formula_units_Z 32
_cell_length_a 23.760186
_cell_length_b 8.991371
_cell_length_c 17.960413
_cell_angle_alpha 90.000000
_cell_angle_beta 158.170147
_cell_angle_gamma 90.000000
_cell_volume 1426.795324
_symmetry_space_group_name_H-M "P 21/C"
_symmetry_group_IT_number 14
_symmetry_cell_setting 'monoclinic'
loop_
_space_group_symop_operation_xyz
x,y,z
-x,1/2+y,1/2-z
-x,-y,-z
x,1/2-y,1/2+z
loop_
_atom_site_type_symbol
_atom_site_label
_atom_site_fract_x
_atom_site_fract_y
_atom_site_fract_z
Si Si1 0.549264 0.056919 0.180628
Si Si2 0.102655 0.924574 0.351783
Si Si3 0.671954 0.414540 0.067349
Si Si4 0.636939 0.588156 0.401469
Si Si5 0.064946 0.923214 0.481635
Si Si6 0.140321 0.829070 0.794450
Si Si7 0.854548 0.838271 0.710118
Si Si8 0.395456 0.690933 0.402645
O O1 0.713868 0.065989 0.419749
O O2 0.426745 0.086279 0.092783
O O3 0.547394 0.175645 0.111295
O O4 0.513817 0.896677 0.100267
O O5 0.054043 0.929196 0.377250
O O6 0.061630 0.771843 0.260261
O O7 0.058518 0.056405 0.241732
O O8 0.762824 0.280917 0.138087
O O9 0.767951 0.560331 0.164378
O O10 0.645245 0.353973 0.117723
O O11 0.506541 0.424826 0.827682
O O12 0.744511 0.445619 0.526685
O O13 0.732964 0.739109 0.515136
O O14 0.240186 0.905576 0.715390
O O15 0.970725 0.777903 0.387986
O O16 0.978549 0.072801 0.397711
#
# Coordination Sequence:
#
# PCOD9241546 Si02
#       8
#     4   4   4   4   4   4   4   4
#     4  10  19  36  61  84 111 149 193 239 282 334
#     4  10  19  36  61  84 115 144 193 245 283 323
#     4  11  20  35  58  85 114 146 189 240 283 331
#     4  11  19  36  61  88 109 143 194 243 282 330
#     4  10  22  37  54  83 121 154 186 229 284 352
#     4  10  20  34  60  87 107 150 191 234 277 337
#     4  10  21  33  57  86 111 151 190 237 285 334
#     4  10  22  37  57  84 118 155 187 230 289 345
#
# _framework density 22.427885
#
# number of rings (size 3 to 8) (size 9 to 14) (size 15 to 20)
#    0.000    1.750    3.750    2.250    0.000    1.000 
#    0.000    0.625    0.000    0.000    0.000    0.000 
#    0.000    0.000    0.000    0.000    0.000    0.000 
#
# Total GULP energy -178918.334603 kJ/mol
# GULP energy per Si atom -5591.197956 kJ/mol
# Density = 2.237684 g / cm^3
# Si number density = 22.427885 Si / 1000 Ang^3
#
#
#
# Elastic Constant Matrix: (Units=GPa)
#
#
# Indices 1 2 3 4 5 6 
#
# 1 48.2282 19.3242 3.0582 0.0000 -2.9881 0.0000
# 2 19.3242 115.1600 17.1132 0.0000 1.2721 0.0000
# 3 3.0582 17.1132 61.0602 0.0000 -0.7227 0.0000
# 4 0.0000 0.0000 0.0000 17.7142 0.0000 2.6504
# 5 -2.9881 1.2721 -0.7227 0.0000 25.2611 0.0000
# 6 0.0000 0.0000 0.0000 2.6504 0.0000 27.3117
#
#
#
# Elastic Compliance Matrix: (Units=1/GPa)
#
#
# Indices 1 2 3 4 5 6 
#
# 1 0.022432 -0.003791 -0.000027 0.000000 0.002844 0.000000
# 2 -0.003791 0.009709 -0.002543 0.000000 -0.001010 0.000000
# 3 -0.000027 -0.002543 0.017099 0.000000 0.000614 0.000000
# 4 0.000000 0.000000 0.000000 0.057284 0.000000 -0.005559
# 5 0.002844 -0.001010 0.000614 0.000000 0.039991 0.000000
# 6 0.000000 0.000000 0.000000 -0.005559 0.000000 0.037154
#
#
# Mechanical properties :
#
#
# Convention : Reuss Voigt Hill
#
# Bulk Modulus (GPa) = 27.38551 33.71553 30.55052
# Shear Modulus (GPa) = 23.97348 26.38758 25.18053
#
# Velocity S-wave (km/s) = 3.27297 3.43381 3.35436
# Velocity P-wave (km/s) = 5.14977 5.54860 5.35290
#
# Compressibility (1/GPa) = 0.03651566
#
# Stress axis : x y z
#
# Youngs Moduli (GPa) = 44.57947 102.99851 58.48411
#
# Poissons Ratio (x) = 0.39052 0.00159
# Poissons Ratio (y) = 0.16902 0.14873
# Poissons Ratio (z) = 0.00121 0.26194
#
# Static dielectric constant tensor:
#      x y z
#    x 1.866110 0.000000 0.002220 
#    y 0.000000 1.853470 0.000000 
#    z 0.002220 0.000000 1.792240 
# 
# From -- ./inp_files/70519.got.cif
#   From: 2010.05.17/outbox.cif.g08.bks.cpg/sg14_36_cif.got.tgz:70519.got - 2010.06.03 17:49:19.
