data_PCOD9241838
_publ_section_title
;
Structure prediction by ZEFSAII (Michael W. Deem and Ramdas Pophale) SiO2 
 PCOD9241838
Probable space group: P 21/C
;
_chemical_formula_sum "Si O2"
_cell_formula_units_Z 24
_cell_length_a 13.017490
_cell_length_b 13.113900
_cell_length_c 13.309714
_cell_angle_alpha 90.000000
_cell_angle_beta 24.448786
_cell_angle_gamma 90.000000
_cell_volume 940.376950
_symmetry_space_group_name_H-M "P 21/C"
_symmetry_group_IT_number 14
_symmetry_cell_setting 'monoclinic'
loop_
_space_group_symop_operation_xyz
x,y,z
-x,1/2+y,1/2-z
-x,-y,-z
x,1/2-y,1/2+z
loop_
_atom_site_type_symbol
_atom_site_label
_atom_site_fract_x
_atom_site_fract_y
_atom_site_fract_z
Si Si1 0.880155 0.055413 0.946385
Si Si2 0.943437 0.165538 0.513236
Si Si3 0.069657 0.182929 0.064370
Si Si4 0.754075 0.003200 0.834091
Si Si5 0.579474 0.954610 0.537010
Si Si6 0.371731 0.668401 0.893035
O O1 0.928594 0.940230 0.944914
O O2 0.156156 0.101625 0.699799
O O3 0.769423 0.039793 0.934093
O O4 0.659393 0.103194 0.207450
O O5 0.014287 0.267038 0.507021
O O6 0.916397 0.084515 0.627801
O O7 0.706351 0.170251 0.652897
O O8 0.141361 0.111379 0.264385
O O9 0.850042 0.212490 0.338596
O O10 0.353199 0.212918 0.837889
O O11 0.500000 0.000000 0.000000
O O12 0.616319 0.050759 0.579610
O O13 0.500000 0.000000 0.500000
#
# Coordination Sequence:
#
# PCOD9241838 Si02
#       6
#     4   4   4   4   4   4
#     4  10  21  41  62  91 131 166 211 274 322 377
#     4  11  24  41  69  95 129 180 222 268 338 392
#     4  10  22  40  66  91 124 169 218 261 327 381
#     4  11  23  40  70  96 132 175 220 278 328 393
#     4  10  19  37  65  88 123 174 210 256 331 387
#     4  10  22  43  64  91 131 169 212 277 318 384
#
# _framework density 25.52168
#
# number of rings (size 3 to 8) (size 9 to 14) (size 15 to 20)
#    0.000    1.667    3.333    2.500    4.667    0.000 
#    0.000   10.000    0.000    0.000    0.000    0.000 
#    0.000    0.000    0.000    0.000    0.000    0.000 
#
# Total GULP energy -134331.720631 kJ/mol
# GULP energy per Si atom -5597.155026 kJ/mol
# Density = 2.546359 g / cm^3
# Si number density = 25.521680 Si / 1000 Ang^3
#
#
#
# Elastic Constant Matrix: (Units=GPa)
#
#
# Indices 1 2 3 4 5 6 
#
# 1 171.2144 35.1105 62.3999 0.0000 -13.1460 0.0000
# 2 35.1105 82.0332 6.6397 0.0000 3.8645 0.0000
# 3 62.3999 6.6397 213.2754 0.0000 -22.9459 0.0000
# 4 0.0000 0.0000 0.0000 3.3684 0.0000 -0.9632
# 5 -13.1460 3.8645 -22.9459 0.0000 51.5397 0.0000
# 6 0.0000 0.0000 0.0000 -0.9632 0.0000 38.5207
#
#
#
# Elastic Compliance Matrix: (Units=1/GPa)
#
#
# Indices 1 2 3 4 5 6 
#
# 1 0.007241 -0.003004 -0.001893 0.000000 0.001229 0.000000
# 2 -0.003004 0.013531 0.000279 0.000000 -0.001656 0.000000
# 3 -0.001893 0.000279 0.005440 0.000000 0.001918 0.000000
# 4 0.000000 0.000000 0.000000 0.299012 0.000000 0.007477
# 5 0.001229 -0.001656 0.001918 0.000000 0.020694 0.000000
# 6 0.000000 0.000000 0.000000 0.007477 0.000000 0.026147
#
#
# Mechanical properties :
#
#
# Convention : Reuss Voigt Hill
#
# Bulk Modulus (GPa) = 58.89974 74.98037 66.94006
# Shear Modulus (GPa) = 12.92124 42.84395 27.88260
#
# Velocity S-wave (km/s) = 2.25252 4.10167 3.30889
# Velocity P-wave (km/s) = 5.46750 7.20240 6.39406
#
# Compressibility (1/GPa) = 0.01697800
#
# Stress axis : x y z
#
# Youngs Moduli (GPa) = 138.10578 73.90304 183.81555
#
# Poissons Ratio (x) = 0.22199 0.34791
# Poissons Ratio (y) = 0.41484 -0.05136
# Poissons Ratio (z) = 0.26140 -0.02065
#
# Static dielectric constant tensor:
#      x y z
#    x 2.049380 0.000000 -0.050970 
#    y 0.000000 2.025460 0.000000 
#    z -0.050970 0.000000 2.163470 
# 
# From -- ./inp_files/30356.got.cif
#   From: 2010.05.17/outbox.cif.g08.bks.cpg/sg14_16_cif.got.tgz:30356.got - 2010.06.03 17:49:19.
