data_PCOD9241349
_publ_section_title
;
Structure prediction by ZEFSAII (Michael W. Deem and Ramdas Pophale) SiO2 
 PCOD9241349
Probable space group: P 21/C
;
_chemical_formula_sum "Si O2"
_cell_formula_units_Z 28
_cell_length_a 9.324474
_cell_length_b 10.679872
_cell_length_c 15.280196
_cell_angle_alpha 90.000000
_cell_angle_beta 75.158761
_cell_angle_gamma 90.000000
_cell_volume 1470.902052
_symmetry_space_group_name_H-M "P 21/C"
_symmetry_group_IT_number 14
_symmetry_cell_setting 'monoclinic'
loop_
_space_group_symop_operation_xyz
x,y,z
-x,1/2+y,1/2-z
-x,-y,-z
x,1/2-y,1/2+z
loop_
_atom_site_type_symbol
_atom_site_label
_atom_site_fract_x
_atom_site_fract_y
_atom_site_fract_z
Si Si1 0.137912 0.172764 0.746595
Si Si2 0.317116 0.397061 0.375639
Si Si3 0.352810 0.624561 0.269544
Si Si4 0.444190 0.263401 0.618716
Si Si5 0.571809 0.259549 0.918889
Si Si6 0.974849 0.086506 0.209256
Si Si7 0.271936 0.000181 0.069364
O O1 0.181619 0.158179 0.841770
O O2 0.290961 0.198774 0.671027
O O3 0.033043 0.291550 0.750172
O O4 0.068602 0.039257 0.730693
O O5 0.400679 0.486492 0.293324
O O6 0.420617 0.290736 0.398344
O O7 0.274916 0.481886 0.464897
O O8 0.448989 0.717121 0.314624
O O9 0.367809 0.646729 0.163770
O O10 0.176487 0.627017 0.315497
O O11 0.529031 0.200053 0.523832
O O12 0.391238 0.400762 0.590836
O O13 0.679977 0.139046 0.911164
O O14 0.111403 0.041163 0.128417
#
# Coordination Sequence:
#
# PCOD9241349 Si02
#       7
#     4   4   4   4   4   4   4
#     4  10  21  39  60  85 127 161 200 258 309 360
#     4  10  19  35  61  89 113 155 211 257 301 354
#     4  11  20  34  56  89 118 153 201 250 307 357
#     4  10  19  36  59  86 119 153 204 258 300 360
#     4  11  19  34  62  89 115 157 203 257 304 359
#     4  10  23  38  57  91 122 164 203 251 311 364
#     4  10  19  36  61  85 117 151 212 261 294 354
#
# _framework density 19.035938999999999
#
# number of rings (size 3 to 8) (size 9 to 14) (size 15 to 20)
#    0.000    1.714    4.286    1.714    0.000    2.286 
#    2.571    2.857    0.000    7.714    0.000    0.000 
#    0.000    0.000    0.000    0.000    0.000    0.000 
#
# Total GULP energy -156058.359566 kJ/mol
# GULP energy per Si atom -5573.512842 kJ/mol
# Density = 1.899261 g / cm^3
# Si number density = 19.035939 Si / 1000 Ang^3
#
#
#
# Elastic Constant Matrix: (Units=GPa)
#
#
# Indices 1 2 3 4 5 6 
#
# 1 91.7484 32.0809 32.0718 0.0000 -3.1045 0.0000
# 2 32.0809 87.3274 37.4974 0.0000 4.5276 0.0000
# 3 32.0718 37.4974 77.2819 0.0000 5.4180 0.0000
# 4 0.0000 0.0000 0.0000 27.9965 0.0000 2.8795
# 5 -3.1045 4.5276 5.4180 0.0000 23.7211 0.0000
# 6 0.0000 0.0000 0.0000 2.8795 0.0000 30.6306
#
#
#
# Elastic Compliance Matrix: (Units=1/GPa)
#
#
# Indices 1 2 3 4 5 6 
#
# 1 0.013690 -0.003365 -0.004288 0.000000 0.003413 0.000000
# 2 -0.003365 0.015324 -0.005897 0.000000 -0.002018 0.000000
# 3 -0.004288 -0.005897 0.017826 0.000000 -0.003507 0.000000
# 4 0.000000 0.000000 0.000000 0.036067 0.000000 -0.003391
# 5 0.003413 -0.002018 -0.003507 0.000000 0.043790 0.000000
# 6 0.000000 0.000000 0.000000 -0.003391 0.000000 0.032966
#
#
# Mechanical properties :
#
#
# Convention : Reuss Voigt Hill
#
# Bulk Modulus (GPa) = 50.65819 51.07311 50.86565
# Shear Modulus (GPa) = 25.86048 26.78349 26.32199
#
# Velocity S-wave (km/s) = 3.68979 3.75506 3.72257
# Velocity P-wave (km/s) = 6.69495 6.75935 6.72723
#
# Compressibility (1/GPa) = 0.01974015
#
# Stress axis : x y z
#
# Youngs Moduli (GPa) = 73.04357 65.25584 56.09626
#
# Poissons Ratio (x) = 0.21959 0.24054
# Poissons Ratio (y) = 0.24580 0.33082
# Poissons Ratio (z) = 0.31322 0.38484
#
# Static dielectric constant tensor:
#      x y z
#    x 1.679320 0.000000 -0.011870 
#    y 0.000000 1.707080 0.000000 
#    z -0.011870 0.000000 1.687760 
# 
# From -- ./inp_files/40011.got.cif
#   From: 2010.05.17/outbox.cif.g08.bks.cpg/sg14_21_cif.got.tgz:40011.got - 2010.06.03 17:49:19.
