data_PCOD9241979
_publ_section_title
;
Structure prediction by ZEFSAII (Michael W. Deem and Ramdas Pophale) SiO2 
 PCOD9241979
Probable space group: P 21/C
;
_chemical_formula_sum "Si O2"
_cell_formula_units_Z 32
_cell_length_a 23.750677
_cell_length_b 14.673188
_cell_length_c 9.700867
_cell_angle_alpha 90.000000
_cell_angle_beta 31.057799
_cell_angle_gamma 90.000000
_cell_volume 1744.129249
_symmetry_space_group_name_H-M "P 21/C"
_symmetry_group_IT_number 14
_symmetry_cell_setting 'monoclinic'
loop_
_space_group_symop_operation_xyz
x,y,z
-x,1/2+y,1/2-z
-x,-y,-z
x,1/2-y,1/2+z
loop_
_atom_site_type_symbol
_atom_site_label
_atom_site_fract_x
_atom_site_fract_y
_atom_site_fract_z
Si Si1 0.183076 0.057102 0.588164
Si Si2 0.613316 0.144647 0.987961
Si Si3 0.062989 0.905125 0.347590
Si Si4 0.008386 0.205037 0.998522
Si Si5 0.595423 0.192630 0.713696
Si Si6 0.164435 0.891538 0.835719
Si Si7 0.139566 0.898373 0.486574
Si Si8 0.562574 0.957830 0.000963
O O1 0.312535 0.066490 0.295973
O O2 0.164793 0.988276 0.754872
O O3 0.132126 0.000084 0.566307
O O4 0.120401 0.151405 0.738427
O O5 0.585302 0.207431 0.174085
O O6 0.576659 0.185189 0.917194
O O7 0.744594 0.138219 0.703502
O O8 0.569165 0.041961 0.092136
O O9 0.988384 0.813949 0.502384
O O10 0.136966 0.896539 0.328521
O O11 0.130173 0.903906 0.065211
O O12 0.000000 0.000000 0.500000
O O13 0.923224 0.171834 0.059360
O O14 0.954975 0.163401 0.249747
O O15 0.716262 0.153158 0.429841
O O16 0.508651 0.129436 0.816030
O O17 0.500000 0.000000 0.000000
#
# Coordination Sequence:
#
# PCOD9241979 Si02
#       8
#     4   4   4   4   4   4   4   4
#     4  10  19  38  64  82 108 155 200 234 279 357
#     4  10  20  35  62  89 110 149 193 244 288 339
#     4  12  24  35  51  82 126 153 183 239 291 338
#     4  11  20  36  58  83 113 150 197 227 283 352
#     4  11  20  37  64  88 112 149 197 245 289 343
#     4  11  21  35  60  89 106 149 195 240 286 339
#     4  10  20  36  57  85 116 144 189 243 282 343
#     4   9  18  39  60  83 114 152 197 238 290 344
#
# _framework density 18.347263999999999
#
# number of rings (size 3 to 8) (size 9 to 14) (size 15 to 20)
#    0.000    1.500    5.000    5.250    1.750    0.000 
#    0.000    1.875   19.250    0.000    0.000    0.000 
#    0.000    0.000    0.000    0.000    0.000    0.000 
#
# Total GULP energy -178586.488718 kJ/mol
# GULP energy per Si atom -5580.827772 kJ/mol
# Density = 1.830550 g / cm^3
# Si number density = 18.347264 Si / 1000 Ang^3
#
#
#
# Elastic Constant Matrix: (Units=GPa)
#
#
# Indices 1 2 3 4 5 6 
#
# 1 73.8492 26.7218 37.2241 0.0000 9.0756 0.0000
# 2 26.7218 98.5723 22.0788 0.0000 -20.0633 0.0000
# 3 37.2241 22.0788 38.3058 0.0000 -3.0366 0.0000
# 4 0.0000 0.0000 0.0000 24.7409 0.0000 3.8505
# 5 9.0756 -20.0633 -3.0366 0.0000 38.2115 0.0000
# 6 0.0000 0.0000 0.0000 3.8505 0.0000 15.1619
#
#
#
# Elastic Compliance Matrix: (Units=1/GPa)
#
#
# Indices 1 2 3 4 5 6 
#
# 1 0.030982 -0.004452 -0.028489 0.000000 -0.011960 0.000000
# 2 -0.004452 0.013624 -0.002894 0.000000 0.007981 0.000000
# 3 -0.028489 -0.002894 0.056228 0.000000 0.009715 0.000000
# 4 0.000000 0.000000 0.000000 0.042082 0.000000 -0.010687
# 5 -0.011960 0.007981 0.009715 0.000000 0.033973 0.000000
# 6 0.000000 0.000000 0.000000 -0.010687 0.000000 0.068669
#
#
# Mechanical properties :
#
#
# Convention : Reuss Voigt Hill
#
# Bulk Modulus (GPa) = 34.28788 42.53072 38.40930
# Shear Modulus (GPa) = 15.29283 23.93639 19.61461
#
# Velocity S-wave (km/s) = 2.89021 3.61588 3.27322
# Velocity P-wave (km/s) = 5.46503 6.37684 5.93846
#
# Compressibility (1/GPa) = 0.02916482
#
# Stress axis : x y z
#
# Youngs Moduli (GPa) = 32.27690 73.39791 17.78459
#
# Poissons Ratio (x) = 0.32677 0.50667
# Poissons Ratio (y) = 0.14370 0.05147
# Poissons Ratio (z) = 0.91954 0.21240
#
# Static dielectric constant tensor:
#      x y z
#    x 1.650000 0.000000 0.006570 
#    y 0.000000 1.667100 0.000000 
#    z 0.006570 0.000000 1.618170 
# 
# From -- ./inp_files/19084.got.cif
#   From: 2010.05.17/outbox.cif.g08.bks.cpg/sg14_10_cif.got.tgz:19084.got - 2010.06.03 17:49:19.
