data_PCOD9241002
_publ_section_title
;
Structure prediction by ZEFSAII (Michael W. Deem and Ramdas Pophale) SiO2 
 PCOD9241002
Probable space group: P 21/C
;
_chemical_formula_sum "Si O2"
_cell_formula_units_Z 28
_cell_length_a 8.519414
_cell_length_b 19.524206
_cell_length_c 8.500332
_cell_angle_alpha 90.000000
_cell_angle_beta 90.171637
_cell_angle_gamma 90.000000
_cell_volume 1413.894628
_symmetry_space_group_name_H-M "P 21/C"
_symmetry_group_IT_number 14
_symmetry_cell_setting 'monoclinic'
loop_
_space_group_symop_operation_xyz
x,y,z
-x,1/2+y,1/2-z
-x,-y,-z
x,1/2-y,1/2+z
loop_
_atom_site_type_symbol
_atom_site_label
_atom_site_fract_x
_atom_site_fract_y
_atom_site_fract_z
Si Si1 0.062968 0.680476 0.717742
Si Si2 0.793966 0.946291 0.529505
Si Si3 0.005067 0.880406 0.783526
Si Si4 0.585941 0.670890 0.063815
Si Si5 0.778786 0.196938 0.440139
Si Si6 0.220231 0.232833 0.168325
Si Si7 0.979014 0.470042 0.253831
O O1 0.174884 0.726149 0.609798
O O2 0.894692 0.718227 0.730042
O O3 0.051139 0.601921 0.666458
O O4 0.132517 0.680780 0.896355
O O5 0.628220 0.908714 0.529776
O O6 0.872034 0.959847 0.362252
O O7 0.902066 0.890842 0.622317
O O8 0.829664 0.011996 0.638794
O O9 0.161033 0.848060 0.709785
O O10 0.903348 0.826585 0.882744
O O11 0.011343 0.958463 0.842473
O O12 0.404745 0.686068 0.038849
O O13 0.643168 0.693799 0.236489
O O14 0.693867 0.718210 0.953101
#
# Coordination Sequence:
#
# PCOD9241002 Si02
#       7
#     4   4   4   4   4   4   4
#     4  11  19  35  57  79 100 148 176 229 243 325
#     4   8  14  28  52  73  97 133 173 217 246 306
#     4   8  16  30  52  74  98 137 171 222 244 315
#     4  11  20  33  51  84 107 142 162 232 268 317
#     4  11  21  32  52  84 114 129 179 220 281 296
#     4  10  19  34  55  74 105 140 187 203 266 310
#     4   9  14  31  56  76  99 133 193 211 251 301
#
# _framework density 19.803457000000002
#
# number of rings (size 3 to 8) (size 9 to 14) (size 15 to 20)
#    0.857    1.429    2.857    2.571    0.000    0.000 
#    0.000    2.857    0.000    8.571    0.000    0.000 
#    0.000    0.000    0.000    0.000    0.000    0.000 
#
# Total GULP energy -155895.866576 kJ/mol
# GULP energy per Si atom -5567.709521 kJ/mol
# Density = 1.975838 g / cm^3
# Si number density = 19.803457 Si / 1000 Ang^3
#
#
#
# Elastic Constant Matrix: (Units=GPa)
#
#
# Indices 1 2 3 4 5 6 
#
# 1 77.6080 15.4409 14.0142 0.0000 -6.7542 0.0000
# 2 15.4409 141.7545 24.3834 0.0000 -7.4468 0.0000
# 3 14.0142 24.3834 45.4994 0.0000 0.9381 0.0000
# 4 0.0000 0.0000 0.0000 36.3954 0.0000 -8.0687
# 5 -6.7542 -7.4468 0.9381 0.0000 18.7235 0.0000
# 6 0.0000 0.0000 0.0000 -8.0687 0.0000 21.5441
#
#
#
# Elastic Compliance Matrix: (Units=1/GPa)
#
#
# Indices 1 2 3 4 5 6 
#
# 1 0.014196 -0.000559 -0.004178 0.000000 0.005108 0.000000
# 2 -0.000559 0.008002 -0.004182 0.000000 0.003190 0.000000
# 3 -0.004178 -0.004182 0.025598 0.000000 -0.004453 0.000000
# 4 0.000000 0.000000 0.000000 0.029964 0.000000 0.011222
# 5 0.005108 0.003190 -0.004453 0.000000 0.056743 0.000000
# 6 0.000000 0.000000 0.000000 0.011222 0.000000 0.050619
#
#
# Mechanical properties :
#
#
# Convention : Reuss Voigt Hill
#
# Bulk Modulus (GPa) = 33.38063 41.39321 37.38692
# Shear Modulus (GPa) = 23.48005 29.40084 26.44045
#
# Velocity S-wave (km/s) = 3.44707 3.85727 3.65792
# Velocity P-wave (km/s) = 5.72150 6.38635 6.06305
#
# Compressibility (1/GPa) = 0.02995750
#
# Stress axis : x y z
#
# Youngs Moduli (GPa) = 70.44478 124.96359 39.06541
#
# Poissons Ratio (x) = 0.06989 0.16321
# Poissons Ratio (y) = 0.03940 0.16337
# Poissons Ratio (z) = 0.29431 0.52260
#
# Static dielectric constant tensor:
#      x y z
#    x 1.661040 0.000000 0.024890 
#    y 0.000000 1.746630 0.000000 
#    z 0.024890 0.000000 1.747640 
# 
# From -- ./inp_files/9940.got.cif
#   From: 2010.05.17/outbox.cif.g08.bks.cpg/sg14_5_cif.got.tgz:9940.got - 2010.06.03 17:49:19.
