data_PCOD9241799
_publ_section_title
;
Structure prediction by ZEFSAII (Michael W. Deem and Ramdas Pophale) SiO2 
 PCOD9241799
Probable space group: P 21/C
;
_chemical_formula_sum "Si O2"
_cell_formula_units_Z 24
_cell_length_a 8.316116
_cell_length_b 12.953884
_cell_length_c 15.111944
_cell_angle_alpha 90.000000
_cell_angle_beta 144.283264
_cell_angle_gamma 90.000000
_cell_volume 950.361635
_symmetry_space_group_name_H-M "P 21/C"
_symmetry_group_IT_number 14
_symmetry_cell_setting 'monoclinic'
loop_
_space_group_symop_operation_xyz
x,y,z
-x,1/2+y,1/2-z
-x,-y,-z
x,1/2-y,1/2+z
loop_
_atom_site_type_symbol
_atom_site_label
_atom_site_fract_x
_atom_site_fract_y
_atom_site_fract_z
Si Si1 0.305505 0.806580 0.792111
Si Si2 0.121956 0.252292 0.242367
Si Si3 0.321308 0.490407 0.556600
Si Si4 0.585829 0.868104 0.496069
Si Si5 0.010771 0.525419 0.767800
Si Si6 0.910518 0.174431 0.962510
O O1 0.109059 0.779134 0.787363
O O2 0.183159 0.761112 0.647729
O O3 0.403041 0.924660 0.835489
O O4 0.570491 0.732584 0.928619
O O5 0.146745 0.374823 0.265345
O O6 0.377750 0.182185 0.389471
O O7 0.032992 0.224377 0.105174
O O8 0.334044 0.595959 0.617074
O O9 0.164258 0.513200 0.394306
O O10 0.130140 0.406377 0.520954
O O11 0.301501 0.928868 0.357026
O O12 0.843448 0.944601 0.600149
#
# Coordination Sequence:
#
# PCOD9241799 Si02
#       6
#     4   4   4   4   4   4
#     4  11  23  42  63  95 132 162 207 273 314 367
#     4  11  22  39  64  95 126 164 210 263 318 363
#     4  11  22  42  67  90 130 165 214 257 314 382
#     4  10  19  37  63  89 123 164 214 249 302 383
#     4  10  20  37  64  93 121 173 205 256 310 374
#     4  11  24  41  64  98 121 170 216 252 315 378
#
# _framework density 25.253544000000002
#
# number of rings (size 3 to 8) (size 9 to 14) (size 15 to 20)
#    0.000    1.333    6.667    0.000    0.000    4.667 
#    0.000    0.000    0.000    4.000    0.000    0.000 
#    0.000    0.000    0.000    0.000    0.000    0.000 
#
# Total GULP energy -134267.802907 kJ/mol
# GULP energy per Si atom -5594.491788 kJ/mol
# Density = 2.519607 g / cm^3
# Si number density = 25.253544 Si / 1000 Ang^3
#
#
#
# Elastic Constant Matrix: (Units=GPa)
#
#
# Indices 1 2 3 4 5 6 
#
# 1 78.3397 5.1569 32.2537 0.0000 -12.1234 0.0000
# 2 5.1569 117.1678 21.0967 0.0000 -23.6044 0.0000
# 3 32.2537 21.0967 127.1665 0.0000 -29.2497 0.0000
# 4 0.0000 0.0000 0.0000 55.9895 0.0000 -12.3790
# 5 -12.1234 -23.6044 -29.2497 0.0000 51.3891 0.0000
# 6 0.0000 0.0000 0.0000 -12.3790 0.0000 40.4048
#
#
#
# Elastic Compliance Matrix: (Units=1/GPa)
#
#
# Indices 1 2 3 4 5 6 
#
# 1 0.014364 0.000295 -0.003316 0.000000 0.001637 0.000000
# 2 0.000295 0.009458 -0.000723 0.000000 0.004002 0.000000
# 3 -0.003316 -0.000723 0.009859 0.000000 0.004497 0.000000
# 4 0.000000 0.000000 0.000000 0.019158 0.000000 0.005870
# 5 0.001637 0.004002 0.004497 0.000000 0.024244 0.000000
# 6 0.000000 0.000000 0.000000 0.005870 0.000000 0.026548
#
#
# Mechanical properties :
#
#
# Convention : Reuss Voigt Hill
#
# Bulk Modulus (GPa) = 38.17860 48.85429 43.51645
# Shear Modulus (GPa) = 41.71872 47.16780 44.44326
#
# Velocity S-wave (km/s) = 4.06888 4.32646 4.19965
# Velocity P-wave (km/s) = 6.10126 6.65922 6.38633
#
# Compressibility (1/GPa) = 0.02619268
#
# Stress axis : x y z
#
# Youngs Moduli (GPa) = 69.61899 105.72701 101.42994
#
# Poissons Ratio (x) = -0.03114 0.33630
# Poissons Ratio (y) = -0.02050 0.07336
# Poissons Ratio (z) = 0.23083 0.07647
#
# Static dielectric constant tensor:
#      x y z
#    x 2.122140 0.000000 0.155780 
#    y 0.000000 2.089130 0.000000 
#    z 0.155780 0.000000 2.007620 
# 
# From -- ./inp_files/41321.got.cif
#   From: 2010.05.17/outbox.cif.g08.bks.cpg/sg14_21_cif.got.tgz:41321.got - 2010.06.03 17:49:19.
