data_PCOD9241429
_publ_section_title
;
Structure prediction by ZEFSAII (Michael W. Deem and Ramdas Pophale) SiO2 
 PCOD9241429
Probable space group: P 21/C
;
_chemical_formula_sum "Si O2"
_cell_formula_units_Z 32
_cell_length_a 8.546945
_cell_length_b 10.911950
_cell_length_c 21.468970
_cell_angle_alpha 90.000000
_cell_angle_beta 63.026960
_cell_angle_gamma 90.000000
_cell_volume 1784.470745
_symmetry_space_group_name_H-M "P 21/C"
_symmetry_group_IT_number 14
_symmetry_cell_setting 'monoclinic'
loop_
_space_group_symop_operation_xyz
x,y,z
-x,1/2+y,1/2-z
-x,-y,-z
x,1/2-y,1/2+z
loop_
_atom_site_type_symbol
_atom_site_label
_atom_site_fract_x
_atom_site_fract_y
_atom_site_fract_z
Si Si1 0.419842 0.654738 0.828553
Si Si2 0.408059 0.624892 0.495682
Si Si3 0.368356 0.919653 0.861674
Si Si4 0.261096 0.522142 0.743617
Si Si5 0.218883 0.097613 0.790139
Si Si6 0.144408 0.973783 0.677334
Si Si7 0.556113 0.891973 0.440920
Si Si8 0.835097 0.200322 0.850097
O O1 0.326454 0.785695 0.842601
O O2 0.322856 0.561490 0.800902
O O3 0.611417 0.672158 0.762706
O O4 0.447704 0.608198 0.894495
O O5 0.500000 0.500000 0.500000
O O6 0.336118 0.594872 0.440328
O O7 0.523050 0.752120 0.471111
O O8 0.258573 0.646747 0.572952
O O9 0.577493 0.944588 0.813952
O O10 0.264994 0.027018 0.845249
O O11 0.233068 0.634000 0.700109
O O12 0.066035 0.469756 0.786095
O O13 0.042136 0.175402 0.820415
O O14 0.195707 0.997958 0.739488
O O15 0.210420 0.842311 0.644657
O O16 0.244693 0.075768 0.617468
O O17 0.500000 0.000000 0.500000
#
# Coordination Sequence:
#
# PCOD9241429 Si02
#       8
#     4   4   4   4   4   4   4   4
#     4   9  19  35  57  81 111 146 186 234 288 335
#     4  11  22  38  58  83 114 158 192 229 287 345
#     4  10  19  36  56  78 116 149 187 232 286 339
#     4  10  20  35  57  86 113 145 188 241 283 336
#     4   9  20  34  54  86 110 145 188 237 286 332
#     4  10  20  36  60  88 110 147 191 239 286 334
#     4  10  20  39  62  81 113 150 189 233 285 342
#     4  11  20  35  58  82 118 147 194 234 280 342
#
# _framework density 17.932487999999999
#
# number of rings (size 3 to 8) (size 9 to 14) (size 15 to 20)
#    0.000    2.000    2.500    1.500    0.000    1.500 
#    2.250    1.875    0.000    0.000    0.000    0.000 
#    0.000    0.000    0.000    0.000    0.000    0.000 
#
# Total GULP energy -178195.588624 kJ/mol
# GULP energy per Si atom -5568.612145 kJ/mol
# Density = 1.789167 g / cm^3
# Si number density = 17.932488 Si / 1000 Ang^3
#
#
#
# Elastic Constant Matrix: (Units=GPa)
#
#
# Indices 1 2 3 4 5 6 
#
# 1 42.2921 11.7953 15.9852 0.0000 2.4651 0.0000
# 2 11.7953 78.7517 28.8362 0.0000 13.5293 0.0000
# 3 15.9852 28.8362 80.1390 0.0000 13.5348 0.0000
# 4 0.0000 0.0000 0.0000 32.4939 0.0000 -2.7964
# 5 2.4651 13.5293 13.5348 0.0000 17.1211 0.0000
# 6 0.0000 0.0000 0.0000 -2.7964 0.0000 4.7076
#
#
#
# Elastic Compliance Matrix: (Units=1/GPa)
#
#
# Indices 1 2 3 4 5 6 
#
# 1 0.025976 -0.002535 -0.004588 0.000000 0.001891 0.000000
# 2 -0.002535 0.016040 -0.003678 0.000000 -0.009402 0.000000
# 3 -0.004588 -0.003678 0.016289 0.000000 -0.009310 0.000000
# 4 0.000000 0.000000 0.000000 0.032433 0.000000 0.019266
# 5 0.001891 -0.009402 -0.009310 0.000000 0.072925 0.000000
# 6 0.000000 0.000000 0.000000 0.019266 0.000000 0.223869
#
#
# Mechanical properties :
#
#
# Convention : Reuss Voigt Hill
#
# Bulk Modulus (GPa) = 27.24638 34.93513 31.09076
# Shear Modulus (GPa) = 11.86606 20.50224 16.18415
#
# Velocity S-wave (km/s) = 2.57516 3.38494 3.00743
# Velocity P-wave (km/s) = 4.90599 5.89923 5.42539
#
# Compressibility (1/GPa) = 0.03670213
#
# Stress axis : x y z
#
# Youngs Moduli (GPa) = 38.49659 62.34449 61.38957
#
# Poissons Ratio (x) = 0.15807 0.28169
# Poissons Ratio (y) = 0.09760 0.22578
# Poissons Ratio (z) = 0.17664 0.22930
#
# Static dielectric constant tensor:
#      x y z
#    x 1.617320 0.000000 -0.017030 
#    y 0.000000 1.606420 0.000000 
#    z -0.017030 0.000000 1.629210 
# 
# From -- ./inp_files/65422.got.cif
#   From: 2010.05.17/outbox.cif.g08.bks.cpg/sg14_33_cif.got.tgz:65422.got - 2010.06.03 17:49:19.
