data_PCOD9241806
_publ_section_title
;
Structure prediction by ZEFSAII (Michael W. Deem and Ramdas Pophale) SiO2 
 PCOD9241806
Probable space group: P 21/C
;
_chemical_formula_sum "Si O2"
_cell_formula_units_Z 30
_cell_length_a 5.894198
_cell_length_b 8.986393
_cell_length_c 31.526490
_cell_angle_alpha 90.000000
_cell_angle_beta 124.321011
_cell_angle_gamma 90.000000
_cell_volume 1379.141389
_symmetry_space_group_name_H-M "P 21/C"
_symmetry_group_IT_number 14
_symmetry_cell_setting 'monoclinic'
loop_
_space_group_symop_operation_xyz
x,y,z
-x,1/2+y,1/2-z
-x,-y,-z
x,1/2-y,1/2+z
loop_
_atom_site_type_symbol
_atom_site_label
_atom_site_fract_x
_atom_site_fract_y
_atom_site_fract_z
Si Si1 0.110482 0.836878 0.771435
Si Si2 0.500000 0.000000 0.000000
Si Si3 0.708211 0.183923 0.495140
Si Si4 0.747984 0.084868 0.771841
Si Si5 0.348930 0.555548 0.918168
Si Si6 0.275720 0.083789 0.147764
Si Si7 0.875890 0.624909 0.816788
Si Si8 0.728252 0.669251 0.444667
O O1 0.157866 0.749525 0.732377
O O2 0.394995 0.911012 0.815890
O O3 0.027271 0.705226 0.794263
O O4 0.882259 0.961406 0.755124
O O5 0.479714 0.823471 0.012371
O O6 0.386958 0.052482 0.034598
O O7 0.745075 0.096851 0.543870
O O8 0.001029 0.245574 0.511311
O O9 0.565661 0.075971 0.446648
O O10 0.420434 0.072670 0.730216
O O11 0.817990 0.037815 0.827562
O O12 0.498473 0.701873 0.914149
O O13 0.086816 0.516135 0.862011
O O14 0.179131 0.242734 0.155439
O O15 0.184705 0.082811 0.089484
#
# Coordination Sequence:
#
# PCOD9241806 Si02
#       8
#     4   2   4   4   4   4   4   4
#     4  10  20  39  62  90 126 163 212 269 316 376
#     4  10  24  38  64  88 132 170 202 262 324 388
#     4  10  21  39  63  94 127 164 213 260 326 379
#     4  10  22  36  66  92 123 173 211 262 326 386
#     4  10  20  36  68  98 118 160 217 272 312 380
#     4  10  20  36  66  91 124 169 220 258 319 393
#     4  10  19  37  63  96 126 163 217 267 323 379
#     4  11  20  39  67  96 122 172 217 265 318 383
#
# _framework density 21.752665
#
# number of rings (size 3 to 8) (size 9 to 14) (size 15 to 20)
#    0.000    1.867    2.667    1.600    0.000    0.000 
#    0.000    0.000   38.133    0.000    0.000    0.000 
#    0.000    0.000    0.000    0.000    0.000    0.000 
#
# Total GULP energy -167049.743903 kJ/mol
# GULP energy per Si atom -5568.324797 kJ/mol
# Density = 2.170316 g / cm^3
# Si number density = 21.752665 Si / 1000 Ang^3
#
#
#
# Elastic Constant Matrix: (Units=GPa)
#
#
# Indices 1 2 3 4 5 6 
#
# 1 52.5363 15.0042 15.3975 0.0000 -7.0885 0.0000
# 2 15.0042 54.9762 32.6522 0.0000 -15.1536 0.0000
# 3 15.3975 32.6522 42.7915 0.0000 -12.4295 0.0000
# 4 0.0000 0.0000 0.0000 13.4279 0.0000 -7.1354
# 5 -7.0885 -15.1536 -12.4295 0.0000 23.5242 0.0000
# 6 0.0000 0.0000 0.0000 -7.1354 0.0000 39.1866
#
#
#
# Elastic Compliance Matrix: (Units=1/GPa)
#
#
# Indices 1 2 3 4 5 6 
#
# 1 0.021537 -0.001901 -0.005635 0.000000 0.002288 0.000000
# 2 -0.001901 0.035321 -0.023420 0.000000 0.009806 0.000000
# 3 -0.005635 -0.023420 0.045352 0.000000 0.007179 0.000000
# 4 0.000000 0.000000 0.000000 0.082450 0.000000 0.015013
# 5 0.002288 0.009806 0.007179 0.000000 0.053308 0.000000
# 6 0.000000 0.000000 0.000000 0.015013 0.000000 0.028253
#
#
# Mechanical properties :
#
#
# Convention : Reuss Voigt Hill
#
# Bulk Modulus (GPa) = 24.81355 30.71243 27.76299
# Shear Modulus (GPa) = 14.63851 21.04442 17.84146
#
# Velocity S-wave (km/s) = 2.59695 3.11375 2.86701
# Velocity P-wave (km/s) = 4.51930 5.20354 4.87344
#
# Compressibility (1/GPa) = 0.04030056
#
# Stress axis : x y z
#
# Youngs Moduli (GPa) = 46.43068 28.31185 22.04963
#
# Poissons Ratio (x) = 0.05381 0.12424
# Poissons Ratio (y) = 0.08825 0.51639
# Poissons Ratio (z) = 0.26163 0.66305
#
# Static dielectric constant tensor:
#      x y z
#    x 1.849150 0.000000 0.023100 
#    y 0.000000 1.816920 0.000000 
#    z 0.023100 0.000000 1.807680 
# 
# From -- ./inp_files/78725.got.cif
#   From: 2010.05.17/outbox.cif.g08.bks.cpg/sg14_40_cif.got.tgz:78725.got - 2010.06.03 17:49:19.
