data_PCOD9241272
_publ_section_title
;
Structure prediction by ZEFSAII (Michael W. Deem and Ramdas Pophale) SiO2 
 PCOD9241272
Probable space group: P 21/C
;
_chemical_formula_sum "Si O2"
_cell_formula_units_Z 28
_cell_length_a 9.047586
_cell_length_b 4.982719
_cell_length_c 25.910001
_cell_angle_alpha 90.000000
_cell_angle_beta 105.403289
_cell_angle_gamma 90.000000
_cell_volume 1126.107084
_symmetry_space_group_name_H-M "P 21/C"
_symmetry_group_IT_number 14
_symmetry_cell_setting 'monoclinic'
loop_
_space_group_symop_operation_xyz
x,y,z
-x,1/2+y,1/2-z
-x,-y,-z
x,1/2-y,1/2+z
loop_
_atom_site_type_symbol
_atom_site_label
_atom_site_fract_x
_atom_site_fract_y
_atom_site_fract_z
Si Si1 0.642737 0.960792 0.625468
Si Si2 0.345101 0.796955 0.061604
Si Si3 0.432834 0.588545 0.769127
Si Si4 0.066936 0.747724 0.475370
Si Si5 0.825645 0.019445 0.171741
Si Si6 0.835617 0.722727 0.281009
Si Si7 0.784492 0.806402 0.389908
O O1 0.515548 0.829349 0.575734
O O2 0.552789 0.965096 0.672345
O O3 0.786917 0.756863 0.638009
O O4 0.710241 0.262186 0.635480
O O5 0.250190 0.778430 0.998596
O O6 0.252045 0.591562 0.089047
O O7 0.317054 0.085242 0.087390
O O8 0.485156 0.887272 0.762997
O O9 0.252687 0.551067 0.741015
O O10 0.000000 0.500000 0.500000
O O11 0.966249 0.744336 0.414544
O O12 0.000000 0.000000 0.500000
O O13 0.990284 0.155122 0.190854
O O14 0.810363 0.909511 0.229289
O O15 0.759601 0.820080 0.326920
#
# Coordination Sequence:
#
# PCOD9241272 Si02
#       7
#     4   4   4   4   4   4   4
#     4  11  22  37  53  76 106 144 185 217 269 328
#     4  10  19  35  58  86 117 142 174 231 287 330
#     4  11  21  32  50  76 102 127 166 220 270 317
#     4   8  16  31  52  84 115 140 174 218 280 342
#     4  11  25  38  54  74 103 151 191 222 257 316
#     4  11  23  40  56  75 110 145 186 227 268 317
#     4  10  20  33  59  87 111 145 182 227 283 336
#
# _framework density 24.864422999999999
#
# number of rings (size 3 to 8) (size 9 to 14) (size 15 to 20)
#    0.000    1.714    0.000    6.000    0.000    5.714 
#    0.000    0.000    0.000    1.714    0.000    0.000 
#    0.000    0.000    0.000    0.000    0.000    0.000 
#
# Total GULP energy -156163.339445 kJ/mol
# GULP energy per Si atom -5577.262123 kJ/mol
# Density = 2.480783 g / cm^3
# Si number density = 24.864423 Si / 1000 Ang^3
#
#
#
# Elastic Constant Matrix: (Units=GPa)
#
#
# Indices 1 2 3 4 5 6 
#
# 1 74.6742 5.0729 3.3566 0.0000 30.8693 0.0000
# 2 5.0729 129.0926 -10.4213 0.0000 -6.1878 0.0000
# 3 3.3566 -10.4213 65.9373 0.0000 28.8496 0.0000
# 4 0.0000 0.0000 0.0000 18.2541 0.0000 10.7042
# 5 30.8693 -6.1878 28.8496 0.0000 37.5977 0.0000
# 6 0.0000 0.0000 0.0000 10.7042 0.0000 24.4079
#
#
#
# Elastic Compliance Matrix: (Units=1/GPa)
#
#
# Indices 1 2 3 4 5 6 
#
# 1 0.025349 -0.001497 0.011572 0.000000 -0.029939 0.000000
# 2 -0.001497 0.007941 0.000334 0.000000 0.002280 0.000000
# 3 0.011572 0.000334 0.028245 0.000000 -0.031120 0.000000
# 4 0.000000 0.000000 0.000000 0.073748 0.000000 -0.032342
# 5 -0.029939 0.002280 -0.031120 0.000000 0.075432 0.000000
# 6 0.000000 0.000000 0.000000 -0.032342 0.000000 0.055154
#
#
# Mechanical properties :
#
#
# Convention : Reuss Voigt Hill
#
# Bulk Modulus (GPa) = 12.14272 29.52449 20.83361
# Shear Modulus (GPa) = 18.34834 34.16499 26.25666
#
# Velocity S-wave (km/s) = 2.71944 3.71084 3.25313
# Velocity P-wave (km/s) = 3.84118 5.50095 4.74421
#
# Compressibility (1/GPa) = 0.08235389
#
# Stress axis : x y z
#
# Youngs Moduli (GPa) = 39.44879 125.92177 35.40404
#
# Poissons Ratio (x) = 0.18851 -0.40970
# Poissons Ratio (y) = 0.05906 -0.01182
# Poissons Ratio (z) = -0.45651 -0.04203
#
# Static dielectric constant tensor:
#      x y z
#    x 2.045910 0.000000 0.091210 
#    y 0.000000 1.900870 0.000000 
#    z 0.091210 0.000000 2.078970 
# 
# From -- ./inp_files/79150.got.cif
#   From: 2010.05.17/outbox.cif.g08.bks.cpg/sg14_40_cif.got.tgz:79150.got - 2010.06.03 17:49:19.
