data_PCOD9241011
_publ_section_title
;
Structure prediction by ZEFSAII (Michael W. Deem and Ramdas Pophale) SiO2 
 PCOD9241011
Probable space group: P 21/C
;
_chemical_formula_sum "Si O2"
_cell_formula_units_Z 20
_cell_length_a 7.137058
_cell_length_b 8.895507
_cell_length_c 23.325966
_cell_angle_alpha 90.000000
_cell_angle_beta 141.463651
_cell_angle_gamma 90.000000
_cell_volume 922.625150
_symmetry_space_group_name_H-M "P 21/C"
_symmetry_group_IT_number 14
_symmetry_cell_setting 'monoclinic'
loop_
_space_group_symop_operation_xyz
x,y,z
-x,1/2+y,1/2-z
-x,-y,-z
x,1/2-y,1/2+z
loop_
_atom_site_type_symbol
_atom_site_label
_atom_site_fract_x
_atom_site_fract_y
_atom_site_fract_z
Si Si1 0.694492 0.276992 0.185359
Si Si2 0.352549 0.817400 0.099960
Si Si3 0.503065 0.548262 0.214218
Si Si4 0.875675 0.882085 0.906459
Si Si5 0.918282 0.523625 0.782273
O O1 0.668596 0.405336 0.227510
O O2 0.367830 0.198640 0.109920
O O3 0.789929 0.372654 0.152765
O O4 0.924927 0.143962 0.257476
O O5 0.368917 0.656984 0.134045
O O6 0.679919 0.890165 0.184267
O O7 0.151728 0.939128 0.087675
O O8 0.199009 0.820284 0.001115
O O9 0.742201 0.637494 0.311144
O O10 0.239418 0.496037 0.194170
#
# Coordination Sequence:
#
# PCOD9241011 Si02
#       5
#     4   4   4   4   4
#     4  10  20  33  55  81 108 142 181 221 267 317
#     4   9  18  34  56  78 108 143 180 219 265 321
#     4  10  19  35  57  79 108 143 178 223 271 314
#     4   9  18  34  55  80 107 143 180 218 267 321
#     4  10  19  34  55  80 107 143 181 220 266 319
#
# _framework density 21.677275000000002
#
# number of rings (size 3 to 8) (size 9 to 14) (size 15 to 20)
#    0.000    2.800    0.000    6.000    0.000    0.800 
#    0.000    2.000    0.000   21.600    0.000    2.800 
#    0.000    0.000    0.000    0.000    0.000    0.000 
#
# Total GULP energy -111451.529380 kJ/mol
# GULP energy per Si atom -5572.576469 kJ/mol
# Density = 2.162794 g / cm^3
# Si number density = 21.677275 Si / 1000 Ang^3
#
#
#
# Elastic Constant Matrix: (Units=GPa)
#
#
# Indices 1 2 3 4 5 6 
#
# 1 62.3547 46.8043 0.7059 0.0000 -6.6935 0.0000
# 2 46.8043 130.5369 2.7652 0.0000 2.1964 0.0000
# 3 0.7059 2.7652 45.5176 0.0000 4.8022 0.0000
# 4 0.0000 0.0000 0.0000 23.1551 0.0000 3.2301
# 5 -6.6935 2.1964 4.8022 0.0000 12.2469 0.0000
# 6 0.0000 0.0000 0.0000 3.2301 0.0000 46.6394
#
#
#
# Elastic Compliance Matrix: (Units=1/GPa)
#
#
# Indices 1 2 3 4 5 6 
#
# 1 0.024491 -0.009012 -0.001476 0.000000 0.015581 0.000000
# 2 -0.009012 0.011005 0.000208 0.000000 -0.006981 0.000000
# 3 -0.001476 0.000208 0.023021 0.000000 -0.009871 0.000000
# 4 0.000000 0.000000 0.000000 0.043608 0.000000 -0.003020
# 5 0.015581 -0.006981 -0.009871 0.000000 0.095292 0.000000
# 6 0.000000 0.000000 0.000000 -0.003020 0.000000 0.021650
#
#
# Mechanical properties :
#
#
# Convention : Reuss Voigt Hill
#
# Bulk Modulus (GPa) = 26.34623 37.66225 32.00424
# Shear Modulus (GPa) = 19.81916 28.95052 24.38484
#
# Velocity S-wave (km/s) = 3.02699 3.65845 3.35760
# Velocity P-wave (km/s) = 4.93935 5.93780 5.46144
#
# Compressibility (1/GPa) = 0.03795610
#
# Stress axis : x y z
#
# Youngs Moduli (GPa) = 40.83095 90.86699 43.43826
#
# Poissons Ratio (x) = 0.81892 0.06412
# Poissons Ratio (y) = 0.36798 -0.00902
# Poissons Ratio (z) = 0.06027 -0.01887
#
# Static dielectric constant tensor:
#      x y z
#    x 1.852300 0.000000 0.010460 
#    y 0.000000 1.826180 0.000000 
#    z 0.010460 0.000000 1.810270 
# 
# From -- ./inp_files/72024.got.cif
#   From: 2010.05.17/outbox.cif.g08.bks.cpg/sg14_37_cif.got.tgz:72024.got - 2010.06.03 17:49:19.
