data_PCOD9241764
_publ_section_title
;
Structure prediction by ZEFSAII (Michael W. Deem and Ramdas Pophale) SiO2 
 PCOD9241764
Probable space group: P 21/C
;
_chemical_formula_sum "Si O2"
_cell_formula_units_Z 28
_cell_length_a 15.579140
_cell_length_b 10.435088
_cell_length_c 9.421360
_cell_angle_alpha 90.000000
_cell_angle_beta 50.901189
_cell_angle_gamma 90.000000
_cell_volume 1188.634172
_symmetry_space_group_name_H-M "P 21/C"
_symmetry_group_IT_number 14
_symmetry_cell_setting 'monoclinic'
loop_
_space_group_symop_operation_xyz
x,y,z
-x,1/2+y,1/2-z
-x,-y,-z
x,1/2-y,1/2+z
loop_
_atom_site_type_symbol
_atom_site_label
_atom_site_fract_x
_atom_site_fract_y
_atom_site_fract_z
Si Si1 0.444445 0.911134 0.777646
Si Si2 0.036632 0.800726 0.816302
Si Si3 0.837814 0.194683 0.577531
Si Si4 0.921494 0.537553 0.870552
Si Si5 0.308783 0.115391 0.429394
Si Si6 0.406678 0.753912 0.074700
Si Si7 0.364679 0.136170 0.047150
O O1 0.573400 0.947936 0.657068
O O2 0.415147 0.882612 0.645511
O O3 0.426579 0.779386 0.887726
O O4 0.372043 0.013392 0.938159
O O5 0.081462 0.791828 0.926765
O O6 0.145545 0.775096 0.605044
O O7 0.958257 0.680335 0.867194
O O8 0.999998 0.940957 0.801185
O O9 0.713447 0.196312 0.757099
O O10 0.891492 0.053020 0.536582
O O11 0.804238 0.547007 0.910038
O O12 0.305161 0.126894 0.261647
O O13 0.316018 0.249793 0.503530
O O14 0.509575 0.831095 0.035694
#
# Coordination Sequence:
#
# PCOD9241764 Si02
#       7
#     4   4   4   4   4   4   4
#     4  10  20  37  63  91 131 166 203 256 309 383
#     4  10  24  41  67  89 121 163 212 264 317 369
#     4  10  21  40  65  92 122 163 204 252 321 368
#     4  10  23  44  66  89 125 164 210 267 316 374
#     4  10  21  41  63  91 127 167 208 254 322 372
#     4  10  19  37  61  93 127 163 210 249 310 385
#     4  10  21  39  61  95 127 169 206 255 309 382
#
# _framework density 23.556446000000001
#
# number of rings (size 3 to 8) (size 9 to 14) (size 15 to 20)
#    0.857    1.143    0.000    4.714    0.000    1.714 
#    7.714    7.143    0.000    0.000    0.000    0.000 
#    0.000    0.000    0.000    0.000    0.000    0.000 
#
# Total GULP energy -156096.521948 kJ/mol
# GULP energy per Si atom -5574.875784 kJ/mol
# Density = 2.350283 g / cm^3
# Si number density = 23.556446 Si / 1000 Ang^3
#
#
#
# Elastic Constant Matrix: (Units=GPa)
#
#
# Indices 1 2 3 4 5 6 
#
# 1 47.4332 34.2353 15.3135 0.0000 6.2096 0.0000
# 2 34.2353 97.6123 19.0121 0.0000 7.6860 0.0000
# 3 15.3135 19.0121 46.5673 0.0000 -2.1971 0.0000
# 4 0.0000 0.0000 0.0000 33.6099 0.0000 1.1056
# 5 6.2096 7.6860 -2.1971 0.0000 35.6406 0.0000
# 6 0.0000 0.0000 0.0000 1.1056 0.0000 24.0855
#
#
#
# Elastic Compliance Matrix: (Units=1/GPa)
#
#
# Indices 1 2 3 4 5 6 
#
# 1 0.030157 -0.009039 -0.006401 0.000000 -0.003700 0.000000
# 2 -0.009039 0.014102 -0.002862 0.000000 -0.001643 0.000000
# 3 -0.006401 -0.002862 0.024902 0.000000 0.003268 0.000000
# 4 0.000000 0.000000 0.000000 0.029798 0.000000 -0.001368
# 5 -0.003700 -0.001643 0.003268 0.000000 0.029258 0.000000
# 6 0.000000 0.000000 0.000000 -0.001368 0.000000 0.041582
#
#
# Mechanical properties :
#
#
# Convention : Reuss Voigt Hill
#
# Bulk Modulus (GPa) = 30.71653 36.52607 33.62130
# Shear Modulus (GPa) = 23.01436 26.87066 24.94251
#
# Velocity S-wave (km/s) = 3.12907 3.38108 3.25751
# Velocity P-wave (km/s) = 5.11103 5.54812 5.33406
#
# Compressibility (1/GPa) = 0.03255576
#
# Stress axis : x y z
#
# Youngs Moduli (GPa) = 33.15971 70.91384 40.15717
#
# Poissons Ratio (x) = 0.64098 0.25706
# Poissons Ratio (y) = 0.29972 0.11495
# Poissons Ratio (z) = 0.21227 0.20298
#
# Static dielectric constant tensor:
#      x y z
#    x 1.867360 0.000000 -0.003250 
#    y 0.000000 1.993720 0.000000 
#    z -0.003250 0.000000 1.880000 
# 
# From -- ./inp_files/32166.got.cif
#   From: 2010.05.17/outbox.cif.g08.bks.cpg/sg14_17_cif.got.tgz:32166.got - 2010.06.03 17:49:19.
