data_PCOD9241739
_publ_section_title
;
Structure prediction by ZEFSAII (Michael W. Deem and Ramdas Pophale) SiO2 
 PCOD9241739
Probable space group: P 21/C
;
_chemical_formula_sum "Si O2"
_cell_formula_units_Z 28
_cell_length_a 9.649443
_cell_length_b 11.185406
_cell_length_c 18.364718
_cell_angle_alpha 90.000000
_cell_angle_beta 36.141351
_cell_angle_gamma 90.000000
_cell_volume 1169.035813
_symmetry_space_group_name_H-M "P 21/C"
_symmetry_group_IT_number 14
_symmetry_cell_setting 'monoclinic'
loop_
_space_group_symop_operation_xyz
x,y,z
-x,1/2+y,1/2-z
-x,-y,-z
x,1/2-y,1/2+z
loop_
_atom_site_type_symbol
_atom_site_label
_atom_site_fract_x
_atom_site_fract_y
_atom_site_fract_z
Si Si1 0.702127 0.084974 0.532581
Si Si2 0.382526 0.870045 0.697234
Si Si3 0.709905 0.695180 0.487749
Si Si4 0.849261 0.992352 0.726926
Si Si5 0.865628 0.198482 0.604856
Si Si6 0.924535 0.471583 0.357008
Si Si7 0.752501 0.738755 0.802725
O O1 0.853648 0.152864 0.528639
O O2 0.488562 0.166157 0.597725
O O3 0.872441 0.039405 0.397554
O O4 0.582791 0.968786 0.618804
O O5 0.470978 0.766284 0.605196
O O6 0.318233 0.803184 0.798942
O O7 0.151760 0.940254 0.767195
O O8 0.794423 0.732177 0.370521
O O9 0.888741 0.748858 0.471410
O O10 0.731597 0.550445 0.482895
O O11 0.725507 0.864800 0.774360
O O12 0.819978 0.039240 0.820754
O O13 0.802761 0.087151 0.684067
O O14 0.040079 0.341663 0.321073
#
# Coordination Sequence:
#
# PCOD9241739 Si02
#       7
#     4   4   4   4   4   4   4
#     4  11  23  38  61  82 114 157 187 228 286 338
#     4  10  21  38  61  81 117 149 191 230 285 339
#     4  10  19  37  61  83 113 149 185 231 286 336
#     4  11  21  38  63  84 117 147 194 231 280 338
#     4  11  23  36  58  88 110 147 196 233 273 335
#     4   9  19  37  59  87 113 147 187 237 283 333
#     4  10  21  38  58  89 114 146 190 236 276 338
#
# _framework density 23.951362
#
# number of rings (size 3 to 8) (size 9 to 14) (size 15 to 20)
#    0.000    1.714    2.857    1.286    2.000    2.286 
#    2.571    1.429    0.000    5.143    0.000    0.000 
#    0.000    0.000    0.000    0.000    0.000    0.000 
#
# Total GULP energy -156471.855741 kJ/mol
# GULP energy per Si atom -5588.280562 kJ/mol
# Density = 2.389685 g / cm^3
# Si number density = 23.951362 Si / 1000 Ang^3
#
#
#
# Elastic Constant Matrix: (Units=GPa)
#
#
# Indices 1 2 3 4 5 6 
#
# 1 70.9048 20.1873 -4.9331 0.0000 2.6409 0.0000
# 2 20.1873 94.1789 10.1071 0.0000 -7.5890 0.0000
# 3 -4.9331 10.1071 25.9201 0.0000 -8.6283 0.0000
# 4 0.0000 0.0000 0.0000 34.3602 0.0000 -6.6023
# 5 2.6409 -7.5890 -8.6283 0.0000 19.6128 0.0000
# 6 0.0000 0.0000 0.0000 -6.6023 0.0000 25.1873
#
#
#
# Elastic Compliance Matrix: (Units=1/GPa)
#
#
# Indices 1 2 3 4 5 6 
#
# 1 0.015553 -0.003900 0.003844 0.000000 -0.001912 0.000000
# 2 -0.003900 0.012192 -0.004395 0.000000 0.003310 0.000000
# 3 0.003844 -0.004395 0.047199 0.000000 0.018546 0.000000
# 4 0.000000 0.000000 0.000000 0.030647 0.000000 0.008033
# 5 -0.001912 0.003310 0.018546 0.000000 0.060684 0.000000
# 6 0.000000 0.000000 0.000000 0.008033 0.000000 0.041808
#
#
# Mechanical properties :
#
#
# Convention : Reuss Voigt Hill
#
# Bulk Modulus (GPa) = 15.14177 26.85848 21.00012
# Shear Modulus (GPa) = 20.92050 26.87489 23.89770
#
# Velocity S-wave (km/s) = 2.95864 3.35335 3.16216
# Velocity P-wave (km/s) = 4.24346 5.12166 4.70310
#
# Compressibility (1/GPa) = 0.06604247
#
# Stress axis : x y z
#
# Youngs Moduli (GPa) = 64.29805 82.01794 21.18680
#
# Poissons Ratio (x) = 0.31990 -0.08145
# Poissons Ratio (y) = 0.25078 0.09311
# Poissons Ratio (z) = -0.24718 0.36046
#
# Static dielectric constant tensor:
#      x y z
#    x 1.851500 0.000000 -0.047990 
#    y 0.000000 1.956310 0.000000 
#    z -0.047990 0.000000 1.961950 
# 
# From -- ./inp_files/28679.got.cif
#   From: 2010.05.17/outbox.cif.g08.bks.cpg/sg14_15_cif.got.tgz:28679.got - 2010.06.03 17:49:19.
