data_PCOD9241230
_publ_section_title
;
Structure prediction by ZEFSAII (Michael W. Deem and Ramdas Pophale) SiO2 
 PCOD9241230
Probable space group: P 21/C
;
_chemical_formula_sum "Si O2"
_cell_formula_units_Z 28
_cell_length_a 8.876511
_cell_length_b 8.817274
_cell_length_c 24.077474
_cell_angle_alpha 90.000000
_cell_angle_beta 131.129138
_cell_angle_gamma 90.000000
_cell_volume 1419.431955
_symmetry_space_group_name_H-M "P 21/C"
_symmetry_group_IT_number 14
_symmetry_cell_setting 'monoclinic'
loop_
_space_group_symop_operation_xyz
x,y,z
-x,1/2+y,1/2-z
-x,-y,-z
x,1/2-y,1/2+z
loop_
_atom_site_type_symbol
_atom_site_label
_atom_site_fract_x
_atom_site_fract_y
_atom_site_fract_z
Si Si1 0.257642 0.530861 0.485903
Si Si2 0.376163 0.523248 0.884906
Si Si3 0.853886 0.230861 0.744766
Si Si4 0.517270 0.012024 0.160331
Si Si5 0.835633 0.508614 0.339731
Si Si6 0.446933 0.263144 0.989305
Si Si7 0.246795 0.202799 0.280555
O O1 0.376793 0.496678 0.571505
O O2 0.345048 0.688778 0.482354
O O3 0.314364 0.387401 0.460580
O O4 0.019100 0.527922 0.426853
O O5 0.188415 0.619349 0.817744
O O6 0.523360 0.650764 0.945060
O O7 0.415675 0.420283 0.840189
O O8 0.367358 0.395150 0.930166
O O9 0.666258 0.345053 0.700240
O O10 0.062334 0.307090 0.778876
O O11 0.862667 0.132871 0.803525
O O12 0.369791 0.000405 0.176718
O O13 0.659175 0.866333 0.193081
O O14 0.829973 0.653628 0.297880
#
# Coordination Sequence:
#
# PCOD9241230 Si02
#       7
#     4   4   4   4   4   4   4
#     4  11  22  38  64  93 123 163 212 254 314 369
#     4  10  19  35  56  90 118 153 199 257 311 348
#     4  11  23  40  64  93 122 164 213 260 306 372
#     4  12  23  43  62  91 130 166 206 257 319 379
#     4  11  25  40  64  92 129 166 202 258 325 372
#     4  10  20  34  62  90 120 156 208 264 304 356
#     4  11  23  40  64  93 122 164 213 260 306 372
#
# _framework density 19.726202000000001
#
# number of rings (size 3 to 8) (size 9 to 14) (size 15 to 20)
#    0.000    1.143    2.857    4.714    4.000    0.000 
#    0.000    0.000    0.000    1.714    0.000    0.000 
#    0.000    0.000    0.000    0.000    0.000    0.000 
#
# Total GULP energy -156002.067299 kJ/mol
# GULP energy per Si atom -5571.502404 kJ/mol
# Density = 1.968130 g / cm^3
# Si number density = 19.726202 Si / 1000 Ang^3
#
#
#
# Elastic Constant Matrix: (Units=GPa)
#
#
# Indices 1 2 3 4 5 6 
#
# 1 93.9085 17.7136 37.2201 0.0000 12.2723 0.0000
# 2 17.7136 100.1585 55.4665 0.0000 -0.1112 0.0000
# 3 37.2201 55.4665 120.6100 0.0000 8.0403 0.0000
# 4 0.0000 0.0000 0.0000 24.7723 0.0000 0.5519
# 5 12.2723 -0.1112 8.0403 0.0000 21.6947 0.0000
# 6 0.0000 0.0000 0.0000 0.5519 0.0000 17.4277
#
#
#
# Elastic Compliance Matrix: (Units=1/GPa)
#
#
# Indices 1 2 3 4 5 6 
#
# 1 0.012851 -0.000410 -0.003376 0.000000 -0.006020 0.000000
# 2 -0.000410 0.013533 -0.006272 0.000000 0.002626 0.000000
# 3 -0.003376 -0.006272 0.012399 0.000000 -0.002718 0.000000
# 4 0.000000 0.000000 0.000000 0.040396 0.000000 -0.001279
# 5 -0.006020 0.002626 -0.002718 0.000000 0.050520 0.000000
# 6 0.000000 0.000000 0.000000 -0.001279 0.000000 0.057420
#
#
# Mechanical properties :
#
#
# Convention : Reuss Voigt Hill
#
# Bulk Modulus (GPa) = 53.57187 59.49750 56.53469
# Shear Modulus (GPa) = 23.42388 26.39741 24.91064
#
# Velocity S-wave (km/s) = 3.44968 3.66210 3.55747
# Velocity P-wave (km/s) = 6.56382 6.93602 6.75249
#
# Compressibility (1/GPa) = 0.01866651
#
# Stress axis : x y z
#
# Youngs Moduli (GPa) = 77.81640 73.89335 80.65430
#
# Poissons Ratio (x) = 0.03029 0.27228
# Poissons Ratio (y) = 0.03190 0.50588
# Poissons Ratio (z) = 0.26270 0.46347
#
# Static dielectric constant tensor:
#      x y z
#    x 1.691520 0.000000 -0.020440 
#    y 0.000000 1.722900 0.000000 
#    z -0.020440 0.000000 1.742340 
# 
# From -- ./inp_files/54852.got.cif
#   From: 2010.05.17/outbox.cif.g08.bks.cpg/sg14_28_cif.got.tgz:54852.got - 2010.06.03 17:49:19.
