data_PCOD9241219
_publ_section_title
;
Structure prediction by ZEFSAII (Michael W. Deem and Ramdas Pophale) SiO2 
 PCOD9241219
Probable space group: P 21/C
;
_chemical_formula_sum "Si O2"
_cell_formula_units_Z 24
_cell_length_a 35.601531
_cell_length_b 8.048987
_cell_length_c 10.980332
_cell_angle_alpha 90.000000
_cell_angle_beta 157.499470
_cell_angle_gamma 90.000000
_cell_volume 1204.133756
_symmetry_space_group_name_H-M "P 21/C"
_symmetry_group_IT_number 14
_symmetry_cell_setting 'monoclinic'
loop_
_space_group_symop_operation_xyz
x,y,z
-x,1/2+y,1/2-z
-x,-y,-z
x,1/2-y,1/2+z
loop_
_atom_site_type_symbol
_atom_site_label
_atom_site_fract_x
_atom_site_fract_y
_atom_site_fract_z
Si Si1 0.935196 0.534720 0.684323
Si Si2 0.529884 0.751876 0.086256
Si Si3 0.198676 0.779961 0.091772
Si Si4 0.356037 0.551540 0.663785
Si Si5 0.382532 0.558123 0.013799
Si Si6 0.010449 0.618216 0.412476
O O1 0.841789 0.417779 0.434406
O O2 0.980644 0.475543 0.690686
O O3 0.928620 0.735397 0.660037
O O4 0.000000 0.500000 0.000000
O O5 0.437372 0.696687 0.891323
O O6 0.472816 0.810674 0.793208
O O7 0.603416 0.598472 0.295563
O O8 0.586826 0.907637 0.308722
O O9 0.250729 0.625374 0.314933
O O10 0.284126 0.858028 0.267018
O O11 0.111815 0.715050 0.745303
O O12 0.362386 0.493810 0.820068
O O13 0.000000 0.500000 0.500000
#
# Coordination Sequence:
#
# PCOD9241219 Si02
#       6
#     4   4   4   4   4   4
#     4  10  21  40  63  88 117 152 193 240 296 356
#     4   9  20  34  54  83 109 151 198 232 286 346
#     4  10  22  37  58  89 117 148 192 240 293 353
#     4  10  19  36  57  80 115 151 191 240 288 342
#     4  10  19  35  56  80 115 151 190 241 289 340
#     4  11  23  42  65  88 117 155 196 242 299 358
#
# _framework density 19.931339999999999
#
# number of rings (size 3 to 8) (size 9 to 14) (size 15 to 20)
#    0.000    2.000    0.000    4.000    0.000    2.667 
#    0.000    8.333    0.000    0.000    0.000    0.000 
#    0.000    0.000    0.000    0.000    0.000    0.000 
#
# Total GULP energy -133741.493013 kJ/mol
# GULP energy per Si atom -5572.562209 kJ/mol
# Density = 1.988598 g / cm^3
# Si number density = 19.931340 Si / 1000 Ang^3
#
#
#
# Elastic Constant Matrix: (Units=GPa)
#
#
# Indices 1 2 3 4 5 6 
#
# 1 64.1507 16.5173 21.0989 0.0000 -21.4662 0.0000
# 2 16.5173 89.2769 26.3922 0.0000 6.4802 0.0000
# 3 21.0989 26.3922 71.4710 0.0000 2.1399 0.0000
# 4 0.0000 0.0000 0.0000 33.6802 0.0000 0.3901
# 5 -21.4662 6.4802 2.1399 0.0000 25.0373 0.0000
# 6 0.0000 0.0000 0.0000 0.3901 0.0000 25.5447
#
#
#
# Elastic Compliance Matrix: (Units=1/GPa)
#
#
# Indices 1 2 3 4 5 6 
#
# 1 0.027818 -0.004893 -0.007176 0.000000 0.025730 0.000000
# 2 -0.004893 0.013643 -0.003371 0.000000 -0.007438 0.000000
# 3 -0.007176 -0.003371 0.017558 0.000000 -0.006780 0.000000
# 4 0.000000 0.000000 0.000000 0.029696 0.000000 -0.000454
# 5 0.025730 -0.007438 -0.006780 0.000000 0.064505 0.000000
# 6 0.000000 0.000000 0.000000 -0.000454 0.000000 0.039154
#
#
# Mechanical properties :
#
#
# Convention : Reuss Voigt Hill
#
# Bulk Modulus (GPa) = 35.53697 39.21283 37.37490
# Shear Modulus (GPa) = 21.49310 27.57844 24.53577
#
# Velocity S-wave (km/s) = 3.28740 3.72381 3.51239
# Velocity P-wave (km/s) = 5.68135 6.18107 5.93647
#
# Compressibility (1/GPa) = 0.02813971
#
# Stress axis : x y z
#
# Youngs Moduli (GPa) = 35.94789 73.29902 56.95503
#
# Poissons Ratio (x) = 0.35866 0.40869
# Poissons Ratio (y) = 0.17589 0.19198
# Poissons Ratio (z) = 0.25795 0.24707
#
# Static dielectric constant tensor:
#      x y z
#    x 1.716880 0.000000 -0.005800 
#    y 0.000000 1.744920 0.000000 
#    z -0.005800 0.000000 1.713520 
# 
# From -- ./inp_files/19969.got.cif
#   From: 2010.05.17/outbox.cif.g08.bks.cpg/sg14_10_cif.got.tgz:19969.got - 2010.06.03 17:49:19.
