data_PCOD9241928
_publ_section_title
;
Structure prediction by ZEFSAII (Michael W. Deem and Ramdas Pophale) SiO2 
 PCOD9241928
Probable space group: P 21/C
;
_chemical_formula_sum "Si O2"
_cell_formula_units_Z 32
_cell_length_a 21.150631
_cell_length_b 5.515227
_cell_length_c 16.585688
_cell_angle_alpha 90.000000
_cell_angle_beta 44.821470
_cell_angle_gamma 90.000000
_cell_volume 1363.790795
_symmetry_space_group_name_H-M "P 21/C"
_symmetry_group_IT_number 14
_symmetry_cell_setting 'monoclinic'
loop_
_space_group_symop_operation_xyz
x,y,z
-x,1/2+y,1/2-z
-x,-y,-z
x,1/2-y,1/2+z
loop_
_atom_site_type_symbol
_atom_site_label
_atom_site_fract_x
_atom_site_fract_y
_atom_site_fract_z
Si Si1 0.209927 0.982857 0.278412
Si Si2 0.650632 0.416874 0.906790
Si Si3 0.511357 0.078032 0.079622
Si Si4 0.949905 0.324432 0.605828
Si Si5 0.557338 0.579576 0.688951
Si Si6 0.040882 0.363270 0.176418
Si Si7 0.813628 0.860024 0.338036
Si Si8 0.665453 0.732046 0.734335
O O1 0.293306 0.807503 0.182542
O O2 0.119066 0.843815 0.380159
O O3 0.190821 0.117826 0.211158
O O4 0.240229 0.158741 0.323641
O O5 0.717155 0.519991 0.914346
O O6 0.638801 0.588201 0.840158
O O7 0.557644 0.340318 0.030952
O O8 0.410694 0.061965 0.203573
O O9 0.578346 0.926994 0.074752
O O10 0.500000 0.000000 0.000000
O O11 0.884078 0.476680 0.723853
O O12 0.000000 0.500000 0.500000
O O13 0.016186 0.184033 0.606101
O O14 0.506393 0.318445 0.744759
O O15 0.641489 0.589901 0.674093
O O16 0.144265 0.345418 0.111690
O O17 0.003645 0.630372 0.235651
#
# Coordination Sequence:
#
# PCOD9241928 Si02
#       8
#     4   4   4   4   4   4   4   4
#     4  10  19  38  61  88 130 164 216 263 346 387
#     4  10  20  35  64  91 127 166 218 271 330 392
#     4  11  20  37  65  96 122 171 232 276 319 403
#     4  10  21  37  66  94 126 167 224 272 323 407
#     4  10  23  40  62  92 130 175 226 279 335 398
#     4  10  19  38  66  93 124 169 217 263 328 398
#     4   9  20  37  62  90 126 171 206 271 335 396
#     4  10  21  37  65  88 130 177 217 272 339 402
#
# _framework density 23.464009999999998
#
# number of rings (size 3 to 8) (size 9 to 14) (size 15 to 20)
#    0.000    2.000    2.500    1.125    1.750    1.500 
#    0.000    0.000   11.000    0.000    0.000    0.000 
#    0.000    0.000    0.000    0.000    0.000    0.000 
#
# Total GULP energy -178437.829450 kJ/mol
# GULP energy per Si atom -5576.182170 kJ/mol
# Density = 2.341060 g / cm^3
# Si number density = 23.464010 Si / 1000 Ang^3
#
#
#
# Elastic Constant Matrix: (Units=GPa)
#
#
# Indices 1 2 3 4 5 6 
#
# 1 186.6960 31.9924 38.7709 0.0000 -1.8844 0.0000
# 2 31.9924 86.0277 13.8072 0.0000 -9.3457 0.0000
# 3 38.7709 13.8072 37.3447 0.0000 -2.3130 0.0000
# 4 0.0000 0.0000 0.0000 37.5688 0.0000 -9.8956
# 5 -1.8844 -9.3457 -2.3130 0.0000 30.4021 0.0000
# 6 0.0000 0.0000 0.0000 -9.8956 0.0000 45.0780
#
#
#
# Elastic Compliance Matrix: (Units=1/GPa)
#
#
# Indices 1 2 3 4 5 6 
#
# 1 0.007022 -0.001592 -0.006737 0.000000 -0.000567 0.000000
# 2 -0.001592 0.013093 -0.002959 0.000000 0.003701 0.000000
# 3 -0.006737 -0.002959 0.034949 0.000000 0.001332 0.000000
# 4 0.000000 0.000000 0.000000 0.028251 0.000000 0.006202
# 5 -0.000567 0.003701 0.001332 0.000000 0.034096 0.000000
# 6 0.000000 0.000000 0.000000 0.006202 0.000000 0.023545
#
#
# Mechanical properties :
#
#
# Convention : Reuss Voigt Hill
#
# Bulk Modulus (GPa) = 30.78048 53.24549 42.01298
# Shear Modulus (GPa) = 28.67586 37.64297 33.15941
#
# Velocity S-wave (km/s) = 3.49968 4.00970 3.76334
# Velocity P-wave (km/s) = 5.42927 6.64670 6.06859
#
# Compressibility (1/GPa) = 0.03248812
#
# Stress axis : x y z
#
# Youngs Moduli (GPa) = 142.40004 76.37599 28.61342
#
# Poissons Ratio (x) = 0.12158 0.19278
# Poissons Ratio (y) = 0.22667 0.08467
# Poissons Ratio (z) = 0.95938 0.22600
#
# Static dielectric constant tensor:
#      x y z
#    x 1.941730 0.000000 0.032500 
#    y 0.000000 2.027070 0.000000 
#    z 0.032500 0.000000 1.936410 
# 
# From -- ./inp_files/60945.got.cif
#   From: 2010.05.17/outbox.cif.g08.bks.cpg/sg14_31_cif.got.tgz:60945.got - 2010.06.03 17:49:19.
