data_PCOD9241234
_publ_section_title
;
Structure prediction by ZEFSAII (Michael W. Deem and Ramdas Pophale) SiO2 
 PCOD9241234
Probable space group: P 21/C
;
_chemical_formula_sum "Si O2"
_cell_formula_units_Z 28
_cell_length_a 13.478176
_cell_length_b 9.538693
_cell_length_c 14.314235
_cell_angle_alpha 90.000000
_cell_angle_beta 125.669702
_cell_angle_gamma 90.000000
_cell_volume 1495.043296
_symmetry_space_group_name_H-M "P 21/C"
_symmetry_group_IT_number 14
_symmetry_cell_setting 'monoclinic'
loop_
_space_group_symop_operation_xyz
x,y,z
-x,1/2+y,1/2-z
-x,-y,-z
x,1/2-y,1/2+z
loop_
_atom_site_type_symbol
_atom_site_label
_atom_site_fract_x
_atom_site_fract_y
_atom_site_fract_z
Si Si1 0.996994 0.768782 0.339334
Si Si2 0.115831 0.522331 0.756776
Si Si3 0.867585 0.990794 0.378718
Si Si4 0.427160 0.733023 0.794054
Si Si5 0.155467 0.798117 0.109922
Si Si6 0.617102 0.007402 0.344319
Si Si7 0.382690 0.905286 0.452338
O O1 0.947315 0.626737 0.267445
O O2 0.885383 0.864213 0.316932
O O3 0.066607 0.866616 0.304553
O O4 0.085261 0.727304 0.474633
O O5 0.096755 0.583367 0.642215
O O6 0.260859 0.516299 0.851541
O O7 0.848778 0.150472 0.334738
O O8 0.752883 0.966288 0.384202
O O9 0.000000 0.000000 0.500000
O O10 0.300024 0.676580 0.678904
O O11 0.442242 0.890948 0.765873
O O12 0.535781 0.627989 0.824276
O O13 0.403623 0.723197 0.892872
O O14 0.628268 0.105358 0.442611
O O15 0.500000 0.000000 0.500000
#
# Coordination Sequence:
#
# PCOD9241234 Si02
#       7
#     4   4   4   4   4   4   4
#     4  11  22  36  54  83 112 142 182 225 270 331
#     4  11  21  35  57  82 111 146 180 225 277 321
#     4   9  18  33  54  76 103 141 178 216 266 319
#     4   9  19  34  56  80 104 142 181 218 271 323
#     4   9  19  37  56  77 108 144 182 226 271 322
#     4  10  19  35  57  80 109 142 178 225 270 320
#     4   9  19  36  56  78 106 143 184 219 264 324
#
# _framework density 18.728555
#
# number of rings (size 3 to 8) (size 9 to 14) (size 15 to 20)
#    0.000    2.286    0.000    3.857    0.000    4.571 
#    0.000    3.571    0.000    0.000    0.000    0.000 
#    0.000    0.000    0.000    0.000    0.000    0.000 
#
# Total GULP energy -155927.835125 kJ/mol
# GULP energy per Si atom -5568.851254 kJ/mol
# Density = 1.868593 g / cm^3
# Si number density = 18.728555 Si / 1000 Ang^3
#
#
#
# Elastic Constant Matrix: (Units=GPa)
#
#
# Indices 1 2 3 4 5 6 
#
# 1 128.1694 44.6343 42.0485 0.0000 13.2673 0.0000
# 2 44.6343 79.5725 31.9830 0.0000 12.5622 0.0000
# 3 42.0485 31.9830 60.1900 0.0000 -2.6020 0.0000
# 4 0.0000 0.0000 0.0000 23.8185 0.0000 -0.1988
# 5 13.2673 12.5622 -2.6020 0.0000 18.3478 0.0000
# 6 0.0000 0.0000 0.0000 -0.1988 0.0000 25.4935
#
#
#
# Elastic Compliance Matrix: (Units=1/GPa)
#
#
# Indices 1 2 3 4 5 6 
#
# 1 0.011892 -0.002464 -0.007343 0.000000 -0.007954 0.000000
# 2 -0.002464 0.019773 -0.009351 0.000000 -0.013083 0.000000
# 3 -0.007343 -0.009351 0.027387 0.000000 0.015596 0.000000
# 4 0.000000 0.000000 0.000000 0.041987 0.000000 0.000327
# 5 -0.007954 -0.013083 0.015596 0.000000 0.071423 0.000000
# 6 0.000000 0.000000 0.000000 0.000327 0.000000 0.039228
#
#
# Mechanical properties :
#
#
# Convention : Reuss Voigt Hill
#
# Bulk Modulus (GPa) = 48.22289 56.14037 52.18163
# Shear Modulus (GPa) = 19.46147 23.48303 21.47225
#
# Velocity S-wave (km/s) = 3.22706 3.54483 3.38967
# Velocity P-wave (km/s) = 6.29995 6.84071 6.57589
#
# Compressibility (1/GPa) = 0.02073704
#
# Stress axis : x y z
#
# Youngs Moduli (GPa) = 84.08717 50.57381 36.51408
#
# Poissons Ratio (x) = 0.12460 0.26811
# Poissons Ratio (y) = 0.20717 0.34145
# Poissons Ratio (z) = 0.61742 0.47292
#
# Static dielectric constant tensor:
#      x y z
#    x 1.675780 0.000000 -0.024610 
#    y 0.000000 1.661620 0.000000 
#    z -0.024610 0.000000 1.684720 
# 
# From -- ./inp_files/46540.got.cif
#   From: 2010.05.17/outbox.cif.g08.bks.cpg/sg14_24_cif.got.tgz:46540.got - 2010.06.03 17:49:19.
