data_PCOD9241715
_publ_section_title
;
Structure prediction by ZEFSAII (Michael W. Deem and Ramdas Pophale) SiO2 
 PCOD9241715
Probable space group: P 21/C
;
_chemical_formula_sum "Si O2"
_cell_formula_units_Z 20
_cell_length_a 9.893788
_cell_length_b 15.142448
_cell_length_c 5.441490
_cell_angle_alpha 90.000000
_cell_angle_beta 80.362162
_cell_angle_gamma 90.000000
_cell_volume 803.716878
_symmetry_space_group_name_H-M "P 21/C"
_symmetry_group_IT_number 14
_symmetry_cell_setting 'monoclinic'
loop_
_space_group_symop_operation_xyz
x,y,z
-x,1/2+y,1/2-z
-x,-y,-z
x,1/2-y,1/2+z
loop_
_atom_site_type_symbol
_atom_site_label
_atom_site_fract_x
_atom_site_fract_y
_atom_site_fract_z
Si Si1 0.826932 0.840558 0.928144
Si Si2 0.060409 0.145676 0.606418
Si Si3 0.743413 0.103341 0.689899
Si Si4 0.631654 0.464273 0.720035
Si Si5 0.522905 0.854140 0.068834
O O1 0.912221 0.750325 0.891352
O O2 0.862564 0.887841 0.661410
O O3 0.669140 0.809140 0.003344
O O4 0.875527 0.890177 0.159319
O O5 0.898858 0.133185 0.638217
O O6 0.708691 0.056927 0.444288
O O7 0.621205 0.177119 0.770706
O O8 0.721422 0.045551 0.943563
O O9 0.516354 0.390653 0.689522
O O10 0.559881 0.558856 0.721155
#
# Coordination Sequence:
#
# PCOD9241715 Si02
#       5
#     4   4   4   4   4
#     4  10  22  39  59  79 119 153 193 242 283 333
#     4  10  22  40  56  81 119 155 190 238 289 336
#     4  10  19  37  60  82 118 152 189 232 286 348
#     4   9  20  34  64  87 117 142 198 236 289 336
#     4   9  21  36  64  86 115 149 195 238 284 344
#
# _framework density 24.884385999999999
#
# number of rings (size 3 to 8) (size 9 to 14) (size 15 to 20)
#    1.200    1.200    0.000    1.800    2.800    0.000 
#    0.000   14.000    0.000    0.000    0.000    0.000 
#    0.000    0.000    0.000    0.000    0.000    0.000 
#
# Total GULP energy -111592.011515 kJ/mol
# GULP energy per Si atom -5579.600576 kJ/mol
# Density = 2.482775 g / cm^3
# Si number density = 24.884386 Si / 1000 Ang^3
#
#
#
# Elastic Constant Matrix: (Units=GPa)
#
#
# Indices 1 2 3 4 5 6 
#
# 1 166.3211 30.5540 83.4134 0.0000 -2.3117 0.0000
# 2 30.5540 27.7206 22.8539 0.0000 4.6912 0.0000
# 3 83.4134 22.8539 216.7945 0.0000 30.1229 0.0000
# 4 0.0000 0.0000 0.0000 19.6155 0.0000 -4.7984
# 5 -2.3117 4.6912 30.1229 0.0000 42.9249 0.0000
# 6 0.0000 0.0000 0.0000 -4.7984 0.0000 44.7009
#
#
#
# Elastic Compliance Matrix: (Units=1/GPa)
#
#
# Indices 1 2 3 4 5 6 
#
# 1 0.009129 -0.008064 -0.003162 0.000000 0.003592 0.000000
# 2 -0.008064 0.046723 -0.001167 0.000000 -0.004722 0.000000
# 3 -0.003162 -0.001167 0.006602 0.000000 -0.004676 0.000000
# 4 0.000000 0.000000 0.000000 0.052355 0.000000 0.005620
# 5 0.003592 -0.004722 -0.004676 0.000000 0.027287 0.000000
# 6 0.000000 0.000000 0.000000 0.005620 0.000000 0.022974
#
#
# Mechanical properties :
#
#
# Convention : Reuss Voigt Hill
#
# Bulk Modulus (GPa) = 26.54625 76.05323 51.29974
# Shear Modulus (GPa) = 24.70219 39.71592 32.20906
#
# Velocity S-wave (km/s) = 3.15410 3.99935 3.60161
# Velocity P-wave (km/s) = 4.89443 7.20801 6.16080
#
# Compressibility (1/GPa) = 0.03767010
#
# Stress axis : x y z
#
# Youngs Moduli (GPa) = 109.53714 21.40264 151.47495
#
# Poissons Ratio (x) = 0.17259 0.47890
# Poissons Ratio (y) = 0.88328 0.17674
# Poissons Ratio (z) = 0.34631 0.02497
#
# Static dielectric constant tensor:
#      x y z
#    x 1.970210 0.000000 -0.020560 
#    y 0.000000 2.088150 0.000000 
#    z -0.020560 0.000000 2.075220 
# 
# From -- ./inp_files/1303.got.cif
#   From: 2010.05.17/outbox.cif.g08.bks.cpg/sg14_1_cif.got.tgz:1303.got - 2010.06.03 17:49:19.
