data_PCOD9241397
_publ_section_title
;
Structure prediction by ZEFSAII (Michael W. Deem and Ramdas Pophale) SiO2 
 PCOD9241397
Probable space group: P 21/C
;
_chemical_formula_sum "Si O2"
_cell_formula_units_Z 24
_cell_length_a 10.279341
_cell_length_b 13.431292
_cell_length_c 7.580967
_cell_angle_alpha 90.000000
_cell_angle_beta 91.762944
_cell_angle_gamma 90.000000
_cell_volume 1046.169502
_symmetry_space_group_name_H-M "P 21/C"
_symmetry_group_IT_number 14
_symmetry_cell_setting 'monoclinic'
loop_
_space_group_symop_operation_xyz
x,y,z
-x,1/2+y,1/2-z
-x,-y,-z
x,1/2-y,1/2+z
loop_
_atom_site_type_symbol
_atom_site_label
_atom_site_fract_x
_atom_site_fract_y
_atom_site_fract_z
Si Si1 0.136416 0.124122 0.016505
Si Si2 0.435103 0.353016 0.993670
Si Si3 0.597235 0.872509 0.120667
Si Si4 0.026738 0.319733 0.874648
Si Si5 0.639211 0.038906 0.719920
Si Si6 0.077058 0.623174 0.765853
O O1 0.281152 0.087807 0.984444
O O2 0.131706 0.242734 0.963479
O O3 0.087604 0.121638 0.214505
O O4 0.032958 0.081849 0.871593
O O5 0.437442 0.238933 0.940484
O O6 0.378306 0.425921 0.844628
O O7 0.356568 0.366297 0.173105
O O8 0.577635 0.395591 0.053528
O O9 0.463148 0.932272 0.132417
O O10 0.923242 0.241398 0.786126
O O11 0.967422 0.381035 0.032887
O O12 0.783702 0.075728 0.757513
#
# Coordination Sequence:
#
# PCOD9241397 Si02
#       6
#     4   4   4   4   4   4
#     4   9  16  31  53  87 109 150 207 233 288 367
#     4   9  21  37  60  87 117 152 201 237 303 361
#     4  10  19  35  64  81 114 159 189 243 299 348
#     4   8  17  27  52  81 116 148 199 234 286 353
#     4   9  21  37  58  87 120 152 197 248 294 361
#     4   9  17  31  55  80 118 152 187 252 293 335
#
# _framework density 22.940833000000001
#
# number of rings (size 3 to 8) (size 9 to 14) (size 15 to 20)
#    2.000    1.000    0.000    1.000    2.333    0.000 
#    0.000    1.667    3.667    1.000    0.000    3.500 
#    0.000    0.000    0.000    0.000    0.000    0.000 
#
# Total GULP energy -133950.478157 kJ/mol
# GULP energy per Si atom -5581.269923 kJ/mol
# Density = 2.288862 g / cm^3
# Si number density = 22.940833 Si / 1000 Ang^3
#
#
#
# Elastic Constant Matrix: (Units=GPa)
#
#
# Indices 1 2 3 4 5 6 
#
# 1 156.3765 51.8362 80.5737 0.0000 -3.9325 0.0000
# 2 51.8362 77.6123 64.4202 0.0000 -8.0659 0.0000
# 3 80.5737 64.4202 188.5347 0.0000 -32.5362 0.0000
# 4 0.0000 0.0000 0.0000 34.1434 0.0000 3.8653
# 5 -3.9325 -8.0659 -32.5362 0.0000 25.6790 0.0000
# 6 0.0000 0.0000 0.0000 3.8653 0.0000 27.6316
#
#
#
# Elastic Compliance Matrix: (Units=1/GPa)
#
#
# Indices 1 2 3 4 5 6 
#
# 1 0.009297 -0.003842 -0.003357 0.000000 -0.004036 0.000000
# 2 -0.003842 0.019725 -0.005286 0.000000 -0.001090 0.000000
# 3 -0.003357 -0.005286 0.010456 0.000000 0.011073 0.000000
# 4 0.000000 0.000000 0.000000 0.029760 0.000000 -0.004163
# 5 -0.004036 -0.001090 0.011073 0.000000 0.052012 0.000000
# 6 0.000000 0.000000 0.000000 -0.004163 0.000000 0.036773
#
#
# Mechanical properties :
#
#
# Convention : Reuss Voigt Hill
#
# Bulk Modulus (GPa) = 68.93028 90.68706 79.80867
# Shear Modulus (GPa) = 26.62020 32.53701 29.57860
#
# Velocity S-wave (km/s) = 3.41014 3.77012 3.59464
# Velocity P-wave (km/s) = 6.75408 7.65300 7.21755
#
# Compressibility (1/GPa) = 0.01450741
#
# Stress axis : x y z
#
# Youngs Moduli (GPa) = 107.56665 50.69745 95.64155
#
# Poissons Ratio (x) = 0.19480 0.32104
# Poissons Ratio (y) = 0.41331 0.50554
# Poissons Ratio (z) = 0.36107 0.26798
#
# Static dielectric constant tensor:
#      x y z
#    x 1.839910 0.000000 0.037010 
#    y 0.000000 1.856200 0.000000 
#    z 0.037010 0.000000 1.875160 
# 
# From -- ./inp_files/12611.got.cif
#   From: 2010.05.17/outbox.cif.g08.bks.cpg/sg14_7_cif.got.tgz:12611.got - 2010.06.03 17:49:19.
