data_PCOD9241324
_publ_section_title
;
Structure prediction by ZEFSAII (Michael W. Deem and Ramdas Pophale) SiO2 
 PCOD9241324
Probable space group: P 21/C
;
_chemical_formula_sum "Si O2"
_cell_formula_units_Z 32
_cell_length_a 22.441570
_cell_length_b 14.456789
_cell_length_c 14.665166
_cell_angle_alpha 90.000000
_cell_angle_beta 19.448192
_cell_angle_gamma 90.000000
_cell_volume 1584.151739
_symmetry_space_group_name_H-M "P 21/C"
_symmetry_group_IT_number 14
_symmetry_cell_setting 'monoclinic'
loop_
_space_group_symop_operation_xyz
x,y,z
-x,1/2+y,1/2-z
-x,-y,-z
x,1/2-y,1/2+z
loop_
_atom_site_type_symbol
_atom_site_label
_atom_site_fract_x
_atom_site_fract_y
_atom_site_fract_z
Si Si1 0.924253 0.821771 0.140475
Si Si2 0.088290 0.803518 0.560836
Si Si3 0.992445 0.492985 0.161750
Si Si4 0.213465 0.669653 0.065178
Si Si5 0.472542 0.655022 0.423807
Si Si6 0.417584 0.294836 0.378907
Si Si7 0.708708 0.002427 0.927630
Si Si8 0.799830 0.956696 0.466438
O O1 0.760492 0.761652 0.334788
O O2 0.851178 0.914241 0.294268
O O3 0.004330 0.766415 0.110942
O O4 0.082525 0.835555 0.840622
O O5 0.978302 0.898178 0.705914
O O6 0.105999 0.777448 0.640637
O O7 0.292676 0.825487 0.237276
O O8 0.046994 0.447546 0.178141
O O9 0.818766 0.463446 0.356680
O O10 0.153025 0.486173 0.855987
O O11 0.242330 0.564918 0.986162
O O12 0.403964 0.713246 0.817176
O O13 0.539190 0.748534 0.280929
O O14 0.422988 0.582132 0.415488
O O15 0.630910 0.602122 0.246834
O O16 0.378723 0.403559 0.427729
#
# Coordination Sequence:
#
# PCOD9241324 Si02
#       8
#     4   4   4   4   4   4   4   4
#     4  11  23  42  60  91 126 161 205 249 308 365
#     4  10  21  38  58  90 122 157 200 261 295 352
#     4   9  20  35  59  86 116 153 205 251 299 349
#     4  11  23  41  63  87 127 161 205 252 304 365
#     4  10  21  37  59  89 121 154 206 250 300 359
#     4  11  22  38  62  89 123 163 198 251 307 359
#     4  10  19  35  60  86 121 156 198 250 303 348
#     4  10  22  38  63  88 118 166 202 245 306 368
#
# _framework density 20.200085000000001
#
# number of rings (size 3 to 8) (size 9 to 14) (size 15 to 20)
#    0.000    1.750    3.750    0.375    1.750    3.500 
#    2.250    0.000    0.000    0.750    0.000    0.000 
#    0.000    0.000    0.000    0.000    0.000    0.000 
#
# Total GULP energy -178595.556953 kJ/mol
# GULP energy per Si atom -5581.111155 kJ/mol
# Density = 2.015411 g / cm^3
# Si number density = 20.200085 Si / 1000 Ang^3
#
#
#
# Elastic Constant Matrix: (Units=GPa)
#
#
# Indices 1 2 3 4 5 6 
#
# 1 81.0340 15.5225 21.0367 0.0000 -12.7970 0.0000
# 2 15.5225 57.4798 9.1561 0.0000 0.7872 0.0000
# 3 21.0367 9.1561 55.0730 0.0000 -9.0971 0.0000
# 4 0.0000 0.0000 0.0000 24.7074 0.0000 -4.3388
# 5 -12.7970 0.7872 -9.0971 0.0000 14.8478 0.0000
# 6 0.0000 0.0000 0.0000 -4.3388 0.0000 12.9410
#
#
#
# Elastic Compliance Matrix: (Units=1/GPa)
#
#
# Indices 1 2 3 4 5 6 
#
# 1 0.015837 -0.003886 -0.003465 0.000000 0.011733 0.000000
# 2 -0.003886 0.018951 -0.002654 0.000000 -0.005980 0.000000
# 3 -0.003465 -0.002654 0.021643 0.000000 0.010414 0.000000
# 4 0.000000 0.000000 0.000000 0.043006 0.000000 0.014419
# 5 0.011733 -0.005980 0.010414 0.000000 0.084160 0.000000
# 6 0.000000 0.000000 0.000000 0.014419 0.000000 0.082108
#
#
# Mechanical properties :
#
#
# Convention : Reuss Voigt Hill
#
# Bulk Modulus (GPa) = 27.45670 31.66861 29.56265
# Shear Modulus (GPa) = 16.78658 20.35732 18.57195
#
# Velocity S-wave (km/s) = 2.88586 3.17801 3.03545
# Velocity P-wave (km/s) = 4.97254 5.40165 5.19153
#
# Compressibility (1/GPa) = 0.03642098
#
# Stress axis : x y z
#
# Youngs Moduli (GPa) = 63.14214 52.76644 46.20434
#
# Poissons Ratio (x) = 0.20503 0.16012
# Poissons Ratio (y) = 0.24534 0.12264
# Poissons Ratio (z) = 0.21882 0.14006
#
# Static dielectric constant tensor:
#      x y z
#    x 1.715720 0.000000 -0.021330 
#    y 0.000000 1.730080 0.000000 
#    z -0.021330 0.000000 1.722180 
# 
# From -- ./inp_files/45067.got.cif
#   From: 2010.05.17/outbox.cif.g08.bks.cpg/sg14_23_cif.got.tgz:45067.got - 2010.06.03 17:49:19.
