data_PCOD9241364
_publ_section_title
;
Structure prediction by ZEFSAII (Michael W. Deem and Ramdas Pophale) SiO2 
 PCOD9241364
Probable space group: P 21/C
;
_chemical_formula_sum "Si O2"
_cell_formula_units_Z 28
_cell_length_a 19.340045
_cell_length_b 9.922608
_cell_length_c 12.937884
_cell_angle_alpha 90.000000
_cell_angle_beta 32.050408
_cell_angle_gamma 90.000000
_cell_volume 1317.550114
_symmetry_space_group_name_H-M "P 21/C"
_symmetry_group_IT_number 14
_symmetry_cell_setting 'monoclinic'
loop_
_space_group_symop_operation_xyz
x,y,z
-x,1/2+y,1/2-z
-x,-y,-z
x,1/2-y,1/2+z
loop_
_atom_site_type_symbol
_atom_site_label
_atom_site_fract_x
_atom_site_fract_y
_atom_site_fract_z
Si Si1 0.383877 0.080285 0.917518
Si Si2 0.574081 0.702440 0.965466
Si Si3 0.079936 0.826719 0.182914
Si Si4 0.850626 0.040912 0.470992
Si Si5 0.677784 0.469087 0.725895
Si Si6 0.577676 0.934851 0.805598
Si Si7 0.855180 0.053727 0.695510
O O1 0.372148 0.055409 0.810747
O O2 0.473461 0.957520 0.846937
O O3 0.426984 0.214872 0.924893
O O4 0.237849 0.061267 0.143895
O O5 0.665798 0.570459 0.838147
O O6 0.615471 0.798423 0.817177
O O7 0.428285 0.649278 0.128671
O O8 0.071660 0.669764 0.168502
O O9 0.140409 0.835331 0.221626
O O10 0.183545 0.903941 0.977785
O O11 0.945793 0.911326 0.350481
O O12 0.810466 0.085888 0.637899
O O13 0.711328 0.004534 0.599197
O O14 0.500000 0.000000 0.000000
O O15 0.000000 0.000000 0.500000
#
# Coordination Sequence:
#
# PCOD9241364 Si02
#       7
#     4   4   4   4   4   4   4
#     4  10  20  37  60  85 117 160 198 249 301 366
#     4  10  21  38  59  88 121 153 203 249 309 350
#     4  10  23  38  62  88 121 158 206 246 305 360
#     4  11  21  40  62  88 122 161 199 254 300 365
#     4  10  23  38  58  93 120 157 202 261 298 360
#     4  10  19  35  62  84 112 156 204 240 302 361
#     4   9  19  37  59  84 112 159 199 240 300 360
#
# _framework density 21.251563000000001
#
# number of rings (size 3 to 8) (size 9 to 14) (size 15 to 20)
#    0.000    2.000    2.857    1.714    4.000    0.000 
#    0.000    0.714    0.000    0.000    0.000    0.000 
#    0.000    0.000    0.000    0.000    0.000    0.000 
#
# Total GULP energy -155913.807897 kJ/mol
# GULP energy per Si atom -5568.350282 kJ/mol
# Density = 2.120319 g / cm^3
# Si number density = 21.251563 Si / 1000 Ang^3
#
#
#
# Elastic Constant Matrix: (Units=GPa)
#
#
# Indices 1 2 3 4 5 6 
#
# 1 17.5143 5.7253 4.2327 0.0000 -3.1884 0.0000
# 2 5.7253 85.0251 19.7597 0.0000 2.0347 0.0000
# 3 4.2327 19.7597 90.9836 0.0000 -16.1042 0.0000
# 4 0.0000 0.0000 0.0000 25.0818 0.0000 5.3062
# 5 -3.1884 2.0347 -16.1042 0.0000 27.2698 0.0000
# 6 0.0000 0.0000 0.0000 5.3062 0.0000 21.1734
#
#
#
# Elastic Compliance Matrix: (Units=1/GPa)
#
#
# Indices 1 2 3 4 5 6 
#
# 1 0.059836 -0.004034 -0.000688 0.000000 0.006891 0.000000
# 2 -0.004034 0.012854 -0.003191 0.000000 -0.003315 0.000000
# 3 -0.000688 -0.003191 0.013115 0.000000 0.007903 0.000000
# 4 0.000000 0.000000 0.000000 0.042102 0.000000 -0.010551
# 5 0.006891 -0.003315 0.007903 0.000000 0.042391 0.000000
# 6 0.000000 0.000000 0.000000 -0.010551 0.000000 0.049873
#
#
# Mechanical properties :
#
#
# Convention : Reuss Voigt Hill
#
# Bulk Modulus (GPa) = 14.29007 28.10652 21.19829
# Shear Modulus (GPa) = 19.28113 25.62535 22.45324
#
# Velocity S-wave (km/s) = 3.01538 3.47624 3.25398
# Velocity P-wave (km/s) = 4.34306 5.41911 4.91065
#
# Compressibility (1/GPa) = 0.06997868
#
# Stress axis : x y z
#
# Youngs Moduli (GPa) = 16.71245 77.79854 76.25037
#
# Poissons Ratio (x) = 0.31386 0.05245
# Poissons Ratio (y) = 0.06742 0.24329
# Poissons Ratio (z) = 0.01150 0.24823
#
# Static dielectric constant tensor:
#      x y z
#    x 1.827200 0.000000 0.022450 
#    y 0.000000 1.932310 0.000000 
#    z 0.022450 0.000000 1.751180 
# 
# From -- ./inp_files/50218.got.cif
#   From: 2010.05.17/outbox.cif.g08.bks.cpg/sg14_26_cif.got.tgz:50218.got - 2010.06.03 17:49:19.
