data_PCOD9241054
_publ_section_title
;
Structure prediction by ZEFSAII (Michael W. Deem and Ramdas Pophale) SiO2 
 PCOD9241054
Probable space group: P 21/C
;
_chemical_formula_sum "Si O2"
_cell_formula_units_Z 32
_cell_length_a 14.120905
_cell_length_b 17.690004
_cell_length_c 17.272724
_cell_angle_alpha 90.000000
_cell_angle_beta 157.865640
_cell_angle_gamma 90.000000
_cell_volume 1625.694520
_symmetry_space_group_name_H-M "P 21/C"
_symmetry_group_IT_number 14
_symmetry_cell_setting 'monoclinic'
loop_
_space_group_symop_operation_xyz
x,y,z
-x,1/2+y,1/2-z
-x,-y,-z
x,1/2-y,1/2+z
loop_
_atom_site_type_symbol
_atom_site_label
_atom_site_fract_x
_atom_site_fract_y
_atom_site_fract_z
Si Si1 0.901438 0.723017 0.007726
Si Si2 0.513660 0.518707 0.279193
Si Si3 0.164505 0.145761 0.923421
Si Si4 0.024387 0.079439 0.657591
Si Si5 0.776742 0.065627 0.115391
Si Si6 0.599633 0.805047 0.137609
Si Si7 0.446738 0.749339 0.366427
Si Si8 0.305507 0.390116 0.027234
O O1 0.823017 0.646427 0.992908
O O2 0.156465 0.728072 0.152272
O O3 0.934317 0.786612 0.098657
O O4 0.675629 0.733272 0.775472
O O5 0.737041 0.579308 0.446748
O O6 0.586659 0.469249 0.409080
O O7 0.472561 0.461288 0.177543
O O8 0.246057 0.560557 0.082013
O O9 0.406754 0.181151 0.063932
O O10 0.002445 0.114163 0.728585
O O11 0.182007 0.137095 0.724806
O O12 0.172610 0.000097 0.783016
O O13 0.054481 0.084030 0.291652
O O14 0.647679 0.142680 0.044981
O O15 0.554729 0.746515 0.035024
O O16 0.525699 0.825455 0.382678
#
# Coordination Sequence:
#
# PCOD9241054 Si02
#       8
#     4   4   4   4   4   4   4   4
#     4  11  21  37  58  84 113 154 196 235 287 341
#     4  10  19  37  59  84 113 153 189 235 286 343
#     4   9  21  38  56  83 116 151 192 238 284 343
#     4   9  20  34  55  84 116 151 179 231 292 342
#     4  10  19  34  56  83 115 147 185 229 287 349
#     4  11  20  34  55  88 114 146 188 232 287 344
#     4  10  22  38  55  83 120 151 192 238 283 341
#     4  10  21  38  58  81 115 155 190 238 287 338
#
# _framework density 19.683893999999999
#
# number of rings (size 3 to 8) (size 9 to 14) (size 15 to 20)
#    0.000    2.000    2.500    1.125    0.000    2.500 
#    2.250    0.625    0.000    7.500    0.000    0.000 
#    0.000    0.000    0.000    0.000    0.000    0.000 
#
# Total GULP energy -178405.227197 kJ/mol
# GULP energy per Si atom -5575.163350 kJ/mol
# Density = 1.963909 g / cm^3
# Si number density = 19.683894 Si / 1000 Ang^3
#
#
#
# Elastic Constant Matrix: (Units=GPa)
#
#
# Indices 1 2 3 4 5 6 
#
# 1 36.6601 8.0441 16.6596 0.0000 -2.8179 0.0000
# 2 8.0441 53.1035 9.0111 0.0000 -4.0977 0.0000
# 3 16.6596 9.0111 78.4148 0.0000 -14.8304 0.0000
# 4 0.0000 0.0000 0.0000 22.1080 0.0000 -5.8884
# 5 -2.8179 -4.0977 -14.8304 0.0000 17.4670 0.0000
# 6 0.0000 0.0000 0.0000 -5.8884 0.0000 16.3019
#
#
#
# Elastic Compliance Matrix: (Units=1/GPa)
#
#
# Indices 1 2 3 4 5 6 
#
# 1 0.030890 -0.003696 -0.006385 0.000000 -0.001305 0.000000
# 2 -0.003696 0.019793 -0.000862 0.000000 0.003315 0.000000
# 3 -0.006385 -0.000862 0.016649 0.000000 0.012903 0.000000
# 4 0.000000 0.000000 0.000000 0.050047 0.000000 0.018077
# 5 -0.001305 0.003315 0.012903 0.000000 0.068773 0.000000
# 6 0.000000 0.000000 0.000000 0.018077 0.000000 0.067872
#
#
# Mechanical properties :
#
#
# Convention : Reuss Voigt Hill
#
# Bulk Modulus (GPa) = 22.00468 26.17867 24.09167
# Shear Modulus (GPa) = 17.17861 20.13962 18.65912
#
# Velocity S-wave (km/s) = 2.95740 3.20215 3.08220
# Velocity P-wave (km/s) = 4.78172 5.19616 4.99324
#
# Compressibility (1/GPa) = 0.04544487
#
# Stress axis : x y z
#
# Youngs Moduli (GPa) = 32.37308 50.52241 60.06524
#
# Poissons Ratio (x) = 0.18675 0.38350
# Poissons Ratio (y) = 0.11967 0.05179
# Poissons Ratio (z) = 0.20669 0.04356
#
# Static dielectric constant tensor:
#      x y z
#    x 1.701280 0.000000 -0.011020 
#    y 0.000000 1.714440 0.000000 
#    z -0.011020 0.000000 1.711650 
# 
# From -- ./inp_files/37713.got.cif
#   From: 2010.05.17/outbox.cif.g08.bks.cpg/sg14_19_cif.got.tgz:37713.got - 2010.06.03 17:49:19.
