data_PCOD9241189
_publ_section_title
;
Structure prediction by ZEFSAII (Michael W. Deem and Ramdas Pophale) SiO2 
 PCOD9241189
Probable space group: P 21/C
;
_chemical_formula_sum "Si O2"
_cell_formula_units_Z 26
_cell_length_a 7.191341
_cell_length_b 13.883656
_cell_length_c 16.534381
_cell_angle_alpha 90.000000
_cell_angle_beta 35.039867
_cell_angle_gamma 90.000000
_cell_volume 947.816396
_symmetry_space_group_name_H-M "P 21/C"
_symmetry_group_IT_number 14
_symmetry_cell_setting 'monoclinic'
loop_
_space_group_symop_operation_xyz
x,y,z
-x,1/2+y,1/2-z
-x,-y,-z
x,1/2-y,1/2+z
loop_
_atom_site_type_symbol
_atom_site_label
_atom_site_fract_x
_atom_site_fract_y
_atom_site_fract_z
Si Si1 0.437418 0.653519 0.031618
Si Si2 0.317314 0.642797 0.533418
Si Si3 0.171360 0.484689 0.205309
Si Si4 0.000000 0.000000 0.500000
Si Si5 0.602674 0.540677 0.287168
Si Si6 0.709327 0.639247 0.555601
Si Si7 0.880464 0.201006 0.635026
O O1 0.233883 0.745096 0.076589
O O2 0.294625 0.594422 0.158218
O O3 0.796890 0.689573 0.924432
O O4 0.508507 0.575554 0.935325
O O5 0.495841 0.623665 0.386285
O O6 0.577546 0.618671 0.511810
O O7 0.013604 0.572928 0.659377
O O8 0.908173 0.490980 0.226397
O O9 0.262266 0.057764 0.348884
O O10 0.875123 0.104674 0.583500
O O11 0.320841 0.461726 0.389240
O O12 0.037661 0.698676 0.437785
O O13 0.437611 0.703879 0.696996
#
# Coordination Sequence:
#
# PCOD9241189 Si02
#       7
#     4   4   4   2   4   4   4
#     4  10  20  33  59  89 121 160 200 257 328 367
#     4  10  20  32  56  89 120 151 203 258 314 372
#     4  10  19  35  54  90 122 157 199 261 324 369
#     4  10  20  40  58  80 124 170 210 238 308 376
#     4  10  20  36  58  85 119 164 195 257 308 369
#     4   9  18  33  58  87 115 147 204 250 317 362
#     4  10  19  36  62  88 114 167 204 256 305 384
#
# _framework density 27.431473
#
# number of rings (size 3 to 8) (size 9 to 14) (size 15 to 20)
#    0.000    2.154    4.615    1.846    2.154    3.692 
#    0.000    3.077    0.000    4.615    0.000    0.000 
#    0.000    0.000    0.000    0.000    0.000    0.000 
#
# Total GULP energy -145018.633011 kJ/mol
# GULP energy per Si atom -5577.639731 kJ/mol
# Density = 2.736904 g / cm^3
# Si number density = 27.431473 Si / 1000 Ang^3
#
#
#
# Elastic Constant Matrix: (Units=GPa)
#
#
# Indices 1 2 3 4 5 6 
#
# 1 80.7288 20.8311 49.4448 0.0000 2.1926 0.0000
# 2 20.8311 118.0528 68.7509 0.0000 11.4290 0.0000
# 3 49.4448 68.7509 208.8524 0.0000 12.0865 0.0000
# 4 0.0000 0.0000 0.0000 51.4971 0.0000 -14.8504
# 5 2.1926 11.4290 12.0865 0.0000 32.0760 0.0000
# 6 0.0000 0.0000 0.0000 -14.8504 0.0000 8.9068
#
#
#
# Elastic Compliance Matrix: (Units=1/GPa)
#
#
# Indices 1 2 3 4 5 6 
#
# 1 0.014541 -0.000732 -0.003230 0.000000 0.000484 0.000000
# 2 -0.000732 0.010715 -0.003206 0.000000 -0.002560 0.000000
# 3 -0.003230 -0.003206 0.006675 0.000000 -0.001152 0.000000
# 4 0.000000 0.000000 0.000000 0.037402 0.000000 0.062360
# 5 0.000484 -0.002560 -0.001152 0.000000 0.032489 0.000000
# 6 0.000000 0.000000 0.000000 0.062360 0.000000 0.216247
#
#
# Mechanical properties :
#
#
# Convention : Reuss Voigt Hill
#
# Bulk Modulus (GPa) = 56.83131 76.18751 66.50941
# Shear Modulus (GPa) = 14.78121 36.40313 25.59217
#
# Velocity S-wave (km/s) = 2.32381 3.64683 3.05774
# Velocity P-wave (km/s) = 5.28797 6.75030 6.06338
#
# Compressibility (1/GPa) = 0.01759594
#
# Stress axis : x y z
#
# Youngs Moduli (GPa) = 68.77152 93.33005 149.82183
#
# Poissons Ratio (x) = 0.06830 0.48386
# Poissons Ratio (y) = 0.05033 0.48028
# Poissons Ratio (z) = 0.22210 0.29919
#
# Static dielectric constant tensor:
#      x y z
#    x 2.297310 0.000000 0.034590 
#    y 0.000000 2.369780 0.000000 
#    z 0.034590 0.000000 2.102280 
# 
# From -- ./inp_files/67458.got.cif
#   From: 2010.05.17/outbox.cif.g08.bks.cpg/sg14_34_cif.got.tgz:67458.got - 2010.06.03 17:49:19.
