data_PCOD9241472
_publ_section_title
;
Structure prediction by ZEFSAII (Michael W. Deem and Ramdas Pophale) SiO2 
 PCOD9241472
Probable space group: P 21/C
;
_chemical_formula_sum "Si O2"
_cell_formula_units_Z 32
_cell_length_a 29.402330
_cell_length_b 8.016764
_cell_length_c 18.036078
_cell_angle_alpha 90.000000
_cell_angle_beta 21.364590
_cell_angle_gamma 90.000000
_cell_volume 1548.758402
_symmetry_space_group_name_H-M "P 21/C"
_symmetry_group_IT_number 14
_symmetry_cell_setting 'monoclinic'
loop_
_space_group_symop_operation_xyz
x,y,z
-x,1/2+y,1/2-z
-x,-y,-z
x,1/2-y,1/2+z
loop_
_atom_site_type_symbol
_atom_site_label
_atom_site_fract_x
_atom_site_fract_y
_atom_site_fract_z
Si Si1 0.731062 0.901565 0.563720
Si Si2 0.456191 0.509346 0.282724
Si Si3 0.886347 0.477547 0.615831
Si Si4 0.303451 0.207369 0.546688
Si Si5 0.006545 0.298934 0.294176
Si Si6 0.745353 0.272845 0.949062
Si Si7 0.869224 0.450197 0.369971
Si Si8 0.589848 0.900100 0.308775
O O1 0.750642 0.800969 0.455129
O O2 0.856771 0.883227 0.419708
O O3 0.620257 0.797597 0.771071
O O4 0.717877 0.089454 0.554443
O O5 0.368586 0.383974 0.461961
O O6 0.584487 0.572086 0.121852
O O7 0.377885 0.673137 0.383020
O O8 0.470487 0.420289 0.181355
O O9 0.796863 0.353871 0.796546
O O10 0.000000 0.500000 0.500000
O O11 0.934855 0.400357 0.466861
O O12 0.805365 0.647091 0.733459
O O13 0.925524 0.321308 0.343705
O O14 0.039610 0.109629 0.266485
O O15 0.848436 0.145389 0.824663
O O16 0.728072 0.514620 0.602880
O O17 0.500000 0.000000 0.500000
#
# Coordination Sequence:
#
# PCOD9241472 Si02
#       8
#     4   4   4   4   4   4   4   4
#     4   9  18  36  60  81 119 152 197 236 309 353
#     4  10  21  37  61  82 120 155 202 242 312 361
#     4  11  22  36  63  87 123 151 204 255 306 360
#     4  10  19  36  58  87 114 158 193 248 300 367
#     4  11  21  39  58  91 116 165 197 250 304 373
#     4  10  20  39  60  88 115 164 199 253 303 365
#     4  10  23  38  62  82 125 159 204 244 314 372
#     4   9  20  38  59  87 113 159 200 246 296 367
#
# _framework density 20.661711
#
# number of rings (size 3 to 8) (size 9 to 14) (size 15 to 20)
#    0.000    2.000    2.500    3.000    1.750    0.500 
#    0.000    2.500    2.750    0.000    0.000    0.000 
#    0.000    0.000    0.000    0.000    0.000    0.000 
#
# Total GULP energy -178450.902164 kJ/mol
# GULP energy per Si atom -5576.590693 kJ/mol
# Density = 2.061468 g / cm^3
# Si number density = 20.661711 Si / 1000 Ang^3
#
#
#
# Elastic Constant Matrix: (Units=GPa)
#
#
# Indices 1 2 3 4 5 6 
#
# 1 52.8269 -14.2337 10.6600 0.0000 -20.1528 0.0000
# 2 -14.2337 87.4234 26.1147 0.0000 -4.2988 0.0000
# 3 10.6600 26.1147 59.5381 0.0000 -0.5177 0.0000
# 4 0.0000 0.0000 0.0000 36.8526 0.0000 -7.4063
# 5 -20.1528 -4.2988 -0.5177 0.0000 29.0567 0.0000
# 6 0.0000 0.0000 0.0000 -7.4063 0.0000 32.1720
#
#
#
# Elastic Compliance Matrix: (Units=1/GPa)
#
#
# Indices 1 2 3 4 5 6 
#
# 1 0.032457 0.009350 -0.009706 0.000000 0.023722 0.000000
# 2 0.009350 0.015957 -0.008597 0.000000 0.008693 0.000000
# 3 -0.009706 -0.008597 0.022239 0.000000 -0.007608 0.000000
# 4 0.000000 0.000000 0.000000 0.028451 0.000000 0.006550
# 5 0.023722 0.008693 -0.007608 0.000000 0.052019 0.000000
# 6 0.000000 0.000000 0.000000 0.006550 0.000000 0.032591
#
#
# Mechanical properties :
#
#
# Convention : Reuss Voigt Hill
#
# Bulk Modulus (GPa) = 18.95885 27.20781 23.08333
# Shear Modulus (GPa) = 22.80999 31.43276 27.12138
#
# Velocity S-wave (km/s) = 3.32622 3.90462 3.62697
# Velocity P-wave (km/s) = 4.89360 5.79007 5.36061
#
# Compressibility (1/GPa) = 0.05274580
#
# Stress axis : x y z
#
# Youngs Moduli (GPa) = 30.80967 62.67010 44.96660
#
# Poissons Ratio (x) = -0.58599 0.43646
# Poissons Ratio (y) = -0.28808 0.38660
# Poissons Ratio (z) = 0.29905 0.53880
#
# Static dielectric constant tensor:
#      x y z
#    x 1.886040 0.000000 0.137440 
#    y 0.000000 1.816020 0.000000 
#    z 0.137440 0.000000 1.867070 
# 
# From -- ./inp_files/62643.got.cif
#   From: 2010.05.17/outbox.cif.g08.bks.cpg/sg14_32_cif.got.tgz:62643.got - 2010.06.03 17:49:19.
