data_PCOD9241385
_publ_section_title
;
Structure prediction by ZEFSAII (Michael W. Deem and Ramdas Pophale) SiO2 
 PCOD9241385
Probable space group: P 21/C
;
_chemical_formula_sum "Si O2"
_cell_formula_units_Z 32
_cell_length_a 10.054032
_cell_length_b 19.243214
_cell_length_c 18.982713
_cell_angle_alpha 90.000000
_cell_angle_beta 149.757572
_cell_angle_gamma 90.000000
_cell_volume 1849.751776
_symmetry_space_group_name_H-M "P 21/C"
_symmetry_group_IT_number 14
_symmetry_cell_setting 'monoclinic'
loop_
_space_group_symop_operation_xyz
x,y,z
-x,1/2+y,1/2-z
-x,-y,-z
x,1/2-y,1/2+z
loop_
_atom_site_type_symbol
_atom_site_label
_atom_site_fract_x
_atom_site_fract_y
_atom_site_fract_z
Si Si1 0.231619 0.691256 0.696641
Si Si2 0.731670 0.531168 0.180149
Si Si3 0.177124 0.054466 0.622214
Si Si4 0.237314 0.789653 0.363703
Si Si5 0.844082 0.686949 0.986325
Si Si6 0.870400 0.063876 0.623097
Si Si7 0.830299 0.824611 0.646314
Si Si8 0.227236 0.966912 0.149777
O O1 0.184626 0.687969 0.758885
O O2 0.541917 0.710265 0.834679
O O3 0.180777 0.614632 0.644098
O O4 0.048055 0.749400 0.577440
O O5 0.894395 0.474989 0.208648
O O6 0.801263 0.605276 0.177740
O O7 0.778018 0.512016 0.281555
O O8 0.411183 0.530242 0.028606
O O9 0.118339 0.127088 0.554571
O O10 0.481830 0.033557 0.751598
O O11 0.085309 0.053668 0.661143
O O12 0.000000 0.000000 0.500000
O O13 0.154738 0.853927 0.374724
O O14 0.551835 0.782684 0.519726
O O15 0.063049 0.720538 0.287401
O O16 0.868081 0.660171 0.079319
O O17 0.000000 0.000000 0.000000
#
# Coordination Sequence:
#
# PCOD9241385 Si02
#       8
#     4   4   4   4   4   4   4   4
#     4   9  18  37  58  80 109 154 191 226 280 347
#     4  10  19  37  62  84 108 155 194 227 292 342
#     4  11  21  37  58  88 113 147 199 240 277 338
#     4   9  17  34  55  81 111 142 190 234 280 330
#     4   9  19  34  57  85 113 147 192 233 283 341
#     4  10  19  35  63  86 110 145 198 244 270 336
#     4   9  18  33  58  83 107 148 189 235 278 343
#     4  11  23  40  57  83 122 155 185 238 299 346
#
# _framework density 17.299619
#
# number of rings (size 3 to 8) (size 9 to 14) (size 15 to 20)
#    0.000    2.250    2.500    0.750    3.500    1.000 
#    4.500    5.625    0.000    0.000    0.000    0.000 
#    0.000    0.000    0.000    0.000    0.000    0.000 
#
# Total GULP energy -178163.292087 kJ/mol
# GULP energy per Si atom -5567.602878 kJ/mol
# Density = 1.726024 g / cm^3
# Si number density = 17.299619 Si / 1000 Ang^3
#
#
#
# Elastic Constant Matrix: (Units=GPa)
#
#
# Indices 1 2 3 4 5 6 
#
# 1 106.7259 27.4078 35.3800 0.0000 7.2868 0.0000
# 2 27.4078 55.8005 44.1237 0.0000 13.4606 0.0000
# 3 35.3800 44.1237 72.6622 0.0000 -3.1658 0.0000
# 4 0.0000 0.0000 0.0000 32.4863 0.0000 2.3250
# 5 7.2868 13.4606 -3.1658 0.0000 15.2801 0.0000
# 6 0.0000 0.0000 0.0000 2.3250 0.0000 20.5645
#
#
#
# Elastic Compliance Matrix: (Units=1/GPa)
#
#
# Indices 1 2 3 4 5 6 
#
# 1 0.011953 0.002721 -0.007896 0.000000 -0.009733 0.000000
# 2 0.002721 0.075363 -0.050493 0.000000 -0.078148 0.000000
# 3 -0.007896 -0.050493 0.050830 0.000000 0.058777 0.000000
# 4 0.000000 0.000000 0.000000 0.031033 0.000000 -0.003509
# 5 -0.009733 -0.078148 0.058777 0.000000 0.151106 0.000000
# 6 0.000000 0.000000 0.000000 -0.003509 0.000000 0.049024
#
#
# Mechanical properties :
#
#
# Convention : Reuss Voigt Hill
#
# Bulk Modulus (GPa) = 37.30211 49.89018 43.59614
# Shear Modulus (GPa) = 10.21276 22.21800 16.21538
#
# Velocity S-wave (km/s) = 2.43234 3.58761 3.06490
# Velocity P-wave (km/s) = 5.43117 6.78695 6.14656
#
# Compressibility (1/GPa) = 0.02680814
#
# Stress axis : x y z
#
# Youngs Moduli (GPa) = 83.65879 13.26909 19.67351
#
# Poissons Ratio (x) = -0.03610 0.15535
# Poissons Ratio (y) = -0.22761 0.99338
# Poissons Ratio (z) = 0.66060 0.67000
#
# Static dielectric constant tensor:
#      x y z
#    x 1.774150 0.000000 -0.065880 
#    y 0.000000 1.600080 0.000000 
#    z -0.065880 0.000000 1.606040 
# 
# From -- ./inp_files/56238.got.cif
#   From: 2010.05.17/outbox.cif.g08.bks.cpg/sg14_29_cif.got.tgz:56238.got - 2010.06.03 17:49:19.
