data_PCOD9241206
_publ_section_title
;
Structure prediction by ZEFSAII (Michael W. Deem and Ramdas Pophale) SiO2 
 PCOD9241206
Probable space group: P 21/C
;
_chemical_formula_sum "Si O2"
_cell_formula_units_Z 32
_cell_length_a 19.200826
_cell_length_b 14.055446
_cell_length_c 12.542159
_cell_angle_alpha 90.000000
_cell_angle_beta 21.349161
_cell_angle_gamma 90.000000
_cell_volume 1232.249033
_symmetry_space_group_name_H-M "P 21/C"
_symmetry_group_IT_number 14
_symmetry_cell_setting 'monoclinic'
loop_
_space_group_symop_operation_xyz
x,y,z
-x,1/2+y,1/2-z
-x,-y,-z
x,1/2-y,1/2+z
loop_
_atom_site_type_symbol
_atom_site_label
_atom_site_fract_x
_atom_site_fract_y
_atom_site_fract_z
Si Si1 0.474157 0.300476 0.926749
Si Si2 0.075132 0.341315 0.445815
Si Si3 0.964481 0.876392 0.446033
Si Si4 0.614059 0.134796 0.859441
Si Si5 0.681499 0.019418 0.951879
Si Si6 0.693955 0.225875 0.422415
Si Si7 0.993880 0.037868 0.246277
Si Si8 0.387829 0.402804 0.265227
O O1 0.470534 0.377124 0.029934
O O2 0.296584 0.327687 0.103290
O O3 0.469499 0.198868 0.998022
O O4 0.649731 0.280422 0.596909
O O5 0.048523 0.237202 0.543502
O O6 0.062437 0.437527 0.531453
O O7 0.880666 0.339510 0.657316
O O8 0.778138 0.925031 0.765177
O O9 0.132973 0.916093 0.283753
O O10 0.993953 0.931961 0.292476
O O11 0.781592 0.080899 0.558095
O O12 0.550688 0.062897 0.044327
O O13 0.721799 0.212257 0.777752
O O14 0.579683 0.996439 0.208305
O O15 0.494692 0.173146 0.685408
O O16 0.157170 0.095371 0.081180
#
# Coordination Sequence:
#
# PCOD9241206 Si02
#       8
#     4   4   4   4   4   4   4   4
#     4  10  22  36  51  85 114 144 194 225 283 341
#     4  11  20  36  58  82 118 150 184 239 282 332
#     4   9  17  30  56  86 107 147 193 226 285 343
#     4  10  19  35  55  84 112 144 185 238 278 342
#     4   9  16  32  56  80 112 141 186 235 289 327
#     4  11  21  34  57  82 108 150 194 219 280 345
#     4   9  19  36  58  82 119 147 186 241 287 328
#     4   9  20  35  53  78 113 145 181 236 274 338
#
# _framework density 25.968775999999998
#
# number of rings (size 3 to 8) (size 9 to 14) (size 15 to 20)
#    0.000    2.250    2.500    1.500    1.750    0.000 
#    2.250    2.500    0.000    0.000    0.000    2.625 
#    0.000    0.000    0.000    0.000    0.000    0.000 
#
# Total GULP energy -178164.494714 kJ/mol
# GULP energy per Si atom -5567.640460 kJ/mol
# Density = 2.590967 g / cm^3
# Si number density = 25.968776 Si / 1000 Ang^3
#
#
#
# Elastic Constant Matrix: (Units=GPa)
#
#
# Indices 1 2 3 4 5 6 
#
# 1 66.4514 15.6726 36.0690 0.0000 1.7991 0.0000
# 2 15.6726 60.8508 21.1841 0.0000 15.7783 0.0000
# 3 36.0690 21.1841 68.4758 0.0000 9.2402 0.0000
# 4 0.0000 0.0000 0.0000 24.8066 0.0000 3.4778
# 5 1.7991 15.7783 9.2402 0.0000 16.1514 0.0000
# 6 0.0000 0.0000 0.0000 3.4778 0.0000 46.1351
#
#
#
# Elastic Compliance Matrix: (Units=1/GPa)
#
#
# Indices 1 2 3 4 5 6 
#
# 1 0.021917 -0.003648 -0.011451 0.000000 0.007674 0.000000
# 2 -0.003648 0.023810 -0.002558 0.000000 -0.021391 0.000000
# 3 -0.011451 -0.002558 0.022668 0.000000 -0.009194 0.000000
# 4 0.000000 0.000000 0.000000 0.040743 0.000000 -0.003071
# 5 0.007674 -0.021391 -0.009194 0.000000 0.087216 0.000000
# 6 0.000000 0.000000 0.000000 -0.003071 0.000000 0.021907
#
#
# Mechanical properties :
#
#
# Convention : Reuss Voigt Hill
#
# Bulk Modulus (GPa) = 30.23005 37.95880 34.09442
# Shear Modulus (GPa) = 18.89632 25.60876 22.25254
#
# Velocity S-wave (km/s) = 2.70044 3.14369 2.93045
# Velocity P-wave (km/s) = 4.62486 5.27502 4.96060
#
# Compressibility (1/GPa) = 0.03307967
#
# Stress axis : x y z
#
# Youngs Moduli (GPa) = 45.62673 41.99876 44.11578
#
# Poissons Ratio (x) = 0.15321 0.50519
# Poissons Ratio (y) = 0.16645 0.11285
# Poissons Ratio (z) = 0.52249 0.10743
#
# Static dielectric constant tensor:
#      x y z
#    x 2.101740 0.000000 -0.018580 
#    y 0.000000 2.154610 0.000000 
#    z -0.018580 0.000000 2.014480 
# 
# From -- ./inp_files/50769.got.cif
#   From: 2010.05.17/outbox.cif.g08.bks.cpg/sg14_26_cif.got.tgz:50769.got - 2010.06.03 17:49:19.
