data_PCOD9241396
_publ_section_title
;
Structure prediction by ZEFSAII (Michael W. Deem and Ramdas Pophale) SiO2 
 PCOD9241396
Probable space group: P 21/C
;
_chemical_formula_sum "Si O2"
_cell_formula_units_Z 32
_cell_length_a 8.531503
_cell_length_b 11.685748
_cell_length_c 16.319585
_cell_angle_alpha 90.000000
_cell_angle_beta 107.748731
_cell_angle_gamma 90.000000
_cell_volume 1549.571875
_symmetry_space_group_name_H-M "P 21/C"
_symmetry_group_IT_number 14
_symmetry_cell_setting 'monoclinic'
loop_
_space_group_symop_operation_xyz
x,y,z
-x,1/2+y,1/2-z
-x,-y,-z
x,1/2-y,1/2+z
loop_
_atom_site_type_symbol
_atom_site_label
_atom_site_fract_x
_atom_site_fract_y
_atom_site_fract_z
Si Si1 0.572001 0.254483 0.958767
Si Si2 0.807019 0.576091 0.450892
Si Si3 0.661517 0.584514 0.174347
Si Si4 0.886474 0.170385 0.922052
Si Si5 0.278228 0.820253 0.343987
Si Si6 0.314539 0.445027 0.386409
Si Si7 0.940608 0.769058 0.217466
Si Si8 0.509668 0.141646 0.185614
O O1 0.446023 0.353892 0.912976
O O2 0.732197 0.242022 0.927772
O O3 0.468286 0.137962 0.930625
O O4 0.640325 0.276248 0.059683
O O5 0.829751 0.462364 0.399415
O O6 0.765062 0.532971 0.536912
O O7 0.658193 0.650879 0.393327
O O8 0.971435 0.650245 0.487218
O O9 0.705663 0.455453 0.161131
O O10 0.827571 0.658615 0.213045
O O11 0.548642 0.594446 0.236877
O O12 0.970588 0.227290 0.857067
O O13 0.388721 0.758470 0.291993
O O14 0.088578 0.784186 0.304400
O O15 0.185708 0.375203 0.310124
O O16 0.377289 0.553398 0.346793
#
# Coordination Sequence:
#
# PCOD9241396 Si02
#       8
#     4   4   4   4   4   4   4   4
#     4  11  22  45  68  94 139 181 219 271 341 408
#     4  10  19  35  64 107 132 159 220 285 325 392
#     4  11  28  45  64  97 143 177 223 278 331 412
#     4  10  20  37  66  94 136 171 213 275 340 375
#     4  12  26  43  71  99 130 184 229 268 341 407
#     4  10  21  41  67 100 135 169 218 288 339 381
#     4  10  25  44  64  92 137 175 220 280 331 391
#     4  12  23  39  73  98 132 170 230 276 341 390
#
# _framework density 20.650866000000001
#
# number of rings (size 3 to 8) (size 9 to 14) (size 15 to 20)
#    0.000    1.250    2.500    3.000    7.000    0.000 
#    0.000    0.625    0.000    0.000    0.000    0.000 
#    0.000    0.000    0.000    0.000    0.000    0.000 
#
# Total GULP energy -178930.405506 kJ/mol
# GULP energy per Si atom -5591.575172 kJ/mol
# Density = 2.060386 g / cm^3
# Si number density = 20.650866 Si / 1000 Ang^3
#
#
#
# Elastic Constant Matrix: (Units=GPa)
#
#
# Indices 1 2 3 4 5 6 
#
# 1 110.9972 46.1216 20.9553 0.0000 18.4593 0.0000
# 2 46.1216 108.2578 18.7083 0.0000 11.2307 0.0000
# 3 20.9553 18.7083 71.4238 0.0000 16.5694 0.0000
# 4 0.0000 0.0000 0.0000 8.6835 0.0000 -3.1827
# 5 18.4593 11.2307 16.5694 0.0000 47.3616 0.0000
# 6 0.0000 0.0000 0.0000 -3.1827 0.0000 18.3321
#
#
#
# Elastic Compliance Matrix: (Units=1/GPa)
#
#
# Indices 1 2 3 4 5 6 
#
# 1 0.011611 -0.004369 -0.001581 0.000000 -0.002936 0.000000
# 2 -0.004369 0.011422 -0.001607 0.000000 -0.000443 0.000000
# 3 -0.001581 -0.001607 0.015949 0.000000 -0.004582 0.000000
# 4 0.000000 0.000000 0.000000 0.122988 0.000000 0.021353
# 5 -0.002936 -0.000443 -0.004582 0.000000 0.023967 0.000000
# 6 0.000000 0.000000 0.000000 0.021353 0.000000 0.058256
#
#
# Mechanical properties :
#
#
# Convention : Reuss Voigt Hill
#
# Bulk Modulus (GPa) = 41.89713 51.36101 46.62907
# Shear Modulus (GPa) = 18.70807 28.53501 23.62154
#
# Velocity S-wave (km/s) = 3.01312 3.72127 3.38576
# Velocity P-wave (km/s) = 5.69540 6.58702 6.15737
#
# Compressibility (1/GPa) = 0.02386798
#
# Stress axis : x y z
#
# Youngs Moduli (GPa) = 86.12153 87.54791 62.70044
#
# Poissons Ratio (x) = 0.38250 0.09914
# Poissons Ratio (y) = 0.37627 0.10077
# Poissons Ratio (z) = 0.13617 0.14071
#
# Static dielectric constant tensor:
#      x y z
#    x 1.751830 0.000000 -0.001080 
#    y 0.000000 1.712280 0.000000 
#    z -0.001080 0.000000 1.772100 
# 
# From -- ./inp_files/55482.got.cif
#   From: 2010.05.17/outbox.cif.g08.bks.cpg/sg14_28_cif.got.tgz:55482.got - 2010.06.03 17:49:19.
