data_PCOD9241580
_publ_section_title
;
Structure prediction by ZEFSAII (Michael W. Deem and Ramdas Pophale) SiO2 
 PCOD9241580
Probable space group: P 21/C
;
_chemical_formula_sum "Si O2"
_cell_formula_units_Z 32
_cell_length_a 8.979839
_cell_length_b 15.545197
_cell_length_c 28.305150
_cell_angle_alpha 90.000000
_cell_angle_beta 155.411080
_cell_angle_gamma 90.000000
_cell_volume 1644.118543
_symmetry_space_group_name_H-M "P 21/C"
_symmetry_group_IT_number 14
_symmetry_cell_setting 'monoclinic'
loop_
_space_group_symop_operation_xyz
x,y,z
-x,1/2+y,1/2-z
-x,-y,-z
x,1/2-y,1/2+z
loop_
_atom_site_type_symbol
_atom_site_label
_atom_site_fract_x
_atom_site_fract_y
_atom_site_fract_z
Si Si1 0.309591 0.965515 0.492657
Si Si2 0.367968 0.359711 0.238483
Si Si3 0.356559 0.044440 0.824701
Si Si4 0.993488 0.636569 0.218872
Si Si5 0.782690 0.306110 0.266469
Si Si6 0.555949 0.130000 0.604464
Si Si7 0.495632 0.914048 0.029682
Si Si8 0.137449 0.776733 0.861075
O O1 0.592403 0.898720 0.596154
O O2 0.941470 0.919481 0.373873
O O3 0.500000 0.000000 0.500000
O O4 0.287745 0.051877 0.517530
O O5 0.532698 0.416453 0.328490
O O6 0.612035 0.323287 0.267682
O O7 0.180514 0.279680 0.209880
O O8 0.569485 0.064501 0.934106
O O9 0.959279 0.089350 0.714909
O O10 0.261064 0.944281 0.792294
O O11 0.089084 0.709961 0.208670
O O12 0.032118 0.677214 0.281946
O O13 0.527934 0.332801 0.148991
O O14 0.118180 0.369601 0.360082
O O15 0.555855 0.207725 0.566452
O O16 0.246642 0.845214 0.931854
O O17 0.500000 0.000000 0.000000
#
# Coordination Sequence:
#
# PCOD9241580 Si02
#       8
#     4   4   4   4   4   4   4   4
#     4  11  18  35  67  86 106 150 198 232 285 342
#     4  11  22  38  57  89 122 147 185 248 291 335
#     4   9  18  37  60  84 113 150 198 234 277 341
#     4  10  19  38  62  85 109 156 196 234 279 349
#     4  10  23  38  55  86 127 145 186 244 294 331
#     4   8  18  35  57  87 110 148 194 235 274 345
#     4  11  21  38  63  84 110 159 202 229 276 348
#     4  10  19  36  62  83 113 152 203 229 275 349
#
# _framework density 19.463317
#
# number of rings (size 3 to 8) (size 9 to 14) (size 15 to 20)
#    0.000    2.000    5.000    1.500    0.000    0.500 
#    2.250    5.625    0.000    0.000    0.000    0.000 
#    0.000    0.000    0.000    0.000    0.000    0.000 
#
# Total GULP energy -178536.709088 kJ/mol
# GULP energy per Si atom -5579.272159 kJ/mol
# Density = 1.941902 g / cm^3
# Si number density = 19.463317 Si / 1000 Ang^3
#
#
#
# Elastic Constant Matrix: (Units=GPa)
#
#
# Indices 1 2 3 4 5 6 
#
# 1 104.6720 47.5953 19.5144 0.0000 -27.2614 0.0000
# 2 47.5953 143.2474 36.7209 0.0000 -23.4516 0.0000
# 3 19.5144 36.7209 49.5729 0.0000 -26.7135 0.0000
# 4 0.0000 0.0000 0.0000 26.2418 0.0000 -17.8954
# 5 -27.2614 -23.4516 -26.7135 0.0000 23.4158 0.0000
# 6 0.0000 0.0000 0.0000 -17.8954 0.0000 28.2178
#
#
#
# Elastic Compliance Matrix: (Units=1/GPa)
#
#
# Indices 1 2 3 4 5 6 
#
# 1 0.016709 -0.003842 0.012142 0.000000 0.029458 0.000000
# 2 -0.003842 0.009612 -0.007347 0.000000 -0.003228 0.000000
# 3 0.012142 -0.007347 0.063565 0.000000 0.079295 0.000000
# 4 0.000000 0.000000 0.000000 0.067147 0.000000 0.042584
# 5 0.029458 -0.003228 0.079295 0.000000 0.164232 0.000000
# 6 0.000000 0.000000 0.000000 0.042584 0.000000 0.062445
#
#
# Mechanical properties :
#
#
# Convention : Reuss Voigt Hill
#
# Bulk Modulus (GPa) = 10.89410 56.12819 33.51115
# Shear Modulus (GPa) = 12.12415 28.48587 20.30501
#
# Velocity S-wave (km/s) = 2.49855 3.82981 3.23343
# Velocity P-wave (km/s) = 3.73270 6.96112 5.58526
#
# Compressibility (1/GPa) = 0.09179278
#
# Stress axis : x y z
#
# Youngs Moduli (GPa) = 59.84818 104.03214 15.73197
#
# Poissons Ratio (x) = 0.39966 -0.19102
# Poissons Ratio (y) = 0.22992 0.11559
# Poissons Ratio (z) = -0.72669 0.76435
#
# Static dielectric constant tensor:
#      x y z
#    x 1.682510 0.000000 -0.037830 
#    y 0.000000 1.702260 0.000000 
#    z -0.037830 0.000000 1.706450 
# 
# From -- ./inp_files/76721.got.cif
#   From: 2010.05.17/outbox.cif.g08.bks.cpg/sg14_39_cif.got.tgz:76721.got - 2010.06.03 17:49:19.
