data_PCOD9241616
_publ_section_title
;
Structure prediction by ZEFSAII (Michael W. Deem and Ramdas Pophale) SiO2 
 PCOD9241616
Probable space group: P 21/C
;
_chemical_formula_sum "Si O2"
_cell_formula_units_Z 30
_cell_length_a 16.717473
_cell_length_b 12.188335
_cell_length_c 9.330688
_cell_angle_alpha 90.000000
_cell_angle_beta 146.213598
_cell_angle_gamma 90.000000
_cell_volume 1057.256375
_symmetry_space_group_name_H-M "P 21/C"
_symmetry_group_IT_number 14
_symmetry_cell_setting 'monoclinic'
loop_
_space_group_symop_operation_xyz
x,y,z
-x,1/2+y,1/2-z
-x,-y,-z
x,1/2-y,1/2+z
loop_
_atom_site_type_symbol
_atom_site_label
_atom_site_fract_x
_atom_site_fract_y
_atom_site_fract_z
Si Si1 0.178933 0.967251 0.662415
Si Si2 0.500000 0.000000 0.500000
Si Si3 0.219938 0.970327 0.193357
Si Si4 0.457228 0.209627 0.637369
Si Si5 0.599461 0.147926 0.148870
Si Si6 0.125761 0.169685 0.198731
Si Si7 0.131679 0.707036 0.349624
Si Si8 0.878696 0.878926 0.179016
O O1 0.321797 0.964350 0.780893
O O2 0.179953 0.873416 0.789895
O O3 0.030448 0.934260 0.363796
O O4 0.149505 0.079433 0.701800
O O5 0.386637 0.944762 0.455044
O O6 0.515257 0.111269 0.622683
O O7 0.144087 0.038409 0.206481
O O8 0.239698 0.059640 0.090910
O O9 0.126950 0.873799 0.983135
O O10 0.492384 0.324931 0.615886
O O11 0.286767 0.201237 0.391584
O O12 0.525279 0.192383 0.894516
O O13 0.741084 0.213141 0.413922
O O14 0.117385 0.248880 0.324520
O O15 0.995821 0.219110 0.909191
#
# Coordination Sequence:
#
# PCOD9241616 Si02
#       8
#     4   2   4   4   4   4   4   4
#     4   9  18  35  64  92 118 167 218 270 309 392
#     4  10  20  42  64  94 120 184 228 264 314 420
#     4  10  19  36  63  92 120 179 218 271 321 402
#     4  11  25  40  70  95 138 173 225 271 338 389
#     4  12  21  43  65 103 127 178 223 276 325 405
#     4  10  23  36  62  97 128 169 218 287 323 386
#     4  10  20  39  66  96 127 169 232 265 329 399
#     4   9  18  35  61  90 120 162 223 265 313 392
#
# _framework density 28.375330000000002
#
# number of rings (size 3 to 8) (size 9 to 14) (size 15 to 20)
#    0.000    1.867    2.667    2.400    3.733    0.000 
#    0.000    0.667    2.933    4.000    0.000    0.000 
#    0.000    0.000    0.000    0.000    0.000    0.000 
#
# Total GULP energy -167147.229468 kJ/mol
# GULP energy per Si atom -5571.574316 kJ/mol
# Density = 2.831075 g / cm^3
# Si number density = 28.375330 Si / 1000 Ang^3
#
#
#
# Elastic Constant Matrix: (Units=GPa)
#
#
# Indices 1 2 3 4 5 6 
#
# 1 49.8007 19.5498 26.9772 0.0000 1.5945 0.0000
# 2 19.5498 73.5598 29.8987 0.0000 2.6427 0.0000
# 3 26.9772 29.8987 110.4008 0.0000 3.0682 0.0000
# 4 0.0000 0.0000 0.0000 44.8137 0.0000 1.9409
# 5 1.5945 2.6427 3.0682 0.0000 46.7265 0.0000
# 6 0.0000 0.0000 0.0000 1.9409 0.0000 57.7041
#
#
#
# Elastic Compliance Matrix: (Units=1/GPa)
#
#
# Indices 1 2 3 4 5 6 
#
# 1 0.024442 -0.004564 -0.004729 0.000000 -0.000265 0.000000
# 2 -0.004564 0.016145 -0.003242 0.000000 -0.000544 0.000000
# 3 -0.004729 -0.003242 0.011102 0.000000 -0.000384 0.000000
# 4 0.000000 0.000000 0.000000 0.022347 0.000000 -0.000752
# 5 -0.000265 -0.000544 -0.000384 0.000000 0.021466 0.000000
# 6 0.000000 0.000000 0.000000 -0.000752 0.000000 0.017355
#
#
# Mechanical properties :
#
#
# Convention : Reuss Voigt Hill
#
# Bulk Modulus (GPa) = 37.56793 42.95697 40.26245
# Shear Modulus (GPa) = 34.05986 40.33790 37.19888
#
# Velocity S-wave (km/s) = 3.46834 3.77448 3.62464
# Velocity P-wave (km/s) = 5.41365 5.84528 5.63360
#
# Compressibility (1/GPa) = 0.02661845
#
# Stress axis : x y z
#
# Youngs Moduli (GPa) = 40.91316 61.94017 90.07271
#
# Poissons Ratio (x) = 0.28270 0.42597
# Poissons Ratio (y) = 0.18673 0.29200
# Poissons Ratio (z) = 0.19348 0.20080
#
# Static dielectric constant tensor:
#      x y z
#    x 2.596550 0.000000 0.321500 
#    y 0.000000 2.993770 0.000000 
#    z 0.321500 0.000000 2.566870 
# 
# From -- ./inp_files/35333.got.cif
#   From: 2010.05.17/outbox.cif.g08.bks.cpg/sg14_18_cif.got.tgz:35333.got - 2010.06.03 17:49:19.
