data_PCOD9241628
_publ_section_title
;
Structure prediction by ZEFSAII (Michael W. Deem and Ramdas Pophale) SiO2 
 PCOD9241628
Probable space group: P 21/C
;
_chemical_formula_sum "Si O2"
_cell_formula_units_Z 32
_cell_length_a 8.673178
_cell_length_b 11.142507
_cell_length_c 17.883468
_cell_angle_alpha 90.000000
_cell_angle_beta 111.087524
_cell_angle_gamma 90.000000
_cell_volume 1612.535966
_symmetry_space_group_name_H-M "P 21/C"
_symmetry_group_IT_number 14
_symmetry_cell_setting 'monoclinic'
loop_
_space_group_symop_operation_xyz
x,y,z
-x,1/2+y,1/2-z
-x,-y,-z
x,1/2-y,1/2+z
loop_
_atom_site_type_symbol
_atom_site_label
_atom_site_fract_x
_atom_site_fract_y
_atom_site_fract_z
Si Si1 0.279910 0.375977 0.432218
Si Si2 0.491303 0.301331 0.887702
Si Si3 0.736303 0.278560 0.058903
Si Si4 0.488130 0.580904 0.398070
Si Si5 0.430436 0.263401 0.716999
Si Si6 0.026006 0.944769 0.209477
Si Si7 0.949602 0.722021 0.307980
Si Si8 0.622722 0.064567 0.670653
O O1 0.339969 0.245909 0.413720
O O2 0.402447 0.456008 0.401417
O O3 0.339848 0.403618 0.526762
O O4 0.093011 0.412471 0.381028
O O5 0.507281 0.236692 0.811020
O O6 0.447197 0.434247 0.854216
O O7 0.657137 0.293994 0.964615
O O8 0.634187 0.173288 0.081792
O O9 0.697599 0.392305 0.104452
O O10 0.925863 0.244034 0.101572
O O11 0.503260 0.619332 0.315202
O O12 0.237361 0.279641 0.697455
O O13 0.480766 0.155037 0.671743
O O14 0.970130 0.839387 0.258147
O O15 0.224224 0.930510 0.244463
O O16 0.005294 0.090049 0.219714
#
# Coordination Sequence:
#
# PCOD9241628 Si02
#       8
#     4   4   4   4   4   4   4   4
#     4  10  19  36  64  90 115 162 206 243 301 380
#     4  11  21  37  62  89 118 161 207 247 309 375
#     4   9  20  39  64  85 117 164 204 249 299 384
#     4   9  20  37  61  88 123 155 197 251 311 366
#     4  11  23  39  58  88 128 159 198 263 317 356
#     4  11  20  39  63  93 119 164 215 253 300 382
#     4  11  22  40  63  94 126 161 210 261 316 364
#     4  10  22  39  58  86 123 162 206 250 313 366
#
# _framework density 19.844518999999998
#
# number of rings (size 3 to 8) (size 9 to 14) (size 15 to 20)
#    0.000    1.750    3.750    0.375    1.750    0.000 
#    2.250    1.250    0.000    0.000    0.000    0.000 
#    0.000    0.000    0.000    0.000    0.000    0.000 
#
# Total GULP energy -178255.304889 kJ/mol
# GULP energy per Si atom -5570.478278 kJ/mol
# Density = 1.979935 g / cm^3
# Si number density = 19.844519 Si / 1000 Ang^3
#
#
#
# Elastic Constant Matrix: (Units=GPa)
#
#
# Indices 1 2 3 4 5 6 
#
# 1 35.9556 10.1053 26.8118 0.0000 13.6261 0.0000
# 2 10.1053 73.0447 -8.7671 0.0000 -2.5353 0.0000
# 3 26.8118 -8.7671 114.3085 0.0000 26.4398 0.0000
# 4 0.0000 0.0000 0.0000 19.5319 0.0000 5.4230
# 5 13.6261 -2.5353 26.4398 0.0000 29.4407 0.0000
# 6 0.0000 0.0000 0.0000 5.4230 0.0000 15.8497
#
#
#
# Elastic Compliance Matrix: (Units=1/GPa)
#
#
# Indices 1 2 3 4 5 6 
#
# 1 0.039675 -0.006757 -0.006869 0.000000 -0.012776 0.000000
# 2 -0.006757 0.014970 0.002160 0.000000 0.002476 0.000000
# 3 -0.006869 0.002160 0.012302 0.000000 -0.007683 0.000000
# 4 0.000000 0.000000 0.000000 0.056573 0.000000 -0.019356
# 5 -0.012776 0.002476 -0.007683 0.000000 0.046993 0.000000
# 6 0.000000 0.000000 0.000000 -0.019356 0.000000 0.069715
#
#
# Mechanical properties :
#
#
# Convention : Reuss Voigt Hill
#
# Bulk Modulus (GPa) = 22.71899 31.06763 26.89331
# Shear Modulus (GPa) = 17.99654 25.97505 21.98579
#
# Velocity S-wave (km/s) = 3.01471 3.62184 3.33213
# Velocity P-wave (km/s) = 4.85709 5.76019 5.32781
#
# Compressibility (1/GPa) = 0.04401605
#
# Stress axis : x y z
#
# Youngs Moduli (GPa) = 25.20484 66.79925 81.28609
#
# Poissons Ratio (x) = 0.45134 0.55837
# Poissons Ratio (y) = 0.17030 -0.17559
# Poissons Ratio (z) = 0.17314 -0.14430
#
# Static dielectric constant tensor:
#      x y z
#    x 1.656430 0.000000 0.013250 
#    y 0.000000 1.798090 0.000000 
#    z 0.013250 0.000000 1.746140 
# 
# From -- ./inp_files/65436.got.cif
#   From: 2010.05.17/outbox.cif.g08.bks.cpg/sg14_33_cif.got.tgz:65436.got - 2010.06.03 17:49:19.
