data_PCOD9241995
_publ_section_title
;
Structure prediction by ZEFSAII (Michael W. Deem and Ramdas Pophale) SiO2 
 PCOD9241995
Probable space group: P 21/C
;
_chemical_formula_sum "Si O2"
_cell_formula_units_Z 24
_cell_length_a 14.741195
_cell_length_b 5.357024
_cell_length_c 13.256341
_cell_angle_alpha 90.000000
_cell_angle_beta 79.243096
_cell_angle_gamma 90.000000
_cell_volume 1028.443990
_symmetry_space_group_name_H-M "P 21/C"
_symmetry_group_IT_number 14
_symmetry_cell_setting 'monoclinic'
loop_
_space_group_symop_operation_xyz
x,y,z
-x,1/2+y,1/2-z
-x,-y,-z
x,1/2-y,1/2+z
loop_
_atom_site_type_symbol
_atom_site_label
_atom_site_fract_x
_atom_site_fract_y
_atom_site_fract_z
Si Si1 0.710525 0.862437 0.372016
Si Si2 0.835960 0.976921 0.990516
Si Si3 0.492820 0.248127 0.068924
Si Si4 0.312626 0.652743 0.925520
Si Si5 0.189847 0.312608 0.828095
Si Si6 0.056398 0.622786 0.719343
O O1 0.768092 0.672587 0.429763
O O2 0.609534 0.759331 0.363928
O O3 0.774324 0.886579 0.261529
O O4 0.693539 0.088829 0.452842
O O5 0.905704 0.117822 0.903009
O O6 0.873722 0.790492 0.068036
O O7 0.768647 0.151437 0.068017
O O8 0.584198 0.257363 0.118873
O O9 0.500000 0.500000 0.000000
O O10 0.500000 0.000000 0.000000
O O11 0.280518 0.421803 0.864806
O O12 0.136500 0.526632 0.777841
O O13 0.016716 0.893343 0.755473
#
# Coordination Sequence:
#
# PCOD9241995 Si02
#       6
#     4   4   4   4   4   4
#     4   9  20  40  62  93 134 181 219 266 327 386
#     4  10  22  41  69  93 133 169 217 271 339 398
#     4  10  19  38  64  93 131 177 222 263 313 378
#     4  10  21  39  66  95 132 180 222 269 332 389
#     4  10  24  42  65  99 131 173 220 279 330 403
#     4  11  28  47  70  97 128 171 222 277 347 406
#
# _framework density 23.336224999999999
#
# number of rings (size 3 to 8) (size 9 to 14) (size 15 to 20)
#    0.000    2.000    1.667    0.000    9.333    2.667 
#    3.000    0.000    0.000    0.000    0.000    0.000 
#    0.000    0.000    0.000    0.000    0.000    0.000 
#
# Total GULP energy -133936.961299 kJ/mol
# GULP energy per Si atom -5580.706721 kJ/mol
# Density = 2.328311 g / cm^3
# Si number density = 23.336225 Si / 1000 Ang^3
#
#
#
# Elastic Constant Matrix: (Units=GPa)
#
#
# Indices 1 2 3 4 5 6 
#
# 1 103.2898 9.4733 37.5732 0.0000 -2.5805 0.0000
# 2 9.4733 59.1262 12.9397 0.0000 -2.9684 0.0000
# 3 37.5732 12.9397 98.7581 0.0000 4.6594 0.0000
# 4 0.0000 0.0000 0.0000 9.0716 0.0000 -13.9958
# 5 -2.5805 -2.9684 4.6594 0.0000 20.3037 0.0000
# 6 0.0000 0.0000 0.0000 -13.9958 0.0000 21.5212
#
#
#
# Elastic Compliance Matrix: (Units=1/GPa)
#
#
# Indices 1 2 3 4 5 6 
#
# 1 0.011389 -0.000757 -0.004344 0.000000 0.002334 0.000000
# 2 -0.000757 0.017658 -0.002166 0.000000 0.002983 0.000000
# 3 -0.004344 -0.002166 0.012236 0.000000 -0.003677 0.000000
# 4 0.000000 0.000000 0.000000-33.031436 0.000000-21.481253
# 5 0.002334 0.002983 -0.003677 0.000000 0.050828 0.000000
# 6 0.000000 0.000000 0.000000-21.481253 0.000000-13.923385
#
#
# Mechanical properties :
#
#
# Convention : Reuss Voigt Hill
#
# Bulk Modulus (GPa) = 37.38529 42.34960 39.86745
# Shear Modulus (GPa) = -0.10675 23.59184 11.74255
#
# Velocity S-wave (km/s) = -0.21411 3.18300 2.24562
# Velocity P-wave (km/s) = 3.99924 5.62989 4.88311
#
# Compressibility (1/GPa) = 0.02674849
#
# Stress axis : x y z
#
# Youngs Moduli (GPa) = 87.80038 56.63130 81.72724
#
# Poissons Ratio (x) = 0.04287 0.35503
# Poissons Ratio (y) = 0.06646 0.17705
# Poissons Ratio (z) = 0.38142 0.12268
#
# Static dielectric constant tensor:
#      x y z
#    x 1.943420 0.000000 0.015530 
#    y 0.000000 1.940860 0.000000 
#    z 0.015530 0.000000 1.833040 
# 
# From -- ./inp_files/45681.got.cif
#   From: 2010.05.17/outbox.cif.g08.bks.cpg/sg14_23_cif.got.tgz:45681.got - 2010.06.03 17:49:19.
