data_PCOD9241542
_publ_section_title
;
Structure prediction by ZEFSAII (Michael W. Deem and Ramdas Pophale) SiO2 
 PCOD9241542
Probable space group: P 21/C
;
_chemical_formula_sum "Si O2"
_cell_formula_units_Z 30
_cell_length_a 17.630271
_cell_length_b 8.776237
_cell_length_c 16.368568
_cell_angle_alpha 90.000000
_cell_angle_beta 150.547581
_cell_angle_gamma 90.000000
_cell_volume 1245.313691
_symmetry_space_group_name_H-M "P 21/C"
_symmetry_group_IT_number 14
_symmetry_cell_setting 'monoclinic'
loop_
_space_group_symop_operation_xyz
x,y,z
-x,1/2+y,1/2-z
-x,-y,-z
x,1/2-y,1/2+z
loop_
_atom_site_type_symbol
_atom_site_label
_atom_site_fract_x
_atom_site_fract_y
_atom_site_fract_z
Si Si1 0.750390 0.438223 0.636716
Si Si2 0.302110 0.033301 0.218761
Si Si3 0.923301 0.288669 0.174634
Si Si4 0.262458 0.042421 0.419345
Si Si5 0.707736 0.827893 0.966575
Si Si6 0.978128 0.169694 0.051902
Si Si7 0.441949 0.810575 0.468652
Si Si8 0.000000 0.000000 0.500000
O O1 0.844468 0.328326 0.663275
O O2 0.667197 0.558250 0.501016
O O3 0.627442 0.351113 0.576868
O O4 0.876547 0.515484 0.811940
O O5 0.377850 0.166358 0.345667
O O6 0.388800 0.881634 0.333294
O O7 0.332638 0.096406 0.157052
O O8 0.124684 0.982248 0.062534
O O9 0.844916 0.449053 0.119216
O O10 0.895084 0.238050 0.055638
O O11 0.105767 0.306068 0.360595
O O12 0.351726 0.164014 0.559204
O O13 0.143094 0.121267 0.244289
O O14 0.361815 0.922009 0.461266
O O15 0.971389 0.305119 0.978823
#
# Coordination Sequence:
#
# PCOD9241542 Si02
#       8
#     4   4   4   4   4   4   4   2
#     4  11  21  37  60  92 128 163 206 261 320 376
#     4  11  22  42  63  83 124 171 209 251 320 385
#     4  10  19  36  60  91 123 158 204 260 313 377
#     4  10  21  38  59  94 120 152 212 261 307 378
#     4  11  20  36  61  88 122 159 207 260 313 372
#     4  11  21  37  63  93 121 165 203 266 318 369
#     4  10  25  41  60  87 124 167 212 255 313 384
#     4  12  22  34  62  98 128 162 204 268 322 368
#
# _framework density 24.090315
#
# number of rings (size 3 to 8) (size 9 to 14) (size 15 to 20)
#    0.000    1.333    6.667    0.800    0.000    2.667 
#    0.000    0.000    0.000    2.400    0.000    0.000 
#    0.000    0.000    0.000    0.000    0.000    0.000 
#
# Total GULP energy -167190.449554 kJ/mol
# GULP energy per Si atom -5573.014985 kJ/mol
# Density = 2.403548 g / cm^3
# Si number density = 24.090315 Si / 1000 Ang^3
#
#
#
# Elastic Constant Matrix: (Units=GPa)
#
#
# Indices 1 2 3 4 5 6 
#
# 1 76.2230 20.7681 24.8066 0.0000 0.5936 0.0000
# 2 20.7681 82.2907 14.5035 0.0000 -1.4543 0.0000
# 3 24.8066 14.5035 84.2283 0.0000 -23.6602 0.0000
# 4 0.0000 0.0000 0.0000 29.4860 0.0000 -6.2846
# 5 0.5936 -1.4543 -23.6602 0.0000 31.0010 0.0000
# 6 0.0000 0.0000 0.0000 -6.2846 0.0000 24.0743
#
#
#
# Elastic Compliance Matrix: (Units=1/GPa)
#
#
# Indices 1 2 3 4 5 6 
#
# 1 0.015754 -0.003107 -0.005385 0.000000 -0.004557 0.000000
# 2 -0.003107 0.013190 -0.001484 0.000000 -0.000454 0.000000
# 3 -0.005385 -0.001484 0.017468 0.000000 0.013365 0.000000
# 4 0.000000 0.000000 0.000000 0.035913 0.000000 0.009375
# 5 -0.004557 -0.000454 0.013365 0.000000 0.042524 0.000000
# 6 0.000000 0.000000 0.000000 0.009375 0.000000 0.043986
#
#
# Mechanical properties :
#
#
# Convention : Reuss Voigt Hill
#
# Bulk Modulus (GPa) = 37.79227 40.32205 39.05716
# Shear Modulus (GPa) = 25.30293 29.08983 27.19638
#
# Velocity S-wave (km/s) = 3.24440 3.47873 3.36361
# Velocity P-wave (km/s) = 5.45497 5.73669 5.59760
#
# Compressibility (1/GPa) = 0.02646044
#
# Stress axis : x y z
#
# Youngs Moduli (GPa) = 63.47571 75.81666 57.24656
#
# Poissons Ratio (x) = 0.23559 0.30827
# Poissons Ratio (y) = 0.19724 0.08493
# Poissons Ratio (z) = 0.34181 0.11248
#
# Static dielectric constant tensor:
#      x y z
#    x 2.050070 0.000000 0.019620 
#    y 0.000000 2.010220 0.000000 
#    z 0.019620 0.000000 1.928100 
# 
# From -- ./inp_files/61154.got.cif
#   From: 2010.05.17/outbox.cif.g08.bks.cpg/sg14_31_cif.got.tgz:61154.got - 2010.06.03 17:49:19.
