data_PCOD9241885
_publ_section_title
;
Structure prediction by ZEFSAII (Michael W. Deem and Ramdas Pophale) SiO2 
 PCOD9241885
Probable space group: P 21/C
;
_chemical_formula_sum "Si O2"
_cell_formula_units_Z 24
_cell_length_a 21.477049
_cell_length_b 11.018889
_cell_length_c 8.040809
_cell_angle_alpha 90.000000
_cell_angle_beta 39.882383
_cell_angle_gamma 90.000000
_cell_volume 1220.154896
_symmetry_space_group_name_H-M "P 21/C"
_symmetry_group_IT_number 14
_symmetry_cell_setting 'monoclinic'
loop_
_space_group_symop_operation_xyz
x,y,z
-x,1/2+y,1/2-z
-x,-y,-z
x,1/2-y,1/2+z
loop_
_atom_site_type_symbol
_atom_site_label
_atom_site_fract_x
_atom_site_fract_y
_atom_site_fract_z
Si Si1 0.227936 0.925802 0.409943
Si Si2 0.185095 0.146010 0.284286
Si Si3 0.981165 0.139316 0.563704
Si Si4 0.151061 0.714349 0.383491
Si Si5 0.322509 0.182435 0.710372
Si Si6 0.598421 0.923155 0.786113
O O1 0.232776 0.809911 0.276289
O O2 0.179608 0.872751 0.675374
O O3 0.168409 0.028934 0.434034
O O4 0.323569 0.993984 0.276352
O O5 0.236820 0.248320 0.287516
O O6 0.083742 0.190393 0.417012
O O7 0.265779 0.116175 0.976851
O O8 0.942020 0.208191 0.484091
O O9 0.889717 0.145005 0.875141
O O10 0.000000 0.000000 0.500000
O O11 0.391530 0.289042 0.647191
O O12 0.374152 0.100918 0.464215
O O13 0.500000 0.000000 0.000000
#
# Coordination Sequence:
#
# PCOD9241885 Si02
#       6
#     4   4   4   4   4   4
#     4  10  22  38  58  80 119 154 192 243 297 339
#     4  10  19  38  58  85 115 160 192 238 282 334
#     4  11  21  36  58  83 119 155 206 234 280 338
#     4  10  23  39  52  86 119 157 197 242 287 342
#     4   9  21  39  63  87 120 147 194 235 289 348
#     4  10  22  41  64  91 113 149 193 239 294 353
#
# _framework density 19.669632
#
# number of rings (size 3 to 8) (size 9 to 14) (size 15 to 20)
#    0.000    2.000    1.667    1.000    2.333    2.000 
#    3.000    7.500    0.000    0.000    0.000    0.000 
#    0.000    0.000    0.000    0.000    0.000    0.000 
#
# Total GULP energy -133756.553791 kJ/mol
# GULP energy per Si atom -5573.189741 kJ/mol
# Density = 1.962486 g / cm^3
# Si number density = 19.669632 Si / 1000 Ang^3
#
#
#
# Elastic Constant Matrix: (Units=GPa)
#
#
# Indices 1 2 3 4 5 6 
#
# 1 64.1062 18.9156 26.2504 0.0000 -1.7744 0.0000
# 2 18.9156 71.8114 34.6269 0.0000 3.2818 0.0000
# 3 26.2504 34.6269 62.5819 0.0000 9.3730 0.0000
# 4 0.0000 0.0000 0.0000 30.6135 0.0000 10.7142
# 5 -1.7744 3.2818 9.3730 0.0000 35.3947 0.0000
# 6 0.0000 0.0000 0.0000 10.7142 0.0000 16.8493
#
#
#
# Elastic Compliance Matrix: (Units=1/GPa)
#
#
# Indices 1 2 3 4 5 6 
#
# 1 0.019297 -0.001495 -0.007740 0.000000 0.003156 0.000000
# 2 -0.001495 0.019147 -0.010090 0.000000 0.000822 0.000000
# 3 -0.007740 -0.010090 0.025748 0.000000 -0.006271 0.000000
# 4 0.000000 0.000000 0.000000 0.042016 0.000000 -0.026717
# 5 0.003156 0.000822 -0.006271 0.000000 0.029995 0.000000
# 6 0.000000 0.000000 0.000000 -0.026717 0.000000 0.076339
#
#
# Mechanical properties :
#
#
# Convention : Reuss Voigt Hill
#
# Bulk Modulus (GPa) = 39.15140 39.78724 39.46932
# Shear Modulus (GPa) = 19.25262 24.48526 21.86894
#
# Velocity S-wave (km/s) = 3.13197 3.53204 3.33800
# Velocity P-wave (km/s) = 5.74688 6.07498 5.91321
#
# Compressibility (1/GPa) = 0.02554187
#
# Stress axis : x y z
#
# Youngs Moduli (GPa) = 51.82193 52.22748 38.83870
#
# Poissons Ratio (x) = 0.07809 0.30059
# Poissons Ratio (y) = 0.07748 0.39188
# Poissons Ratio (z) = 0.40108 0.52698
#
# Static dielectric constant tensor:
#      x y z
#    x 1.622430 0.000000 0.080850 
#    y 0.000000 1.707370 0.000000 
#    z 0.080850 0.000000 1.667010 
# 
# From -- ./inp_files/12353.got.cif
#   From: 2010.05.17/outbox.cif.g08.bks.cpg/sg14_7_cif.got.tgz:12353.got - 2010.06.03 17:49:19.
