data_PCOD9241852
_publ_section_title
;
Structure prediction by ZEFSAII (Michael W. Deem and Ramdas Pophale) SiO2 
 PCOD9241852
Probable space group: P 21/C
;
_chemical_formula_sum "Si O2"
_cell_formula_units_Z 28
_cell_length_a 19.228625
_cell_length_b 12.795300
_cell_length_c 13.527659
_cell_angle_alpha 90.000000
_cell_angle_beta 21.854397
_cell_angle_gamma 90.000000
_cell_volume 1238.953760
_symmetry_space_group_name_H-M "P 21/C"
_symmetry_group_IT_number 14
_symmetry_cell_setting 'monoclinic'
loop_
_space_group_symop_operation_xyz
x,y,z
-x,1/2+y,1/2-z
-x,-y,-z
x,1/2-y,1/2+z
loop_
_atom_site_type_symbol
_atom_site_label
_atom_site_fract_x
_atom_site_fract_y
_atom_site_fract_z
Si Si1 0.028725 0.331431 0.439872
Si Si2 0.757001 0.196177 0.687726
Si Si3 0.653122 0.537895 0.943334
Si Si4 0.706074 0.419974 0.460575
Si Si5 0.750082 0.201715 0.483616
Si Si6 0.569554 0.656399 0.854828
Si Si7 0.311274 0.338520 0.509661
O O1 0.148708 0.435579 0.270662
O O2 0.898573 0.290979 0.523126
O O3 0.181465 0.237645 0.244032
O O4 0.889708 0.337069 0.715563
O O5 0.798736 0.152936 0.524970
O O6 0.748786 0.123327 0.794890
O O7 0.552518 0.246498 0.950576
O O8 0.654356 0.604038 0.839546
O O9 0.507819 0.574134 0.219296
O O10 0.569607 0.428955 0.013180
O O11 0.777917 0.328594 0.439952
O O12 0.760160 0.541754 0.390425
O O13 0.530780 0.176865 0.749564
O O14 0.701031 0.688700 0.590875
#
# Coordination Sequence:
#
# PCOD9241852 Si02
#       7
#     4   4   4   4   4   4   4
#     4  11  23  40  63  91 123 165 208 260 311 377
#     4  11  22  39  60  91 127 161 205 262 313 367
#     4  10  20  37  63  93 118 164 210 250 310 375
#     4  10  21  41  67  84 125 168 206 256 313 371
#     4  11  23  43  60  94 128 161 211 265 311 381
#     4  10  19  37  66  89 122 164 205 256 312 363
#     4  11  22  42  65  89 124 170 210 255 316 377
#
# _framework density 22.599713999999999
#
# number of rings (size 3 to 8) (size 9 to 14) (size 15 to 20)
#    0.000    1.429    5.714    0.000    2.000    3.429 
#    2.571    1.429    0.000    0.000    0.000    0.000 
#    0.000    0.000    0.000    0.000    0.000    0.000 
#
# Total GULP energy -156093.740665 kJ/mol
# GULP energy per Si atom -5574.776452 kJ/mol
# Density = 2.254828 g / cm^3
# Si number density = 22.599714 Si / 1000 Ang^3
#
#
#
# Elastic Constant Matrix: (Units=GPa)
#
#
# Indices 1 2 3 4 5 6 
#
# 1 102.0838 4.7784 28.0717 0.0000 28.3630 0.0000
# 2 4.7784 74.1006 21.3456 0.0000 2.6259 0.0000
# 3 28.0717 21.3456 91.5103 0.0000 10.6636 0.0000
# 4 0.0000 0.0000 0.0000 23.0692 0.0000 -3.6345
# 5 28.3630 2.6259 10.6636 0.0000 22.4206 0.0000
# 6 0.0000 0.0000 0.0000 -3.6345 0.0000 18.3161
#
#
#
# Elastic Compliance Matrix: (Units=1/GPa)
#
#
# Indices 1 2 3 4 5 6 
#
# 1 0.015701 0.000439 -0.002751 0.000000 -0.018606 0.000000
# 2 0.000439 0.014480 -0.003441 0.000000 -0.000615 0.000000
# 3 -0.002751 -0.003441 0.012833 0.000000 -0.002221 0.000000
# 4 0.000000 0.000000 0.000000 0.044747 0.000000 0.008879
# 5 -0.018606 -0.000615 -0.002221 0.000000 0.069267 0.000000
# 6 0.000000 0.000000 0.000000 0.008879 0.000000 0.056359
#
#
# Mechanical properties :
#
#
# Convention : Reuss Voigt Hill
#
# Bulk Modulus (GPa) = 31.73652 41.78733 36.76192
# Shear Modulus (GPa) = 21.24104 26.99448 24.11776
#
# Velocity S-wave (km/s) = 3.06907 3.45985 3.27030
# Velocity P-wave (km/s) = 5.16065 5.87291 5.52826
#
# Compressibility (1/GPa) = 0.03150944
#
# Stress axis : x y z
#
# Youngs Moduli (GPa) = 63.68956 69.06199 77.92479
#
# Poissons Ratio (x) = -0.03034 0.21436
# Poissons Ratio (y) = -0.02798 0.26811
# Poissons Ratio (z) = 0.17520 0.23761
#
# Static dielectric constant tensor:
#      x y z
#    x 1.842180 0.000000 -0.002060 
#    y 0.000000 1.904170 0.000000 
#    z -0.002060 0.000000 1.895430 
# 
# From -- ./inp_files/50554.got.cif
#   From: 2010.05.17/outbox.cif.g08.bks.cpg/sg14_26_cif.got.tgz:50554.got - 2010.06.03 17:49:19.
