data_PCOD9241149
_publ_section_title
;
Structure prediction by ZEFSAII (Michael W. Deem and Ramdas Pophale) SiO2 
 PCOD9241149
Probable space group: P 21/C
;
_chemical_formula_sum "Si O2"
_cell_formula_units_Z 32
_cell_length_a 13.505627
_cell_length_b 11.218207
_cell_length_c 13.973902
_cell_angle_alpha 90.000000
_cell_angle_beta 41.718896
_cell_angle_gamma 90.000000
_cell_volume 1408.927530
_symmetry_space_group_name_H-M "P 21/C"
_symmetry_group_IT_number 14
_symmetry_cell_setting 'monoclinic'
loop_
_space_group_symop_operation_xyz
x,y,z
-x,1/2+y,1/2-z
-x,-y,-z
x,1/2-y,1/2+z
loop_
_atom_site_type_symbol
_atom_site_label
_atom_site_fract_x
_atom_site_fract_y
_atom_site_fract_z
Si Si1 0.553677 0.137268 0.588332
Si Si2 0.020156 0.825549 0.801556
Si Si3 0.699775 0.748840 0.000114
Si Si4 0.945689 0.678256 0.576576
Si Si5 0.463499 0.475203 0.348167
Si Si6 0.789315 0.173911 0.962952
Si Si7 0.316305 0.330250 0.766623
Si Si8 0.237834 0.480645 0.166944
O O1 0.677394 0.214500 0.555791
O O2 0.432436 0.232937 0.643183
O O3 0.490562 0.047936 0.714783
O O4 0.629625 0.075001 0.442038
O O5 0.118628 0.712791 0.697740
O O6 0.858052 0.813678 0.874775
O O7 0.102271 0.947833 0.714790
O O8 0.000977 0.828634 0.928977
O O9 0.709119 0.633051 0.929586
O O10 0.691605 0.703898 0.115358
O O11 0.573364 0.847641 0.078864
O O12 0.845263 0.798350 0.658241
O O13 0.831119 0.570631 0.685467
O O14 0.085223 0.669138 0.546199
O O15 0.318486 0.560150 0.463128
O O16 0.604484 0.542082 0.293259
#
# Coordination Sequence:
#
# PCOD9241149 Si02
#       8
#     4   4   4   4   4   4   4   4
#     4   9  20  37  64  92 124 167 209 256 321 375
#     4  10  22  38  62  94 130 158 212 267 317 370
#     4  10  19  34  62  88 122 172 204 253 314 373
#     4  11  22  39  65  97 126 161 212 267 320 368
#     4  10  19  38  65  88 123 174 210 252 316 384
#     4  10  21  40  67  92 125 167 209 258 323 378
#     4   9  20  38  59  92 128 161 213 262 308 373
#     4  11  20  36  62  93 124 163 208 261 316 373
#
# _framework density 22.712309999999999
#
# number of rings (size 3 to 8) (size 9 to 14) (size 15 to 20)
#    0.000    2.000    2.500    1.125    0.000    2.500 
#    0.000    3.750    2.750    0.000    0.000    0.000 
#    0.000    0.000    0.000    0.000    0.000    0.000 
#
# Total GULP energy -178664.902231 kJ/mol
# GULP energy per Si atom -5583.278195 kJ/mol
# Density = 2.266062 g / cm^3
# Si number density = 22.712310 Si / 1000 Ang^3
#
#
#
# Elastic Constant Matrix: (Units=GPa)
#
#
# Indices 1 2 3 4 5 6 
#
# 1 43.0034 12.8142 9.8206 0.0000 -1.8672 0.0000
# 2 12.8142 83.0133 39.0667 0.0000 -3.8274 0.0000
# 3 9.8206 39.0667 106.8654 0.0000 8.8660 0.0000
# 4 0.0000 0.0000 0.0000 40.4820 0.0000 -3.8322
# 5 -1.8672 -3.8274 8.8660 0.0000 35.6541 0.0000
# 6 0.0000 0.0000 0.0000 -3.8322 0.0000 14.9222
#
#
#
# Elastic Compliance Matrix: (Units=1/GPa)
#
#
# Indices 1 2 3 4 5 6 
#
# 1 0.024525 -0.003163 -0.001200 0.000000 0.001243 0.000000
# 2 -0.003163 0.015267 -0.005527 0.000000 0.002847 0.000000
# 3 -0.001200 -0.005527 0.011786 0.000000 -0.003587 0.000000
# 4 0.000000 0.000000 0.000000 0.025318 0.000000 0.006502
# 5 0.001243 0.002847 -0.003587 0.000000 0.029310 0.000000
# 6 0.000000 0.000000 0.000000 0.006502 0.000000 0.068684
#
#
# Mechanical properties :
#
#
# Convention : Reuss Voigt Hill
#
# Bulk Modulus (GPa) = 31.45016 39.58726 35.51871
# Shear Modulus (GPa) = 24.35831 29.62369 26.99100
#
# Velocity S-wave (km/s) = 3.27841 3.61543 3.45104
# Velocity P-wave (km/s) = 5.31111 5.90730 5.61712
#
# Compressibility (1/GPa) = 0.03179634
#
# Stress axis : x y z
#
# Youngs Moduli (GPa) = 40.77510 65.50199 84.84781
#
# Poissons Ratio (x) = 0.20721 0.10185
# Poissons Ratio (y) = 0.12899 0.46892
# Poissons Ratio (z) = 0.04895 0.36200
#
# Static dielectric constant tensor:
#      x y z
#    x 1.850590 0.000000 -0.012940 
#    y 0.000000 1.858940 0.000000 
#    z -0.012940 0.000000 1.898800 
# 
# From -- ./inp_files/47140.got.cif
#   From: 2010.05.17/outbox.cif.g08.bks.cpg/sg14_24_cif.got.tgz:47140.got - 2010.06.03 17:49:19.
