data_PCOD9241138
_publ_section_title
;
Structure prediction by ZEFSAII (Michael W. Deem and Ramdas Pophale) SiO2 
 PCOD9241138
Probable space group: P 21/C
;
_chemical_formula_sum "Si O2"
_cell_formula_units_Z 20
_cell_length_a 14.816997
_cell_length_b 11.927168
_cell_length_c 11.061493
_cell_angle_alpha 90.000000
_cell_angle_beta 141.531068
_cell_angle_gamma 90.000000
_cell_volume 1216.086948
_symmetry_space_group_name_H-M "P 21/C"
_symmetry_group_IT_number 14
_symmetry_cell_setting 'monoclinic'
loop_
_space_group_symop_operation_xyz
x,y,z
-x,1/2+y,1/2-z
-x,-y,-z
x,1/2-y,1/2+z
loop_
_atom_site_type_symbol
_atom_site_label
_atom_site_fract_x
_atom_site_fract_y
_atom_site_fract_z
Si Si1 0.087256 0.170222 0.558703
Si Si2 0.835414 0.094648 0.113598
Si Si3 0.329707 0.984688 0.832435
Si Si4 0.854836 0.165901 0.530366
Si Si5 0.954670 0.919161 0.061439
O O1 0.109081 0.300826 0.550572
O O2 0.985173 0.115781 0.346778
O O3 0.991080 0.163927 0.580004
O O4 0.232735 0.098025 0.723495
O O5 0.714729 0.072828 0.087645
O O6 0.811827 0.206430 0.011440
O O7 0.852401 0.989669 0.043138
O O8 0.269724 0.904960 0.663586
O O9 0.500000 0.000000 0.000000
O O10 0.906867 0.113927 0.711367
O O11 0.000000 0.000000 0.000000
#
# Coordination Sequence:
#
# PCOD9241138 Si02
#       5
#     4   4   4   4   4
#     4  10  19  34  61  81 109 149 191 236 289 329
#     4  10  19  36  58  83 112 142 189 248 277 329
#     4  11  22  40  57  81 119 162 189 222 291 359
#     4  10  19  37  58  84 112 141 193 244 282 329
#     4  11  19  31  60  92 108 134 188 252 287 318
#
# _framework density 16.446193000000001
#
# number of rings (size 3 to 8) (size 9 to 14) (size 15 to 20)
#    0.000    1.600    6.000    1.200    0.000    0.000 
#    3.600    0.000    0.000    2.400    0.000    0.000 
#    0.000    0.000    0.000    0.000    0.000    0.000 
#
# Total GULP energy -111584.185469 kJ/mol
# GULP energy per Si atom -5579.209273 kJ/mol
# Density = 1.640876 g / cm^3
# Si number density = 16.446193 Si / 1000 Ang^3
#
#
#
# Elastic Constant Matrix: (Units=GPa)
#
#
# Indices 1 2 3 4 5 6 
#
# 1 66.4057 55.9365 57.4190 0.0000 3.8040 0.0000
# 2 55.9365 145.7961 65.8504 0.0000 5.6096 0.0000
# 3 57.4190 65.8504 89.6049 0.0000 17.1954 0.0000
# 4 0.0000 0.0000 0.0000 20.0168 0.0000 -13.0544
# 5 3.8040 5.6096 17.1954 0.0000 29.9959 0.0000
# 6 0.0000 0.0000 0.0000 -13.0544 0.0000 38.4823
#
#
#
# Elastic Compliance Matrix: (Units=1/GPa)
#
#
# Indices 1 2 3 4 5 6 
#
# 1 0.038176 -0.004730 -0.022728 0.000000 0.009072 0.000000
# 2 -0.004730 0.011052 -0.005403 0.000000 0.001631 0.000000
# 3 -0.022728 -0.005403 0.032526 0.000000 -0.014753 0.000000
# 4 0.000000 0.000000 0.000000 0.064150 0.000000 0.021762
# 5 0.009072 0.001631 -0.014753 0.000000 0.040340 0.000000
# 6 0.000000 0.000000 0.000000 0.021762 0.000000 0.033368
#
#
# Mechanical properties :
#
#
# Convention : Reuss Voigt Hill
#
# Bulk Modulus (GPa) = 62.38138 73.35762 67.86950
# Shear Modulus (GPa) = 17.20106 25.87238 21.53672
#
# Velocity S-wave (km/s) = 3.23754 3.97060 3.62266
# Velocity P-wave (km/s) = 7.21031 8.10693 7.67173
#
# Compressibility (1/GPa) = 0.01603042
#
# Stress axis : x y z
#
# Youngs Moduli (GPa) = 26.19439 90.48491 30.74433
#
# Poissons Ratio (x) = 0.42804 0.69875
# Poissons Ratio (y) = 0.12391 0.16612
# Poissons Ratio (z) = 0.59534 0.48893
#
# Static dielectric constant tensor:
#      x y z
#    x 1.546690 0.000000 -0.030020 
#    y 0.000000 1.578440 0.000000 
#    z -0.030020 0.000000 1.526360 
# 
# From -- ./inp_files/7942.got.cif
#   From: 2010.05.17/outbox.cif.g08.bks.cpg/sg14_4_cif.got.tgz:7942.got - 2010.06.03 17:49:19.
