data_PCOD9241323
_publ_section_title
;
Structure prediction by ZEFSAII (Michael W. Deem and Ramdas Pophale) SiO2 
 PCOD9241323
Probable space group: P 21/C
;
_chemical_formula_sum "Si O2"
_cell_formula_units_Z 28
_cell_length_a 8.018429
_cell_length_b 24.747423
_cell_length_c 5.900266
_cell_angle_alpha 90.000000
_cell_angle_beta 72.392851
_cell_angle_gamma 90.000000
_cell_volume 1115.972388
_symmetry_space_group_name_H-M "P 21/C"
_symmetry_group_IT_number 14
_symmetry_cell_setting 'monoclinic'
loop_
_space_group_symop_operation_xyz
x,y,z
-x,1/2+y,1/2-z
-x,-y,-z
x,1/2-y,1/2+z
loop_
_atom_site_type_symbol
_atom_site_label
_atom_site_fract_x
_atom_site_fract_y
_atom_site_fract_z
Si Si1 0.207300 0.875770 0.723648
Si Si2 0.732258 0.513586 0.505723
Si Si3 0.525622 0.423310 0.146765
Si Si4 0.483155 0.830762 0.971384
Si Si5 0.008858 0.575170 0.669443
Si Si6 0.752817 0.892640 0.625409
Si Si7 0.203540 0.760932 0.587050
O O1 0.288248 0.925721 0.553925
O O2 0.209634 0.824944 0.559462
O O3 0.347451 0.858270 0.855162
O O4 0.035783 0.887098 0.938708
O O5 0.542168 0.523692 0.694957
O O6 0.807658 0.456930 0.387068
O O7 0.753124 0.558785 0.304524
O O8 0.865601 0.531364 0.652436
O O9 0.513810 0.371335 0.317379
O O10 0.386693 0.408569 0.009684
O O11 0.389324 0.772208 0.041254
O O12 0.674332 0.838602 0.776526
O O13 0.937170 0.606798 0.916105
O O14 0.123520 0.743677 0.376291
#
# Coordination Sequence:
#
# PCOD9241323 Si02
#       7
#     4   4   4   4   4   4   4
#     4  10  20  32  54  85 112 144 188 247 300 356
#     4   9  19  35  55  76 110 160 196 234 285 351
#     4   9  17  34  53  79 109 144 193 236 287 348
#     4   9  18  34  56  80 105 145 188 238 291 354
#     4  10  20  34  53  82 116 151 193 236 297 349
#     4   9  18  34  56  76 108 149 195 235 279 348
#     4  10  19  35  60  86 114 148 191 240 303 361
#
# _framework density 25.090229000000001
#
# number of rings (size 3 to 8) (size 9 to 14) (size 15 to 20)
#    0.000    2.571    1.429    0.429    0.000    1.714 
#    0.000    6.429    0.000   13.714    0.000    0.000 
#    0.000    0.000    0.000    0.000    0.000    0.000 
#
# Total GULP energy -156171.473621 kJ/mol
# GULP energy per Si atom -5577.552629 kJ/mol
# Density = 2.503312 g / cm^3
# Si number density = 25.090229 Si / 1000 Ang^3
#
#
#
# Elastic Constant Matrix: (Units=GPa)
#
#
# Indices 1 2 3 4 5 6 
#
# 1 58.1498 22.5780 18.9744 0.0000 4.2869 0.0000
# 2 22.5780 98.0867 37.2561 0.0000 -20.1145 0.0000
# 3 18.9744 37.2561 124.6409 0.0000 -17.5644 0.0000
# 4 0.0000 0.0000 0.0000 51.1524 0.0000 0.6778
# 5 4.2869 -20.1145 -17.5644 0.0000 52.0847 0.0000
# 6 0.0000 0.0000 0.0000 0.6778 0.0000 29.1651
#
#
#
# Elastic Compliance Matrix: (Units=1/GPa)
#
#
# Indices 1 2 3 4 5 6 
#
# 1 0.020035 -0.004612 -0.002262 0.000000 -0.004193 0.000000
# 2 -0.004612 0.013184 -0.002591 0.000000 0.004597 0.000000
# 3 -0.002262 -0.002591 0.009477 0.000000 0.002382 0.000000
# 4 0.000000 0.000000 0.000000 0.019555 0.000000 -0.000454
# 5 -0.004193 0.004597 0.002382 0.000000 0.022123 0.000000
# 6 0.000000 0.000000 0.000000 -0.000454 0.000000 0.034298
#
#
# Mechanical properties :
#
#
# Convention : Reuss Voigt Hill
#
# Bulk Modulus (GPa) = 42.07765 48.72159 45.39962
# Shear Modulus (GPa) = 34.35830 39.95170 37.15500
#
# Velocity S-wave (km/s) = 3.70454 3.99472 3.85236
# Velocity P-wave (km/s) = 5.92496 6.38261 6.15804
#
# Compressibility (1/GPa) = 0.02376558
#
# Stress axis : x y z
#
# Youngs Moduli (GPa) = 49.91235 75.85225 105.51379
#
# Poissons Ratio (x) = 0.34986 0.23869
# Poissons Ratio (y) = 0.23021 0.27335
# Poissons Ratio (z) = 0.11291 0.19651
#
# Static dielectric constant tensor:
#      x y z
#    x 2.063520 0.000000 -0.039520 
#    y 0.000000 2.006850 0.000000 
#    z -0.039520 0.000000 2.071040 
# 
# From -- ./inp_files/1919.got.cif
#   From: 2010.05.17/outbox.cif.g08.bks.cpg/sg14_1_cif.got.tgz:1919.got - 2010.06.03 17:49:19.
