data_PCOD9241901
_publ_section_title
;
Structure prediction by ZEFSAII (Michael W. Deem and Ramdas Pophale) SiO2 
 PCOD9241901
Probable space group: P 21/C
;
_chemical_formula_sum "Si O2"
_cell_formula_units_Z 26
_cell_length_a 16.125919
_cell_length_b 13.881510
_cell_length_c 13.073983
_cell_angle_alpha 90.000000
_cell_angle_beta 154.760069
_cell_angle_gamma 90.000000
_cell_volume 1247.947353
_symmetry_space_group_name_H-M "P 21/C"
_symmetry_group_IT_number 14
_symmetry_cell_setting 'monoclinic'
loop_
_space_group_symop_operation_xyz
x,y,z
-x,1/2+y,1/2-z
-x,-y,-z
x,1/2-y,1/2+z
loop_
_atom_site_type_symbol
_atom_site_label
_atom_site_fract_x
_atom_site_fract_y
_atom_site_fract_z
Si Si1 0.000000 0.000000 0.500000
Si Si2 0.437613 0.822385 0.295352
Si Si3 0.771923 0.004363 0.401603
Si Si4 0.222443 0.460545 0.861020
Si Si5 0.430348 0.365550 0.457492
Si Si6 0.868660 0.351647 0.364866
Si Si7 0.260783 0.664637 0.377001
O O1 0.147185 0.935070 0.741432
O O2 0.931356 0.068950 0.524892
O O3 0.569177 0.916013 0.428996
O O4 0.570970 0.731143 0.478451
O O5 0.282490 0.838411 0.211414
O O6 0.332315 0.808256 0.069832
O O7 0.812608 0.963331 0.556522
O O8 0.567365 0.059050 0.170699
O O9 0.762025 0.925062 0.294604
O O10 0.204706 0.567004 0.795690
O O11 0.066416 0.392704 0.631815
O O12 0.548035 0.343002 0.483637
O O13 0.875321 0.250760 0.314500
#
# Coordination Sequence:
#
# PCOD9241901 Si02
#       7
#     2   4   4   4   4   4   4
#     4  10  22  34  64  88 124 156 202 262 308 358
#     4  11  21  39  64  88 120 167 202 252 310 369
#     4  10  19  38  59  89 119 159 204 259 303 367
#     4  11  22  40  63  86 125 168 201 250 309 372
#     4   9  20  35  59  86 118 150 207 255 300 356
#     4  10  24  40  58  90 128 156 205 255 305 368
#     4  10  20  40  58  89 120 158 200 259 304 359
#
# _framework density 20.834212000000001
#
# number of rings (size 3 to 8) (size 9 to 14) (size 15 to 20)
#    0.000    1.846    1.538    2.308    2.154    0.000 
#    0.000    0.000    3.385    0.000    0.000    0.000 
#    0.000    0.000    0.000    0.000    0.000    0.000 
#
# Total GULP energy -144764.513156 kJ/mol
# GULP energy per Si atom -5567.865891 kJ/mol
# Density = 2.078679 g / cm^3
# Si number density = 20.834212 Si / 1000 Ang^3
#
#
#
# Elastic Constant Matrix: (Units=GPa)
#
#
# Indices 1 2 3 4 5 6 
#
# 1 61.2459 19.9183 32.8766 0.0000 -22.7967 0.0000
# 2 19.9183 92.5864 33.8939 0.0000 -21.2023 0.0000
# 3 32.8766 33.8939 58.4459 0.0000 -29.0105 0.0000
# 4 0.0000 0.0000 0.0000 28.2264 0.0000 -1.7538
# 5 -22.7967 -21.2023 -29.0105 0.0000 33.0607 0.0000
# 6 0.0000 0.0000 0.0000 -1.7538 0.0000 25.6579
#
#
#
# Elastic Compliance Matrix: (Units=1/GPa)
#
#
# Indices 1 2 3 4 5 6 
#
# 1 0.024693 0.000229 -0.009742 0.000000 0.008626 0.000000
# 2 0.000229 0.013910 -0.006536 0.000000 0.003343 0.000000
# 3 -0.009742 -0.006536 0.037143 0.000000 0.021684 0.000000
# 4 0.000000 0.000000 0.000000 0.035579 0.000000 0.002432
# 5 0.008626 0.003343 0.021684 0.000000 0.057367 0.000000
# 6 0.000000 0.000000 0.000000 0.002432 0.000000 0.039141
#
#
# Mechanical properties :
#
#
# Convention : Reuss Voigt Hill
#
# Bulk Modulus (GPa) = 22.91001 42.85064 32.88032
# Shear Modulus (GPa) = 19.64807 25.76164 22.70486
#
# Velocity S-wave (km/s) = 3.07427 3.52021 3.30477
# Velocity P-wave (km/s) = 4.86022 6.09382 5.51164
#
# Compressibility (1/GPa) = 0.04364905
#
# Stress axis : x y z
#
# Youngs Moduli (GPa) = 40.49745 71.89236 26.92298
#
# Poissons Ratio (x) = -0.01648 0.26227
# Poissons Ratio (y) = -0.00928 0.17597
# Poissons Ratio (z) = 0.39451 0.46988
#
# Static dielectric constant tensor:
#      x y z
#    x 1.250400 0.000000 -0.329220 
#    y 0.000000 1.564870 0.000000 
#    z -0.329220 0.000000 1.528540 
# 
# From -- ./inp_files/25036.got.cif
#   From: 2010.05.17/outbox.cif.g08.bks.cpg/sg14_13_cif.got.tgz:25036.got - 2010.06.03 17:49:19.
