data_PCOD9241473
_publ_section_title
;
Structure prediction by ZEFSAII (Michael W. Deem and Ramdas Pophale) SiO2 
 PCOD9241473
Probable space group: P 21/C
;
_chemical_formula_sum "Si O2"
_cell_formula_units_Z 32
_cell_length_a 20.402247
_cell_length_b 8.592454
_cell_length_c 26.945909
_cell_angle_alpha 90.000000
_cell_angle_beta 19.235767
_cell_angle_gamma 90.000000
_cell_volume 1556.272430
_symmetry_space_group_name_H-M "P 21/C"
_symmetry_group_IT_number 14
_symmetry_cell_setting 'monoclinic'
loop_
_space_group_symop_operation_xyz
x,y,z
-x,1/2+y,1/2-z
-x,-y,-z
x,1/2-y,1/2+z
loop_
_atom_site_type_symbol
_atom_site_label
_atom_site_fract_x
_atom_site_fract_y
_atom_site_fract_z
Si Si1 0.383112 0.435460 0.535615
Si Si2 0.712397 0.750173 0.638494
Si Si3 0.033695 0.419385 0.616329
Si Si4 0.984344 0.867482 0.299864
Si Si5 0.674850 0.470799 0.086722
Si Si6 0.571102 0.673601 0.340267
Si Si7 0.657873 0.866068 0.377949
Si Si8 0.824680 0.310272 0.435732
O O1 0.500000 0.500000 0.500000
O O2 0.166856 0.515561 0.682711
O O3 0.520527 0.497159 0.392620
O O4 0.361379 0.256207 0.563544
O O5 0.536419 0.619256 0.762066
O O6 0.726583 0.805176 0.684969
O O7 0.902542 0.668037 0.478697
O O8 0.674355 0.901994 0.631025
O O9 0.975564 0.289755 0.698012
O O10 0.867343 0.547464 0.726573
O O11 0.209605 0.523107 0.514345
O O12 0.003445 0.832585 0.227964
O O13 0.771882 0.933267 0.470697
O O14 0.828437 0.323092 0.974964
O O15 0.621035 0.773655 0.352992
O O16 0.363162 0.731017 0.464840
O O17 0.500000 0.000000 0.500000
#
# Coordination Sequence:
#
# PCOD9241473 Si02
#       8
#     4   4   4   4   4   4   4   4
#     4   9  18  35  58  80 111 149 190 241 295 347
#     4  10  21  38  56  82 119 162 201 238 296 366
#     4  11  22  35  59  87 120 156 197 249 301 362
#     4  10  20  35  57  87 118 153 198 250 305 356
#     4  10  20  35  57  81 119 156 193 247 297 352
#     4   9  20  38  58  80 116 155 196 241 289 360
#     4  11  22  38  61  89 120 156 198 254 309 349
#     4  10  19  36  58  88 116 148 198 249 298 345
#
# _framework density 20.561952000000002
#
# number of rings (size 3 to 8) (size 9 to 14) (size 15 to 20)
#    0.000    2.000    0.000    5.250    0.000    2.500 
#    0.000   10.000    0.000   25.500    0.000    0.000 
#    0.000    0.000    0.000    0.000    0.000    0.000 
#
# Total GULP energy -178231.122322 kJ/mol
# GULP energy per Si atom -5569.722573 kJ/mol
# Density = 2.051515 g / cm^3
# Si number density = 20.561952 Si / 1000 Ang^3
#
#
#
# Elastic Constant Matrix: (Units=GPa)
#
#
# Indices 1 2 3 4 5 6 
#
# 1 75.7085 39.6620 35.0888 0.0000 16.4202 0.0000
# 2 39.6620 143.4773 41.1883 0.0000 8.2796 0.0000
# 3 35.0888 41.1883 67.3848 0.0000 24.6809 0.0000
# 4 0.0000 0.0000 0.0000 34.5465 0.0000 8.0052
# 5 16.4202 8.2796 24.6809 0.0000 37.5098 0.0000
# 6 0.0000 0.0000 0.0000 8.0052 0.0000 26.1202
#
#
#
# Elastic Compliance Matrix: (Units=1/GPa)
#
#
# Indices 1 2 3 4 5 6 
#
# 1 0.018562 -0.003033 -0.006694 0.000000 -0.003052 0.000000
# 2 -0.003033 0.009067 -0.004895 0.000000 0.002548 0.000000
# 3 -0.006694 -0.004895 0.026152 0.000000 -0.013197 0.000000
# 4 0.000000 0.000000 0.000000 0.031159 0.000000 -0.009550
# 5 -0.003052 0.002548 -0.013197 0.000000 0.036116 0.000000
# 6 0.000000 0.000000 0.000000 -0.009550 0.000000 0.041211
#
#
# Mechanical properties :
#
#
# Convention : Reuss Voigt Hill
#
# Bulk Modulus (GPa) = 40.75848 57.60543 49.18195
# Shear Modulus (GPa) = 25.03874 31.01072 28.02473
#
# Velocity S-wave (km/s) = 3.49337 3.88772 3.69581
# Velocity P-wave (km/s) = 6.01139 6.94470 6.49483
#
# Compressibility (1/GPa) = 0.02453477
#
# Stress axis : x y z
#
# Youngs Moduli (GPa) = 53.87366 110.29461 38.23870
#
# Poissons Ratio (x) = 0.33458 0.25596
# Poissons Ratio (y) = 0.16342 0.18720
# Poissons Ratio (z) = 0.36062 0.53994
#
# Static dielectric constant tensor:
#      x y z
#    x 1.789590 0.000000 -0.029390 
#    y 0.000000 1.787410 0.000000 
#    z -0.029390 0.000000 1.820220 
# 
# From -- ./inp_files/77974.got.cif
#   From: 2010.05.17/outbox.cif.g08.bks.cpg/sg14_39_cif.got.tgz:77974.got - 2010.06.03 17:49:19.
