data_PCOD9241661
_publ_section_title
;
Structure prediction by ZEFSAII (Michael W. Deem and Ramdas Pophale) SiO2 
 PCOD9241661
Probable space group: P 21/C
;
_chemical_formula_sum "Si O2"
_cell_formula_units_Z 20
_cell_length_a 15.682450
_cell_length_b 10.219075
_cell_length_c 19.728659
_cell_angle_alpha 90.000000
_cell_angle_beta 18.339586
_cell_angle_gamma 90.000000
_cell_volume 994.829181
_symmetry_space_group_name_H-M "P 21/C"
_symmetry_group_IT_number 14
_symmetry_cell_setting 'monoclinic'
loop_
_space_group_symop_operation_xyz
x,y,z
-x,1/2+y,1/2-z
-x,-y,-z
x,1/2-y,1/2+z
loop_
_atom_site_type_symbol
_atom_site_label
_atom_site_fract_x
_atom_site_fract_y
_atom_site_fract_z
Si Si1 0.279014 0.631774 0.428290
Si Si2 0.467220 0.057156 0.402534
Si Si3 0.446904 0.733176 0.933980
Si Si4 0.073055 0.419498 0.675748
Si Si5 0.699378 0.729607 0.375750
O O1 0.411599 0.622034 0.255229
O O2 0.454170 0.700447 0.355267
O O3 0.217037 0.486505 0.503911
O O4 0.999169 0.712477 0.636040
O O5 0.478372 0.151655 0.458641
O O6 0.583249 0.911766 0.328659
O O7 0.147918 0.025854 0.631744
O O8 0.573499 0.812850 0.899846
O O9 0.130676 0.699317 0.187938
O O10 0.266550 0.374998 0.590058
#
# Coordination Sequence:
#
# PCOD9241661 Si02
#       5
#     4   4   4   4   4
#     4  10  20  36  55  76 108 140 167 218 261 302
#     4   9  20  34  56  77 105 134 178 210 257 311
#     4   9  20  36  53  80 105 133 182 209 253 318
#     4   8  20  35  54  74 109 136 171 214 262 303
#     4  10  19  37  54  78 107 135 173 218 256 306
#
# _framework density 20.103954000000002
#
# number of rings (size 3 to 8) (size 9 to 14) (size 15 to 20)
#    1.200    1.600    0.000    0.600    2.800    1.600 
#    0.000    1.000    0.000    0.000    0.000    0.000 
#    0.000    0.000    0.000    0.000    0.000    0.000 
#
# Total GULP energy -111378.234010 kJ/mol
# GULP energy per Si atom -5568.911701 kJ/mol
# Density = 2.005820 g / cm^3
# Si number density = 20.103954 Si / 1000 Ang^3
#
#
#
# Elastic Constant Matrix: (Units=GPa)
#
#
# Indices 1 2 3 4 5 6 
#
# 1 102.1582 -3.8491 22.4977 0.0000 3.0407 0.0000
# 2 -3.8491 11.0219 -6.3058 0.0000 -6.6693 0.0000
# 3 22.4977 -6.3058 33.3019 0.0000 16.0256 0.0000
# 4 0.0000 0.0000 0.0000 -525.0258 0.0000 -672.1215
# 5 3.0407 -6.6693 16.0256 0.0000 20.3915 0.0000
# 6 0.0000 0.0000 0.0000 -672.1215 0.0000 -832.0154
#
#
#
# Elastic Compliance Matrix: (Units=1/GPa)
#
#
# Indices 1 2 3 4 5 6 
#
# 1 0.012225 0.002534 -0.011741 0.000000 0.008233 0.000000
# 2 0.002534 0.114344 0.003417 0.000000 0.034335 0.000000
# 3 -0.011741 0.003417 0.059868 0.000000 -0.044182 0.000000
# 4 0.000000 0.000000 0.000000 0.055774 0.000000 -0.045055
# 5 0.008233 0.034335 -0.044182 0.000000 0.093765 0.000000
# 6 0.000000 0.000000 0.000000 -0.045055 0.000000 0.035195
#
#
# Mechanical properties :
#
#
# Convention : Reuss Voigt Hill
#
# Bulk Modulus (GPa) = 5.71894 19.01862 12.36878
# Shear Modulus (GPa) = 11.33693 -258.38734 -123.52520
#
# Velocity S-wave (km/s) = 2.37727 -11.34921 -7.84708
# Velocity P-wave (km/s) = 3.22274 12.73809 8.71415
#
# Compressibility (1/GPa) = 0.17485747
#
# Stress axis : x y z
#
# Youngs Moduli (GPa) = 81.80136 8.74553 16.70329
#
# Poissons Ratio (x) = -0.02216 0.19611
# Poissons Ratio (y) = -0.20726 -0.05707
# Poissons Ratio (z) = 0.96040 -0.02988
#
# Static dielectric constant tensor:
#      x y z
#    x 1.678170 0.000000 -0.033390 
#    y 0.000000 1.781940 0.000000 
#    z -0.033390 0.000000 1.696450 
# 
# From -- ./inp_files/29920.got.cif
#   From: 2010.05.17/outbox.cif.g08.bks.cpg/sg14_15_cif.got.tgz:29920.got - 2010.06.03 17:49:19.
