data_PCOD9241294
_publ_section_title
;
Structure prediction by ZEFSAII (Michael W. Deem and Ramdas Pophale) SiO2 
 PCOD9241294
Probable space group: P 21/C
;
_chemical_formula_sum "Si O2"
_cell_formula_units_Z 32
_cell_length_a 12.178160
_cell_length_b 7.810957
_cell_length_c 18.372627
_cell_angle_alpha 90.000000
_cell_angle_beta 130.423114
_cell_angle_gamma 90.000000
_cell_volume 1330.453702
_symmetry_space_group_name_H-M "P 21/C"
_symmetry_group_IT_number 14
_symmetry_cell_setting 'monoclinic'
loop_
_space_group_symop_operation_xyz
x,y,z
-x,1/2+y,1/2-z
-x,-y,-z
x,1/2-y,1/2+z
loop_
_atom_site_type_symbol
_atom_site_label
_atom_site_fract_x
_atom_site_fract_y
_atom_site_fract_z
Si Si1 0.154541 0.947551 0.146875
Si Si2 0.908617 0.936971 0.307884
Si Si3 0.651469 0.633263 0.905200
Si Si4 0.124479 0.809460 0.282038
Si Si5 0.543647 0.970890 0.775176
Si Si6 0.581050 0.888953 0.138202
Si Si7 0.547370 0.232701 0.552508
Si Si8 0.952124 0.708933 0.979755
O O1 0.095895 0.939531 0.203413
O O2 0.327089 0.956218 0.218336
O O3 0.101451 0.116145 0.083390
O O4 0.095405 0.779764 0.079786
O O5 0.746767 0.861199 0.231513
O O6 0.954516 0.922307 0.412594
O O7 0.020635 0.836405 0.305305
O O8 0.896651 0.124787 0.265902
O O9 0.599690 0.472592 0.835244
O O10 0.569110 0.641598 0.945933
O O11 0.822200 0.660186 0.978895
O O12 0.590198 0.793666 0.831677
O O13 0.290394 0.836314 0.376910
O O14 0.514254 0.091916 0.831376
O O15 0.568534 0.074780 0.094057
O O16 0.520080 0.752424 0.055958
#
# Coordination Sequence:
#
# PCOD9241294 Si02
#       8
#     4   4   4   4   4   4   4   4
#     4  10  22  38  60  87 116 152 194 237 283 338
#     4  11  23  39  60  84 117 153 191 237 288 343
#     4  10  19  35  59  84 112 145 187 236 283 334
#     4  11  23  39  60  84 117 153 191 237 288 343
#     4  10  19  35  59  84 112 145 187 236 283 334
#     4   9  19  35  58  84 110 147 191 232 278 335
#     4   9  19  35  58  84 110 147 191 232 278 335
#     4  10  22  38  60  87 116 152 194 237 283 338
#
# _framework density 24.051945
#
# number of rings (size 3 to 8) (size 9 to 14) (size 15 to 20)
#    0.000    2.000    2.500    0.750    3.500    0.500 
#    0.000    0.000    0.000    3.750    0.000    0.000 
#    0.000    0.000    0.000    0.000    0.000    0.000 
#
# Total GULP energy -179024.280737 kJ/mol
# GULP energy per Si atom -5594.508773 kJ/mol
# Density = 2.399720 g / cm^3
# Si number density = 24.051945 Si / 1000 Ang^3
#
#
#
# Elastic Constant Matrix: (Units=GPa)
#
#
# Indices 1 2 3 4 5 6 
#
# 1 107.3970 24.9891 9.2865 0.0000 -3.4022 0.0000
# 2 24.9891 68.3703 -1.8919 0.0000 14.1320 0.0000
# 3 9.2865 -1.8919 49.6426 0.0000 0.4190 0.0000
# 4 0.0000 0.0000 0.0000 24.6065 0.0000 0.1484
# 5 -3.4022 14.1320 0.4190 0.0000 35.2298 0.0000
# 6 0.0000 0.0000 0.0000 0.1484 0.0000 28.0129
#
#
#
# Elastic Compliance Matrix: (Units=1/GPa)
#
#
# Indices 1 2 3 4 5 6 
#
# 1 0.010650 -0.004548 -0.002190 0.000000 0.002879 0.000000
# 2 -0.004548 0.017913 0.001598 0.000000 -0.007644 0.000000
# 3 -0.002190 0.001598 0.020624 0.000000 -0.001098 0.000000
# 4 0.000000 0.000000 0.000000 0.040641 0.000000 -0.000215
# 5 0.002879 -0.007644 -0.001098 0.000000 0.031742 0.000000
# 6 0.000000 0.000000 0.000000 -0.000215 0.000000 0.035699
#
#
# Mechanical properties :
#
#
# Convention : Reuss Voigt Hill
#
# Bulk Modulus (GPa) = 25.70274 32.24193 28.97233
# Shear Modulus (GPa) = 27.69804 30.43824 29.06814
#
# Velocity S-wave (km/s) = 3.39719 3.56128 3.48020
# Velocity P-wave (km/s) = 5.10857 5.50858 5.31234
#
# Compressibility (1/GPa) = 0.03890636
#
# Stress axis : x y z
#
# Youngs Moduli (GPa) = 93.89585 55.82603 48.48760
#
# Poissons Ratio (x) = 0.25391 0.10618
# Poissons Ratio (y) = 0.42706 -0.07748
# Poissons Ratio (z) = 0.20563 -0.08921
#
# Static dielectric constant tensor:
#      x y z
#    x 1.837440 0.000000 -0.008000 
#    y 0.000000 2.024630 0.000000 
#    z -0.008000 0.000000 1.888920 
# 
# From -- ./inp_files/57588.got.cif
#   From: 2010.05.17/outbox.cif.g08.bks.cpg/sg14_29_cif.got.tgz:57588.got - 2010.06.03 17:49:19.
