data_PCOD9241929
_publ_section_title
;
Structure prediction by ZEFSAII (Michael W. Deem and Ramdas Pophale) SiO2 
 PCOD9241929
Probable space group: P 21/C
;
_chemical_formula_sum "Si O2"
_cell_formula_units_Z 28
_cell_length_a 14.089161
_cell_length_b 8.911755
_cell_length_c 20.874111
_cell_angle_alpha 90.000000
_cell_angle_beta 150.167976
_cell_angle_gamma 90.000000
_cell_volume 1303.807764
_symmetry_space_group_name_H-M "P 21/C"
_symmetry_group_IT_number 14
_symmetry_cell_setting 'monoclinic'
loop_
_space_group_symop_operation_xyz
x,y,z
-x,1/2+y,1/2-z
-x,-y,-z
x,1/2-y,1/2+z
loop_
_atom_site_type_symbol
_atom_site_label
_atom_site_fract_x
_atom_site_fract_y
_atom_site_fract_z
Si Si1 0.886890 0.745559 0.049664
Si Si2 0.305988 0.459543 0.467506
Si Si3 0.856567 0.185488 0.912163
Si Si4 0.648310 0.024386 0.246041
Si Si5 0.768661 0.252970 0.000887
Si Si6 0.527291 0.970267 0.312128
Si Si7 0.119577 0.454786 0.224270
O O1 0.961377 0.823532 0.027652
O O2 0.039889 0.622551 0.163947
O O3 0.846469 0.865850 0.080710
O O4 0.692115 0.652073 0.923497
O O5 0.511868 0.403498 0.612475
O O6 0.298481 0.630252 0.487874
O O7 0.259468 0.447014 0.366151
O O8 0.787213 0.356321 0.859729
O O9 0.680549 0.080830 0.786573
O O10 0.861705 0.177018 0.991826
O O11 0.522102 0.971439 0.231476
O O12 0.775721 0.909081 0.280695
O O13 0.936966 0.352671 0.129175
O O14 0.602801 0.370045 0.882252
#
# Coordination Sequence:
#
# PCOD9241929 Si02
#       7
#     4   4   4   4   4   4   4
#     4  10  22  37  63  83 114 156 190 238 295 335
#     4  12  21  37  57  86 118 151 195 238 279 343
#     4  10  19  38  61  89 115 145 193 241 293 343
#     4  10  20  36  62  84 110 155 194 236 286 343
#     4  10  22  37  58  88 116 150 189 237 294 338
#     4  10  19  39  61  85 122 146 185 247 292 341
#     4  10  22  40  58  80 116 158 198 228 281 349
#
# _framework density 21.475559000000001
#
# number of rings (size 3 to 8) (size 9 to 14) (size 15 to 20)
#    0.000    1.714    2.857    2.143    0.000    4.000 
#    2.571    0.000    0.000    3.429    0.000    0.000 
#    0.000    0.000    0.000    0.000    0.000    0.000 
#
# Total GULP energy -156312.051205 kJ/mol
# GULP energy per Si atom -5582.573257 kJ/mol
# Density = 2.142668 g / cm^3
# Si number density = 21.475559 Si / 1000 Ang^3
#
#
#
# Elastic Constant Matrix: (Units=GPa)
#
#
# Indices 1 2 3 4 5 6 
#
# 1 52.9913 19.3317 -8.6658 0.0000 -3.9994 0.0000
# 2 19.3317 59.8214 0.0173 0.0000 2.5155 0.0000
# 3 -8.6658 0.0173 60.3581 0.0000 -15.2395 0.0000
# 4 0.0000 0.0000 0.0000 21.4732 0.0000 6.8308
# 5 -3.9994 2.5155 -15.2395 0.0000 33.5139 0.0000
# 6 0.0000 0.0000 0.0000 6.8308 0.0000 30.2733
#
#
#
# Elastic Compliance Matrix: (Units=1/GPa)
#
#
# Indices 1 2 3 4 5 6 
#
# 1 0.022810 -0.007600 0.004641 0.000000 0.005403 0.000000
# 2 -0.007600 0.019309 -0.001911 0.000000 -0.003225 0.000000
# 3 0.004641 -0.001911 0.019669 0.000000 0.009641 0.000000
# 4 0.000000 0.000000 0.000000 0.050171 0.000000 -0.011320
# 5 0.005403 -0.003225 0.009641 0.000000 0.035109 0.000000
# 6 0.000000 0.000000 0.000000 -0.011320 0.000000 0.035587
#
#
# Mechanical properties :
#
#
# Convention : Reuss Voigt Hill
#
# Bulk Modulus (GPa) = 19.21274 21.61524 20.41399
# Shear Modulus (GPa) = 23.83866 27.88459 25.86163
#
# Velocity S-wave (km/s) = 3.33534 3.60729 3.47397
# Velocity P-wave (km/s) = 4.87836 5.23803 5.06139
#
# Compressibility (1/GPa) = 0.05204879
#
# Stress axis : x y z
#
# Youngs Moduli (GPa) = 43.83976 51.79051 50.84153
#
# Poissons Ratio (x) = 0.39360 -0.23597
# Poissons Ratio (y) = 0.33318 0.09716
# Poissons Ratio (z) = -0.20347 0.09897
#
# Static dielectric constant tensor:
#      x y z
#    x 1.807230 0.000000 0.051450 
#    y 0.000000 1.804900 0.000000 
#    z 0.051450 0.000000 1.805980 
# 
# From -- ./inp_files/43283.got.cif
#   From: 2010.05.17/outbox.cif.g08.bks.cpg/sg14_22_cif.got.tgz:43283.got - 2010.06.03 17:49:19.
