data_PCOD9241703
_publ_section_title
;
Structure prediction by ZEFSAII (Michael W. Deem and Ramdas Pophale) SiO2 
 PCOD9241703
Probable space group: P 21/C
;
_chemical_formula_sum "Si O2"
_cell_formula_units_Z 28
_cell_length_a 20.259392
_cell_length_b 11.865275
_cell_length_c 17.226328
_cell_angle_alpha 90.000000
_cell_angle_beta 160.513103
_cell_angle_gamma 90.000000
_cell_volume 1381.375072
_symmetry_space_group_name_H-M "P 21/C"
_symmetry_group_IT_number 14
_symmetry_cell_setting 'monoclinic'
loop_
_space_group_symop_operation_xyz
x,y,z
-x,1/2+y,1/2-z
-x,-y,-z
x,1/2-y,1/2+z
loop_
_atom_site_type_symbol
_atom_site_label
_atom_site_fract_x
_atom_site_fract_y
_atom_site_fract_z
Si Si1 0.672216 0.585074 0.587094
Si Si2 0.470689 0.638742 0.514068
Si Si3 0.958141 0.632877 0.452271
Si Si4 0.922068 0.173996 0.521009
Si Si5 0.346848 0.754240 0.654933
Si Si6 0.676900 0.175665 0.545471
Si Si7 0.542600 0.556841 0.963166
O O1 0.651440 0.616806 0.655961
O O2 0.571719 0.462194 0.473284
O O3 0.533464 0.669322 0.386073
O O4 0.892998 0.597190 0.798622
O O5 0.461764 0.755888 0.548474
O O6 0.275621 0.637144 0.243179
O O7 0.000000 0.500000 0.500000
O O8 0.029838 0.700978 0.456930
O O9 0.095330 0.682402 0.672318
O O10 0.723640 0.638697 0.187254
O O11 0.851678 0.187856 0.530868
O O12 0.339052 0.763115 0.554208
O O13 0.386288 0.635236 0.743430
O O14 0.611901 0.044906 0.482853
O O15 0.500000 0.500000 0.000000
#
# Coordination Sequence:
#
# PCOD9241703 Si02
#       7
#     4   4   4   4   4   4   4
#     4  10  19  37  63  85 118 165 206 257 319 385
#     4   9  20  37  60  86 118 161 215 254 310 394
#     4   9  18  37  61  85 115 165 217 256 309 389
#     4  10  19  37  59  87 121 162 208 256 312 391
#     4  11  23  38  59  95 130 159 212 274 326 375
#     4  10  23  39  60  93 132 160 214 278 324 376
#     4  11  21  41  70  91 125 179 221 262 320 402
#
# _framework density 20.269656999999999
#
# number of rings (size 3 to 8) (size 9 to 14) (size 15 to 20)
#    0.000    2.000    1.429    3.857    2.000    0.000 
#    2.571    2.857    0.000    0.000    0.000    0.000 
#    0.000    0.000    0.000    0.000    0.000    0.000 
#
# Total GULP energy -155921.690456 kJ/mol
# GULP energy per Si atom -5568.631802 kJ/mol
# Density = 2.022352 g / cm^3
# Si number density = 20.269657 Si / 1000 Ang^3
#
#
#
# Elastic Constant Matrix: (Units=GPa)
#
#
# Indices 1 2 3 4 5 6 
#
# 1 105.6803 14.2180 42.9705 0.0000 2.6770 0.0000
# 2 14.2180 75.9844 3.7651 0.0000 -3.5246 0.0000
# 3 42.9705 3.7651 45.5660 0.0000 8.1767 0.0000
# 4 0.0000 0.0000 0.0000 29.2922 0.0000 7.6471
# 5 2.6770 -3.5246 8.1767 0.0000 29.4415 0.0000
# 6 0.0000 0.0000 0.0000 7.6471 0.0000 27.1205
#
#
#
# Elastic Compliance Matrix: (Units=1/GPa)
#
#
# Indices 1 2 3 4 5 6 
#
# 1 0.015888 -0.002098 -0.015266 0.000000 0.002544 0.000000
# 2 -0.002098 0.013603 0.000556 0.000000 0.001665 0.000000
# 3 -0.015266 0.000556 0.037925 0.000000 -0.009078 0.000000
# 4 0.000000 0.000000 0.000000 0.036851 0.000000 -0.010391
# 5 0.002544 0.001665 -0.009078 0.000000 0.036455 0.000000
# 6 0.000000 0.000000 0.000000 -0.010391 0.000000 0.039802
#
#
# Mechanical properties :
#
#
# Convention : Reuss Voigt Hill
#
# Bulk Modulus (GPa) = 29.58583 38.79312 34.18948
# Shear Modulus (GPa) = 22.18210 28.25599 25.21904
#
# Velocity S-wave (km/s) = 3.31169 3.73769 3.53112
# Velocity P-wave (km/s) = 5.40840 6.14875 5.79042
#
# Compressibility (1/GPa) = 0.03379996
#
# Stress axis : x y z
#
# Youngs Moduli (GPa) = 62.94252 73.51370 26.36757
#
# Poissons Ratio (x) = 0.15426 0.40252
# Poissons Ratio (y) = 0.13208 -0.01466
# Poissons Ratio (z) = 0.96086 -0.04088
#
# Static dielectric constant tensor:
#      x y z
#    x 1.740500 0.000000 0.027330 
#    y 0.000000 1.792290 0.000000 
#    z 0.027330 0.000000 1.750610 
# 
# From -- ./inp_files/61329.got.cif
#   From: 2010.05.17/outbox.cif.g08.bks.cpg/sg14_31_cif.got.tgz:61329.got - 2010.06.03 17:49:19.
