data_PCOD9241398
_publ_section_title
;
Structure prediction by ZEFSAII (Michael W. Deem and Ramdas Pophale) SiO2 
 PCOD9241398
Probable space group: P 21/C
;
_chemical_formula_sum "Si O2"
_cell_formula_units_Z 20
_cell_length_a 18.141559
_cell_length_b 6.783817
_cell_length_c 8.686639
_cell_angle_alpha 90.000000
_cell_angle_beta 130.708036
_cell_angle_gamma 90.000000
_cell_volume 810.390366
_symmetry_space_group_name_H-M "P 21/C"
_symmetry_group_IT_number 14
_symmetry_cell_setting 'monoclinic'
loop_
_space_group_symop_operation_xyz
x,y,z
-x,1/2+y,1/2-z
-x,-y,-z
x,1/2-y,1/2+z
loop_
_atom_site_type_symbol
_atom_site_label
_atom_site_fract_x
_atom_site_fract_y
_atom_site_fract_z
Si Si1 0.874903 0.552209 0.466871
Si Si2 0.043482 0.626046 0.921483
Si Si3 0.216516 0.026341 0.455049
Si Si4 0.298864 0.882944 0.074735
Si Si5 0.610970 0.453762 0.618920
O O1 0.923328 0.343448 0.486680
O O2 0.830384 0.641727 0.250478
O O3 0.784337 0.510425 0.457209
O O4 0.961622 0.650423 0.679082
O O5 0.137587 0.519938 0.977870
O O6 0.000000 0.500000 0.000000
O O7 0.244016 0.808151 0.427845
O O8 0.316265 0.084544 0.675650
O O9 0.365767 0.770816 0.292147
O O10 0.358652 0.977147 0.017262
O O11 0.500000 0.500000 0.500000
#
# Coordination Sequence:
#
# PCOD9241398 Si02
#       5
#     4   4   4   4   4
#     4  11  20  37  61  90 123 166 199 244 297 370
#     4  11  21  32  60  90 123 166 204 239 298 359
#     4   9  18  35  56  83 119 153 199 239 296 356
#     4   9  17  35  58  82 112 152 192 237 308 350
#     4  10  19  35  64  84 109 151 203 247 295 364
#
# _framework density 24.679466000000001
#
# number of rings (size 3 to 8) (size 9 to 14) (size 15 to 20)
#    1.200    0.800    2.000    4.200    0.000    0.000 
#    0.000    4.000   13.200    0.000    0.000    0.000 
#    0.000    0.000    0.000    0.000    0.000    0.000 
#
# Total GULP energy -111897.000691 kJ/mol
# GULP energy per Si atom -5594.850035 kJ/mol
# Density = 2.462329 g / cm^3
# Si number density = 24.679466 Si / 1000 Ang^3
#
#
#
# Elastic Constant Matrix: (Units=GPa)
#
#
# Indices 1 2 3 4 5 6 
#
# 1 212.4685 32.4704 91.8732 0.0000 6.4366 0.0000
# 2 32.4704 47.7826 29.3765 0.0000 4.8598 0.0000
# 3 91.8732 29.3765 141.7774 0.0000 14.1375 0.0000
# 4 0.0000 0.0000 0.0000 28.9020 0.0000 -2.8681
# 5 6.4366 4.8598 14.1375 0.0000 49.5277 0.0000
# 6 0.0000 0.0000 0.0000 -2.8681 0.0000 34.1845
#
#
#
# Elastic Compliance Matrix: (Units=1/GPa)
#
#
# Indices 1 2 3 4 5 6 
#
# 1 0.006740 -0.002193 -0.003960 0.000000 0.000470 0.000000
# 2 -0.002193 0.024742 -0.003594 0.000000 -0.001117 0.000000
# 3 -0.003960 -0.003594 0.010579 0.000000 -0.002152 0.000000
# 4 0.000000 0.000000 0.000000 0.034890 0.000000 0.002927
# 5 0.000470 -0.001117 -0.002152 0.000000 0.020854 0.000000
# 6 0.000000 0.000000 0.000000 0.002927 0.000000 0.029499
#
#
# Mechanical properties :
#
#
# Convention : Reuss Voigt Hill
#
# Bulk Modulus (GPa) = 44.31430 78.82984 61.57207
# Shear Modulus (GPa) = 32.40052 39.07674 35.73863
#
# Velocity S-wave (km/s) = 3.62726 3.98348 3.80954
# Velocity P-wave (km/s) = 5.96134 7.29166 6.65980
#
# Compressibility (1/GPa) = 0.02256608
#
# Stress axis : x y z
#
# Youngs Moduli (GPa) = 148.37217 40.41767 94.53040
#
# Poissons Ratio (x) = 0.08865 0.37433
# Poissons Ratio (y) = 0.32542 0.33973
# Poissons Ratio (z) = 0.58753 0.14526
#
# Static dielectric constant tensor:
#      x y z
#    x 1.895010 0.000000 -0.023070 
#    y 0.000000 2.077740 0.000000 
#    z -0.023070 0.000000 1.933810 
# 
# From -- ./inp_files/17620.got.cif
#   From: 2010.05.17/outbox.cif.g08.bks.cpg/sg14_9_cif.got.tgz:17620.got - 2010.06.03 17:49:19.
