data_PCOD9241328
_publ_section_title
;
Structure prediction by ZEFSAII (Michael W. Deem and Ramdas Pophale) SiO2 
 PCOD9241328
Probable space group: P 21/C
;
_chemical_formula_sum "Si O2"
_cell_formula_units_Z 28
_cell_length_a 8.132395
_cell_length_b 9.825362
_cell_length_c 15.063249
_cell_angle_alpha 90.000000
_cell_angle_beta 80.809326
_cell_angle_gamma 90.000000
_cell_volume 1188.158093
_symmetry_space_group_name_H-M "P 21/C"
_symmetry_group_IT_number 14
_symmetry_cell_setting 'monoclinic'
loop_
_space_group_symop_operation_xyz
x,y,z
-x,1/2+y,1/2-z
-x,-y,-z
x,1/2-y,1/2+z
loop_
_atom_site_type_symbol
_atom_site_label
_atom_site_fract_x
_atom_site_fract_y
_atom_site_fract_z
Si Si1 0.499069 0.837701 0.237314
Si Si2 0.455604 0.657459 0.011464
Si Si3 0.991803 0.185157 0.173616
Si Si4 0.642273 0.088732 0.285446
Si Si5 0.641481 0.907055 0.035094
Si Si6 0.130091 0.594061 0.700899
Si Si7 0.149497 0.666096 0.497755
O O1 0.489902 0.678556 0.260063
O O2 0.602347 0.875929 0.140766
O O3 0.308958 0.879623 0.231379
O O4 0.581283 0.935574 0.301382
O O5 0.378050 0.659268 0.117739
O O6 0.614594 0.758664 0.993633
O O7 0.500000 0.500000 0.000000
O O8 0.306495 0.730436 0.970326
O O9 0.819536 0.114702 0.225380
O O10 0.999858 0.328890 0.223317
O O11 0.976674 0.204328 0.069431
O O12 0.119514 0.067398 0.187806
O O13 0.795516 0.009247 0.021946
O O14 0.500000 0.000000 0.000000
O O15 0.102807 0.662309 0.605855
#
# Coordination Sequence:
#
# PCOD9241328 Si02
#       7
#     4   4   4   4   4   4   4
#     4  10  19  35  60  88 122 155 199 254 307 360
#     4  10  21  35  59  96 133 150 199 265 317 357
#     4  11  24  43  65  88 124 172 206 261 307 368
#     4  10  21  37  60  92 125 156 200 257 310 367
#     4   9  16  33  57  88 117 151 196 244 293 372
#     4  11  24  44  60  91 127 162 215 258 302 376
#     4  11  20  42  67  86 124 169 208 251 315 372
#
# _framework density 23.565888000000001
#
# number of rings (size 3 to 8) (size 9 to 14) (size 15 to 20)
#    0.000    1.714    7.143    0.429    4.000    1.143 
#    2.571    0.714    0.000    0.000    0.000    0.000 
#    0.000    0.000    0.000    0.000    0.000    0.000 
#
# Total GULP energy -156107.184401 kJ/mol
# GULP energy per Si atom -5575.256586 kJ/mol
# Density = 2.351225 g / cm^3
# Si number density = 23.565888 Si / 1000 Ang^3
#
#
#
# Elastic Constant Matrix: (Units=GPa)
#
#
# Indices 1 2 3 4 5 6 
#
# 1 39.7952 15.0345 4.3193 0.0000 6.1333 0.0000
# 2 15.0345 118.0322 -11.4545 0.0000 8.6382 0.0000
# 3 4.3193 -11.4545 64.0841 0.0000 10.7586 0.0000
# 4 0.0000 0.0000 0.0000 35.2485 0.0000 -2.6385
# 5 6.1333 8.6382 10.7586 0.0000 18.2699 0.0000
# 6 0.0000 0.0000 0.0000 -2.6385 0.0000 34.5958
#
#
#
# Elastic Compliance Matrix: (Units=1/GPa)
#
#
# Indices 1 2 3 4 5 6 
#
# 1 0.027523 -0.003109 -0.001228 0.000000 -0.007046 0.000000
# 2 -0.003109 0.009508 0.002762 0.000000 -0.005078 0.000000
# 3 -0.001228 0.002762 0.018122 0.000000 -0.011565 0.000000
# 4 0.000000 0.000000 0.000000 0.028533 0.000000 0.002176
# 5 -0.007046 -0.005078 -0.011565 0.000000 0.066312 0.000000
# 6 0.000000 0.000000 0.000000 0.002176 0.000000 0.029071
#
#
# Mechanical properties :
#
#
# Convention : Reuss Voigt Hill
#
# Bulk Modulus (GPa) = 19.23003 26.41224 22.82113
# Shear Modulus (GPa) = 25.05590 31.89032 28.47311
#
# Velocity S-wave (km/s) = 3.26425 3.68263 3.47974
# Velocity P-wave (km/s) = 4.73128 5.41429 5.08427
#
# Compressibility (1/GPa) = 0.05200200
#
# Stress axis : x y z
#
# Youngs Moduli (GPa) = 36.33383 105.17544 55.18012
#
# Poissons Ratio (x) = 0.32701 0.06775
# Poissons Ratio (y) = 0.11297 -0.15238
# Poissons Ratio (z) = 0.04461 -0.29044
#
# Static dielectric constant tensor:
#      x y z
#    x 1.968570 0.000000 0.012290 
#    y 0.000000 1.939130 0.000000 
#    z 0.012290 0.000000 1.976330 
# 
# From -- ./inp_files/54816.got.cif
#   From: 2010.05.17/outbox.cif.g08.bks.cpg/sg14_28_cif.got.tgz:54816.got - 2010.06.03 17:49:19.
