data_PCOD9241085
_publ_section_title
;
Structure prediction by ZEFSAII (Michael W. Deem and Ramdas Pophale) SiO2 
 PCOD9241085
Probable space group: P 21/C
;
_chemical_formula_sum "Si O2"
_cell_formula_units_Z 28
_cell_length_a 8.859556
_cell_length_b 25.166033
_cell_length_c 5.651957
_cell_angle_alpha 90.000000
_cell_angle_beta 64.849969
_cell_angle_gamma 90.000000
_cell_volume 1140.694043
_symmetry_space_group_name_H-M "P 21/C"
_symmetry_group_IT_number 14
_symmetry_cell_setting 'monoclinic'
loop_
_space_group_symop_operation_xyz
x,y,z
-x,1/2+y,1/2-z
-x,-y,-z
x,1/2-y,1/2+z
loop_
_atom_site_type_symbol
_atom_site_label
_atom_site_fract_x
_atom_site_fract_y
_atom_site_fract_z
Si Si1 0.008926 0.057726 0.105442
Si Si2 0.394158 0.965321 0.261068
Si Si3 0.208494 0.620912 0.566953
Si Si4 0.325466 0.068964 0.586732
Si Si5 0.358759 0.735423 0.475978
Si Si6 0.108123 0.376821 0.919279
Si Si7 0.976283 0.774230 0.766216
O O1 0.848251 0.091398 0.133733
O O2 0.176863 0.077837 0.867746
O O3 0.045211 0.066909 0.354923
O O4 0.000000 0.000000 0.000000
O O5 0.289872 0.923557 0.179374
O O6 0.508565 0.933420 0.371192
O O7 0.307936 0.011074 0.475357
O O8 0.500000 0.000000 0.000000
O O9 0.318392 0.673149 0.472203
O O10 0.034091 0.639796 0.800061
O O11 0.288394 0.112808 0.410981
O O12 0.441499 0.755448 0.177560
O O13 0.179200 0.766983 0.621061
O O14 0.088399 0.333564 0.730219
O O15 0.919563 0.745494 0.561018
#
# Coordination Sequence:
#
# PCOD9241085 Si02
#       7
#     4   4   4   4   4   4   4
#     4  11  21  35  57  90 123 151 201 260 311 370
#     4  11  23  43  59  84 122 171 211 256 308 382
#     4  11  22  34  62  92 118 162 205 256 321 370
#     4  10  23  39  57  83 120 161 208 248 307 377
#     4  10  19  36  57  92 127 157 201 261 318 379
#     4  11  21  35  61  90 122 158 201 261 318 376
#     4  10  19  34  57  91 128 159 199 256 322 383
#
# _framework density 24.546457
#
# number of rings (size 3 to 8) (size 9 to 14) (size 15 to 20)
#    0.000    1.429    2.857    5.143    2.000    3.429 
#    0.000    0.000    0.000    1.714    0.000    0.000 
#    0.000    0.000    0.000    0.000    0.000    0.000 
#
# Total GULP energy -156472.674688 kJ/mol
# GULP energy per Si atom -5588.309810 kJ/mol
# Density = 2.449059 g / cm^3
# Si number density = 24.546457 Si / 1000 Ang^3
#
#
#
# Elastic Constant Matrix: (Units=GPa)
#
#
# Indices 1 2 3 4 5 6 
#
# 1 88.0878 33.1775 33.0298 0.0000 30.1507 0.0000
# 2 33.1775 65.6919 26.8592 0.0000 5.0728 0.0000
# 3 33.0298 26.8592 101.3467 0.0000 24.3230 0.0000
# 4 0.0000 0.0000 0.0000 45.2295 0.0000 21.6596
# 5 30.1507 5.0728 24.3230 0.0000 36.5383 0.0000
# 6 0.0000 0.0000 0.0000 21.6596 0.0000 24.5378
#
#
#
# Elastic Compliance Matrix: (Units=1/GPa)
#
#
# Indices 1 2 3 4 5 6 
#
# 1 0.019923 -0.008655 -0.000645 0.000000 -0.014809 0.000000
# 2 -0.008655 0.020850 -0.004433 0.000000 0.007198 0.000000
# 3 -0.000645 -0.004433 0.013064 0.000000 -0.007549 0.000000
# 4 0.000000 0.000000 0.000000 0.038299 0.000000 -0.033806
# 5 -0.014809 0.007198 -0.007549 0.000000 0.043614 0.000000
# 6 0.000000 0.000000 0.000000 -0.033806 0.000000 0.070594
#
#
# Mechanical properties :
#
#
# Convention : Reuss Voigt Hill
#
# Bulk Modulus (GPa) = 37.91929 49.02883 43.47406
# Shear Modulus (GPa) = 20.61015 32.06512 26.33763
#
# Velocity S-wave (km/s) = 2.90079 3.61820 3.27918
# Velocity P-wave (km/s) = 5.16730 6.12147 5.66451
#
# Compressibility (1/GPa) = 0.02637180
#
# Stress axis : x y z
#
# Youngs Moduli (GPa) = 50.19412 47.96148 76.54755
#
# Poissons Ratio (x) = 0.41508 0.04939
# Poissons Ratio (y) = 0.43441 0.33930
# Poissons Ratio (z) = 0.03239 0.21259
#
# Static dielectric constant tensor:
#      x y z
#    x 1.965100 0.000000 0.016350 
#    y 0.000000 2.024270 0.000000 
#    z 0.016350 0.000000 2.037550 
# 
# From -- ./inp_files/1892.got.cif
#   From: 2010.05.17/outbox.cif.g08.bks.cpg/sg14_1_cif.got.tgz:1892.got - 2010.06.03 17:49:19.
