data_PCOD9241117
_publ_section_title
;
Structure prediction by ZEFSAII (Michael W. Deem and Ramdas Pophale) SiO2 
 PCOD9241117
Probable space group: P 21/C
;
_chemical_formula_sum "Si O2"
_cell_formula_units_Z 32
_cell_length_a 15.621629
_cell_length_b 6.285877
_cell_length_c 17.474936
_cell_angle_alpha 90.000000
_cell_angle_beta 85.247909
_cell_angle_gamma 90.000000
_cell_volume 1710.063841
_symmetry_space_group_name_H-M "P 21/C"
_symmetry_group_IT_number 14
_symmetry_cell_setting 'monoclinic'
loop_
_space_group_symop_operation_xyz
x,y,z
-x,1/2+y,1/2-z
-x,-y,-z
x,1/2-y,1/2+z
loop_
_atom_site_type_symbol
_atom_site_label
_atom_site_fract_x
_atom_site_fract_y
_atom_site_fract_z
Si Si1 0.327130 0.746378 0.156089
Si Si2 0.871783 0.062639 0.535087
Si Si3 0.636210 0.540231 0.708622
Si Si4 0.410809 0.082419 0.537666
Si Si5 0.179710 0.941809 0.073415
Si Si6 0.271062 0.262388 0.438660
Si Si7 0.546488 0.878540 0.822811
Si Si8 0.975853 0.811926 0.943144
O O1 0.315464 0.590877 0.228812
O O2 0.355854 0.602864 0.082073
O O3 0.245596 0.884098 0.135731
O O4 0.406259 0.897286 0.172352
O O5 0.845096 0.225209 0.469502
O O6 0.934510 0.198605 0.586283
O O7 0.789971 0.939582 0.574933
O O8 0.926216 0.872952 0.492439
O O9 0.701000 0.608970 0.637809
O O10 0.590854 0.744648 0.751546
O O11 0.554959 0.407090 0.682334
O O12 0.356585 0.179598 0.473148
O O13 0.432243 0.252466 0.601488
O O14 0.500000 0.000000 0.500000
O O15 0.094552 0.073078 0.105240
O O16 0.225495 0.088360 0.005580
O O17 0.000000 0.000000 0.000000
#
# Coordination Sequence:
#
# PCOD9241117 Si02
#       8
#     4   4   4   4   4   4   4   4
#     4  11  22  39  54  79 117 157 201 254 294 365
#     4   9  17  33  54  86 130 140 178 241 298 352
#     4  11  25  37  56  78 115 164 209 249 307 350
#     4  11  24  35  57  81 110 159 207 250 314 342
#     4  10  19  34  59  87 121 147 195 245 294 358
#     4  11  22  35  56  88 117 153 202 258 293 351
#     4  11  23  41  53  75 114 160 208 256 296 366
#     4   8  16  30  55  89 124 144 173 229 298 360
#
# _framework density 18.712751000000001
#
# number of rings (size 3 to 8) (size 9 to 14) (size 15 to 20)
#    0.000    1.750    3.750    0.750    3.500    2.000 
#    0.000    0.000    0.000    0.000    0.000    0.000 
#  311.250    0.000    0.000    0.000    0.000    0.000 
#
# Total GULP energy -178455.584773 kJ/mol
# GULP energy per Si atom -5576.737024 kJ/mol
# Density = 1.867016 g / cm^3
# Si number density = 18.712751 Si / 1000 Ang^3
#
#
#
# Elastic Constant Matrix: (Units=GPa)
#
#
# Indices 1 2 3 4 5 6 
#
# 1 86.2721 26.7356 33.1848 0.0000 22.0987 0.0000
# 2 26.7356 77.5338 15.7166 0.0000 6.8026 0.0000
# 3 33.1848 15.7166 50.3590 0.0000 7.8786 0.0000
# 4 0.0000 0.0000 0.0000 13.6651 0.0000 5.8309
# 5 22.0987 6.8026 7.8786 0.0000 14.6872 0.0000
# 6 0.0000 0.0000 0.0000 5.8309 0.0000 42.2395
#
#
#
# Elastic Compliance Matrix: (Units=1/GPa)
#
#
# Indices 1 2 3 4 5 6 
#
# 1 0.024105 -0.003696 -0.010179 0.000000 -0.029097 0.000000
# 2 -0.003696 0.014606 -0.002112 0.000000 -0.000071 0.000000
# 3 -0.010179 -0.002112 0.026935 0.000000 0.001844 0.000000
# 4 0.000000 0.000000 0.000000 0.077760 0.000000 -0.010734
# 5 -0.029097 -0.000071 0.001844 0.000000 0.110910 0.000000
# 6 0.000000 0.000000 0.000000 -0.010734 0.000000 0.025156
#
#
# Mechanical properties :
#
#
# Convention : Reuss Voigt Hill
#
# Bulk Modulus (GPa) = 29.69663 40.60431 35.15047
# Shear Modulus (GPa) = 15.49568 23.35355 19.42462
#
# Velocity S-wave (km/s) = 2.88076 3.53654 3.22536
# Velocity P-wave (km/s) = 5.19319 6.19855 5.71801
#
# Compressibility (1/GPa) = 0.03367385
#
# Stress axis : x y z
#
# Youngs Moduli (GPa) = 41.48498 68.46323 37.12586
#
# Poissons Ratio (x) = 0.25303 0.37789
# Poissons Ratio (y) = 0.15332 0.07841
# Poissons Ratio (z) = 0.42227 0.14459
#
# Static dielectric constant tensor:
#      x y z
#    x 1.684890 0.000000 0.016360 
#    y 0.000000 1.681290 0.000000 
#    z 0.016360 0.000000 1.610220 
# 
# From -- ./inp_files/58462.got.cif
#   From: 2010.05.17/outbox.cif.g08.bks.cpg/sg14_30_cif.got.tgz:58462.got - 2010.06.03 17:49:19.
