data_PCOD9241412
_publ_section_title
;
Structure prediction by ZEFSAII (Michael W. Deem and Ramdas Pophale) SiO2 
 PCOD9241412
Probable space group: P 21/C
;
_chemical_formula_sum "Si O2"
_cell_formula_units_Z 28
_cell_length_a 19.081352
_cell_length_b 5.065903
_cell_length_c 13.724859
_cell_angle_alpha 90.000000
_cell_angle_beta 121.637705
_cell_angle_gamma 90.000000
_cell_volume 1129.531459
_symmetry_space_group_name_H-M "P 21/C"
_symmetry_group_IT_number 14
_symmetry_cell_setting 'monoclinic'
loop_
_space_group_symop_operation_xyz
x,y,z
-x,1/2+y,1/2-z
-x,-y,-z
x,1/2-y,1/2+z
loop_
_atom_site_type_symbol
_atom_site_label
_atom_site_fract_x
_atom_site_fract_y
_atom_site_fract_z
Si Si1 0.051238 0.285665 0.473389
Si Si2 0.391119 0.342993 0.062041
Si Si3 0.890400 0.370555 0.818375
Si Si4 0.268077 0.103299 0.842297
Si Si5 0.213868 0.036316 0.130129
Si Si6 0.433939 0.758914 0.934386
Si Si7 0.383905 0.842895 0.183114
O O1 0.139592 0.387044 0.504028
O O2 0.000000 0.500000 0.500000
O O3 0.980703 0.205490 0.345332
O O4 0.082142 0.061214 0.571991
O O5 0.433898 0.502447 0.004506
O O6 0.392954 0.553902 0.147905
O O7 0.415628 0.065811 0.130974
O O8 0.301289 0.294424 0.950088
O O9 0.823265 0.503910 0.701298
O O10 0.835009 0.141229 0.826517
O O11 0.256916 0.238624 0.727897
O O12 0.343242 0.895039 0.887448
O O13 0.287673 0.896235 0.129693
O O14 0.427375 0.659132 0.818661
O O15 0.500000 0.000000 0.000000
#
# Coordination Sequence:
#
# PCOD9241412 Si02
#       7
#     4   4   4   4   4   4   4
#     4   8  16  28  52 107 135 190 262 309 368 466
#     4  12  27  49  76 121 149 201 270 317 393 476
#     4   9  16  31  62  98 145 193 256 308 382 464
#     4  11  20  44  70 107 147 199 254 308 389 460
#     4  10  19  35  69 101 147 202 252 312 389 462
#     4  12  28  55  84 114 160 207 258 329 400 471
#     4  12  26  48  79 116 157 202 264 325 396 470
#
# _framework density 24.789037
#
# number of rings (size 3 to 8) (size 9 to 14) (size 15 to 20)
#    0.000    1.429    4.286    0.857    2.000    0.571 
#    2.571    0.000    0.000    0.000   26.000    0.000 
#    0.000    0.000    0.000    0.000    0.000    0.000 
#
# Total GULP energy -156321.089681 kJ/mol
# GULP energy per Si atom -5582.896060 kJ/mol
# Density = 2.473262 g / cm^3
# Si number density = 24.789037 Si / 1000 Ang^3
#
#
#
# Elastic Constant Matrix: (Units=GPa)
#
#
# Indices 1 2 3 4 5 6 
#
# 1 62.2984 17.8006 81.6489 0.0000 19.1588 0.0000
# 2 17.8006 103.1713 50.9208 0.0000 9.1432 0.0000
# 3 81.6489 50.9208 181.3230 0.0000 42.4828 0.0000
# 4 0.0000 0.0000 0.0000 50.2886 0.0000 9.0881
# 5 19.1588 9.1432 42.4828 0.0000 50.5918 0.0000
# 6 0.0000 0.0000 0.0000 9.0881 0.0000 24.3196
#
#
#
# Elastic Compliance Matrix: (Units=1/GPa)
#
#
# Indices 1 2 3 4 5 6 
#
# 1 0.039626 0.002291 -0.018517 0.000000 0.000129 0.000000
# 2 0.002291 0.011409 -0.004418 0.000000 0.000781 0.000000
# 3 -0.018517 -0.004418 0.016513 0.000000 -0.006055 0.000000
# 4 0.000000 0.000000 0.000000 0.021325 0.000000 -0.007969
# 5 0.000129 0.000781 -0.006055 0.000000 0.024661 0.000000
# 6 0.000000 0.000000 0.000000 -0.007969 0.000000 0.044097
#
#
# Mechanical properties :
#
#
# Convention : Reuss Voigt Hill
#
# Bulk Modulus (GPa) = 38.08289 71.94814 55.01551
# Shear Modulus (GPa) = 24.07632 38.13483 31.10557
#
# Velocity S-wave (km/s) = 3.11987 3.92647 3.54618
# Velocity P-wave (km/s) = 5.32675 7.04581 6.24570
#
# Compressibility (1/GPa) = 0.02625851
#
# Stress axis : x y z
#
# Youngs Moduli (GPa) = 25.23589 87.65062 60.55955
#
# Poissons Ratio (x) = -0.20080 1.12138
# Poissons Ratio (y) = -0.05781 0.26758
# Poissons Ratio (z) = 0.46729 0.38728
#
# Static dielectric constant tensor:
#      x y z
#    x 2.146440 0.000000 0.089630 
#    y 0.000000 2.108230 0.000000 
#    z 0.089630 0.000000 1.982340 
# 
# From -- ./inp_files/60892.got.cif
#   From: 2010.05.17/outbox.cif.g08.bks.cpg/sg14_31_cif.got.tgz:60892.got - 2010.06.03 17:49:19.
