data_PCOD9241791
_publ_section_title
;
Structure prediction by ZEFSAII (Michael W. Deem and Ramdas Pophale) SiO2 
 PCOD9241791
Probable space group: P 21/C
;
_chemical_formula_sum "Si O2"
_cell_formula_units_Z 32
_cell_length_a 7.433993
_cell_length_b 14.423311
_cell_length_c 21.948494
_cell_angle_alpha 90.000000
_cell_angle_beta 148.377501
_cell_angle_gamma 90.000000
_cell_volume 1233.924348
_symmetry_space_group_name_H-M "P 21/C"
_symmetry_group_IT_number 14
_symmetry_cell_setting 'monoclinic'
loop_
_space_group_symop_operation_xyz
x,y,z
-x,1/2+y,1/2-z
-x,-y,-z
x,1/2-y,1/2+z
loop_
_atom_site_type_symbol
_atom_site_label
_atom_site_fract_x
_atom_site_fract_y
_atom_site_fract_z
Si Si1 0.370981 0.181941 0.367591
Si Si2 0.636523 0.607887 0.997043
Si Si3 0.922760 0.342580 0.514088
Si Si4 0.294580 0.625229 0.676966
Si Si5 0.348650 0.489250 0.372483
Si Si6 0.150661 0.423304 0.691869
Si Si7 0.190335 0.682536 0.773612
Si Si8 0.915060 0.523120 0.823522
O O1 0.349819 0.155909 0.432820
O O2 0.689096 0.251471 0.452123
O O3 0.369302 0.103565 0.315052
O O4 0.020319 0.237668 0.254610
O O5 0.969180 0.542458 0.088081
O O6 0.546353 0.666312 0.911411
O O7 0.282294 0.550694 0.901932
O O8 0.965418 0.356214 0.453644
O O9 0.702203 0.435780 0.466844
O O10 0.176202 0.348638 0.644797
O O11 0.258053 0.521508 0.693996
O O12 0.250794 0.695387 0.719468
O O13 0.688545 0.614671 0.768487
O O14 0.278531 0.532094 0.285658
O O15 0.236573 0.561033 0.391715
O O16 0.074825 0.404849 0.301449
#
# Coordination Sequence:
#
# PCOD9241791 Si02
#       8
#     4   4   4   4   4   4   4   4
#     4  11  22  39  60  88 119 157 209 251 292 362
#     4  10  19  37  63  84 114 158 205 241 292 366
#     4  10  21  37  59  85 124 161 191 248 314 353
#     4  10  22  40  59  91 125 155 199 255 307 362
#     4   8  16  34  58  85 108 150 205 244 273 358
#     4  11  20  37  63  87 115 162 209 245 294 365
#     4   9  20  37  57  83 120 155 191 247 307 348
#     4   9  18  35  62  88 114 147 198 253 294 345
#
# _framework density 25.933516999999998
#
# number of rings (size 3 to 8) (size 9 to 14) (size 15 to 20)
#    0.000    2.250    1.250    2.250    1.750    0.500 
#    2.250    1.250    0.000    0.000    0.000    0.000 
#    0.000    0.000    0.000    0.000    0.000    0.000 
#
# Total GULP energy -178517.350395 kJ/mol
# GULP energy per Si atom -5578.667200 kJ/mol
# Density = 2.587449 g / cm^3
# Si number density = 25.933517 Si / 1000 Ang^3
#
#
#
# Elastic Constant Matrix: (Units=GPa)
#
#
# Indices 1 2 3 4 5 6 
#
# 1 89.9981 15.1773 19.3601 0.0000 -30.5821 0.0000
# 2 15.1773 58.6217 5.0416 0.0000 -5.9891 0.0000
# 3 19.3601 5.0416 74.4399 0.0000 -30.0680 0.0000
# 4 0.0000 0.0000 0.0000 20.9394 0.0000 3.1636
# 5 -30.5821 -5.9891 -30.0680 0.0000 44.4634 0.0000
# 6 0.0000 0.0000 0.0000 3.1636 0.0000 41.2479
#
#
#
# Elastic Compliance Matrix: (Units=1/GPa)
#
#
# Indices 1 2 3 4 5 6 
#
# 1 0.014969 -0.002870 0.000418 0.000000 0.010192 0.000000
# 2 -0.002870 0.017852 -0.000397 0.000000 0.000162 0.000000
# 3 0.000418 -0.000397 0.018499 0.000000 0.012744 0.000000
# 4 0.000000 0.000000 0.000000 0.048317 0.000000 -0.003706
# 5 0.010192 0.000162 0.012744 0.000000 0.038140 0.000000
# 6 0.000000 0.000000 0.000000 -0.003706 0.000000 0.024528
#
#
# Mechanical properties :
#
#
# Convention : Reuss Voigt Hill
#
# Bulk Modulus (GPa) = 21.91940 33.57975 27.74957
# Shear Modulus (GPa) = 27.29091 33.56218 30.42654
#
# Velocity S-wave (km/s) = 3.24750 3.60135 3.42899
# Velocity P-wave (km/s) = 4.74681 5.50177 5.13817
#
# Compressibility (1/GPa) = 0.04562168
#
# Stress axis : x y z
#
# Youngs Moduli (GPa) = 66.80634 56.01513 54.05557
#
# Poissons Ratio (x) = 0.16077 -0.02260
# Poissons Ratio (y) = 0.19174 0.02147
# Poissons Ratio (z) = -0.02792 0.02225
#
# Static dielectric constant tensor:
#      x y z
#    x 2.185060 0.000000 -0.014190 
#    y 0.000000 2.113780 0.000000 
#    z -0.014190 0.000000 2.131490 
# 
# From -- ./inp_files/72495.got.cif
#   From: 2010.05.17/outbox.cif.g08.bks.cpg/sg14_37_cif.got.tgz:72495.got - 2010.06.03 17:49:19.
