data_PCOD9241709
_publ_section_title
;
Structure prediction by ZEFSAII (Michael W. Deem and Ramdas Pophale) SiO2 
 PCOD9241709
Probable space group: P 21/C
;
_chemical_formula_sum "Si O2"
_cell_formula_units_Z 28
_cell_length_a 20.463460
_cell_length_b 6.970740
_cell_length_c 14.413749
_cell_angle_alpha 90.000000
_cell_angle_beta 31.759324
_cell_angle_gamma 90.000000
_cell_volume 1082.209719
_symmetry_space_group_name_H-M "P 21/C"
_symmetry_group_IT_number 14
_symmetry_cell_setting 'monoclinic'
loop_
_space_group_symop_operation_xyz
x,y,z
-x,1/2+y,1/2-z
-x,-y,-z
x,1/2-y,1/2+z
loop_
_atom_site_type_symbol
_atom_site_label
_atom_site_fract_x
_atom_site_fract_y
_atom_site_fract_z
Si Si1 0.019279 0.607420 0.756756
Si Si2 0.411640 0.133193 0.814927
Si Si3 0.573769 0.295050 0.278692
Si Si4 0.217263 0.664573 0.356736
Si Si5 0.850480 0.775488 0.322744
Si Si6 0.399850 0.328677 0.130501
Si Si7 0.979908 0.274846 0.044130
O O1 0.112378 0.663871 0.562077
O O2 0.082240 0.417909 0.721892
O O3 0.887162 0.586050 0.863979
O O4 0.007658 0.744890 0.860565
O O5 0.534462 0.112442 0.728627
O O6 0.421189 0.253330 0.707362
O O7 0.387456 0.918217 0.807150
O O8 0.293520 0.225047 0.008425
O O9 0.680087 0.314891 0.228307
O O10 0.445348 0.303244 0.492690
O O11 0.273353 0.449391 0.277793
O O12 0.154247 0.727338 0.336889
O O13 0.917543 0.827988 0.145254
O O14 0.500000 0.500000 0.000000
O O15 0.000000 0.500000 0.000000
#
# Coordination Sequence:
#
# PCOD9241709 Si02
#       7
#     4   4   4   4   4   4   4
#     4  10  19  37  60  77 116 150 182 236 286 327
#     4  10  20  40  58  83 118 151 188 243 283 336
#     4  10  21  38  62  86 114 152 194 233 289 344
#     4   9  17  36  60  79 114 156 183 233 288 341
#     4  10  20  39  55  83 117 147 189 236 282 333
#     4   8  17  35  57  81 113 149 192 229 277 348
#     4   9  20  35  56  87 113 149 194 237 285 333
#
# _framework density 25.872990999999999
#
# number of rings (size 3 to 8) (size 9 to 14) (size 15 to 20)
#    0.000    2.857    2.857    0.000    0.000    4.571 
#   10.286    2.143    0.000    0.000    0.000    0.000 
#    0.000    0.000    0.000    0.000    0.000    0.000 
#
# Total GULP energy -156191.323173 kJ/mol
# GULP energy per Si atom -5578.261542 kJ/mol
# Density = 2.581410 g / cm^3
# Si number density = 25.872991 Si / 1000 Ang^3
#
#
#
# Elastic Constant Matrix: (Units=GPa)
#
#
# Indices 1 2 3 4 5 6 
#
# 1 131.8550 26.3295 33.4629 0.0000 -12.0093 0.0000
# 2 26.3295 37.9073 3.4924 0.0000 -7.8547 0.0000
# 3 33.4629 3.4924 107.0467 0.0000 2.5730 0.0000
# 4 0.0000 0.0000 0.0000 23.8502 0.0000 -1.0165
# 5 -12.0093 -7.8547 2.5730 0.0000 34.3915 0.0000
# 6 0.0000 0.0000 0.0000 -1.0165 0.0000 35.0899
#
#
#
# Elastic Compliance Matrix: (Units=1/GPa)
#
#
# Indices 1 2 3 4 5 6 
#
# 1 0.009726 -0.006025 -0.002898 0.000000 0.002237 0.000000
# 2 -0.006025 0.031543 0.000733 0.000000 0.005045 0.000000
# 3 -0.002898 0.000733 0.010262 0.000000 -0.001612 0.000000
# 4 0.000000 0.000000 0.000000 0.041980 0.000000 0.001216
# 5 0.002237 0.005045 -0.001612 0.000000 0.031131 0.000000
# 6 0.000000 0.000000 0.000000 0.001216 0.000000 0.028533
#
#
# Mechanical properties :
#
#
# Convention : Reuss Voigt Hill
#
# Bulk Modulus (GPa) = 28.44773 44.81985 36.63379
# Shear Modulus (GPa) = 27.58265 32.90126 30.24195
#
# Velocity S-wave (km/s) = 3.26863 3.56988 3.42257
# Velocity P-wave (km/s) = 5.02636 5.86112 5.45971
#
# Compressibility (1/GPa) = 0.03515219
#
# Stress axis : x y z
#
# Youngs Moduli (GPa) = 102.81322 31.70280 97.44343
#
# Poissons Ratio (x) = 0.19102 0.28236
# Poissons Ratio (y) = 0.61947 -0.07144
# Poissons Ratio (z) = 0.29792 -0.02324
#
# Static dielectric constant tensor:
#      x y z
#    x 2.126940 0.000000 -0.005850 
#    y 0.000000 2.315900 0.000000 
#    z -0.005850 0.000000 2.074650 
# 
# From -- ./inp_files/50217.got.cif
#   From: 2010.05.17/outbox.cif.g08.bks.cpg/sg14_26_cif.got.tgz:50217.got - 2010.06.03 17:49:19.
