data_PCOD9241016
_publ_section_title
;
Structure prediction by ZEFSAII (Michael W. Deem and Ramdas Pophale) SiO2 
 PCOD9241016
Probable space group: P 21/C
;
_chemical_formula_sum "Si O2"
_cell_formula_units_Z 32
_cell_length_a 12.008615
_cell_length_b 7.004898
_cell_length_c 18.972787
_cell_angle_alpha 90.000000
_cell_angle_beta 123.808293
_cell_angle_gamma 90.000000
_cell_volume 1326.101260
_symmetry_space_group_name_H-M "P 21/C"
_symmetry_group_IT_number 14
_symmetry_cell_setting 'monoclinic'
loop_
_space_group_symop_operation_xyz
x,y,z
-x,1/2+y,1/2-z
-x,-y,-z
x,1/2-y,1/2+z
loop_
_atom_site_type_symbol
_atom_site_label
_atom_site_fract_x
_atom_site_fract_y
_atom_site_fract_z
Si Si1 0.522025 0.723119 0.441701
Si Si2 0.230044 0.854958 0.837826
Si Si3 0.986927 0.325459 0.844927
Si Si4 0.167716 0.288401 0.785921
Si Si5 0.800661 0.761202 0.983110
Si Si6 0.758927 0.307990 0.997953
Si Si7 0.471362 0.171617 0.397221
Si Si8 0.951872 0.768050 0.399710
O O1 0.384256 0.632266 0.367005
O O2 0.660230 0.650704 0.457266
O O3 0.537613 0.717551 0.531380
O O4 0.500051 0.948209 0.420274
O O5 0.136041 0.752932 0.746295
O O6 0.240194 0.756784 0.918664
O O7 0.171116 0.068370 0.814267
O O8 0.941614 0.503783 0.877542
O O9 0.100313 0.392837 0.828198
O O10 0.069691 0.186402 0.924808
O O11 0.320281 0.325276 0.816281
O O12 0.074043 0.316426 0.686072
O O13 0.840246 0.784566 0.916579
O O14 0.778139 0.535307 0.992533
O O15 0.899160 0.227450 0.018974
O O16 0.612876 0.260939 0.914258
#
# Coordination Sequence:
#
# PCOD9241016 Si02
#       8
#     4   4   4   4   4   4   4   4
#     4   9  18  33  55  83 111 148 190 228 272 332
#     4  10  21  32  54  90 117 140 184 239 286 327
#     4  10  19  34  55  83 112 147 189 232 274 335
#     4  11  21  34  54  91 116 144 181 239 295 325
#     4  10  19  37  60  80 108 154 195 225 270 341
#     4   9  17  33  54  83 108 143 189 234 266 322
#     4   9  18  32  56  82 110 145 196 232 267 327
#     4  10  21  36  58  85 110 146 194 234 277 334
#
# _framework density 24.130887000000001
#
# number of rings (size 3 to 8) (size 9 to 14) (size 15 to 20)
#    0.000    2.250    2.500    2.250    3.500    2.000 
#    0.000    6.250    0.000    3.000    0.000    0.000 
#    0.000    0.000    0.000    0.000    0.000    0.000 
#
# Total GULP energy -178603.261374 kJ/mol
# GULP energy per Si atom -5581.351918 kJ/mol
# Density = 2.407596 g / cm^3
# Si number density = 24.130887 Si / 1000 Ang^3
#
#
#
# Elastic Constant Matrix: (Units=GPa)
#
#
# Indices 1 2 3 4 5 6 
#
# 1 119.2746 -9.7981 29.4473 0.0000 16.8640 0.0000
# 2 -9.7981 66.8212 0.5630 0.0000 2.8809 0.0000
# 3 29.4473 0.5630 57.7527 0.0000 10.6696 0.0000
# 4 0.0000 0.0000 0.0000 22.4042 0.0000 4.1925
# 5 16.8640 2.8809 10.6696 0.0000 48.1228 0.0000
# 6 0.0000 0.0000 0.0000 4.1925 0.0000 20.0422
#
#
#
# Elastic Compliance Matrix: (Units=1/GPa)
#
#
# Indices 1 2 3 4 5 6 
#
# 1 0.010031 0.001621 -0.004654 0.000000 -0.002580 0.000000
# 2 0.001621 0.015266 -0.000732 0.000000 -0.001320 0.000000
# 3 -0.004654 -0.000732 0.020214 0.000000 -0.002807 0.000000
# 4 0.000000 0.000000 0.000000 0.046453 0.000000 -0.009717
# 5 -0.002580 -0.001320 -0.002807 0.000000 0.022386 0.000000
# 6 0.000000 0.000000 0.000000 -0.009717 0.000000 0.051927
#
#
# Mechanical properties :
#
#
# Convention : Reuss Voigt Hill
#
# Bulk Modulus (GPa) = 26.32773 31.58587 28.95680
# Shear Modulus (GPa) = 26.81452 33.02292 29.91872
#
# Velocity S-wave (km/s) = 3.33710 3.70333 3.52497
# Velocity P-wave (km/s) = 5.07764 5.60393 5.34726
#
# Compressibility (1/GPa) = 0.03798276
#
# Stress axis : x y z
#
# Youngs Moduli (GPa) = 99.69086 65.50455 49.47112
#
# Poissons Ratio (x) = -0.10620 0.23023
# Poissons Ratio (y) = -0.16163 0.03620
# Poissons Ratio (z) = 0.46394 0.04793
#
# Static dielectric constant tensor:
#      x y z
#    x 1.944360 0.000000 0.071870 
#    y 0.000000 2.034490 0.000000 
#    z 0.071870 0.000000 1.890200 
# 
# From -- ./inp_files/57299.got.cif
#   From: 2010.05.17/outbox.cif.g08.bks.cpg/sg14_29_cif.got.tgz:57299.got - 2010.06.03 17:49:19.
