data_PCOD9241458
_publ_section_title
;
Structure prediction by ZEFSAII (Michael W. Deem and Ramdas Pophale) SiO2 
 PCOD9241458
Probable space group: P 21/C
;
_chemical_formula_sum "Si O2"
_cell_formula_units_Z 28
_cell_length_a 18.973761
_cell_length_b 7.548705
_cell_length_c 13.421263
_cell_angle_alpha 90.000000
_cell_angle_beta 35.510931
_cell_angle_gamma 90.000000
_cell_volume 1116.578956
_symmetry_space_group_name_H-M "P 21/C"
_symmetry_group_IT_number 14
_symmetry_cell_setting 'monoclinic'
loop_
_space_group_symop_operation_xyz
x,y,z
-x,1/2+y,1/2-z
-x,-y,-z
x,1/2-y,1/2+z
loop_
_atom_site_type_symbol
_atom_site_label
_atom_site_fract_x
_atom_site_fract_y
_atom_site_fract_z
Si Si1 0.111629 0.957305 0.713431
Si Si2 0.233974 0.513675 0.490257
Si Si3 0.819448 0.128990 0.737334
Si Si4 0.497616 0.104333 0.353164
Si Si5 0.948712 0.226057 0.405215
Si Si6 0.548261 0.280252 0.503963
Si Si7 0.329018 0.356780 0.872526
O O1 0.233125 0.994612 0.510258
O O2 0.056039 0.141859 0.812504
O O3 0.140159 0.822598 0.768270
O O4 0.024203 0.871022 0.730525
O O5 0.174386 0.513417 0.668998
O O6 0.369515 0.593202 0.348644
O O7 0.161595 0.640277 0.498555
O O8 0.258253 0.318525 0.419648
O O9 0.902858 0.097370 0.545139
O O10 0.680482 0.137451 0.861962
O O11 0.514253 0.212172 0.434383
O O12 0.397956 0.186889 0.396245
O O13 0.456333 0.903707 0.426582
O O14 0.438134 0.398583 0.672491
#
# Coordination Sequence:
#
# PCOD9241458 Si02
#       7
#     4   4   4   4   4   4   4
#     4  11  25  44  67  91 125 170 210 258 319 371
#     4  10  22  37  62  93 128 166 208 261 313 363
#     4  11  21  41  65  94 124 166 211 259 315 373
#     4  10  19  36  57  90 130 164 204 254 305 381
#     4  11  24  45  65  91 125 164 217 263 309 375
#     4  10  20  35  61  93 125 167 207 249 316 373
#     4  11  22  38  63  94 132 167 208 257 317 375
#
# _framework density 25.076598000000001
#
# number of rings (size 3 to 8) (size 9 to 14) (size 15 to 20)
#    0.000    1.429    4.286    1.286    0.000    1.143 
#    0.000   10.714    0.000    0.000    0.000    0.000 
#    0.000    0.000    0.000    0.000    0.000    0.000 
#
# Total GULP energy -156851.964785 kJ/mol
# GULP energy per Si atom -5601.855885 kJ/mol
# Density = 2.501952 g / cm^3
# Si number density = 25.076598 Si / 1000 Ang^3
#
#
#
# Elastic Constant Matrix: (Units=GPa)
#
#
# Indices 1 2 3 4 5 6 
#
# 1 86.0524 6.4829 5.3133 0.0000 -2.6936 0.0000
# 2 6.4829 42.5025 2.4809 0.0000 -9.9772 0.0000
# 3 5.3133 2.4809 100.2813 0.0000 0.5780 0.0000
# 4 0.0000 0.0000 0.0000 35.8217 0.0000 -3.0470
# 5 -2.6936 -9.9772 0.5780 0.0000 34.5676 0.0000
# 6 0.0000 0.0000 0.0000 -3.0470 0.0000 33.9377
#
#
#
# Elastic Compliance Matrix: (Units=1/GPa)
#
#
# Indices 1 2 3 4 5 6 
#
# 1 0.011796 -0.001659 -0.000587 0.000000 0.000450 0.000000
# 2 -0.001659 0.025516 -0.000585 0.000000 0.007245 0.000000
# 3 -0.000587 -0.000585 0.010020 0.000000 -0.000382 0.000000
# 4 0.000000 0.000000 0.000000 0.028131 0.000000 0.002526
# 5 0.000450 0.007245 -0.000382 0.000000 0.031061 0.000000
# 6 0.000000 0.000000 0.000000 0.002526 0.000000 0.029692
#
#
# Mechanical properties :
#
#
# Convention : Reuss Voigt Hill
#
# Bulk Modulus (GPa) = 23.99815 28.59893 26.29854
# Shear Modulus (GPa) = 32.09888 35.16934 33.63411
#
# Velocity S-wave (km/s) = 3.58164 3.74903 3.66629
# Velocity P-wave (km/s) = 5.16671 5.49269 5.33219
#
# Compressibility (1/GPa) = 0.04166988
#
# Stress axis : x y z
#
# Youngs Moduli (GPa) = 84.77350 39.19101 99.80334
#
# Poissons Ratio (x) = 0.06503 0.05854
# Poissons Ratio (y) = 0.14067 0.05839
# Poissons Ratio (z) = 0.04972 0.02293
#
# Static dielectric constant tensor:
#      x y z
#    x 1.921160 0.000000 -0.015570 
#    y 0.000000 1.972180 0.000000 
#    z -0.015570 0.000000 2.005310 
# 
# From -- ./inp_files/43179.got.cif
#   From: 2010.05.17/outbox.cif.g08.bks.cpg/sg14_22_cif.got.tgz:43179.got - 2010.06.03 17:49:19.
