data_PCOD9241825
_publ_section_title
;
Structure prediction by ZEFSAII (Michael W. Deem and Ramdas Pophale) SiO2 
 PCOD9241825
Probable space group: P 21/C
;
_chemical_formula_sum "Si O2"
_cell_formula_units_Z 24
_cell_length_a 18.180598
_cell_length_b 4.898313
_cell_length_c 11.020186
_cell_angle_alpha 90.000000
_cell_angle_beta 61.711725
_cell_angle_gamma 90.000000
_cell_volume 864.190830
_symmetry_space_group_name_H-M "P 21/C"
_symmetry_group_IT_number 14
_symmetry_cell_setting 'monoclinic'
loop_
_space_group_symop_operation_xyz
x,y,z
-x,1/2+y,1/2-z
-x,-y,-z
x,1/2-y,1/2+z
loop_
_atom_site_type_symbol
_atom_site_label
_atom_site_fract_x
_atom_site_fract_y
_atom_site_fract_z
Si Si1 0.950330 0.446188 0.329268
Si Si2 0.317646 0.345827 0.889242
Si Si3 0.140146 0.281383 0.911448
Si Si4 0.178304 0.776829 0.745471
Si Si5 0.649239 0.151710 0.972912
Si Si6 0.516844 0.794486 0.321787
O O1 0.932245 0.627615 0.461046
O O2 0.863480 0.329611 0.344579
O O3 0.007272 0.176193 0.290755
O O4 0.386845 0.281030 0.731639
O O5 0.224639 0.276804 0.924248
O O6 0.326149 0.650078 0.932956
O O7 0.343398 0.151362 0.981346
O O8 0.162271 0.093037 0.778542
O O9 0.130368 0.594167 0.882400
O O10 0.276161 0.709475 0.678239
O O11 0.553681 0.238540 0.022077
O O12 0.491637 0.591511 0.230041
#
# Coordination Sequence:
#
# PCOD9241825 Si02
#       6
#     4   4   4   4   4   4
#     4  12  28  48  72  96 130 174 214 274 338 394
#     4  10  19  37  64  91 132 176 218 265 319 379
#     4  12  26  43  69 102 132 170 218 269 325 396
#     4  12  26  43  69 102 132 170 218 269 325 396
#     4  10  19  37  64  91 132 176 218 265 319 379
#     4   8  16  30  56  92 122 172 222 258 310 372
#
# _framework density 27.771643999999998
#
# number of rings (size 3 to 8) (size 9 to 14) (size 15 to 20)
#    0.000    1.333    1.667    4.000    2.333    4.000 
#    0.000    1.667    0.000    0.000    0.000    0.000 
#    0.000    0.000    0.000    0.000    0.000    0.000 
#
# Total GULP energy -134564.131749 kJ/mol
# GULP energy per Si atom -5606.838823 kJ/mol
# Density = 2.770843 g / cm^3
# Si number density = 27.771644 Si / 1000 Ang^3
#
#
#
# Elastic Constant Matrix: (Units=GPa)
#
#
# Indices 1 2 3 4 5 6 
#
# 1 85.5231 21.5962 14.6261 0.0000 -17.2284 0.0000
# 2 21.5962 129.2394 27.9965 0.0000 -9.9950 0.0000
# 3 14.6261 27.9965 105.3103 0.0000 -21.7502 0.0000
# 4 0.0000 0.0000 0.0000 47.4873 0.0000 -6.5618
# 5 -17.2284 -9.9950 -21.7502 0.0000 34.5801 0.0000
# 6 0.0000 0.0000 0.0000 -6.5618 0.0000 41.7799
#
#
#
# Elastic Compliance Matrix: (Units=1/GPa)
#
#
# Indices 1 2 3 4 5 6 
#
# 1 0.013379 -0.001735 -0.000142 0.000000 0.006075 0.000000
# 2 -0.001735 0.008475 -0.001936 0.000000 0.000367 0.000000
# 3 -0.000142 -0.001936 0.011378 0.000000 0.006526 0.000000
# 4 0.000000 0.000000 0.000000 0.021525 0.000000 0.003381
# 5 0.006075 0.000367 0.006526 0.000000 0.036156 0.000000
# 6 0.000000 0.000000 0.000000 0.003381 0.000000 0.024466
#
#
# Mechanical properties :
#
#
# Convention : Reuss Voigt Hill
#
# Bulk Modulus (GPa) = 39.05450 49.83446 44.44448
# Shear Modulus (GPa) = 38.01070 41.82639 39.91855
#
# Velocity S-wave (km/s) = 3.70359 3.88504 3.79540
# Velocity P-wave (km/s) = 5.69052 6.17317 5.93675
#
# Compressibility (1/GPa) = 0.02560524
#
# Stress axis : x y z
#
# Youngs Moduli (GPa) = 74.74439 117.98895 87.88787
#
# Poissons Ratio (x) = 0.20471 0.01250
# Poissons Ratio (y) = 0.12968 0.17018
# Poissons Ratio (z) = 0.01063 0.22846
#
# Static dielectric constant tensor:
#      x y z
#    x 2.140030 0.000000 0.006980 
#    y 0.000000 2.002870 0.000000 
#    z 0.006980 0.000000 2.276000 
# 
# From -- ./inp_files/49468.got.cif
#   From: 2010.05.17/outbox.cif.g08.bks.cpg/sg14_25_cif.got.tgz:49468.got - 2010.06.03 17:49:19.
