data_PCOD9241618
_publ_section_title
;
Structure prediction by ZEFSAII (Michael W. Deem and Ramdas Pophale) SiO2 
 PCOD9241618
Probable space group: P 21/C
;
_chemical_formula_sum "Si O2"
_cell_formula_units_Z 28
_cell_length_a 9.075942
_cell_length_b 7.391519
_cell_length_c 19.328668
_cell_angle_alpha 90.000000
_cell_angle_beta 123.644027
_cell_angle_gamma 90.000000
_cell_volume 1079.466990
_symmetry_space_group_name_H-M "P 21/C"
_symmetry_group_IT_number 14
_symmetry_cell_setting 'monoclinic'
loop_
_space_group_symop_operation_xyz
x,y,z
-x,1/2+y,1/2-z
-x,-y,-z
x,1/2-y,1/2+z
loop_
_atom_site_type_symbol
_atom_site_label
_atom_site_fract_x
_atom_site_fract_y
_atom_site_fract_z
Si Si1 0.379253 0.313508 0.323376
Si Si2 0.255180 0.248059 0.941539
Si Si3 0.212288 0.981190 0.551297
Si Si4 0.578322 0.080810 0.271335
Si Si5 0.872753 0.195693 0.780344
Si Si6 0.017353 0.282375 0.684905
Si Si7 0.148689 0.896932 0.993284
O O1 0.374281 0.267109 0.403319
O O2 0.431749 0.152522 0.285265
O O3 0.477297 0.484332 0.314267
O O4 0.171565 0.349884 0.250330
O O5 0.286531 0.405378 0.005749
O O6 0.052707 0.277160 0.861249
O O7 0.253683 0.055418 0.981208
O O8 0.303715 0.044512 0.646419
O O9 0.251964 0.764491 0.558120
O O10 0.000000 0.000000 0.500000
O O11 0.705111 0.242208 0.279196
O O12 0.858760 0.255918 0.697371
O O13 0.909709 0.984274 0.789019
O O14 0.949120 0.276827 0.590322
O O15 0.000000 0.000000 0.000000
#
# Coordination Sequence:
#
# PCOD9241618 Si02
#       7
#     4   4   4   4   4   4   4
#     4  11  26  44  64  91 134 173 223 272 334 401
#     4  10  23  43  64 102 133 167 220 278 329 394
#     4  12  22  40  73  99 133 172 222 273 334 394
#     4  12  24  44  65  94 128 178 221 270 333 396
#     4  10  19  36  63  93 126 165 220 271 326 385
#     4  10  21  36  63  96 126 165 216 277 325 386
#     4  11  21  36  64 102 131 169 216 275 333 384
#
# _framework density 25.938727
#
# number of rings (size 3 to 8) (size 9 to 14) (size 15 to 20)
#    0.000    1.143    2.857    5.143    4.000    0.571 
#    2.571    0.714    0.000    0.000    0.000    0.000 
#    0.000    0.000    0.000    0.000    0.000    0.000 
#
# Total GULP energy -156657.676655 kJ/mol
# GULP energy per Si atom -5594.917023 kJ/mol
# Density = 2.587969 g / cm^3
# Si number density = 25.938727 Si / 1000 Ang^3
#
#
#
# Elastic Constant Matrix: (Units=GPa)
#
#
# Indices 1 2 3 4 5 6 
#
# 1 101.8304 17.5777 40.9575 0.0000 -45.9656 0.0000
# 2 17.5777 107.8942 51.0378 0.0000 -27.8262 0.0000
# 3 40.9575 51.0378 151.7769 0.0000 -51.8664 0.0000
# 4 0.0000 0.0000 0.0000 50.8832 0.0000 -11.9756
# 5 -45.9656 -27.8262 -51.8664 0.0000 54.7616 0.0000
# 6 0.0000 0.0000 0.0000 -11.9756 0.0000 35.5047
#
#
#
# Elastic Compliance Matrix: (Units=1/GPa)
#
#
# Indices 1 2 3 4 5 6 
#
# 1 0.015903 0.000934 0.000175 0.000000 0.013989 0.000000
# 2 0.000934 0.011442 -0.002728 0.000000 0.004015 0.000000
# 3 0.000175 -0.002728 0.010402 0.000000 0.008613 0.000000
# 4 0.000000 0.000000 0.000000 0.021348 0.000000 0.007200
# 5 0.013989 0.004015 0.008613 0.000000 0.040200 0.000000
# 6 0.000000 0.000000 0.000000 0.007200 0.000000 0.030594
#
#
# Mechanical properties :
#
#
# Convention : Reuss Voigt Hill
#
# Bulk Modulus (GPa) = 28.97749 64.51636 46.74692
# Shear Modulus (GPa) = 34.57113 45.02514 39.79814
#
# Velocity S-wave (km/s) = 3.65471 4.17085 3.92128
# Velocity P-wave (km/s) = 5.38563 6.93694 6.20992
#
# Compressibility (1/GPa) = 0.03450955
#
# Stress axis : x y z
#
# Youngs Moduli (GPa) = 62.88007 87.39858 96.13673
#
# Poissons Ratio (x) = -0.08165 -0.01680
# Poissons Ratio (y) = -0.05875 0.26223
# Poissons Ratio (z) = -0.01099 0.23840
#
# Static dielectric constant tensor:
#      x y z
#    x 2.113690 0.000000 0.090060 
#    y 0.000000 2.079550 0.000000 
#    z 0.090060 0.000000 2.121420 
# 
# From -- ./inp_files/54849.got.cif
#   From: 2010.05.17/outbox.cif.g08.bks.cpg/sg14_28_cif.got.tgz:54849.got - 2010.06.03 17:49:19.
