data_PCOD9241081
_publ_section_title
;
Structure prediction by ZEFSAII (Michael W. Deem and Ramdas Pophale) SiO2 
 PCOD9241081
Probable space group: P 21/C
;
_chemical_formula_sum "Si O2"
_cell_formula_units_Z 32
_cell_length_a 8.152769
_cell_length_b 8.357628
_cell_length_c 17.604683
_cell_angle_alpha 90.000000
_cell_angle_beta 73.923921
_cell_angle_gamma 90.000000
_cell_volume 1152.636183
_symmetry_space_group_name_H-M "P 21/C"
_symmetry_group_IT_number 14
_symmetry_cell_setting 'monoclinic'
loop_
_space_group_symop_operation_xyz
x,y,z
-x,1/2+y,1/2-z
-x,-y,-z
x,1/2-y,1/2+z
loop_
_atom_site_type_symbol
_atom_site_label
_atom_site_fract_x
_atom_site_fract_y
_atom_site_fract_z
Si Si1 0.704865 0.034804 0.123955
Si Si2 0.808601 0.571042 0.118246
Si Si3 0.401299 0.833154 0.009670
Si Si4 0.446655 0.211275 0.764402
Si Si5 0.765816 0.296124 0.827797
Si Si6 0.102240 0.328528 0.498808
Si Si7 0.028491 0.751375 0.833221
Si Si8 0.537798 0.579160 0.900153
O O1 0.693998 0.164837 0.059155
O O2 0.855991 0.096026 0.156795
O O3 0.567234 0.969942 0.200210
O O4 0.729092 0.878184 0.068370
O O5 0.718195 0.686358 0.191501
O O6 0.894323 0.418381 0.148398
O O7 0.641776 0.510759 0.093489
O O8 0.939617 0.670985 0.046892
O O9 0.516657 0.677066 0.980794
O O10 0.274394 0.818848 0.096237
O O11 0.500000 0.000000 0.000000
O O12 0.619705 0.262689 0.783701
O O13 0.449365 0.198204 0.674043
O O14 0.944135 0.263748 0.761411
O O15 0.706914 0.468643 0.868289
O O16 0.000000 0.500000 0.500000
O O17 0.119257 0.284948 0.585177
#
# Coordination Sequence:
#
# PCOD9241081 Si02
#       8
#     4   4   4   4   4   4   4   4
#     4  10  19  39  57  83 116 152 189 243 292 350
#     4  10  20  32  60  88 117 143 191 245 300 342
#     4  12  24  36  57  84 125 159 188 229 299 372
#     4  10  19  34  57  88 115 151 185 239 297 350
#     4  11  22  34  55  86 119 150 194 234 296 356
#     4   9  21  37  60  84 113 149 197 248 300 336
#     4  11  19  36  62  88 109 148 201 251 281 343
#     4  11  22  37  57  86 125 152 191 240 301 356
#
# _framework density 27.762443999999999
#
# number of rings (size 3 to 8) (size 9 to 14) (size 15 to 20)
#    0.000    1.500    5.000    0.750    3.500    0.000 
#    0.000    0.000    2.750    0.000    0.000    0.000 
#    0.000    0.000    0.000    0.000    0.000    0.000 
#
# Total GULP energy -178500.708919 kJ/mol
# GULP energy per Si atom -5578.147154 kJ/mol
# Density = 2.769926 g / cm^3
# Si number density = 27.762444 Si / 1000 Ang^3
#
#
#
# Elastic Constant Matrix: (Units=GPa)
#
#
# Indices 1 2 3 4 5 6 
#
# 1 57.6796 19.0154 10.9437 0.0000 -6.1240 0.0000
# 2 19.0154 131.1295 50.9816 0.0000 -6.2934 0.0000
# 3 10.9437 50.9816 223.7483 0.0000 -23.9194 0.0000
# 4 0.0000 0.0000 0.0000 73.6401 0.0000 -7.6386
# 5 -6.1240 -6.2934 -23.9194 0.0000 22.6618 0.0000
# 6 0.0000 0.0000 0.0000 -7.6386 0.0000 31.9423
#
#
#
# Elastic Compliance Matrix: (Units=1/GPa)
#
#
# Indices 1 2 3 4 5 6 
#
# 1 0.018623 -0.002543 0.000148 0.000000 0.004482 0.000000
# 2 -0.002543 0.008717 -0.001890 0.000000 -0.000261 0.000000
# 3 0.000148 -0.001890 0.005457 0.000000 0.005274 0.000000
# 4 0.000000 0.000000 0.000000 0.013925 0.000000 0.003330
# 5 0.004482 -0.000261 0.005274 0.000000 0.050833 0.000000
# 6 0.000000 0.000000 0.000000 0.003330 0.000000 0.032103
#
#
# Mechanical properties :
#
#
# Convention : Reuss Voigt Hill
#
# Bulk Modulus (GPa) = 41.27623 63.82653 52.55138
# Shear Modulus (GPa) = 34.17560 47.75661 40.96611
#
# Velocity S-wave (km/s) = 3.51237 4.15201 3.84551
# Velocity P-wave (km/s) = 5.59901 6.78423 6.21992
#
# Compressibility (1/GPa) = 0.02422702
#
# Stress axis : x y z
#
# Youngs Moduli (GPa) = 53.69600 114.71869 183.26725
#
# Poissons Ratio (x) = 0.29172 -0.02707
# Poissons Ratio (y) = 0.13654 0.34632
# Poissons Ratio (z) = -0.00793 0.21678
#
# Static dielectric constant tensor:
#      x y z
#    x 2.349050 0.000000 -0.059660 
#    y 0.000000 2.395800 0.000000 
#    z -0.059660 0.000000 2.238180 
# 
# From -- ./inp_files/57275.got.cif
#   From: 2010.05.17/outbox.cif.g08.bks.cpg/sg14_29_cif.got.tgz:57275.got - 2010.06.03 17:49:19.
