data_PCOD9241127
_publ_section_title
;
Structure prediction by ZEFSAII (Michael W. Deem and Ramdas Pophale) SiO2 
 PCOD9241127
Probable space group: P 21/C
;
_chemical_formula_sum "Si O2"
_cell_formula_units_Z 32
_cell_length_a 11.613630
_cell_length_b 11.513759
_cell_length_c 19.388831
_cell_angle_alpha 90.000000
_cell_angle_beta 140.010833
_cell_angle_gamma 90.000000
_cell_volume 1666.120337
_symmetry_space_group_name_H-M "P 21/C"
_symmetry_group_IT_number 14
_symmetry_cell_setting 'monoclinic'
loop_
_space_group_symop_operation_xyz
x,y,z
-x,1/2+y,1/2-z
-x,-y,-z
x,1/2-y,1/2+z
loop_
_atom_site_type_symbol
_atom_site_label
_atom_site_fract_x
_atom_site_fract_y
_atom_site_fract_z
Si Si1 0.648362 0.795047 0.062054
Si Si2 0.749302 0.381883 0.363060
Si Si3 0.874593 0.504357 0.608438
Si Si4 0.374880 0.541391 0.046943
Si Si5 0.347402 0.800638 0.040936
Si Si6 0.845183 0.626850 0.446261
Si Si7 0.762443 0.555277 0.157242
Si Si8 0.441381 0.199563 0.630681
O O1 0.506680 0.803252 0.058673
O O2 0.781902 0.690354 0.144477
O O3 0.744525 0.917645 0.095601
O O4 0.562364 0.752570 0.949139
O O5 0.626051 0.366112 0.374442
O O6 0.783056 0.520282 0.369035
O O7 0.640588 0.317844 0.252902
O O8 0.949504 0.334273 0.473409
O O9 0.808434 0.373327 0.567360
O O10 0.865268 0.568630 0.530901
O O11 0.071347 0.498949 0.728286
O O12 0.314424 0.666717 0.044472
O O13 0.583697 0.547284 0.120979
O O14 0.358714 0.429948 0.087962
O O15 0.273606 0.514035 0.929474
O O16 0.690062 0.721813 0.382960
#
# Coordination Sequence:
#
# PCOD9241127 Si02
#       8
#     4   4   4   4   4   4   4   4
#     4   9  20  38  55  88 119 146 199 238 289 360
#     4  10  21  39  62  85 115 162 195 245 294 347
#     4  10  19  34  60  83 117 150 193 243 291 340
#     4   9  19  35  53  81 117 143 196 232 283 354
#     4  10  21  36  57  86 119 148 190 243 288 347
#     4   9  21  39  59  89 113 150 217 233 284 371
#     4   9  18  33  55  83 109 157 183 233 291 341
#     4  10  20  38  64  81 116 159 191 248 294 342
#
# _framework density 19.206295999999998
#
# number of rings (size 3 to 8) (size 9 to 14) (size 15 to 20)
#    0.000    2.500    0.000    1.875    3.500    0.000 
#    9.000    0.625    0.000    0.000    0.000    0.000 
#    0.000    0.000    0.000    0.000    0.000    0.000 
#
# Total GULP energy -178327.914612 kJ/mol
# GULP energy per Si atom -5572.747332 kJ/mol
# Density = 1.916258 g / cm^3
# Si number density = 19.206296 Si / 1000 Ang^3
#
#
#
# Elastic Constant Matrix: (Units=GPa)
#
#
# Indices 1 2 3 4 5 6 
#
# 1 50.9724 10.9243 0.0087 0.0000 -3.5855 0.0000
# 2 10.9243 83.1861 27.8358 0.0000 9.7461 0.0000
# 3 0.0087 27.8358 90.8155 0.0000 6.6398 0.0000
# 4 0.0000 0.0000 0.0000 13.4857 0.0000 8.3257
# 5 -3.5855 9.7461 6.6398 0.0000 11.7670 0.0000
# 6 0.0000 0.0000 0.0000 8.3257 0.0000 22.5652
#
#
#
# Elastic Compliance Matrix: (Units=1/GPa)
#
#
# Indices 1 2 3 4 5 6 
#
# 1 0.021162 -0.004079 0.000552 0.000000 0.009515 0.000000
# 2 -0.004079 0.015199 -0.003804 0.000000 -0.011685 0.000000
# 3 0.000552 -0.003804 0.012448 0.000000 -0.003705 0.000000
# 4 0.000000 0.000000 0.000000 0.096026 0.000000 -0.035430
# 5 0.009515 -0.011685 -0.003705 0.000000 0.099652 0.000000
# 6 0.000000 0.000000 0.000000 -0.035430 0.000000 0.057388
#
#
# Mechanical properties :
#
#
# Convention : Reuss Voigt Hill
#
# Bulk Modulus (GPa) = 29.28383 33.61240 31.44811
# Shear Modulus (GPa) = 15.24773 21.97727 18.61250
#
# Velocity S-wave (km/s) = 2.82067 3.38638 3.11639
# Velocity P-wave (km/s) = 5.08805 5.72964 5.41835
#
# Compressibility (1/GPa) = 0.03414854
#
# Stress axis : x y z
#
# Youngs Moduli (GPa) = 47.25505 65.79512 80.33362
#
# Poissons Ratio (x) = 0.26835 -0.04438
# Poissons Ratio (y) = 0.19274 0.30558
# Poissons Ratio (z) = -0.02611 0.25027
#
# Static dielectric constant tensor:
#      x y z
#    x 1.681280 0.000000 -0.011590 
#    y 0.000000 1.704910 0.000000 
#    z -0.011590 0.000000 1.673140 
# 
# From -- ./inp_files/67276.got.cif
#   From: 2010.05.17/outbox.cif.g08.bks.cpg/sg14_34_cif.got.tgz:67276.got - 2010.06.03 17:49:19.
