data_PCOD9241971
_publ_section_title
;
Structure prediction by ZEFSAII (Michael W. Deem and Ramdas Pophale) SiO2 
 PCOD9241971
Probable space group: P 21/C
;
_chemical_formula_sum "Si O2"
_cell_formula_units_Z 20
_cell_length_a 7.460943
_cell_length_b 9.317087
_cell_length_c 12.971910
_cell_angle_alpha 90.000000
_cell_angle_beta 59.349945
_cell_angle_gamma 90.000000
_cell_volume 775.757891
_symmetry_space_group_name_H-M "P 21/C"
_symmetry_group_IT_number 14
_symmetry_cell_setting 'monoclinic'
loop_
_space_group_symop_operation_xyz
x,y,z
-x,1/2+y,1/2-z
-x,-y,-z
x,1/2-y,1/2+z
loop_
_atom_site_type_symbol
_atom_site_label
_atom_site_fract_x
_atom_site_fract_y
_atom_site_fract_z
Si Si1 0.678026 0.087504 0.588159
Si Si2 0.746977 0.630210 0.886935
Si Si3 0.227341 0.869090 0.221056
Si Si4 0.268276 0.063960 0.022152
Si Si5 0.779781 0.120471 0.141706
O O1 0.429182 0.098220 0.645613
O O2 0.742667 0.036240 0.683293
O O3 0.777436 0.246898 0.559811
O O4 0.753908 0.992032 0.471892
O O5 0.674557 0.775677 0.963550
O O6 0.979487 0.649243 0.776844
O O7 0.306731 0.710603 0.234463
O O8 0.319356 0.950055 0.096808
O O9 0.013962 0.074660 0.097170
O O10 0.321336 0.007815 0.892699
#
# Coordination Sequence:
#
# PCOD9241971 Si02
#       5
#     4   4   4   4   4
#     4   9  20  40  59  88 119 157 194 241 307 344
#     4  10  20  38  63  86 119 157 196 246 299 350
#     4   9  20  38  60  83 123 159 194 243 297 350
#     4  10  19  38  63  90 116 160 204 241 296 351
#     4   8  20  38  59  86 118 154 198 245 292 350
#
# _framework density 25.781238999999999
#
# number of rings (size 3 to 8) (size 9 to 14) (size 15 to 20)
#    1.200    1.600    0.000    0.600    0.000    4.000 
#   10.800    2.000    0.000    0.000    0.000    0.000 
#    0.000    0.000    0.000    0.000    0.000    0.000 
#
# Total GULP energy -111738.940146 kJ/mol
# GULP energy per Si atom -5586.947007 kJ/mol
# Density = 2.572256 g / cm^3
# Si number density = 25.781239 Si / 1000 Ang^3
#
#
#
# Elastic Constant Matrix: (Units=GPa)
#
#
# Indices 1 2 3 4 5 6 
#
# 1 113.6271 15.6249 30.0523 0.0000 15.7982 0.0000
# 2 15.6249 117.5625 65.2268 0.0000 13.0040 0.0000
# 3 30.0523 65.2268 111.9139 0.0000 11.3043 0.0000
# 4 0.0000 0.0000 0.0000 51.3405 0.0000 15.1472
# 5 15.7982 13.0040 11.3043 0.0000 35.1183 0.0000
# 6 0.0000 0.0000 0.0000 15.1472 0.0000 35.8015
#
#
#
# Elastic Compliance Matrix: (Units=1/GPa)
#
#
# Indices 1 2 3 4 5 6 
#
# 1 0.009948 0.000546 -0.002602 0.000000 -0.003840 0.000000
# 2 0.000546 0.012796 -0.007340 0.000000 -0.002621 0.000000
# 3 -0.002602 -0.007340 0.013973 0.000000 -0.000610 0.000000
# 4 0.000000 0.000000 0.000000 0.022256 0.000000 -0.009416
# 5 -0.003840 -0.002621 -0.000610 0.000000 0.031369 0.000000
# 6 0.000000 0.000000 0.000000 -0.009416 0.000000 0.031916
#
#
# Mechanical properties :
#
#
# Convention : Reuss Voigt Hill
#
# Bulk Modulus (GPa) = 55.78378 62.76793 59.27585
# Shear Modulus (GPa) = 34.00820 39.93203 36.97011
#
# Velocity S-wave (km/s) = 3.63589 3.93985 3.79092
# Velocity P-wave (km/s) = 6.26982 6.71534 6.49640
#
# Compressibility (1/GPa) = 0.01792636
#
# Stress axis : x y z
#
# Youngs Moduli (GPa) = 100.52701 78.15142 71.56461
#
# Poissons Ratio (x) = -0.04268 0.18619
# Poissons Ratio (y) = -0.05490 0.52525
# Poissons Ratio (z) = 0.26154 0.57360
#
# Static dielectric constant tensor:
#      x y z
#    x 2.109960 0.000000 -0.038660 
#    y 0.000000 1.986640 0.000000 
#    z -0.038660 0.000000 2.049750 
# 
# From -- ./inp_files/44521.got.cif
#   From: 2010.05.17/outbox.cif.g08.bks.cpg/sg14_23_cif.got.tgz:44521.got - 2010.06.03 17:49:19.
