data_PCOD9241043
_publ_section_title
;
Structure prediction by ZEFSAII (Michael W. Deem and Ramdas Pophale) SiO2 
 PCOD9241043
Probable space group: P 21/C
;
_chemical_formula_sum "Si O2"
_cell_formula_units_Z 28
_cell_length_a 14.813682
_cell_length_b 9.528769
_cell_length_c 14.492990
_cell_angle_alpha 90.000000
_cell_angle_beta 148.501314
_cell_angle_gamma 90.000000
_cell_volume 1068.874354
_symmetry_space_group_name_H-M "P 21/C"
_symmetry_group_IT_number 14
_symmetry_cell_setting 'monoclinic'
loop_
_space_group_symop_operation_xyz
x,y,z
-x,1/2+y,1/2-z
-x,-y,-z
x,1/2-y,1/2+z
loop_
_atom_site_type_symbol
_atom_site_label
_atom_site_fract_x
_atom_site_fract_y
_atom_site_fract_z
Si Si1 0.089900 0.049709 0.173958
Si Si2 0.910101 0.049709 0.326043
Si Si3 0.723865 0.061574 0.911166
Si Si4 0.499999 0.706736 0.250000
Si Si5 0.276136 0.438425 0.088836
Si Si6 0.311419 0.685583 0.824013
Si Si7 0.311418 0.185583 0.824014
O O1 0.167104 0.200712 0.221448
O O2 0.253061 0.947703 0.334493
O O3 0.927379 0.046022 0.099679
O O4 0.000000 0.000000 0.000000
O O5 0.832896 0.200712 0.278553
O O6 0.072621 0.046024 0.400322
O O7 0.746940 0.947703 0.165507
O O8 0.000000 0.000000 0.500000
O O9 0.637082 0.173992 0.906070
O O10 0.696145 0.136797 0.788433
O O11 0.631609 0.910515 0.823612
O O12 0.368390 0.589486 0.176389
O O13 0.637080 0.826010 0.406068
O O14 0.303855 0.363201 0.211568
O O15 0.500000 0.750000 0.999999
#
# Coordination Sequence:
#
# PCOD9241043 Si02
#       7
#     4   4   4   4   4   4   4
#     4  10  19  34  56  81 109 140 181 226 267 321
#     4  10  19  34  56  81 109 140 181 226 267 321
#     4  10  19  35  55  81 106 145 187 218 267 319
#     4  10  20  32  56  78 108 144 190 226 242 320
#     4  10  19  35  55  81 106 145 187 218 267 319
#     4  11  21  34  57  87 114 135 170 235 289 317
#     4  11  21  34  57  87 114 135 170 235 289 317
#
# _framework density 26.195784
#
# number of rings (size 3 to 8) (size 9 to 14) (size 15 to 20)
#    0.000    1.714    0.000    9.429    0.000    0.000 
#    0.000    0.000    0.000   25.714    0.000    0.000 
#    0.000    0.000    0.000    0.000    0.000    0.000 
#
# Total GULP energy -156356.877839 kJ/mol
# GULP energy per Si atom -5584.174209 kJ/mol
# Density = 2.613616 g / cm^3
# Si number density = 26.195784 Si / 1000 Ang^3
#
#
#
# Elastic Constant Matrix: (Units=GPa)
#
#
# Indices 1 2 3 4 5 6 
#
# 1 73.9923 46.9805 86.9479 0.0000 24.6820 0.0000
# 2 46.9805 225.0594 47.3895 0.0000 31.9473 0.0000
# 3 86.9479 47.3895 144.4678 0.0000 37.4993 0.0000
# 4 0.0000 0.0000 0.0000 66.5990 0.0000 29.4779
# 5 24.6820 31.9473 37.4993 0.0000 67.3697 0.0000
# 6 0.0000 0.0000 0.0000 29.4779 0.0000 31.5394
#
#
#
# Elastic Compliance Matrix: (Units=1/GPa)
#
#
# Indices 1 2 3 4 5 6 
#
# 1 0.049916 -0.004366 -0.028521 0.000000 -0.000342 0.000000
# 2 -0.004366 0.005312 0.001313 0.000000 -0.001651 0.000000
# 3 -0.028521 0.001313 0.024670 0.000000 -0.003906 0.000000
# 4 0.000000 0.000000 0.000000 0.025610 0.000000 -0.023936
# 5 -0.000342 -0.001651 -0.003906 0.000000 0.017926 0.000000
# 6 0.000000 0.000000 0.000000 -0.023936 0.000000 0.054077
#
#
# Mechanical properties :
#
#
# Convention : Reuss Voigt Hill
#
# Bulk Modulus (GPa) = 59.69520 89.57282 74.63401
# Shear Modulus (GPa) = 20.30525 50.58171 35.44348
#
# Velocity S-wave (km/s) = 2.78714 4.39898 3.68234
# Velocity P-wave (km/s) = 5.76152 7.75043 6.82877
#
# Compressibility (1/GPa) = 0.01675177
#
# Stress axis : x y z
#
# Youngs Moduli (GPa) = 20.03372 188.23937 40.53457
#
# Poissons Ratio (x) = 0.82181 1.15609
# Poissons Ratio (y) = 0.08746 -0.05324
# Poissons Ratio (z) = 0.57138 -0.24724
#
# Static dielectric constant tensor:
#      x y z
#    x 2.212430 0.000000 0.027760 
#    y 0.000000 1.865840 0.000000 
#    z 0.027760 0.000000 2.114430 
# 
# From -- ./inp_files/74663.got.cif
#   From: 2010.05.17/outbox.cif.g08.bks.cpg/sg14_38_cif.got.tgz:74663.got - 2010.06.03 17:49:19.
