data_PCOD9241113
_publ_section_title
;
Structure prediction by ZEFSAII (Michael W. Deem and Ramdas Pophale) SiO2 
 PCOD9241113
Probable space group: P 21/C
;
_chemical_formula_sum "Si O2"
_cell_formula_units_Z 24
_cell_length_a 6.532302
_cell_length_b 18.162230
_cell_length_c 9.321075
_cell_angle_alpha 90.000000
_cell_angle_beta 126.644263
_cell_angle_gamma 90.000000
_cell_volume 887.296717
_symmetry_space_group_name_H-M "P 21/C"
_symmetry_group_IT_number 14
_symmetry_cell_setting 'monoclinic'
loop_
_space_group_symop_operation_xyz
x,y,z
-x,1/2+y,1/2-z
-x,-y,-z
x,1/2-y,1/2+z
loop_
_atom_site_type_symbol
_atom_site_label
_atom_site_fract_x
_atom_site_fract_y
_atom_site_fract_z
Si Si1 0.265714 0.094140 0.810369
Si Si2 0.916346 0.756733 0.230702
Si Si3 0.739190 0.604402 0.130271
Si Si4 0.229432 0.554663 0.813148
Si Si5 0.236613 0.937697 0.655221
Si Si6 0.552606 0.190277 0.116947
O O1 0.139313 0.170913 0.696923
O O2 0.052243 0.080114 0.848421
O O3 0.320350 0.015573 0.760509
O O4 0.529780 0.127518 0.981186
O O5 0.209611 0.744305 0.310207
O O6 0.815650 0.678565 0.241922
O O7 0.717953 0.770338 0.015949
O O8 0.714592 0.528500 0.210335
O O9 0.985691 0.589461 0.134348
O O10 0.486120 0.602960 0.921709
O O11 0.179723 0.549672 0.965084
O O12 0.404148 0.863577 0.732386
#
# Coordination Sequence:
#
# PCOD9241113 Si02
#       6
#     4   4   4   4   4   4
#     4   9  18  31  58  80 111 150 186 231 281 338
#     4   9  18  32  56  82 108 154 186 228 284 340
#     4   9  18  33  55  80 113 147 185 225 276 337
#     4  10  19  34  59  85 110 148 191 227 279 339
#     4  10  19  36  57  88 109 148 191 234 276 339
#     4   9  19  33  57  81 115 147 193 226 288 335
#
# _framework density 27.048449000000002
#
# number of rings (size 3 to 8) (size 9 to 14) (size 15 to 20)
#    1.000    1.667    0.000    3.500    0.000    0.000 
#    0.000    5.000    0.000   29.000    0.000    0.000 
#    0.000    0.000    0.000    0.000    0.000    0.000 
#
# Total GULP energy -133611.008094 kJ/mol
# GULP energy per Si atom -5567.125337 kJ/mol
# Density = 2.698689 g / cm^3
# Si number density = 27.048449 Si / 1000 Ang^3
#
#
#
# Elastic Constant Matrix: (Units=GPa)
#
#
# Indices 1 2 3 4 5 6 
#
# 1 75.4659 53.7659 25.1156 0.0000 26.7384 0.0000
# 2 53.7659 167.5000 33.5629 0.0000 18.6122 0.0000
# 3 25.1156 33.5629 89.8735 0.0000 35.1182 0.0000
# 4 0.0000 0.0000 0.0000 67.0054 0.0000 16.2260
# 5 26.7384 18.6122 35.1182 0.0000 39.0175 0.0000
# 6 0.0000 0.0000 0.0000 16.2260 0.0000 35.7770
#
#
#
# Elastic Compliance Matrix: (Units=1/GPa)
#
#
# Indices 1 2 3 4 5 6 
#
# 1 0.021577 -0.005712 0.001259 0.000000 -0.013195 0.000000
# 2 -0.005712 0.008015 -0.002210 0.000000 0.002080 0.000000
# 3 0.001259 -0.002210 0.017778 0.000000 -0.015810 0.000000
# 4 0.000000 0.000000 0.000000 0.016765 0.000000 -0.007604
# 5 -0.013195 0.002080 -0.015810 0.000000 0.047910 0.000000
# 6 0.000000 0.000000 0.000000 -0.007604 0.000000 0.031399
#
#
# Mechanical properties :
#
#
# Convention : Reuss Voigt Hill
#
# Bulk Modulus (GPa) = 29.37277 61.96981 45.67129
# Shear Modulus (GPa) = 29.74108 43.05300 36.39704
#
# Velocity S-wave (km/s) = 3.31954 3.99394 3.67225
# Velocity P-wave (km/s) = 5.05721 6.65050 5.90781
#
# Compressibility (1/GPa) = 0.03404514
#
# Stress axis : x y z
#
# Youngs Moduli (GPa) = 46.34651 124.76095 56.24976
#
# Poissons Ratio (x) = 0.71264 -0.07084
# Poissons Ratio (y) = 0.26473 0.12430
# Poissons Ratio (z) = -0.05837 0.27569
#
# Static dielectric constant tensor:
#      x y z
#    x 2.254320 0.000000 0.110540 
#    y 0.000000 2.261700 0.000000 
#    z 0.110540 0.000000 2.348210 
# 
# From -- ./inp_files/41901.got.cif
#   From: 2010.05.17/outbox.cif.g08.bks.cpg/sg14_21_cif.got.tgz:41901.got - 2010.06.03 17:49:19.
