data_PCOD9241626
_publ_section_title
;
Structure prediction by ZEFSAII (Michael W. Deem and Ramdas Pophale) SiO2 
 PCOD9241626
Probable space group: P 21/C
;
_chemical_formula_sum "Si O2"
_cell_formula_units_Z 24
_cell_length_a 13.969929
_cell_length_b 12.070370
_cell_length_c 11.520547
_cell_angle_alpha 90.000000
_cell_angle_beta 148.619464
_cell_angle_gamma 90.000000
_cell_volume 1011.560451
_symmetry_space_group_name_H-M "P 21/C"
_symmetry_group_IT_number 14
_symmetry_cell_setting 'monoclinic'
loop_
_space_group_symop_operation_xyz
x,y,z
-x,1/2+y,1/2-z
-x,-y,-z
x,1/2-y,1/2+z
loop_
_atom_site_type_symbol
_atom_site_label
_atom_site_fract_x
_atom_site_fract_y
_atom_site_fract_z
Si Si1 0.576871 0.104032 0.646976
Si Si2 0.783812 0.368353 0.972652
Si Si3 0.456399 0.341947 0.479162
Si Si4 0.283807 0.868352 0.972649
Si Si5 0.956395 0.841947 0.479159
Si Si6 0.923133 0.104031 0.853026
O O1 0.448762 0.212834 0.513135
O O2 0.750001 0.143262 0.749998
O O3 0.500000 0.000000 0.500000
O O4 0.640715 0.064130 0.840020
O O5 0.590677 0.399221 0.712535
O O6 0.750002 0.250001 0.000002
O O7 0.859293 0.435871 0.159986
O O8 0.935002 0.353167 0.029377
O O9 0.565001 0.353168 0.470624
O O10 0.250002 0.384071 0.250002
O O11 0.090672 0.899221 0.712531
O O12 0.948756 0.712834 0.513131
O O13 0.000000 0.000000 0.000000
#
# Coordination Sequence:
#
# PCOD9241626 Si02
#       6
#     4   4   4   4   4   4
#     4  11  21  37  56  92 126 152 193 253 303 345
#     4   9  18  37  58  86 123 152 202 249 286 356
#     4  10  19  36  64  88 113 162 202 240 296 356
#     4   9  18  37  58  86 123 152 202 249 286 356
#     4  10  19  36  64  88 113 162 202 240 296 356
#     4  11  21  37  56  92 126 152 193 253 303 345
#
# _framework density 23.725719999999999
#
# number of rings (size 3 to 8) (size 9 to 14) (size 15 to 20)
#    0.000    2.000    6.667    1.000    0.000    5.333 
#    6.000    0.000    0.000    8.000    0.000    0.000 
#    0.000    0.000    0.000    0.000    0.000    0.000 
#
# Total GULP energy -134156.871144 kJ/mol
# GULP energy per Si atom -5589.869631 kJ/mol
# Density = 2.367172 g / cm^3
# Si number density = 23.725720 Si / 1000 Ang^3
#
#
#
# Elastic Constant Matrix: (Units=GPa)
#
#
# Indices 1 2 3 4 5 6 
#
# 1 128.9690 6.8787 108.0719 0.0000 -26.5508 0.0000
# 2 6.8787 94.4156 40.7901 0.0000 -9.7410 0.0000
# 3 108.0719 40.7901 244.0647 0.0000 -24.4598 0.0000
# 4 0.0000 0.0000 0.0000 30.9737 0.0000 -10.9884
# 5 -26.5508 -9.7410 -24.4598 0.0000 57.1985 0.0000
# 6 0.0000 0.0000 0.0000 -10.9884 0.0000 27.5358
#
#
#
# Elastic Compliance Matrix: (Units=1/GPa)
#
#
# Indices 1 2 3 4 5 6 
#
# 1 0.013384 0.001970 -0.005850 0.000000 0.004046 0.000000
# 2 0.001970 0.011782 -0.002663 0.000000 0.001782 0.000000
# 3 -0.005850 -0.002663 0.007120 0.000000 -0.000124 0.000000
# 4 0.000000 0.000000 0.000000 0.037610 0.000000 0.015009
# 5 0.004046 0.001782 -0.000124 0.000000 0.019612 0.000000
# 6 0.000000 0.000000 0.000000 0.015009 0.000000 0.042306
#
#
# Mechanical properties :
#
#
# Convention : Reuss Voigt Hill
#
# Bulk Modulus (GPa) = 52.08245 86.54786 69.31515
# Shear Modulus (GPa) = 33.04690 43.92216 38.48453
#
# Velocity S-wave (km/s) = 3.73617 4.30728 4.03185
# Velocity P-wave (km/s) = 6.37272 7.82908 7.13814
#
# Compressibility (1/GPa) = 0.01920032
#
# Stress axis : x y z
#
# Youngs Moduli (GPa) = 74.71624 84.87367 140.44397
#
# Poissons Ratio (x) = -0.16718 0.82161
# Poissons Ratio (y) = -0.14717 0.37397
# Poissons Ratio (z) = 0.43710 0.22600
#
# Static dielectric constant tensor:
#      x y z
#    x 1.874780 0.000000 -0.020510 
#    y 0.000000 2.049420 0.000000 
#    z -0.020510 0.000000 2.009460 
# 
# From -- ./inp_files/32657.got.cif
#   From: 2010.05.17/outbox.cif.g08.bks.cpg/sg14_17_cif.got.tgz:32657.got - 2010.06.03 17:49:19.
