data_PCOD9241883
_publ_section_title
;
Structure prediction by ZEFSAII (Michael W. Deem and Ramdas Pophale) SiO2 
 PCOD9241883
Probable space group: P 21/C
;
_chemical_formula_sum "Si O2"
_cell_formula_units_Z 32
_cell_length_a 21.440201
_cell_length_b 9.122903
_cell_length_c 22.731620
_cell_angle_alpha 90.000000
_cell_angle_beta 19.094425
_cell_angle_gamma 90.000000
_cell_volume 1454.478469
_symmetry_space_group_name_H-M "P 21/C"
_symmetry_group_IT_number 14
_symmetry_cell_setting 'monoclinic'
loop_
_space_group_symop_operation_xyz
x,y,z
-x,1/2+y,1/2-z
-x,-y,-z
x,1/2-y,1/2+z
loop_
_atom_site_type_symbol
_atom_site_label
_atom_site_fract_x
_atom_site_fract_y
_atom_site_fract_z
Si Si1 0.120199 0.372861 0.927038
Si Si2 0.326121 0.137099 0.024336
Si Si3 0.563970 0.903180 0.754280
Si Si4 0.843530 0.143095 0.778457
Si Si5 0.670056 0.363626 0.003208
Si Si6 0.811499 0.929093 0.198292
Si Si7 0.461341 0.402345 0.955422
Si Si8 0.139200 0.388245 0.116020
O O1 0.304213 0.411851 0.803929
O O2 0.182331 0.238557 0.830360
O O3 0.000000 0.500000 0.000000
O O4 0.972588 0.319966 0.108727
O O5 0.420860 0.038377 0.889385
O O6 0.480496 0.233647 0.921349
O O7 0.188277 0.257712 0.117306
O O8 0.235219 0.021588 0.150987
O O9 0.699473 0.906908 0.577781
O O10 0.440993 0.753921 0.859108
O O11 0.692657 0.271174 0.922708
O O12 0.954037 0.145526 0.742619
O O13 0.542249 0.502715 0.100903
O O14 0.858277 0.450665 0.856436
O O15 0.742297 0.917017 0.328410
O O16 0.639747 0.031320 0.329260
O O17 0.000000 0.000000 0.000000
#
# Coordination Sequence:
#
# PCOD9241883 Si02
#       8
#     4   4   4   4   4   4   4   4
#     4  11  23  39  58  86 119 154 201 252 297 358
#     4  10  21  38  58  87 119 154 196 247 305 365
#     4  10  21  37  57  85 116 156 193 241 302 365
#     4  10  21  37  59  87 116 155 196 248 302 364
#     4  10  19  38  58  81 119 152 189 244 304 356
#     4  11  23  40  62  87 118 160 207 253 300 356
#     4  10  22  40  60  87 120 159 203 250 300 364
#     4  10  20  35  61  84 118 149 199 244 300 365
#
# _framework density 22.001013
#
# number of rings (size 3 to 8) (size 9 to 14) (size 15 to 20)
#    0.000    1.750    1.250    3.000    1.750    0.000 
#    0.000    1.875    8.250    0.000    0.000    0.000 
#    0.000    0.000    0.000    0.000    0.000    0.000 
#
# Total GULP energy -178180.286702 kJ/mol
# GULP energy per Si atom -5568.133959 kJ/mol
# Density = 2.195094 g / cm^3
# Si number density = 22.001013 Si / 1000 Ang^3
#
#
#
# Elastic Constant Matrix: (Units=GPa)
#
#
# Indices 1 2 3 4 5 6 
#
# 1 60.3137 26.4966 -0.9615 0.0000 1.0713 0.0000
# 2 26.4966 148.2464 24.4222 0.0000 4.1097 0.0000
# 3 -0.9615 24.4222 80.1106 0.0000 6.6455 0.0000
# 4 0.0000 0.0000 0.0000 31.0150 0.0000 1.3945
# 5 1.0713 4.1097 6.6455 0.0000 18.0244 0.0000
# 6 0.0000 0.0000 0.0000 1.3945 0.0000 24.7966
#
#
#
# Elastic Compliance Matrix: (Units=1/GPa)
#
#
# Indices 1 2 3 4 5 6 
#
# 1 0.018125 -0.003437 0.001330 0.000000 -0.000784 0.000000
# 2 -0.003437 0.007767 -0.002351 0.000000 -0.000700 0.000000
# 3 0.001330 -0.002351 0.013593 0.000000 -0.004555 0.000000
# 4 0.000000 0.000000 0.000000 0.032324 0.000000 -0.001818
# 5 -0.000784 -0.000700 -0.004555 0.000000 0.057366 0.000000
# 6 0.000000 0.000000 0.000000 -0.001818 0.000000 0.040430
#
#
# Mechanical properties :
#
#
# Convention : Reuss Voigt Hill
#
# Bulk Modulus (GPa) = 32.71201 43.17614 37.94408
# Shear Modulus (GPa) = 26.49568 30.68143 28.58856
#
# Velocity S-wave (km/s) = 3.47406 3.73841 3.60866
# Velocity P-wave (km/s) = 5.56712 6.18882 5.88618
#
# Compressibility (1/GPa) = 0.03056981
#
# Stress axis : x y z
#
# Youngs Moduli (GPa) = 55.17237 128.75796 73.56612
#
# Poissons Ratio (x) = 0.44254 -0.09787
# Poissons Ratio (y) = 0.18963 0.17294
# Poissons Ratio (z) = -0.07340 0.30269
#
# Static dielectric constant tensor:
#      x y z
#    x 1.905990 0.000000 -0.046140 
#    y 0.000000 1.873690 0.000000 
#    z -0.046140 0.000000 1.817030 
# 
# From -- ./inp_files/74912.got.cif
#   From: 2010.05.17/outbox.cif.g08.bks.cpg/sg14_38_cif.got.tgz:74912.got - 2010.06.03 17:49:19.
