data_PCOD9241967
_publ_section_title
;
Structure prediction by ZEFSAII (Michael W. Deem and Ramdas Pophale) SiO2 
 PCOD9241967
Probable space group: P 21/C
;
_chemical_formula_sum "Si O2"
_cell_formula_units_Z 24
_cell_length_a 8.853760
_cell_length_b 16.149997
_cell_length_c 15.421246
_cell_angle_alpha 90.000000
_cell_angle_beta 35.822155
_cell_angle_gamma 90.000000
_cell_volume 1290.555983
_symmetry_space_group_name_H-M "P 21/C"
_symmetry_group_IT_number 14
_symmetry_cell_setting 'monoclinic'
loop_
_space_group_symop_operation_xyz
x,y,z
-x,1/2+y,1/2-z
-x,-y,-z
x,1/2-y,1/2+z
loop_
_atom_site_type_symbol
_atom_site_label
_atom_site_fract_x
_atom_site_fract_y
_atom_site_fract_z
Si Si1 0.581284 0.331065 0.801894
Si Si2 0.932706 0.610201 0.629624
Si Si3 0.378107 0.986119 0.849138
Si Si4 0.906279 0.436515 0.115952
Si Si5 0.957822 0.743499 0.995666
Si Si6 0.665940 0.582207 0.935009
O O1 0.562476 0.413912 0.750114
O O2 0.865159 0.294625 0.654479
O O3 0.521317 0.353921 0.928653
O O4 0.344410 0.271344 0.884085
O O5 0.769240 0.558929 0.633958
O O6 0.785021 0.609176 0.788625
O O7 0.199442 0.558707 0.503330
O O8 0.977450 0.702508 0.573420
O O9 0.628802 0.029033 0.771455
O O10 0.912328 0.346777 0.067583
O O11 0.101533 0.431978 0.105302
O O12 0.000000 0.500000 0.000000
O O13 0.500000 0.500000 0.000000
#
# Coordination Sequence:
#
# PCOD9241967 Si02
#       6
#     4   4   4   4   4   4
#     4  10  20  38  63  87 121 158 207 242 305 363
#     4  10  21  37  63  90 120 158 203 251 303 362
#     4  10  19  38  63  87 117 165 201 237 306 375
#     4  11  20  38  64  86 120 162 202 245 303 367
#     4  10  21  37  61  87 119 160 202 248 299 367
#     4  11  21  38  61  92 120 157 204 251 301 359
#
# _framework density 18.596636
#
# number of rings (size 3 to 8) (size 9 to 14) (size 15 to 20)
#    0.000    1.667    5.000    1.000    0.000    0.667 
#    0.000   13.333    0.000    0.000    0.000    0.000 
#    0.000    0.000    0.000    0.000    0.000    0.000 
#
# Total GULP energy -133800.503574 kJ/mol
# GULP energy per Si atom -5575.020982 kJ/mol
# Density = 1.855431 g / cm^3
# Si number density = 18.596636 Si / 1000 Ang^3
#
#
#
# Elastic Constant Matrix: (Units=GPa)
#
#
# Indices 1 2 3 4 5 6 
#
# 1 24.4002 33.9013 22.6699 0.0000 -4.5804 0.0000
# 2 33.9013 109.5969 43.3199 0.0000 6.1644 0.0000
# 3 22.6699 43.3199 138.7501 0.0000 14.5188 0.0000
# 4 0.0000 0.0000 0.0000 32.5010 0.0000 -11.2976
# 5 -4.5804 6.1644 14.5188 0.0000 38.4635 0.0000
# 6 0.0000 0.0000 0.0000 -11.2976 0.0000 22.3341
#
#
#
# Elastic Compliance Matrix: (Units=1/GPa)
#
#
# Indices 1 2 3 4 5 6 
#
# 1 0.085320 -0.024112 -0.008203 0.000000 0.017121 0.000000
# 2 -0.024112 0.017231 -0.000886 0.000000 -0.005299 0.000000
# 3 -0.008203 -0.000886 0.009278 0.000000 -0.004337 0.000000
# 4 0.000000 0.000000 0.000000 0.037333 0.000000 0.018885
# 5 0.017121 -0.005299 -0.004337 0.000000 0.030524 0.000000
# 6 0.000000 0.000000 0.000000 0.018885 0.000000 0.054327
#
#
# Mechanical properties :
#
#
# Convention : Reuss Voigt Hill
#
# Bulk Modulus (GPa) = 22.01375 52.50328 37.25851
# Shear Modulus (GPa) = 15.84493 30.18344 23.01419
#
# Velocity S-wave (km/s) = 2.92213 4.03309 3.52169
# Velocity P-wave (km/s) = 4.82165 7.06978 6.05103
#
# Compressibility (1/GPa) = 0.04542616
#
# Stress axis : x y z
#
# Youngs Moduli (GPa) = 11.72054 58.03470 107.78283
#
# Poissons Ratio (x) = 1.39935 0.88420
# Poissons Ratio (y) = 0.28261 0.09547
# Poissons Ratio (z) = 0.09615 0.05140
#
# Static dielectric constant tensor:
#      x y z
#    x 1.626030 0.000000 -0.043470 
#    y 0.000000 1.670890 0.000000 
#    z -0.043470 0.000000 1.692630 
# 
# From -- ./inp_files/41078.got.cif
#   From: 2010.05.17/outbox.cif.g08.bks.cpg/sg14_21_cif.got.tgz:41078.got - 2010.06.03 17:49:19.
