data_PCOD9241840
_publ_section_title
;
Structure prediction by ZEFSAII (Michael W. Deem and Ramdas Pophale) SiO2 
 PCOD9241840
Probable space group: P 21/C
;
_chemical_formula_sum "Si O2"
_cell_formula_units_Z 32
_cell_length_a 9.624858
_cell_length_b 13.623446
_cell_length_c 14.643106
_cell_angle_alpha 90.000000
_cell_angle_beta 38.915143
_cell_angle_gamma 90.000000
_cell_volume 1206.120835
_symmetry_space_group_name_H-M "P 21/C"
_symmetry_group_IT_number 14
_symmetry_cell_setting 'monoclinic'
loop_
_space_group_symop_operation_xyz
x,y,z
-x,1/2+y,1/2-z
-x,-y,-z
x,1/2-y,1/2+z
loop_
_atom_site_type_symbol
_atom_site_label
_atom_site_fract_x
_atom_site_fract_y
_atom_site_fract_z
Si Si1 0.734238 0.756767 0.559855
Si Si2 0.896278 0.396065 0.581748
Si Si3 0.791293 0.546801 0.361567
Si Si4 0.371990 0.658320 0.545352
Si Si5 0.883243 0.801839 0.293018
Si Si6 0.655816 0.220996 0.610376
Si Si7 0.279009 0.993400 0.671658
Si Si8 0.925337 0.624109 0.126671
O O1 0.731951 0.801311 0.460289
O O2 0.517304 0.714982 0.720025
O O3 0.911492 0.668063 0.469169
O O4 0.815947 0.840705 0.589405
O O5 0.804736 0.316696 0.557967
O O6 0.696111 0.430405 0.749551
O O7 0.000000 0.500000 0.500000
O O8 0.594010 0.623773 0.483322
O O9 0.705485 0.448152 0.453145
O O10 0.053743 0.555448 0.246319
O O11 0.805227 0.537218 0.242688
O O12 0.434166 0.743438 0.441639
O O13 0.134812 0.691021 0.706194
O O14 0.806235 0.895053 0.273099
O O15 0.896165 0.710281 0.218108
O O16 0.811331 0.125889 0.523618
O O17 0.500000 0.000000 0.500000
#
# Coordination Sequence:
#
# PCOD9241840 Si02
#       8
#     4   4   4   4   4   4   4   4
#     4  11  22  42  65 100 136 173 227 286 346 419
#     4  11  23  42  67  95 131 175 229 279 343 415
#     4  10  19  37  65  90 123 172 227 270 333 417
#     4   9  19  39  64  89 128 177 222 274 345 399
#     4  10  22  41  64  93 132 173 222 284 342 411
#     4  10  21  40  66  94 137 177 223 296 349 405
#     4  11  23  41  61  90 128 172 223 275 339 404
#     4  10  21  38  61  95 127 169 221 277 340 407
#
# _framework density 26.531337000000001
#
# number of rings (size 3 to 8) (size 9 to 14) (size 15 to 20)
#    0.000    1.750    1.250    4.500    0.000    2.000 
#   11.250    2.500    2.750    0.000    0.000    0.000 
#    0.000    0.000    0.000    0.000    0.000    0.000 
#
# Total GULP energy -178610.185466 kJ/mol
# GULP energy per Si atom -5581.568296 kJ/mol
# Density = 2.647095 g / cm^3
# Si number density = 26.531337 Si / 1000 Ang^3
#
#
#
# Elastic Constant Matrix: (Units=GPa)
#
#
# Indices 1 2 3 4 5 6 
#
# 1 60.7056 5.7535 4.4788 0.0000 -3.6231 0.0000
# 2 5.7535 54.9596 8.3551 0.0000 0.1882 0.0000
# 3 4.4788 8.3551 176.5979 0.0000 -7.3867 0.0000
# 4 0.0000 0.0000 0.0000 41.5959 0.0000 3.9769
# 5 -3.6231 0.1882 -7.3867 0.0000 47.4575 0.0000
# 6 0.0000 0.0000 0.0000 3.9769 0.0000 28.1604
#
#
#
# Elastic Compliance Matrix: (Units=1/GPa)
#
#
# Indices 1 2 3 4 5 6 
#
# 1 0.016731 -0.001711 -0.000292 0.000000 0.001239 0.000000
# 2 -0.001711 0.018504 -0.000846 0.000000 -0.000336 0.000000
# 3 -0.000292 -0.000846 0.005747 0.000000 0.000876 0.000000
# 4 0.000000 0.000000 0.000000 0.024370 0.000000 -0.003442
# 5 0.001239 -0.000336 0.000876 0.000000 0.021304 0.000000
# 6 0.000000 0.000000 0.000000 -0.003442 0.000000 0.035997
#
#
# Mechanical properties :
#
#
# Convention : Reuss Voigt Hill
#
# Bulk Modulus (GPa) = 28.34199 36.60418 32.47309
# Shear Modulus (GPa) = 35.68602 41.68782 38.68692
#
# Velocity S-wave (km/s) = 3.67147 3.96822 3.82273
# Velocity P-wave (km/s) = 5.35524 5.90104 5.63475
#
# Compressibility (1/GPa) = 0.03528334
#
# Stress axis : x y z
#
# Youngs Moduli (GPa) = 59.77078 54.04202 174.01510
#
# Poissons Ratio (x) = 0.09249 0.05073
# Poissons Ratio (y) = 0.10229 0.14723
# Poissons Ratio (z) = 0.01743 0.04572
#
# Static dielectric constant tensor:
#      x y z
#    x 2.204980 0.000000 -0.038740 
#    y 0.000000 2.150440 0.000000 
#    z -0.038740 0.000000 2.126970 
# 
# From -- ./inp_files/57989.got.cif
#   From: 2010.05.17/outbox.cif.g08.bks.cpg/sg14_29_cif.got.tgz:57989.got - 2010.06.03 17:49:19.
