data_PCOD9241296
_publ_section_title
;
Structure prediction by ZEFSAII (Michael W. Deem and Ramdas Pophale) SiO2 
 PCOD9241296
Probable space group: P 21/C
;
_chemical_formula_sum "Si O2"
_cell_formula_units_Z 32
_cell_length_a 8.763921
_cell_length_b 18.134808
_cell_length_c 12.116699
_cell_angle_alpha 90.000000
_cell_angle_beta 117.643972
_cell_angle_gamma 90.000000
_cell_volume 1705.904937
_symmetry_space_group_name_H-M "P 21/C"
_symmetry_group_IT_number 14
_symmetry_cell_setting 'monoclinic'
loop_
_space_group_symop_operation_xyz
x,y,z
-x,1/2+y,1/2-z
-x,-y,-z
x,1/2-y,1/2+z
loop_
_atom_site_type_symbol
_atom_site_label
_atom_site_fract_x
_atom_site_fract_y
_atom_site_fract_z
Si Si1 0.187561 0.073872 0.631254
Si Si2 0.151037 0.086071 0.869273
Si Si3 0.771903 0.111891 0.723935
Si Si4 0.209531 0.579830 0.025078
Si Si5 0.690718 0.001547 0.893682
Si Si6 0.471071 0.634808 0.525986
Si Si7 0.458384 0.640777 0.283031
Si Si8 0.478843 0.299666 0.235970
O O1 0.167686 0.049491 0.753253
O O2 0.323585 0.141029 0.672512
O O3 0.994652 0.095077 0.530562
O O4 0.242787 0.003850 0.577700
O O5 0.973717 0.130912 0.807388
O O6 0.162412 0.029839 0.975290
O O7 0.326179 0.132799 0.935601
O O8 0.746566 0.088444 0.588933
O O9 0.634777 0.173824 0.710577
O O10 0.742588 0.045877 0.802064
O O11 0.319067 0.632373 0.140523
O O12 0.574576 0.932360 0.820458
O O13 0.582175 0.058138 0.933721
O O14 0.377054 0.644138 0.378604
O O15 0.450794 0.693917 0.615167
O O16 0.565391 0.715680 0.303022
#
# Coordination Sequence:
#
# PCOD9241296 Si02
#       8
#     4   4   4   4   4   4   4   4
#     4   9  19  38  60  81 109 151 187 231 275 334
#     4   9  16  33  59  80 109 138 185 226 271 315
#     4  10  21  34  55  85 117 139 177 238 283 311
#     4  10  20  36  61  83 109 148 191 227 275 343
#     4  10  19  35  59  85 106 146 191 231 268 327
#     4   9  19  37  59  77 106 151 189 226 263 334
#     4  11  21  34  57  83 109 146 191 223 278 343
#     4  10  22  37  54  78 114 149 181 227 287 326
#
# _framework density 18.758372999999999
#
# number of rings (size 3 to 8) (size 9 to 14) (size 15 to 20)
#    0.000    2.250    0.000    4.875    1.750    2.000 
#    4.500    0.000    0.000    3.000    0.000    0.000 
#    0.000    0.000    0.000    0.000    0.000    0.000 
#
# Total GULP energy -178313.691537 kJ/mol
# GULP energy per Si atom -5572.302861 kJ/mol
# Density = 1.871568 g / cm^3
# Si number density = 18.758373 Si / 1000 Ang^3
#
#
#
# Elastic Constant Matrix: (Units=GPa)
#
#
# Indices 1 2 3 4 5 6 
#
# 1 72.5358 26.8108 40.7108 0.0000 -9.0197 0.0000
# 2 26.8108 74.9935 32.8150 0.0000 -2.8832 0.0000
# 3 40.7108 32.8150 126.1798 0.0000 -5.7489 0.0000
# 4 0.0000 0.0000 0.0000 13.9173 0.0000 -0.6338
# 5 -9.0197 -2.8832 -5.7489 0.0000 30.2306 0.0000
# 6 0.0000 0.0000 0.0000 -0.6338 0.0000 10.5685
#
#
#
# Elastic Compliance Matrix: (Units=1/GPa)
#
#
# Indices 1 2 3 4 5 6 
#
# 1 0.018558 -0.004442 -0.004640 0.000000 0.004231 0.000000
# 2 -0.004442 0.016124 -0.002775 0.000000 -0.000315 0.000000
# 3 -0.004640 -0.002775 0.010157 0.000000 0.000283 0.000000
# 4 0.000000 0.000000 0.000000 0.072050 0.000000 0.004321
# 5 0.004231 -0.000315 0.000283 0.000000 0.034365 0.000000
# 6 0.000000 0.000000 0.000000 0.004321 0.000000 0.094880
#
#
# Mechanical properties :
#
#
# Convention : Reuss Voigt Hill
#
# Bulk Modulus (GPa) = 47.33292 52.70913 50.02103
# Shear Modulus (GPa) = 18.05779 22.50146 20.27963
#
# Velocity S-wave (km/s) = 3.10603 3.46720 3.29157
# Velocity P-wave (km/s) = 6.17665 6.64745 6.41637
#
# Compressibility (1/GPa) = 0.02112694
#
# Stress axis : x y z
#
# Youngs Moduli (GPa) = 53.88434 62.01750 98.45796
#
# Poissons Ratio (x) = 0.27547 0.45682
# Poissons Ratio (y) = 0.23935 0.27319
# Poissons Ratio (z) = 0.25001 0.17208
#
# Static dielectric constant tensor:
#      x y z
#    x 1.666780 0.000000 0.003520 
#    y 0.000000 1.646830 0.000000 
#    z 0.003520 0.000000 1.695150 
# 
# From -- ./inp_files/26278.got.cif
#   From: 2010.05.17/outbox.cif.g08.bks.cpg/sg14_14_cif.got.tgz:26278.got - 2010.06.03 17:49:19.
