data_PCOD9241370
_publ_section_title
;
Structure prediction by ZEFSAII (Michael W. Deem and Ramdas Pophale) SiO2 
 PCOD9241370
Probable space group: P 21/C
;
_chemical_formula_sum "Si O2"
_cell_formula_units_Z 30
_cell_length_a 21.123184
_cell_length_b 5.100149
_cell_length_c 13.060015
_cell_angle_alpha 90.000000
_cell_angle_beta 59.874992
_cell_angle_gamma 90.000000
_cell_volume 1216.937038
_symmetry_space_group_name_H-M "P 21/C"
_symmetry_group_IT_number 14
_symmetry_cell_setting 'monoclinic'
loop_
_space_group_symop_operation_xyz
x,y,z
-x,1/2+y,1/2-z
-x,-y,-z
x,1/2-y,1/2+z
loop_
_atom_site_type_symbol
_atom_site_label
_atom_site_fract_x
_atom_site_fract_y
_atom_site_fract_z
Si Si1 0.010219 0.128499 0.172895
Si Si2 0.641653 0.262362 0.992161
Si Si3 0.161887 0.488586 0.599351
Si Si4 0.601832 0.006160 0.229541
Si Si5 0.734197 0.203170 0.735862
Si Si6 0.141440 0.511118 0.252285
Si Si7 0.284434 0.150565 0.416545
Si Si8 0.500000 0.500000 0.000000
O O1 0.943341 0.066561 0.151500
O O2 0.003882 0.423164 0.221416
O O3 0.094230 0.070810 0.078167
O O4 0.694043 0.471836 0.005035
O O5 0.580214 0.408062 0.976217
O O6 0.600182 0.095943 0.112758
O O7 0.693418 0.102053 0.871711
O O8 0.154949 0.781948 0.647123
O O9 0.238696 0.402019 0.489490
O O10 0.150426 0.282871 0.702959
O O11 0.636583 0.716935 0.197346
O O12 0.668241 0.163016 0.227806
O O13 0.530213 0.025406 0.355115
O O14 0.797750 0.400794 0.716619
O O15 0.761968 0.988717 0.634028
#
# Coordination Sequence:
#
# PCOD9241370 Si02
#       8
#     4   4   4   4   4   4   4   2
#     4   8  16  31  53  88 121 165 218 264 324 385
#     4  10  22  44  61  93 124 165 211 265 325 393
#     4  10  20  35  62  90 125 171 220 271 324 390
#     4  10  24  42  63  91 131 160 214 263 331 392
#     4  10  22  39  59  92 126 164 215 268 321 391
#     4  10  19  35  62  89 127 172 219 270 325 390
#     4  11  23  38  64  90 124 172 212 267 327 393
#     4  10  24  42  66  96 124 164 212 266 330 404
#
# _framework density 24.652058
#
# number of rings (size 3 to 8) (size 9 to 14) (size 15 to 20)
#    0.000    2.133    1.333    0.800    5.600    2.133 
#    0.000    3.333    0.000    0.800    0.000    0.000 
#    0.000    0.000    0.000    0.000    0.000    0.000 
#
# Total GULP energy -167132.365846 kJ/mol
# GULP energy per Si atom -5571.078862 kJ/mol
# Density = 2.459595 g / cm^3
# Si number density = 24.652058 Si / 1000 Ang^3
#
#
#
# Elastic Constant Matrix: (Units=GPa)
#
#
# Indices 1 2 3 4 5 6 
#
# 1 87.2119 17.4038 38.8370 0.0000 -7.5313 0.0000
# 2 17.4038 68.3900 17.6949 0.0000 2.6867 0.0000
# 3 38.8370 17.6949 92.7241 0.0000 4.5437 0.0000
# 4 0.0000 0.0000 0.0000 22.5038 0.0000 0.7357
# 5 -7.5313 2.6867 4.5437 0.0000 33.0600 0.0000
# 6 0.0000 0.0000 0.0000 0.7357 0.0000 15.4601
#
#
#
# Elastic Compliance Matrix: (Units=1/GPa)
#
#
# Indices 1 2 3 4 5 6 
#
# 1 0.015031 -0.002435 -0.006049 0.000000 0.004453 0.000000
# 2 -0.002435 0.015800 -0.001918 0.000000 -0.001575 0.000000
# 3 -0.006049 -0.001918 0.013837 0.000000 -0.003124 0.000000
# 4 0.000000 0.000000 0.000000 0.044506 0.000000 -0.002118
# 5 0.004453 -0.001575 -0.003124 0.000000 0.031820 0.000000
# 6 0.000000 0.000000 0.000000 -0.002118 0.000000 0.064783
#
#
# Mechanical properties :
#
#
# Convention : Reuss Voigt Hill
#
# Bulk Modulus (GPa) = 41.90455 44.02194 42.96324
# Shear Modulus (GPa) = 23.30614 25.83080 24.56847
#
# Velocity S-wave (km/s) = 3.07808 3.24051 3.16034
# Velocity P-wave (km/s) = 5.44684 5.64777 5.54821
#
# Compressibility (1/GPa) = 0.02386376
#
# Stress axis : x y z
#
# Youngs Moduli (GPa) = 66.53128 63.29198 72.26783
#
# Poissons Ratio (x) = 0.15410 0.43715
# Poissons Ratio (y) = 0.16199 0.13862
# Poissons Ratio (z) = 0.40245 0.12140
#
# Static dielectric constant tensor:
#      x y z
#    x 1.959920 0.000000 0.008410 
#    y 0.000000 2.017450 0.000000 
#    z 0.008410 0.000000 1.974630 
# 
# From -- ./inp_files/34717.got.cif
#   From: 2010.05.17/outbox.cif.g08.bks.cpg/sg14_18_cif.got.tgz:34717.got - 2010.06.03 17:49:19.
