data_PCOD9241790
_publ_section_title
;
Structure prediction by ZEFSAII (Michael W. Deem and Ramdas Pophale) SiO2 
 PCOD9241790
Probable space group: P 21/C
;
_chemical_formula_sum "Si O2"
_cell_formula_units_Z 22
_cell_length_a 7.457766
_cell_length_b 14.923583
_cell_length_c 7.157760
_cell_angle_alpha 90.000000
_cell_angle_beta 84.891722
_cell_angle_gamma 90.000000
_cell_volume 793.470217
_symmetry_space_group_name_H-M "P 21/C"
_symmetry_group_IT_number 14
_symmetry_cell_setting 'monoclinic'
loop_
_space_group_symop_operation_xyz
x,y,z
-x,1/2+y,1/2-z
-x,-y,-z
x,1/2-y,1/2+z
loop_
_atom_site_type_symbol
_atom_site_label
_atom_site_fract_x
_atom_site_fract_y
_atom_site_fract_z
Si Si1 0.732889 0.664586 0.604869
Si Si2 0.262202 0.664285 0.986340
Si Si3 0.658561 0.863653 0.543990
Si Si4 0.000000 0.000000 0.500000
Si Si5 0.661699 0.138115 0.953294
Si Si6 0.153516 0.028366 0.158381
O O1 0.744384 0.771558 0.608629
O O2 0.695705 0.633939 0.819467
O O3 0.551627 0.646178 0.496359
O O4 0.877288 0.615622 0.460909
O O5 0.240870 0.771750 0.989265
O O6 0.097025 0.600351 0.043291
O O7 0.442108 0.640614 0.090808
O O8 0.318420 0.643438 0.771039
O O9 0.754067 0.945795 0.644138
O O10 0.004080 0.024191 0.726204
O O11 0.734690 0.039129 0.982490
#
# Coordination Sequence:
#
# PCOD9241790 Si02
#       6
#     4   4   4   2   4   4
#     4  10  19  37  63 102 131 169 223 281 334 383
#     4   9  20  41  65  92 132 172 220 274 340 396
#     4  10  20  38  69  97 131 176 222 286 330 384
#     4  10  24  44  62  92 132 178 216 266 334 406
#     4   9  20  37  63  95 124 167 216 284 333 392
#     4  11  22  42  64  97 138 171 228 276 333 406
#
# _framework density 27.726310000000002
#
# number of rings (size 3 to 8) (size 9 to 14) (size 15 to 20)
#    0.000    2.182    1.818    0.545    2.545    6.545 
#   13.091    0.909    0.000    0.000    0.000    0.000 
#    0.000    0.000    0.000    0.000    0.000    0.000 
#
# Total GULP energy -122668.906968 kJ/mol
# GULP energy per Si atom -5575.859408 kJ/mol
# Density = 2.766320 g / cm^3
# Si number density = 27.726310 Si / 1000 Ang^3
#
#
#
# Elastic Constant Matrix: (Units=GPa)
#
#
# Indices 1 2 3 4 5 6 
#
# 1 94.5316 73.3016 27.9048 0.0000 0.5946 0.0000
# 2 73.3016 167.2190 33.7833 0.0000 15.7938 0.0000
# 3 27.9048 33.7833 112.7443 0.0000 10.2678 0.0000
# 4 0.0000 0.0000 0.0000 45.0559 0.0000 11.0897
# 5 0.5946 15.7938 10.2678 0.0000 28.9690 0.0000
# 6 0.0000 0.0000 0.0000 11.0897 0.0000 36.9748
#
#
#
# Elastic Compliance Matrix: (Units=1/GPa)
#
#
# Indices 1 2 3 4 5 6 
#
# 1 0.016990 -0.007390 -0.002403 0.000000 0.004532 0.000000
# 2 -0.007390 0.009823 -0.000662 0.000000 -0.004969 0.000000
# 3 -0.002403 -0.000662 0.009946 0.000000 -0.003115 0.000000
# 4 0.000000 0.000000 0.000000 0.023964 0.000000 -0.007187
# 5 0.004532 -0.004969 -0.003115 0.000000 0.038240 0.000000
# 6 0.000000 0.000000 0.000000 -0.007187 0.000000 0.029201
#
#
# Mechanical properties :
#
#
# Convention : Reuss Voigt Hill
#
# Bulk Modulus (GPa) = 63.09712 71.60826 67.35269
# Shear Modulus (GPa) = 32.39237 38.16694 35.27966
#
# Velocity S-wave (km/s) = 3.42173 3.71423 3.57098
# Velocity P-wave (km/s) = 6.19819 6.65409 6.43018
#
# Compressibility (1/GPa) = 0.01584858
#
# Stress axis : x y z
#
# Youngs Moduli (GPa) = 58.85852 101.80477 100.53811
#
# Poissons Ratio (x) = 0.75235 0.24164
# Poissons Ratio (y) = 0.43497 0.06652
# Poissons Ratio (z) = 0.14146 0.06736
#
# Static dielectric constant tensor:
#      x y z
#    x 1.589500 0.000000 0.507030 
#    y 0.000000 2.067480 0.000000 
#    z 0.507030 0.000000 1.783160 
# 
# From -- ./inp_files/8285.got.cif
#   From: 2010.05.17/outbox.cif.g08.bks.cpg/sg14_5_cif.got.tgz:8285.got - 2010.06.03 17:49:19.
