data_PCOD9241432
_publ_section_title
;
Structure prediction by ZEFSAII (Michael W. Deem and Ramdas Pophale) SiO2 
 PCOD9241432
Probable space group: P 21/C
;
_chemical_formula_sum "Si O2"
_cell_formula_units_Z 32
_cell_length_a 8.513550
_cell_length_b 23.563941
_cell_length_c 12.203000
_cell_angle_alpha 90.000000
_cell_angle_beta 133.387124
_cell_angle_gamma 90.000000
_cell_volume 1779.089335
_symmetry_space_group_name_H-M "P 21/C"
_symmetry_group_IT_number 14
_symmetry_cell_setting 'monoclinic'
loop_
_space_group_symop_operation_xyz
x,y,z
-x,1/2+y,1/2-z
-x,-y,-z
x,1/2-y,1/2+z
loop_
_atom_site_type_symbol
_atom_site_label
_atom_site_fract_x
_atom_site_fract_y
_atom_site_fract_z
Si Si1 0.060159 0.074072 0.299458
Si Si2 0.272973 0.675830 0.326519
Si Si3 0.753619 0.851861 0.019260
Si Si4 0.043772 0.240028 0.732614
Si Si5 0.733355 0.969380 0.131259
Si Si6 0.679063 0.844157 0.722236
Si Si7 0.109522 0.439601 0.064756
Si Si8 0.189667 0.664758 0.039310
O O1 0.221240 0.099429 0.286032
O O2 0.183181 0.074652 0.476305
O O3 0.867708 0.120191 0.215865
O O4 0.930831 0.015162 0.218558
O O5 0.521676 0.663554 0.460044
O O6 0.237123 0.688946 0.181816
O O7 0.176715 0.726522 0.349350
O O8 0.905620 0.803857 0.145302
O O9 0.785288 0.916855 0.074529
O O10 0.740404 0.846159 0.881212
O O11 0.217826 0.289003 0.788597
O O12 0.993788 0.202046 0.604345
O O13 0.733755 0.944131 0.255860
O O14 0.500000 0.000000 0.000000
O O15 0.419843 0.840525 0.590175
O O16 0.000000 0.500000 0.000000
O O17 0.917678 0.396465 0.000491
#
# Coordination Sequence:
#
# PCOD9241432 Si02
#       8
#     4   4   4   4   4   4   4   4
#     4   9  19  38  57  82 115 151 185 230 279 345
#     4   9  19  34  55  77 109 152 185 223 283 339
#     4  11  21  36  59  88 112 147 192 238 287 339
#     4  11  20  36  56  81 115 146 193 235 280 338
#     4  11  20  36  63  87 111 149 198 235 280 341
#     4  10  23  37  57  86 120 151 182 237 301 325
#     4   9  19  36  61  81 106 151 197 223 267 349
#     4  10  19  36  56  80 110 148 189 229 275 340
#
# _framework density 17.986730999999999
#
# number of rings (size 3 to 8) (size 9 to 14) (size 15 to 20)
#    0.000    2.000    2.500    1.500    1.750    0.500 
#    0.000    3.750    0.000    0.000    0.000    0.000 
#    0.000    0.000    0.000    0.000    0.000    0.000 
#
# Total GULP energy -178175.315170 kJ/mol
# GULP energy per Si atom -5567.978599 kJ/mol
# Density = 1.794579 g / cm^3
# Si number density = 17.986731 Si / 1000 Ang^3
#
#
#
# Elastic Constant Matrix: (Units=GPa)
#
#
# Indices 1 2 3 4 5 6 
#
# 1 56.7699 22.5300 1.4030 0.0000 -4.7462 0.0000
# 2 22.5300 96.3372 16.7704 0.0000 -10.3751 0.0000
# 3 1.4030 16.7704 50.6981 0.0000 -4.9606 0.0000
# 4 0.0000 0.0000 0.0000 31.9424 0.0000 -1.5703
# 5 -4.7462 -10.3751 -4.9606 0.0000 13.4655 0.0000
# 6 0.0000 0.0000 0.0000 -1.5703 0.0000 18.8157
#
#
#
# Elastic Compliance Matrix: (Units=1/GPa)
#
#
# Indices 1 2 3 4 5 6 
#
# 1 0.019662 -0.004391 0.001303 0.000000 0.004027 0.000000
# 2 -0.004391 0.012758 -0.003411 0.000000 0.007025 0.000000
# 3 0.001303 -0.003411 0.021375 0.000000 0.005705 0.000000
# 4 0.000000 0.000000 0.000000 0.031435 0.000000 0.002623
# 5 0.004027 0.007025 0.005705 0.000000 0.083198 0.000000
# 6 0.000000 0.000000 0.000000 0.002623 0.000000 0.053366
#
#
# Mechanical properties :
#
#
# Convention : Reuss Voigt Hill
#
# Bulk Modulus (GPa) = 24.51286 31.69020 28.10153
# Shear Modulus (GPa) = 20.12939 23.71817 21.92378
#
# Velocity S-wave (km/s) = 3.34896 3.63526 3.49504
# Velocity P-wave (km/s) = 5.34901 5.93945 5.65195
#
# Compressibility (1/GPa) = 0.04079491
#
# Stress axis : x y z
#
# Youngs Moduli (GPa) = 50.85898 78.38465 46.78321
#
# Poissons Ratio (x) = 0.34422 -0.06094
# Poissons Ratio (y) = 0.22334 0.15958
# Poissons Ratio (z) = -0.06624 0.26738
#
# Static dielectric constant tensor:
#      x y z
#    x 1.617690 0.000000 -0.027590 
#    y 0.000000 1.594910 0.000000 
#    z -0.027590 0.000000 1.640490 
# 
# From -- ./inp_files/26974.got.cif
#   From: 2010.05.17/outbox.cif.g08.bks.cpg/sg14_14_cif.got.tgz:26974.got - 2010.06.03 17:49:19.
