data_PCOD9241422
_publ_section_title
;
Structure prediction by ZEFSAII (Michael W. Deem and Ramdas Pophale) SiO2 
 PCOD9241422
Probable space group: P 21/C
;
_chemical_formula_sum "Si O2"
_cell_formula_units_Z 28
_cell_length_a 11.665931
_cell_length_b 10.178591
_cell_length_c 20.251975
_cell_angle_alpha 90.000000
_cell_angle_beta 143.485662
_cell_angle_gamma 90.000000
_cell_volume 1430.898675
_symmetry_space_group_name_H-M "P 21/C"
_symmetry_group_IT_number 14
_symmetry_cell_setting 'monoclinic'
loop_
_space_group_symop_operation_xyz
x,y,z
-x,1/2+y,1/2-z
-x,-y,-z
x,1/2-y,1/2+z
loop_
_atom_site_type_symbol
_atom_site_label
_atom_site_fract_x
_atom_site_fract_y
_atom_site_fract_z
Si Si1 0.517295 0.248630 0.834411
Si Si2 0.826393 0.584481 0.023314
Si Si3 0.791432 0.687396 0.701102
Si Si4 0.217242 0.900401 0.753821
Si Si5 0.199984 0.812357 0.425830
Si Si6 0.619716 0.984526 0.306648
Si Si7 0.498237 0.296250 0.041173
O O1 0.319587 0.235926 0.784375
O O2 0.538602 0.393377 0.812281
O O3 0.520298 0.133047 0.781585
O O4 0.681024 0.226778 0.966458
O O5 0.786786 0.585279 0.927334
O O6 0.624863 0.620444 0.964317
O O7 0.870440 0.435042 0.063751
O O8 0.008636 0.659864 0.138191
O O9 0.800005 0.528922 0.707692
O O10 0.662347 0.730298 0.579942
O O11 0.008565 0.743372 0.803301
O O12 0.299148 0.951462 0.722121
O O13 0.369095 0.804291 0.857300
O O14 0.350156 0.861023 0.439600
#
# Coordination Sequence:
#
# PCOD9241422 Si02
#       7
#     4   4   4   4   4   4   4
#     4   9  19  34  56  78 107 143 182 222 264 315
#     4  10  20  33  52  76 104 141 179 216 264 323
#     4   9  19  35  53  76 108 142 173 214 273 326
#     4  10  20  33  52  76 104 141 179 216 264 323
#     4   9  19  35  53  76 108 142 173 214 273 326
#     4  10  19  36  55  78 108 144 181 220 261 314
#     4  11  19  32  54  80 103 131 178 230 264 305
#
# _framework density 19.568123
#
# number of rings (size 3 to 8) (size 9 to 14) (size 15 to 20)
#    0.000    2.286    0.000    3.000    0.000    1.143 
#    0.000    0.714    0.000   13.714    0.000    0.000 
#    0.000    0.000    0.000    0.000    0.000    0.000 
#
# Total GULP energy -155975.577246 kJ/mol
# GULP energy per Si atom -5570.556330 kJ/mol
# Density = 1.952359 g / cm^3
# Si number density = 19.568123 Si / 1000 Ang^3
#
#
#
# Elastic Constant Matrix: (Units=GPa)
#
#
# Indices 1 2 3 4 5 6 
#
# 1 36.5262 10.7143 20.8826 0.0000 -4.7889 0.0000
# 2 10.7143 40.8263 22.6844 0.0000 -0.5325 0.0000
# 3 20.8826 22.6844 115.2109 0.0000 6.8624 0.0000
# 4 0.0000 0.0000 0.0000 26.7008 0.0000 -2.6704
# 5 -4.7889 -0.5325 6.8624 0.0000 34.7559 0.0000
# 6 0.0000 0.0000 0.0000 -2.6704 0.0000 26.8577
#
#
#
# Elastic Compliance Matrix: (Units=1/GPa)
#
#
# Indices 1 2 3 4 5 6 
#
# 1 0.032683 -0.005654 -0.005134 0.000000 0.005431 0.000000
# 2 -0.005654 0.028559 -0.004633 0.000000 0.000573 0.000000
# 3 -0.005134 -0.004633 0.010695 0.000000 -0.002890 0.000000
# 4 0.000000 0.000000 0.000000 0.037828 0.000000 0.003761
# 5 0.005431 0.000573 -0.002890 0.000000 0.030100 0.000000
# 6 0.000000 0.000000 0.000000 0.003761 0.000000 0.037607
#
#
# Mechanical properties :
#
#
# Convention : Reuss Voigt Hill
#
# Bulk Modulus (GPa) = 24.33319 33.45844 28.89582
# Shear Modulus (GPa) = 22.52130 26.88169 24.70150
#
# Velocity S-wave (km/s) = 3.39620 3.71043 3.55679
# Velocity P-wave (km/s) = 5.27646 5.95751 5.62730
#
# Compressibility (1/GPa) = 0.04109613
#
# Stress axis : x y z
#
# Youngs Moduli (GPa) = 30.59661 35.01503 93.50496
#
# Poissons Ratio (x) = 0.19796 0.48009
# Poissons Ratio (y) = 0.17298 0.43316
# Poissons Ratio (z) = 0.15709 0.16221
#
# Static dielectric constant tensor:
#      x y z
#    x 1.705000 0.000000 0.013550 
#    y 0.000000 1.681820 0.000000 
#    z 0.013550 0.000000 1.747560 
# 
# From -- ./inp_files/35138.got.cif
#   From: 2010.05.17/outbox.cif.g08.bks.cpg/sg14_18_cif.got.tgz:35138.got - 2010.06.03 17:49:19.
