data_PCOD9241273
_publ_section_title
;
Structure prediction by ZEFSAII (Michael W. Deem and Ramdas Pophale) SiO2 
 PCOD9241273
Probable space group: P 21/C
;
_chemical_formula_sum "Si O2"
_cell_formula_units_Z 28
_cell_length_a 11.575248
_cell_length_b 12.783253
_cell_length_c 19.721807
_cell_angle_alpha 90.000000
_cell_angle_beta 153.238501
_cell_angle_gamma 90.000000
_cell_volume 1314.010341
_symmetry_space_group_name_H-M "P 21/C"
_symmetry_group_IT_number 14
_symmetry_cell_setting 'monoclinic'
loop_
_space_group_symop_operation_xyz
x,y,z
-x,1/2+y,1/2-z
-x,-y,-z
x,1/2-y,1/2+z
loop_
_atom_site_type_symbol
_atom_site_label
_atom_site_fract_x
_atom_site_fract_y
_atom_site_fract_z
Si Si1 0.207272 0.084094 0.772469
Si Si2 0.238606 0.922992 0.572935
Si Si3 0.237977 0.080382 0.303703
Si Si4 0.887929 0.141759 0.248215
Si Si5 0.345217 0.262834 0.754839
Si Si6 0.222031 0.864726 0.347310
Si Si7 0.854611 0.859060 0.477357
O O1 0.393724 0.167674 0.833856
O O2 0.991570 0.073836 0.601338
O O3 0.046247 0.129661 0.751613
O O4 0.278836 0.963655 0.825661
O O5 0.413676 0.830434 0.640345
O O6 0.122940 0.899368 0.585594
O O7 0.339116 0.041742 0.625437
O O8 0.063939 0.113075 0.276166
O O9 0.172072 0.153987 0.205812
O O10 0.536603 0.102759 0.479127
O O11 0.210929 0.955180 0.284387
O O12 0.078276 0.167296 0.410774
O O13 0.734265 0.247492 0.154635
O O14 0.233063 0.222921 0.624844
#
# Coordination Sequence:
#
# PCOD9241273 Si02
#       7
#     4   4   4   4   4   4   4
#     4   9  18  34  59  86 108 154 195 233 289 346
#     4   9  18  37  60  80 111 153 201 232 281 351
#     4  10  21  34  62  91 107 161 201 233 291 350
#     4  10  20  38  59  83 122 148 193 248 290 341
#     4  11  19  36  64  85 116 150 201 239 289 352
#     4  10  19  35  58  86 119 149 198 238 284 340
#     4   9  21  36  58  86 111 155 192 236 295 346
#
# _framework density 21.308813000000001
#
# number of rings (size 3 to 8) (size 9 to 14) (size 15 to 20)
#    0.000    2.286    2.857    0.857    2.000    1.143 
#    0.000    1.429   15.714    0.000    0.000    0.000 
#    0.000    0.000    0.000    0.000    0.000    0.000 
#
# Total GULP energy -156015.794196 kJ/mol
# GULP energy per Si atom -5571.992650 kJ/mol
# Density = 2.126031 g / cm^3
# Si number density = 21.308813 Si / 1000 Ang^3
#
#
#
# Elastic Constant Matrix: (Units=GPa)
#
#
# Indices 1 2 3 4 5 6 
#
# 1 86.6159 11.7529 19.3674 0.0000 -0.5100 0.0000
# 2 11.7529 231.6053 15.5348 0.0000 11.8363 0.0000
# 3 19.3674 15.5348 23.4124 0.0000 -6.6043 0.0000
# 4 0.0000 0.0000 0.0000 22.5663 0.0000 12.6253
# 5 -0.5100 11.8363 -6.6043 0.0000 15.7868 0.0000
# 6 0.0000 0.0000 0.0000 12.6253 0.0000 19.5722
#
#
#
# Elastic Compliance Matrix: (Units=1/GPa)
#
#
# Indices 1 2 3 4 5 6 
#
# 1 0.014577 0.000495 -0.014012 0.000000 -0.005762 0.000000
# 2 0.000495 0.004957 -0.005377 0.000000 -0.005950 0.000000
# 3 -0.014012 -0.005377 0.066759 0.000000 0.031507 0.000000
# 4 0.000000 0.000000 0.000000 0.069338 0.000000 -0.044727
# 5 -0.005762 -0.005950 0.031507 0.000000 0.080800 0.000000
# 6 0.000000 0.000000 0.000000 -0.044727 0.000000 0.079945
#
#
# Mechanical properties :
#
#
# Convention : Reuss Voigt Hill
#
# Bulk Modulus (GPa) = 20.61663 48.32710 34.47186
# Shear Modulus (GPa) = 13.50132 31.25030 22.37581
#
# Velocity S-wave (km/s) = 2.51988 3.83370 3.24400
# Velocity P-wave (km/s) = 4.26175 6.50577 5.49943
#
# Compressibility (1/GPa) = 0.04850453
#
# Stress axis : x y z
#
# Youngs Moduli (GPa) = 68.59949 201.72103 14.97919
#
# Poissons Ratio (x) = -0.09977 0.20989
# Poissons Ratio (y) = -0.03393 0.08054
# Poissons Ratio (z) = 0.96124 1.08465
#
# Static dielectric constant tensor:
#      x y z
#    x 1.812280 0.000000 0.012130 
#    y 0.000000 1.896820 0.000000 
#    z 0.012130 0.000000 1.779940 
# 
# From -- ./inp_files/35154.got.cif
#   From: 2010.05.17/outbox.cif.g08.bks.cpg/sg14_18_cif.got.tgz:35154.got - 2010.06.03 17:49:19.
