data_PCOD9241724
_publ_section_title
;
Structure prediction by ZEFSAII (Michael W. Deem and Ramdas Pophale) SiO2 
 PCOD9241724
Probable space group: P 21/C
;
_chemical_formula_sum "Si O2"
_cell_formula_units_Z 32
_cell_length_a 10.342577
_cell_length_b 21.001831
_cell_length_c 8.038389
_cell_angle_alpha 90.000000
_cell_angle_beta 47.984345
_cell_angle_gamma 90.000000
_cell_volume 1297.243567
_symmetry_space_group_name_H-M "P 21/C"
_symmetry_group_IT_number 14
_symmetry_cell_setting 'monoclinic'
loop_
_space_group_symop_operation_xyz
x,y,z
-x,1/2+y,1/2-z
-x,-y,-z
x,1/2-y,1/2+z
loop_
_atom_site_type_symbol
_atom_site_label
_atom_site_fract_x
_atom_site_fract_y
_atom_site_fract_z
Si Si1 0.270094 0.664129 0.551857
Si Si2 0.804105 0.539718 0.985400
Si Si3 0.177789 0.910143 0.664053
Si Si4 0.131935 0.332941 0.207708
Si Si5 0.210215 0.408375 0.634422
Si Si6 0.623400 0.287793 0.891517
Si Si7 0.802951 0.036835 0.976019
Si Si8 0.274581 0.287490 0.399615
O O1 0.300824 0.716428 0.664721
O O2 0.369507 0.690581 0.304758
O O3 0.311044 0.589111 0.524152
O O4 0.063789 0.662941 0.691636
O O5 0.730397 0.470106 0.007533
O O6 0.769760 0.599526 0.893097
O O7 0.012776 0.530487 0.778453
O O8 0.767267 0.566335 0.199092
O O9 0.273765 0.843077 0.598403
O O10 0.159661 0.937665 0.869597
O O11 0.995021 0.898514 0.728741
O O12 0.123347 0.311339 0.405444
O O13 0.224275 0.279172 0.020077
O O14 0.271476 0.465901 0.462165
O O15 0.299024 0.341394 0.518100
O O16 0.437302 0.285167 0.137602
#
# Coordination Sequence:
#
# PCOD9241724 Si02
#       8
#     4   4   4   4   4   4   4   4
#     4  10  21  39  61  86 113 154 200 241 289 350
#     4  10  20  34  59  91 114 146 199 254 294 340
#     4  10  19  37  60  86 117 155 197 245 297 355
#     4  11  22  40  63  86 115 156 202 244 292 354
#     4  11  20  35  60  89 117 152 197 247 295 352
#     4  11  24  39  58  87 121 154 192 241 299 353
#     4   9  18  34  58  88 116 149 197 251 295 341
#     4  12  24  40  58  87 122 156 191 243 299 355
#
# _framework density 24.667686
#
# number of rings (size 3 to 8) (size 9 to 14) (size 15 to 20)
#    0.000    1.500    0.000    9.000    0.000    4.000 
#    0.000    7.500    0.000    0.000    0.000    0.000 
#    0.000    0.000    0.000    0.000    0.000    0.000 
#
# Total GULP energy -179011.688451 kJ/mol
# GULP energy per Si atom -5594.115264 kJ/mol
# Density = 2.461154 g / cm^3
# Si number density = 24.667686 Si / 1000 Ang^3
#
#
#
# Elastic Constant Matrix: (Units=GPa)
#
#
# Indices 1 2 3 4 5 6 
#
# 1 30.1067 21.5304 14.7083 0.0000 2.5547 0.0000
# 2 21.5304 100.8425 -11.1501 0.0000 -3.0741 0.0000
# 3 14.7083 -11.1501 57.5022 0.0000 3.8787 0.0000
# 4 0.0000 0.0000 0.0000 37.1273 0.0000 26.0238
# 5 2.5547 -3.0741 3.8787 0.0000 25.6343 0.0000
# 6 0.0000 0.0000 0.0000 26.0238 0.0000 -2.3587
#
#
#
# Elastic Compliance Matrix: (Units=1/GPa)
#
#
# Indices 1 2 3 4 5 6 
#
# 1 0.049653 -0.012367 -0.014816 0.000000 -0.004190 0.000000
# 2 -0.012367 0.013236 0.005597 0.000000 0.001973 0.000000
# 3 -0.014816 0.005597 0.022349 0.000000 -0.001234 0.000000
# 4 0.000000 0.000000 0.000000 0.003084 0.000000 0.034027
# 5 -0.004190 0.001973 -0.001234 0.000000 0.039851 0.000000
# 6 0.000000 0.000000 0.000000 0.034027 0.000000 -0.048545
#
#
# Mechanical properties :
#
#
# Convention : Reuss Voigt Hill
#
# Bulk Modulus (GPa) = 23.77266 26.51427 25.14347
# Shear Modulus (GPa) = 36.54359 22.97145 29.75752
#
# Velocity S-wave (km/s) = 3.85312 3.05493 3.47700
# Velocity P-wave (km/s) = 5.42710 4.81823 5.13171
#
# Compressibility (1/GPa) = 0.04206512
#
# Stress axis : x y z
#
# Youngs Moduli (GPa) = 20.13970 75.55217 44.74499
#
# Poissons Ratio (x) = 0.93436 0.66294
# Poissons Ratio (y) = 0.24907 -0.25043
# Poissons Ratio (z) = 0.29839 -0.42285
#
# Static dielectric constant tensor:
#      x y z
#    x 2.037140 0.000000 -0.002790 
#    y 0.000000 2.045790 0.000000 
#    z -0.002790 0.000000 1.936940 
# 
# From -- ./inp_files/14300.got.cif
#   From: 2010.05.17/outbox.cif.g08.bks.cpg/sg14_8_cif.got.tgz:14300.got - 2010.06.03 17:49:19.
