data_PCOD9241675
_publ_section_title
;
Structure prediction by ZEFSAII (Michael W. Deem and Ramdas Pophale) SiO2 
 PCOD9241675
Probable space group: P 21/C
;
_chemical_formula_sum "Si O2"
_cell_formula_units_Z 28
_cell_length_a 11.079320
_cell_length_b 14.971035
_cell_length_c 9.422012
_cell_angle_alpha 90.000000
_cell_angle_beta 120.715303
_cell_angle_gamma 90.000000
_cell_volume 1343.580011
_symmetry_space_group_name_H-M "P 21/C"
_symmetry_group_IT_number 14
_symmetry_cell_setting 'monoclinic'
loop_
_space_group_symop_operation_xyz
x,y,z
-x,1/2+y,1/2-z
-x,-y,-z
x,1/2-y,1/2+z
loop_
_atom_site_type_symbol
_atom_site_label
_atom_site_fract_x
_atom_site_fract_y
_atom_site_fract_z
Si Si1 0.484571 0.349665 0.191416
Si Si2 0.170790 0.307402 0.068466
Si Si3 0.470262 0.804087 0.586966
Si Si4 0.771960 0.880255 0.844607
Si Si5 0.086620 0.459674 0.836237
Si Si6 0.348624 0.532300 0.170432
Si Si7 0.212930 0.052211 0.840225
O O1 0.324166 0.311848 0.085715
O O2 0.541881 0.296733 0.362952
O O3 0.460987 0.455910 0.190248
O O4 0.566795 0.322033 0.098989
O O5 0.130226 0.205680 0.065963
O O6 0.195920 0.359458 0.231616
O O7 0.070276 0.365078 0.908100
O O8 0.631164 0.838312 0.694850
O O9 0.391977 0.870402 0.647503
O O10 0.846172 0.943873 0.777009
O O11 0.736907 0.924682 0.973224
O O12 0.940582 0.509458 0.742074
O O13 0.202908 0.509295 0.001962
O O14 0.315909 0.512672 0.314754
#
# Coordination Sequence:
#
# PCOD9241675 Si02
#       7
#     4   4   4   4   4   4   4
#     4   9  20  34  57  86 109 146 189 230 278 338
#     4   9  18  33  56  80 105 143 187 233 274 318
#     4  11  21  37  60  85 115 144 190 238 285 336
#     4  11  20  32  58  89 109 135 189 247 275 321
#     4  10  19  37  58  79 113 148 190 226 276 339
#     4  10  21  38  60  79 114 159 181 227 292 336
#     4  10  21  35  57  83 110 148 191 224 276 339
#
# _framework density 20.839846000000001
#
# number of rings (size 3 to 8) (size 9 to 14) (size 15 to 20)
#    0.000    2.286    2.857    3.429   10.000    0.571 
#    0.000    0.000   12.571    0.000    0.000    0.000 
#    0.000    0.000    0.000    0.000    0.000    0.000 
#
# Total GULP energy -156284.767430 kJ/mol
# GULP energy per Si atom -5581.598837 kJ/mol
# Density = 2.079241 g / cm^3
# Si number density = 20.839846 Si / 1000 Ang^3
#
#
#
# Elastic Constant Matrix: (Units=GPa)
#
#
# Indices 1 2 3 4 5 6 
#
# 1 31.1196 6.6492 18.9672 0.0000 -20.8899 0.0000
# 2 6.6492 28.5033 -8.1517 0.0000 2.2435 0.0000
# 3 18.9672 -8.1517 71.1668 0.0000 -33.2724 0.0000
# 4 0.0000 0.0000 0.0000 13.6918 0.0000 1.7644
# 5 -20.8899 2.2435 -33.2724 0.0000 31.0710 0.0000
# 6 0.0000 0.0000 0.0000 1.7644 0.0000 13.5159
#
#
#
# Elastic Compliance Matrix: (Units=1/GPa)
#
#
# Indices 1 2 3 4 5 6 
#
# 1 0.068316 -0.018959 0.003474 0.000000 0.051020 0.000000
# 2 -0.018959 0.041743 0.004938 0.000000 -0.010473 0.000000
# 3 0.003474 0.004938 0.029271 0.000000 0.033324 0.000000
# 4 0.000000 0.000000 0.000000 0.074286 0.000000 -0.009698
# 5 0.051020 -0.010473 0.033324 0.000000 0.102928 0.000000
# 6 0.000000 0.000000 0.000000 -0.009698 0.000000 0.075253
#
#
# Mechanical properties :
#
#
# Convention : Reuss Voigt Hill
#
# Bulk Modulus (GPa) = 8.45765 18.41324 13.43545
# Shear Modulus (GPa) = 11.05453 19.21073 15.13263
#
# Velocity S-wave (km/s) = 2.30565 3.03945 2.69762
# Velocity P-wave (km/s) = 3.33995 4.60136 4.02043
#
# Compressibility (1/GPa) = 0.11823617
#
# Stress axis : x y z
#
# Youngs Moduli (GPa) = 14.63787 23.95619 34.16333
#
# Poissons Ratio (x) = 0.45418 -0.11869
# Poissons Ratio (y) = 0.27752 -0.16869
# Poissons Ratio (z) = -0.05086 -0.11829
#
# Static dielectric constant tensor:
#      x y z
#    x 1.731860 0.000000 -0.019050 
#    y 0.000000 1.805840 0.000000 
#    z -0.019050 0.000000 1.779460 
# 
# From -- ./inp_files/13041.got.cif
#   From: 2010.05.17/outbox.cif.g08.bks.cpg/sg14_7_cif.got.tgz:13041.got - 2010.06.03 17:49:19.
