data_PCOD9241714
_publ_section_title
;
Structure prediction by ZEFSAII (Michael W. Deem and Ramdas Pophale) SiO2 
 PCOD9241714
Probable space group: P 21/C
;
_chemical_formula_sum "Si O2"
_cell_formula_units_Z 28
_cell_length_a 18.483762
_cell_length_b 17.245357
_cell_length_c 10.302537
_cell_angle_alpha 90.000000
_cell_angle_beta 158.714397
_cell_angle_gamma 90.000000
_cell_volume 1192.158042
_symmetry_space_group_name_H-M "P 21/C"
_symmetry_group_IT_number 14
_symmetry_cell_setting 'monoclinic'
loop_
_space_group_symop_operation_xyz
x,y,z
-x,1/2+y,1/2-z
-x,-y,-z
x,1/2-y,1/2+z
loop_
_atom_site_type_symbol
_atom_site_label
_atom_site_fract_x
_atom_site_fract_y
_atom_site_fract_z
Si Si1 0.528614 0.786667 0.778517
Si Si2 0.184665 0.411076 0.291514
Si Si3 0.655306 0.687475 0.747913
Si Si4 0.943623 0.556450 0.220266
Si Si5 0.661949 0.431209 0.751752
Si Si6 0.699448 0.047400 0.836326
Si Si7 0.777505 0.339288 0.683165
O O1 0.600358 0.740184 0.773517
O O2 0.313781 0.746165 0.446466
O O3 0.595161 0.873110 0.846479
O O4 0.679986 0.769393 0.152750
O O5 0.177593 0.486068 0.369090
O O6 0.138981 0.432890 0.066298
O O7 0.014706 0.351570 0.059825
O O8 0.452958 0.639052 0.372312
O O9 0.829610 0.630056 0.087802
O O10 0.178502 0.558968 0.592142
O O11 0.862456 0.473840 0.134195
O O12 0.500000 0.500000 0.500000
O O13 0.705502 0.395600 0.681195
O O14 0.500000 0.000000 0.500000
O O15 0.687456 0.125941 0.899050
#
# Coordination Sequence:
#
# PCOD9241714 Si02
#       7
#     4   4   4   4   4   4   4
#     4  10  22  38  57  90 120 157 199 243 293 357
#     4  10  19  37  60  82 114 164 197 237 300 367
#     4   9  20  35  60  85 120 155 195 242 295 354
#     4   9  16  36  59  85 108 151 201 238 297 355
#     4   9  15  30  60  83 101 147 201 240 278 353
#     4  11  21  33  60  89 115 151 199 255 294 347
#     4  10  19  38  58  81 117 157 196 238 301 359
#
# _framework density 23.486820000000002
#
# number of rings (size 3 to 8) (size 9 to 14) (size 15 to 20)
#    0.000    2.286    2.857    0.857    2.000    0.000 
#    2.571    5.714    0.000    9.429    0.000    0.000 
#    0.000    0.000    0.000    0.000    0.000    0.000 
#
# Total GULP energy -155879.001500 kJ/mol
# GULP energy per Si atom -5567.107196 kJ/mol
# Density = 2.343336 g / cm^3
# Si number density = 23.486820 Si / 1000 Ang^3
#
#
#
# Elastic Constant Matrix: (Units=GPa)
#
#
# Indices 1 2 3 4 5 6 
#
# 1 63.2798 6.1560 3.8344 0.0000 20.5480 0.0000
# 2 6.1560 63.1105 9.9397 0.0000 4.1573 0.0000
# 3 3.8344 9.9397 68.0894 0.0000 16.6464 0.0000
# 4 0.0000 0.0000 0.0000 35.8155 0.0000 8.5161
# 5 20.5480 4.1573 16.6464 0.0000 20.1573 0.0000
# 6 0.0000 0.0000 0.0000 8.5161 0.0000 13.2757
#
#
#
# Elastic Compliance Matrix: (Units=1/GPa)
#
#
# Indices 1 2 3 4 5 6 
#
# 1 0.025667 -0.001457 0.006378 0.000000 -0.031131 0.000000
# 2 -0.001457 0.016350 -0.002310 0.000000 0.000021 0.000000
# 3 0.006378 -0.002310 0.020220 0.000000 -0.022724 0.000000
# 4 0.000000 0.000000 0.000000 0.032946 0.000000 -0.021134
# 5 -0.031131 0.000021 -0.022724 0.000000 0.100106 0.000000
# 6 0.000000 0.000000 0.000000 -0.021134 0.000000 0.088883
#
#
# Mechanical properties :
#
#
# Convention : Reuss Voigt Hill
#
# Bulk Modulus (GPa) = 14.82390 26.03776 20.43083
# Shear Modulus (GPa) = 16.58728 25.48634 21.03681
#
# Velocity S-wave (km/s) = 2.66040 3.29771 2.99605
# Velocity P-wave (km/s) = 3.97017 5.06064 4.54820
#
# Compressibility (1/GPa) = 0.06745863
#
# Stress axis : x y z
#
# Youngs Moduli (GPa) = 38.96068 61.16292 49.45587
#
# Poissons Ratio (x) = 0.08914 -0.31544
# Poissons Ratio (y) = 0.05678 0.11424
# Poissons Ratio (z) = -0.24850 0.14128
#
# Static dielectric constant tensor:
#      x y z
#    x 2.020930 0.000000 0.000000 
#    y 0.000000 1.142550 0.000000 
#    z 0.000000 0.000000 2.059220 
# 
# From -- ./inp_files/35423.got.cif
#   From: 2010.05.17/outbox.cif.g08.bks.cpg/sg14_18_cif.got.tgz:35423.got - 2010.06.03 17:49:19.
