data_PCOD9241643
_publ_section_title
;
Structure prediction by ZEFSAII (Michael W. Deem and Ramdas Pophale) SiO2 
 PCOD9241643
Probable space group: P 21/C
;
_chemical_formula_sum "Si O2"
_cell_formula_units_Z 24
_cell_length_a 19.034106
_cell_length_b 9.454179
_cell_length_c 12.164157
_cell_angle_alpha 90.000000
_cell_angle_beta 26.076439
_cell_angle_gamma 90.000000
_cell_volume 962.201913
_symmetry_space_group_name_H-M "P 21/C"
_symmetry_group_IT_number 14
_symmetry_cell_setting 'monoclinic'
loop_
_space_group_symop_operation_xyz
x,y,z
-x,1/2+y,1/2-z
-x,-y,-z
x,1/2-y,1/2+z
loop_
_atom_site_type_symbol
_atom_site_label
_atom_site_fract_x
_atom_site_fract_y
_atom_site_fract_z
Si Si1 0.396700 0.640689 0.000214
Si Si2 0.239120 0.270599 0.727035
Si Si3 0.711012 0.536669 0.655923
Si Si4 0.386910 0.548351 0.558251
Si Si5 0.152653 0.475946 0.208160
Si Si6 0.050631 0.008016 0.600601
O O1 0.296072 0.600321 0.253783
O O2 0.443391 0.805027 0.928295
O O3 0.288590 0.587952 0.051277
O O4 0.552741 0.546747 0.806249
O O5 0.286129 0.168629 0.762626
O O6 0.362870 0.396764 0.534760
O O7 0.217934 0.175431 0.652033
O O8 0.076170 0.347978 0.995760
O O9 0.868989 0.538823 0.359473
O O10 0.500000 0.500000 0.500000
O O11 0.199166 0.584195 0.848399
O O12 0.099677 0.473566 0.158225
O O13 0.000000 0.500000 0.500000
#
# Coordination Sequence:
#
# PCOD9241643 Si02
#       6
#     4   4   4   4   4   4
#     4  10  20  36  67  90 129 173 217 282 323 391
#     4   9  21  38  67  91 134 174 216 278 325 391
#     4  10  19  36  65  94 120 178 224 255 340 400
#     4  10  21  40  65  92 132 177 217 274 338 382
#     4  11  21  41  66  99 132 171 231 276 322 401
#     4  10  22  37  72  92 135 183 219 264 343 395
#
# _framework density 24.942789999999999
#
# number of rings (size 3 to 8) (size 9 to 14) (size 15 to 20)
#    1.000    1.000    5.000    0.000    2.333    0.000 
#    0.000    4.167   14.667    0.000    0.000    0.000 
#    0.000    0.000    0.000    0.000    0.000    0.000 
#
# Total GULP energy -134140.609038 kJ/mol
# GULP energy per Si atom -5589.192043 kJ/mol
# Density = 2.488602 g / cm^3
# Si number density = 24.942790 Si / 1000 Ang^3
#
#
#
# Elastic Constant Matrix: (Units=GPa)
#
#
# Indices 1 2 3 4 5 6 
#
# 1 40.9845 15.4499 10.9263 0.0000 -10.6401 0.0000
# 2 15.4499 150.9760 14.1164 0.0000 -13.2710 0.0000
# 3 10.9263 14.1164 143.5655 0.0000 -14.4221 0.0000
# 4 0.0000 0.0000 0.0000 24.2572 0.0000 -2.0758
# 5 -10.6401 -13.2710 -14.4221 0.0000 39.3558 0.0000
# 6 0.0000 0.0000 0.0000 -2.0758 0.0000 15.3676
#
#
#
# Elastic Compliance Matrix: (Units=1/GPa)
#
#
# Indices 1 2 3 4 5 6 
#
# 1 0.027129 -0.002118 -0.001237 0.000000 0.006167 0.000000
# 2 -0.002118 0.007020 -0.000362 0.000000 0.001662 0.000000
# 3 -0.001237 -0.000362 0.007319 0.000000 0.002225 0.000000
# 4 0.000000 0.000000 0.000000 0.041707 0.000000 0.005634
# 5 0.006167 0.001662 0.002225 0.000000 0.028452 0.000000
# 6 0.000000 0.000000 0.000000 0.005634 0.000000 0.065833
#
#
# Mechanical properties :
#
#
# Convention : Reuss Voigt Hill
#
# Bulk Modulus (GPa) = 29.38330 46.27902 37.83116
# Shear Modulus (GPa) = 25.47910 35.46503 30.47206
#
# Velocity S-wave (km/s) = 3.19956 3.77484 3.49904
# Velocity P-wave (km/s) = 5.04534 6.13136 5.61467
#
# Compressibility (1/GPa) = 0.03403293
#
# Stress axis : x y z
#
# Youngs Moduli (GPa) = 36.86119 142.44411 136.63506
#
# Poissons Ratio (x) = 0.30176 0.16900
# Poissons Ratio (y) = 0.07809 0.04948
# Poissons Ratio (z) = 0.04559 0.05158
#
# Static dielectric constant tensor:
#      x y z
#    x 1.971860 0.000000 0.036290 
#    y 0.000000 2.193530 0.000000 
#    z 0.036290 0.000000 2.054060 
# 
# From -- ./inp_files/61754.got.cif
#   From: 2010.05.17/outbox.cif.g08.bks.cpg/sg14_31_cif.got.tgz:61754.got - 2010.06.03 17:49:19.
