data_PCOD9241372
_publ_section_title
;
Structure prediction by ZEFSAII (Michael W. Deem and Ramdas Pophale) SiO2 
 PCOD9241372
Probable space group: P 21/C
;
_chemical_formula_sum "Si O2"
_cell_formula_units_Z 32
_cell_length_a 18.865543
_cell_length_b 13.443134
_cell_length_c 13.582514
_cell_angle_alpha 90.000000
_cell_angle_beta 160.656257
_cell_angle_gamma 90.000000
_cell_volume 1141.000993
_symmetry_space_group_name_H-M "P 21/C"
_symmetry_group_IT_number 14
_symmetry_cell_setting 'monoclinic'
loop_
_space_group_symop_operation_xyz
x,y,z
-x,1/2+y,1/2-z
-x,-y,-z
x,1/2-y,1/2+z
loop_
_atom_site_type_symbol
_atom_site_label
_atom_site_fract_x
_atom_site_fract_y
_atom_site_fract_z
Si Si1 0.103649 0.784633 0.584756
Si Si2 0.813197 0.767880 0.963503
Si Si3 0.108799 0.942624 0.736668
Si Si4 0.371512 0.107671 0.428884
Si Si5 0.463149 0.395747 0.400798
Si Si6 0.618020 0.793137 0.912105
Si Si7 0.142701 0.868584 0.986581
Si Si8 0.405295 0.986137 0.640636
O O1 0.127107 0.825997 0.726971
O O2 0.102539 0.669673 0.547249
O O3 0.306453 0.842629 0.803771
O O4 0.866073 0.823971 0.249805
O O5 0.802449 0.862039 0.879913
O O6 0.700715 0.675937 0.757697
O O7 0.631277 0.777733 0.811395
O O8 0.034489 0.733181 0.299720
O O9 0.054760 0.943760 0.783521
O O10 0.346392 0.985243 0.048184
O O11 0.000000 0.000000 0.500000
O O12 0.399779 0.194898 0.546607
O O13 0.303879 0.013538 0.403990
O O14 0.605770 0.105678 0.686566
O O15 0.500000 0.500000 0.500000
O O16 0.346390 0.434787 0.147531
O O17 0.431970 0.870155 0.696901
#
# Coordination Sequence:
#
# PCOD9241372 Si02
#       8
#     4   4   4   4   4   4   4   4
#     4  10  21  38  59  92 127 163 200 265 324 374
#     4  11  23  39  61  91 124 166 206 258 322 382
#     4  10  19  35  62  91 117 155 214 258 315 373
#     4  11  22  41  62  91 123 166 211 259 317 386
#     4  11  22  36  63  97 125 156 216 267 321 371
#     4  11  22  40  61  89 128 163 209 261 320 378
#     4  10  23  37  61  92 124 163 205 260 323 376
#     4  10  22  36  59  88 121 163 205 262 311 373
#
# _framework density 28.045549999999999
#
# number of rings (size 3 to 8) (size 9 to 14) (size 15 to 20)
#    0.000    1.500    3.750    1.500    3.500    0.500 
#    0.000    0.000    0.000    0.750    0.000    0.000 
#    0.000    0.000    0.000    0.000    0.000    0.000 
#
# Total GULP energy -178285.508396 kJ/mol
# GULP energy per Si atom -5571.422137 kJ/mol
# Density = 2.798172 g / cm^3
# Si number density = 28.045550 Si / 1000 Ang^3
#
#
#
# Elastic Constant Matrix: (Units=GPa)
#
#
# Indices 1 2 3 4 5 6 
#
# 1 88.2223 41.9482 -1.4934 0.0000 1.1925 0.0000
# 2 41.9482 90.4320 30.1497 0.0000 -20.7254 0.0000
# 3 -1.4934 30.1497 89.6973 0.0000 5.2963 0.0000
# 4 0.0000 0.0000 0.0000 45.5967 0.0000 -20.9569
# 5 1.1925 -20.7254 5.2963 0.0000 42.5502 0.0000
# 6 0.0000 0.0000 0.0000 -20.9569 0.0000 38.5491
#
#
#
# Elastic Compliance Matrix: (Units=1/GPa)
#
#
# Indices 1 2 3 4 5 6 
#
# 1 0.016414 -0.010365 0.004113 0.000000 -0.006021 0.000000
# 2 -0.010365 0.021185 -0.007979 0.000000 0.011603 0.000000
# 3 0.004113 -0.007979 0.014240 0.000000 -0.005774 0.000000
# 4 0.000000 0.000000 0.000000 0.029237 0.000000 0.015894
# 5 -0.006021 0.011603 -0.005774 0.000000 0.030040 0.000000
# 6 0.000000 0.000000 0.000000 0.015894 0.000000 0.034582
#
#
# Mechanical properties :
#
#
# Convention : Reuss Voigt Hill
#
# Bulk Modulus (GPa) = 42.77587 45.50672 44.14130
# Shear Modulus (GPa) = 27.47969 38.52233 33.00101
#
# Velocity S-wave (km/s) = 3.13361 3.71018 3.43402
# Velocity P-wave (km/s) = 5.32711 5.88347 5.61218
#
# Compressibility (1/GPa) = 0.02337766
#
# Stress axis : x y z
#
# Youngs Moduli (GPa) = 60.92205 47.20288 70.22551
#
# Poissons Ratio (x) = 0.48926 -0.28882
# Poissons Ratio (y) = 0.63146 0.56030
# Poissons Ratio (z) = -0.25056 0.37661
#
# Static dielectric constant tensor:
#      x y z
#    x 2.387680 0.000000 -0.093330 
#    y 0.000000 2.397810 0.000000 
#    z -0.093330 0.000000 2.153840 
# 
# From -- ./inp_files/50725.got.cif
#   From: 2010.05.17/outbox.cif.g08.bks.cpg/sg14_26_cif.got.tgz:50725.got - 2010.06.03 17:49:19.
