data_PCOD9241731
_publ_section_title
;
Structure prediction by ZEFSAII (Michael W. Deem and Ramdas Pophale) SiO2 
 PCOD9241731
Probable space group: P 21/C
;
_chemical_formula_sum "Si O2"
_cell_formula_units_Z 30
_cell_length_a 18.405348
_cell_length_b 8.874921
_cell_length_c 21.379653
_cell_angle_alpha 90.000000
_cell_angle_beta 160.813631
_cell_angle_gamma 90.000000
_cell_volume 1147.710090
_symmetry_space_group_name_H-M "P 21/C"
_symmetry_group_IT_number 14
_symmetry_cell_setting 'monoclinic'
loop_
_space_group_symop_operation_xyz
x,y,z
-x,1/2+y,1/2-z
-x,-y,-z
x,1/2-y,1/2+z
loop_
_atom_site_type_symbol
_atom_site_label
_atom_site_fract_x
_atom_site_fract_y
_atom_site_fract_z
Si Si1 0.029761 0.818326 0.377824
Si Si2 0.688366 0.032880 0.306067
Si Si3 0.767548 0.893127 0.996859
Si Si4 0.018837 0.513310 0.441949
Si Si5 0.500000 0.500000 0.000000
Si Si6 0.488170 0.861516 0.041319
Si Si7 0.915185 0.169107 0.194732
Si Si8 0.462592 0.272362 0.041130
O O1 0.099697 0.957647 0.477544
O O2 0.164408 0.785189 0.424332
O O3 0.069074 0.680714 0.457100
O O4 0.776210 0.804967 0.148850
O O5 0.664328 0.892982 0.239237
O O6 0.476961 0.059738 0.179733
O O7 0.643453 0.170673 0.220737
O O8 0.813438 0.910079 0.961147
O O9 0.855221 0.730425 0.090493
O O10 0.919706 0.015168 0.158392
O O11 0.773656 0.479808 0.219145
O O12 0.000000 0.500000 0.500000
O O13 0.504374 0.553867 0.924013
O O14 0.523375 0.716435 0.025509
O O15 0.259647 0.850330 0.892050
O O16 0.500000 0.000000 0.000000
#
# Coordination Sequence:
#
# PCOD9241731 Si02
#       8
#     4   4   4   4   2   4   4   4
#     4  10  21  36  61  87 124 162 207 260 313 376
#     4  10  20  39  60  86 122 168 202 256 317 376
#     4  10  21  40  65  91 130 166 215 264 323 377
#     4  10  21  39  58  90 125 158 208 269 311 382
#     4  10  20  34  62  88 116 164 198 250 328 360
#     4   9  20  37  64  87 125 163 208 261 320 376
#     4  10  20  40  64  94 126 170 213 265 315 394
#     4  10  19  37  60  90 121 164 205 260 311 375
#
# _framework density 26.139004
#
# number of rings (size 3 to 8) (size 9 to 14) (size 15 to 20)
#    0.000    2.133    1.333    1.600    0.000    1.600 
#    7.200    2.667    0.000    0.000    0.000    0.000 
#    0.000    0.000    0.000    0.000    0.000    0.000 
#
# Total GULP energy -167105.116150 kJ/mol
# GULP energy per Si atom -5570.170538 kJ/mol
# Density = 2.607951 g / cm^3
# Si number density = 26.139004 Si / 1000 Ang^3
#
#
#
# Elastic Constant Matrix: (Units=GPa)
#
#
# Indices 1 2 3 4 5 6 
#
# 1 198.0350 28.9128 23.3054 0.0000 0.8828 0.0000
# 2 28.9128 63.8530 11.7410 0.0000 -20.2863 0.0000
# 3 23.3054 11.7410 58.1259 0.0000 -7.3488 0.0000
# 4 0.0000 0.0000 0.0000 28.8940 0.0000 -11.1945
# 5 0.8828 -20.2863 -7.3488 0.0000 27.4136 0.0000
# 6 0.0000 0.0000 0.0000 -11.1945 0.0000 38.8083
#
#
#
# Elastic Compliance Matrix: (Units=1/GPa)
#
#
# Indices 1 2 3 4 5 6 
#
# 1 0.005778 -0.003232 -0.002059 0.000000 -0.003130 0.000000
# 2 -0.003232 0.022583 -0.001180 0.000000 0.016500 0.000000
# 3 -0.002059 -0.001180 0.018803 0.000000 0.004234 0.000000
# 4 0.000000 0.000000 0.000000 0.038964 0.000000 0.011239
# 5 -0.003130 0.016500 0.004234 0.000000 0.049924 0.000000
# 6 0.000000 0.000000 0.000000 0.011239 0.000000 0.029010
#
#
# Mechanical properties :
#
#
# Convention : Reuss Voigt Hill
#
# Bulk Modulus (GPa) = 29.22080 49.77024 39.49552
# Shear Modulus (GPa) = 26.39755 36.09349 31.24552
#
# Velocity S-wave (km/s) = 3.18133 3.71998 3.46115
# Velocity P-wave (km/s) = 4.96968 6.12641 5.57811
#
# Compressibility (1/GPa) = 0.03422220
#
# Stress axis : x y z
#
# Youngs Moduli (GPa) = 173.07720 44.28060 53.18199
#
# Poissons Ratio (x) = 0.14311 0.10953
# Poissons Ratio (y) = 0.55935 0.06274
# Poissons Ratio (z) = 0.35645 0.05224
#
# Static dielectric constant tensor:
#      x y z
#    x 2.167880 0.000000 0.014830 
#    y 0.000000 2.394650 0.000000 
#    z 0.014830 0.000000 2.030650 
# 
# From -- ./inp_files/69346.got.cif
#   From: 2010.05.17/outbox.cif.g08.bks.cpg/sg14_35_cif.got.tgz:69346.got - 2010.06.03 17:49:19.
