data_PCOD9241698
_publ_section_title
;
Structure prediction by ZEFSAII (Michael W. Deem and Ramdas Pophale) SiO2 
 PCOD9241698
Probable space group: P 21/C
;
_chemical_formula_sum "Si O2"
_cell_formula_units_Z 24
_cell_length_a 5.750247
_cell_length_b 9.599576
_cell_length_c 18.797930
_cell_angle_alpha 90.000000
_cell_angle_beta 61.260279
_cell_angle_gamma 90.000000
_cell_volume 909.820201
_symmetry_space_group_name_H-M "P 21/C"
_symmetry_group_IT_number 14
_symmetry_cell_setting 'monoclinic'
loop_
_space_group_symop_operation_xyz
x,y,z
-x,1/2+y,1/2-z
-x,-y,-z
x,1/2-y,1/2+z
loop_
_atom_site_type_symbol
_atom_site_label
_atom_site_fract_x
_atom_site_fract_y
_atom_site_fract_z
Si Si1 0.914300 0.884877 0.771969
Si Si2 0.758524 0.795490 0.508269
Si Si3 0.491703 0.331228 0.184410
Si Si4 0.492180 0.369436 0.351104
Si Si5 0.034894 0.459167 0.896779
Si Si6 0.882405 0.094181 0.113720
O O1 0.798376 0.726637 0.795266
O O2 0.990641 0.909320 0.679691
O O3 0.135306 0.911656 0.798177
O O4 0.706023 0.007652 0.821826
O O5 0.497328 0.746055 0.589146
O O6 0.950576 0.840269 0.545963
O O7 0.843145 0.662539 0.448908
O O8 0.805998 0.929385 0.450888
O O9 0.493474 0.316863 0.270009
O O10 0.670349 0.466708 0.141805
O O11 0.673930 0.211808 0.123010
O O12 0.209655 0.448316 0.402297
#
# Coordination Sequence:
#
# PCOD9241698 Si02
#       6
#     4   4   4   4   4   4
#     4  10  20  38  61  88 112 153 197 236 278 344
#     4  10  19  37  59  84 117 153 187 237 294 335
#     4   9  19  37  61  83 113 155 191 233 282 343
#     4  10  20  36  60  82 116 155 190 235 288 336
#     4   9  19  36  60  83 114 156 193 229 289 341
#     4  10  22  36  61  87 116 146 196 237 288 338
#
# _framework density 26.378837999999998
#
# number of rings (size 3 to 8) (size 9 to 14) (size 15 to 20)
#    0.000    2.333    1.667    0.500    0.000    4.667 
#    0.000    0.833    3.667    0.000    0.000    0.000 
#    0.000    0.000    0.000    0.000    0.000    0.000 
#
# Total GULP energy -133949.120815 kJ/mol
# GULP energy per Si atom -5581.213367 kJ/mol
# Density = 2.631880 g / cm^3
# Si number density = 26.378838 Si / 1000 Ang^3
#
#
#
# Elastic Constant Matrix: (Units=GPa)
#
#
# Indices 1 2 3 4 5 6 
#
# 1 39.3845 32.8072 12.3726 0.0000 0.7226 0.0000
# 2 32.8072 112.9896 51.7586 0.0000 -11.3871 0.0000
# 3 12.3726 51.7586 132.6440 0.0000 11.2357 0.0000
# 4 0.0000 0.0000 0.0000 53.7627 0.0000 -3.8895
# 5 0.7226 -11.3871 11.2357 0.0000 30.5626 0.0000
# 6 0.0000 0.0000 0.0000 -3.8895 0.0000 32.6547
#
#
#
# Elastic Compliance Matrix: (Units=1/GPa)
#
#
# Indices 1 2 3 4 5 6 
#
# 1 0.034405 -0.011336 0.001694 0.000000 -0.005660 0.000000
# 2 -0.011336 0.015584 -0.005716 0.000000 0.008176 0.000000
# 3 0.001694 -0.005716 0.010110 0.000000 -0.005887 0.000000
# 4 0.000000 0.000000 0.000000 0.018762 0.000000 0.002235
# 5 -0.005660 0.008176 -0.005887 0.000000 0.038064 0.000000
# 6 0.000000 0.000000 0.000000 0.002235 0.000000 0.030890
#
#
# Mechanical properties :
#
#
# Convention : Reuss Voigt Hill
#
# Bulk Modulus (GPa) = 34.03389 53.21052 43.62220
# Shear Modulus (GPa) = 26.54961 35.93466 31.24214
#
# Velocity S-wave (km/s) = 3.17594 3.69488 3.44519
# Velocity P-wave (km/s) = 5.13603 6.19825 5.69197
#
# Compressibility (1/GPa) = 0.02938248
#
# Stress axis : x y z
#
# Youngs Moduli (GPa) = 29.06529 64.16708 98.91030
#
# Poissons Ratio (x) = 0.72739 -0.16751
# Poissons Ratio (y) = 0.32948 0.56540
# Poissons Ratio (z) = -0.04922 0.36680
#
# Static dielectric constant tensor:
#      x y z
#    x 2.086550 0.000000 -0.113220 
#    y 0.000000 2.104050 0.000000 
#    z -0.113220 0.000000 2.089190 
# 
# From -- ./inp_files/63249.got.cif
#   From: 2010.05.17/outbox.cif.g08.bks.cpg/sg14_32_cif.got.tgz:63249.got - 2010.06.03 17:49:19.
