data_PCOD9241254
_publ_section_title
;
Structure prediction by ZEFSAII (Michael W. Deem and Ramdas Pophale) SiO2 
 PCOD9241254
Probable space group: P 21/C
;
_chemical_formula_sum "Si O2"
_cell_formula_units_Z 20
_cell_length_a 18.660273
_cell_length_b 9.634446
_cell_length_c 13.276749
_cell_angle_alpha 90.000000
_cell_angle_beta 18.001017
_cell_angle_gamma 90.000000
_cell_volume 737.636797
_symmetry_space_group_name_H-M "P 21/C"
_symmetry_group_IT_number 14
_symmetry_cell_setting 'monoclinic'
loop_
_space_group_symop_operation_xyz
x,y,z
-x,1/2+y,1/2-z
-x,-y,-z
x,1/2-y,1/2+z
loop_
_atom_site_type_symbol
_atom_site_label
_atom_site_fract_x
_atom_site_fract_y
_atom_site_fract_z
Si Si1 0.220743 0.361335 0.029115
Si Si2 0.045031 0.662515 0.805810
Si Si3 0.316723 0.538469 0.611209
Si Si4 0.762081 0.608954 0.758462
Si Si5 0.592290 0.189415 0.426102
O O1 0.001720 0.368469 0.248145
O O2 0.408827 0.479787 0.746573
O O3 0.370474 0.225100 0.795604
O O4 0.201470 0.364375 0.173257
O O5 0.835799 0.587440 0.148185
O O6 0.987539 0.823573 0.902812
O O7 0.260896 0.593171 0.573121
O O8 0.256055 0.672847 0.760870
O O9 0.715737 0.448202 0.798127
O O10 0.531503 0.675339 0.015916
#
# Coordination Sequence:
#
# PCOD9241254 Si02
#       5
#     4   4   4   4   4
#     4   9  20  34  57  77 107 140 178 215 262 313
#     4  10  20  37  55  80 106 142 177 218 261 315
#     4   9  20  37  55  77 109 135 184 216 259 313
#     4  10  19  35  58  77 110 140 176 216 270 310
#     4   8  20  35  53  82 104 140 174 216 268 311
#
# _framework density 27.113614999999999
#
# number of rings (size 3 to 8) (size 9 to 14) (size 15 to 20)
#    1.200    1.600    0.000    0.600    2.800    0.800 
#    3.600    2.000    0.000    0.000    0.000    0.000 
#    0.000    0.000    0.000    0.000    0.000    0.000 
#
# Total GULP energy -111904.837650 kJ/mol
# GULP energy per Si atom -5595.241882 kJ/mol
# Density = 2.705190 g / cm^3
# Si number density = 27.113615 Si / 1000 Ang^3
#
#
#
# Elastic Constant Matrix: (Units=GPa)
#
#
# Indices 1 2 3 4 5 6 
#
# 1 249.2369 48.5666 38.3287 0.0000 -7.7263 0.0000
# 2 48.5666 108.2534 19.3753 0.0000 -9.8560 0.0000
# 3 38.3287 19.3753 53.4226 0.0000 -11.5828 0.0000
# 4 0.0000 0.0000 0.0000 25.4035 0.0000 -1.5166
# 5 -7.7263 -9.8560 -11.5828 0.0000 42.8591 0.0000
# 6 0.0000 0.0000 0.0000 -1.5166 0.0000 32.8069
#
#
#
# Elastic Compliance Matrix: (Units=1/GPa)
#
#
# Indices 1 2 3 4 5 6 
#
# 1 0.004769 -0.001650 -0.002888 0.000000 -0.000300 0.000000
# 2 -0.001650 0.010528 -0.002309 0.000000 0.001499 0.000000
# 3 -0.002888 -0.002309 0.022732 0.000000 0.005092 0.000000
# 4 0.000000 0.000000 0.000000 0.039474 0.000000 0.001825
# 5 -0.000300 0.001499 0.005092 0.000000 0.024999 0.000000
# 6 0.000000 0.000000 0.000000 0.001825 0.000000 0.030566
#
#
# Mechanical properties :
#
#
# Convention : Reuss Voigt Hill
#
# Bulk Modulus (GPa) = 41.09472 69.27267 55.18369
# Shear Modulus (GPa) = 32.28463 40.52339 36.40401
#
# Velocity S-wave (km/s) = 3.45442 3.87017 3.66819
# Velocity P-wave (km/s) = 5.57674 6.75096 6.19175
#
# Compressibility (1/GPa) = 0.02433403
#
# Stress axis : x y z
#
# Youngs Moduli (GPa) = 209.70740 94.98843 43.99039
#
# Poissons Ratio (x) = 0.15671 0.12704
# Poissons Ratio (y) = 0.34597 0.10159
# Poissons Ratio (z) = 0.60564 0.21936
#
# Static dielectric constant tensor:
#      x y z
#    x 2.066600 0.000000 0.006370 
#    y 0.000000 2.105140 0.000000 
#    z 0.006370 0.000000 2.179370 
# 
# From -- ./inp_files/32305.got.cif
#   From: 2010.05.17/outbox.cif.g08.bks.cpg/sg14_17_cif.got.tgz:32305.got - 2010.06.03 17:49:19.
