data_PCOD9241315
_publ_section_title
;
Structure prediction by ZEFSAII (Michael W. Deem and Ramdas Pophale) SiO2 
 PCOD9241315
Probable space group: P 21/C
;
_chemical_formula_sum "Si O2"
_cell_formula_units_Z 30
_cell_length_a 21.814899
_cell_length_b 11.316433
_cell_length_c 9.936959
_cell_angle_alpha 90.000000
_cell_angle_beta 25.936734
_cell_angle_gamma 90.000000
_cell_volume 1072.935522
_symmetry_space_group_name_H-M "P 21/C"
_symmetry_group_IT_number 14
_symmetry_cell_setting 'monoclinic'
loop_
_space_group_symop_operation_xyz
x,y,z
-x,1/2+y,1/2-z
-x,-y,-z
x,1/2-y,1/2+z
loop_
_atom_site_type_symbol
_atom_site_label
_atom_site_fract_x
_atom_site_fract_y
_atom_site_fract_z
Si Si1 0.683594 0.488564 0.518582
Si Si2 0.613958 0.810402 0.980572
Si Si3 0.329717 0.696531 0.657318
Si Si4 0.061392 0.643055 0.703037
Si Si5 0.647727 0.950415 0.376260
Si Si6 0.018807 0.206204 0.915840
Si Si7 0.500000 0.000000 0.000000
Si Si8 0.829277 0.999547 0.235587
O O1 0.704821 0.612650 0.404092
O O2 0.741766 0.378931 0.322523
O O3 0.718043 0.495614 0.605564
O O4 0.516390 0.466712 0.828775
O O5 0.466809 0.770866 0.340147
O O6 0.681979 0.687279 0.806651
O O7 0.578704 0.892012 0.925209
O O8 0.211680 0.792464 0.918484
O O9 0.391275 0.600366 0.638513
O O10 0.976671 0.713499 0.753128
O O11 0.991520 0.672538 0.982731
O O12 0.086532 0.518812 0.573902
O O13 0.672570 0.991281 0.483442
O O14 0.879588 0.119208 0.208666
O O15 0.130257 0.115681 0.762191
#
# Coordination Sequence:
#
# PCOD9241315 Si02
#       8
#     4   4   4   4   4   4   2   4
#     4   9  20  34  49  89 118 147 209 245 285 385
#     4  10  20  35  51  85 120 164 196 252 298 375
#     4  10  21  32  59  85 122 161 206 252 310 363
#     4  10  21  38  67  91 115 163 207 258 319 375
#     4  10  19  35  60  78 119 166 194 243 318 363
#     4   9  22  42  63  93 118 152 215 260 314 369
#     4  10  22  36  52  84 130 156 210 252 294 386
#     4   9  21  41  64  86 124 162 202 260 318 372
#
# _framework density 27.960674000000001
#
# number of rings (size 3 to 8) (size 9 to 14) (size 15 to 20)
#    0.800    1.600    0.000    1.600    3.733    3.200 
#    2.400    3.333    0.000    0.000    0.000    0.000 
#    0.000    0.000    0.000    0.000    0.000    0.000 
#
# Total GULP energy -167416.135099 kJ/mol
# GULP energy per Si atom -5580.537837 kJ/mol
# Density = 2.789703 g / cm^3
# Si number density = 27.960674 Si / 1000 Ang^3
#
#
#
# Elastic Constant Matrix: (Units=GPa)
#
#
# Indices 1 2 3 4 5 6 
#
# 1 161.4196 41.9257 16.0060 0.0000 -0.5928 0.0000
# 2 41.9257 151.7544 20.0495 0.0000 8.0569 0.0000
# 3 16.0060 20.0495 78.6999 0.0000 -16.8761 0.0000
# 4 0.0000 0.0000 0.0000 11.9863 0.0000 2.7517
# 5 -0.5928 8.0569 -16.8761 0.0000 34.8410 0.0000
# 6 0.0000 0.0000 0.0000 2.7517 0.0000 27.5815
#
#
#
# Elastic Compliance Matrix: (Units=1/GPa)
#
#
# Indices 1 2 3 4 5 6 
#
# 1 0.006739 -0.001746 -0.000909 0.000000 0.000078 0.000000
# 2 -0.001746 0.007507 -0.002160 0.000000 -0.002812 0.000000
# 3 -0.000909 -0.002160 0.015116 0.000000 0.007806 0.000000
# 4 0.000000 0.000000 0.000000 0.085384 0.000000 -0.008518
# 5 0.000078 -0.002812 0.007806 0.000000 0.033134 0.000000
# 6 0.000000 0.000000 0.000000 -0.008518 0.000000 0.037106
#
#
# Mechanical properties :
#
#
# Convention : Reuss Voigt Hill
#
# Bulk Modulus (GPa) = 50.68239 60.87071 55.77655
# Shear Modulus (GPa) = 24.85178 35.80793 30.32985
#
# Velocity S-wave (km/s) = 2.98453 3.58250 3.29710
# Velocity P-wave (km/s) = 5.48108 6.23938 5.87248
#
# Compressibility (1/GPa) = 0.01973072
#
# Stress axis : x y z
#
# Youngs Moduli (GPa) = 148.39205 133.21557 66.15694
#
# Poissons Ratio (x) = 0.23257 0.06014
# Poissons Ratio (y) = 0.25907 0.14292
# Poissons Ratio (z) = 0.13490 0.28779
#
# Static dielectric constant tensor:
#      x y z
#    x 2.124250 0.000000 -0.082340 
#    y 0.000000 2.143790 0.000000 
#    z -0.082340 0.000000 1.957180 
# 
# From -- ./inp_files/35058.got.cif
#   From: 2010.05.17/outbox.cif.g08.bks.cpg/sg14_18_cif.got.tgz:35058.got - 2010.06.03 17:49:19.
