data_PCOD9241441
_publ_section_title
;
Structure prediction by ZEFSAII (Michael W. Deem and Ramdas Pophale) SiO2 
 PCOD9241441
Probable space group: P 21/C
;
_chemical_formula_sum "Si O2"
_cell_formula_units_Z 24
_cell_length_a 13.043342
_cell_length_b 13.752872
_cell_length_c 8.951010
_cell_angle_alpha 90.000000
_cell_angle_beta 126.350478
_cell_angle_gamma 90.000000
_cell_volume 1293.211036
_symmetry_space_group_name_H-M "P 21/C"
_symmetry_group_IT_number 14
_symmetry_cell_setting 'monoclinic'
loop_
_space_group_symop_operation_xyz
x,y,z
-x,1/2+y,1/2-z
-x,-y,-z
x,1/2-y,1/2+z
loop_
_atom_site_type_symbol
_atom_site_label
_atom_site_fract_x
_atom_site_fract_y
_atom_site_fract_z
Si Si1 0.451157 0.851345 0.436925
Si Si2 0.577921 0.512216 0.296550
Si Si3 0.922075 0.872486 0.820831
Si Si4 0.786636 0.733714 0.945639
Si Si5 0.190009 0.934762 0.157579
Si Si6 0.389310 0.164658 0.954821
O O1 0.525351 0.910956 0.628632
O O2 0.299915 0.868063 0.325960
O O3 0.498293 0.742063 0.474623
O O4 0.481983 0.909440 0.308322
O O5 0.727028 0.491315 0.395746
O O6 0.562232 0.562720 0.440530
O O7 0.855031 0.808544 0.892343
O O8 0.886103 0.825018 0.632591
O O9 0.865235 0.981599 0.782884
O O10 0.071414 0.879085 0.985296
O O11 0.700559 0.664912 0.766821
O O12 0.695821 0.789664 0.984064
#
# Coordination Sequence:
#
# PCOD9241441 Si02
#       6
#     4   4   4   4   4   4
#     4   9  18  33  56  82 105 146 184 220 277 332
#     4   9  17  33  55  80 102 145 181 221 266 330
#     4  10  19  36  57  77 109 148 184 222 262 334
#     4  10  20  31  56  83 102 142 191 215 272 324
#     4   9  18  36  57  76 107 152 183 212 276 339
#     4  11  17  35  56  81 109 143 181 234 265 329
#
# _framework density 18.558456
#
# number of rings (size 3 to 8) (size 9 to 14) (size 15 to 20)
#    1.000    1.333    3.333    1.000    0.000    0.000 
#    3.000    1.667    0.000    0.000    0.000    0.000 
#    0.000    0.000    0.000    0.000    0.000    0.000 
#
# Total GULP energy -133613.796935 kJ/mol
# GULP energy per Si atom -5567.241539 kJ/mol
# Density = 1.851622 g / cm^3
# Si number density = 18.558456 Si / 1000 Ang^3
#
#
#
# Elastic Constant Matrix: (Units=GPa)
#
#
# Indices 1 2 3 4 5 6 
#
# 1 64.0080 19.2914 48.5318 0.0000 18.2824 0.0000
# 2 19.2914 18.8991 36.8613 0.0000 8.2477 0.0000
# 3 48.5318 36.8613 127.3237 0.0000 10.2333 0.0000
# 4 0.0000 0.0000 0.0000 32.2877 0.0000 9.2790
# 5 18.2824 8.2477 10.2333 0.0000 29.0821 0.0000
# 6 0.0000 0.0000 0.0000 9.2790 0.0000 20.6376
#
#
#
# Elastic Compliance Matrix: (Units=1/GPa)
#
#
# Indices 1 2 3 4 5 6 
#
# 1 0.026816 -0.009451 -0.006531 0.000000 -0.011880 0.000000
# 2 -0.009451 0.141472 -0.035615 0.000000 -0.021648 0.000000
# 3 -0.006531 -0.035615 0.020080 0.000000 0.007140 0.000000
# 4 0.000000 0.000000 0.000000 0.035567 0.000000 -0.015992
# 5 -0.011880 -0.021648 0.007140 0.000000 0.045481 0.000000
# 6 0.000000 0.000000 0.000000 -0.015992 0.000000 0.055645
#
#
# Mechanical properties :
#
#
# Convention : Reuss Voigt Hill
#
# Bulk Modulus (GPa) = 11.74052 46.62219 29.18136
# Shear Modulus (GPa) = 10.94939 23.43789 17.19364
#
# Velocity S-wave (km/s) = 2.43162 3.55762 3.04708
# Velocity P-wave (km/s) = 3.77143 6.48474 5.30450
#
# Compressibility (1/GPa) = 0.08517508
#
# Stress axis : x y z
#
# Youngs Moduli (GPa) = 37.29088 7.06854 49.80039
#
# Poissons Ratio (x) = 0.06681 0.32522
# Poissons Ratio (y) = 0.35244 1.77364
# Poissons Ratio (z) = 0.24353 0.25175
#
# Static dielectric constant tensor:
#      x y z
#    x 1.645450 0.000000 -0.007220 
#    y 0.000000 1.668810 0.000000 
#    z -0.007220 0.000000 1.635230 
# 
# From -- ./inp_files/16020.got.cif
#   From: 2010.05.17/outbox.cif.g08.bks.cpg/sg14_9_cif.got.tgz:16020.got - 2010.06.03 17:49:19.
