data_PCOD9241736
_publ_section_title
;
Structure prediction by ZEFSAII (Michael W. Deem and Ramdas Pophale) SiO2 
 PCOD9241736
Probable space group: P 21/C
;
_chemical_formula_sum "Si O2"
_cell_formula_units_Z 32
_cell_length_a 24.635076
_cell_length_b 8.175329
_cell_length_c 10.584533
_cell_angle_alpha 90.000000
_cell_angle_beta 144.234010
_cell_angle_gamma 90.000000
_cell_volume 1245.941438
_symmetry_space_group_name_H-M "P 21/C"
_symmetry_group_IT_number 14
_symmetry_cell_setting 'monoclinic'
loop_
_space_group_symop_operation_xyz
x,y,z
-x,1/2+y,1/2-z
-x,-y,-z
x,1/2-y,1/2+z
loop_
_atom_site_type_symbol
_atom_site_label
_atom_site_fract_x
_atom_site_fract_y
_atom_site_fract_z
Si Si1 0.289120 0.240985 0.848106
Si Si2 0.068164 0.614838 0.995554
Si Si3 0.241751 0.931743 0.631434
Si Si4 0.546529 0.732938 0.676730
Si Si5 0.932817 0.749856 0.535513
Si Si6 0.879391 0.064285 0.829016
Si Si7 0.282127 0.602053 0.794286
Si Si8 0.544036 0.354234 0.740716
O O1 0.178509 0.241965 0.658158
O O2 0.313175 0.415141 0.827184
O O3 0.308991 0.075355 0.807402
O O4 0.345436 0.234472 0.085962
O O5 0.157886 0.591070 0.073607
O O6 0.097113 0.746753 0.155146
O O7 0.041174 0.427320 0.969802
O O8 0.987918 0.712288 0.768063
O O9 0.192134 0.991807 0.412145
O O10 0.286020 0.751356 0.703819
O O11 0.531184 0.541948 0.678441
O O12 0.495484 0.826575 0.693841
O O13 0.503975 0.756349 0.457416
O O14 0.948888 0.584870 0.485757
O O15 0.822431 0.080478 0.853024
O O16 0.345765 0.666936 0.030288
#
# Coordination Sequence:
#
# PCOD9241736 Si02
#       8
#     4   4   4   4   4   4   4   4
#     4   9  21  40  59  87 123 164 201 261 314 375
#     4  10  20  38  58  86 120 158 204 250 308 376
#     4  10  22  37  62  89 117 158 213 250 308 378
#     4  10  23  42  64  96 132 169 218 269 333 389
#     4  10  19  37  61  81 122 162 198 254 312 371
#     4  10  21  37  61  87 121 162 198 259 310 372
#     4   9  21  40  60  88 125 159 200 257 317 371
#     4  10  23  41  66  95 130 170 217 273 326 391
#
# _framework density 25.683388999999998
#
# number of rings (size 3 to 8) (size 9 to 14) (size 15 to 20)
#    0.000    2.250    1.250    0.000    3.500    5.000 
#    0.000    3.125    0.000    0.000    0.000    0.000 
#    0.000    0.000    0.000    0.000    0.000    0.000 
#
# Total GULP energy -178684.156379 kJ/mol
# GULP energy per Si atom -5583.879887 kJ/mol
# Density = 2.562493 g / cm^3
# Si number density = 25.683389 Si / 1000 Ang^3
#
#
#
# Elastic Constant Matrix: (Units=GPa)
#
#
# Indices 1 2 3 4 5 6 
#
# 1 33.7622 23.8936 5.2416 0.0000 5.7390 0.0000
# 2 23.8936 123.4114 53.6237 0.0000 -22.2475 0.0000
# 3 5.2416 53.6237 104.6435 0.0000 0.1232 0.0000
# 4 0.0000 0.0000 0.0000 41.9906 0.0000 -1.0134
# 5 5.7390 -22.2475 0.1232 0.0000 25.6113 0.0000
# 6 0.0000 0.0000 0.0000 -1.0134 0.0000 22.4416
#
#
#
# Elastic Compliance Matrix: (Units=1/GPa)
#
#
# Indices 1 2 3 4 5 6 
#
# 1 0.043026 -0.014737 0.005423 0.000000 -0.022469 0.000000
# 2 -0.014737 0.018120 -0.008570 0.000000 0.019084 0.000000
# 3 0.005423 -0.008570 0.013686 0.000000 -0.008725 0.000000
# 4 0.000000 0.000000 0.000000 0.023841 0.000000 0.001077
# 5 -0.022469 0.019084 -0.008725 0.000000 0.060699 0.000000
# 6 0.000000 0.000000 0.000000 0.001077 0.000000 0.044609
#
#
# Mechanical properties :
#
#
# Convention : Reuss Voigt Hill
#
# Bulk Modulus (GPa) = 25.59836 47.48164 36.54000
# Shear Modulus (GPa) = 19.78076 29.94592 24.86334
#
# Velocity S-wave (km/s) = 2.77822 3.41833 3.11476
# Velocity P-wave (km/s) = 4.50332 5.84015 5.21475
#
# Compressibility (1/GPa) = 0.03906500
#
# Stress axis : x y z
#
# Youngs Moduli (GPa) = 23.24178 55.18701 73.06514
#
# Poissons Ratio (x) = 0.81330 -0.39625
# Poissons Ratio (y) = 0.34252 0.62616
# Poissons Ratio (z) = -0.12605 0.47294
#
# Static dielectric constant tensor:
#      x y z
#    x 2.099210 0.000000 0.064180 
#    y 0.000000 2.073330 0.000000 
#    z 0.064180 0.000000 1.994940 
# 
# From -- ./inp_files/35759.got.cif
#   From: 2010.05.17/outbox.cif.g08.bks.cpg/sg14_18_cif.got.tgz:35759.got - 2010.06.03 17:49:19.
