data_PCOD9241925
_publ_section_title
;
Structure prediction by ZEFSAII (Michael W. Deem and Ramdas Pophale) SiO2 
 PCOD9241925
Probable space group: P 21/C
;
_chemical_formula_sum "Si O2"
_cell_formula_units_Z 28
_cell_length_a 26.416024
_cell_length_b 13.771492
_cell_length_c 14.663572
_cell_angle_alpha 90.000000
_cell_angle_beta 14.752680
_cell_angle_gamma 90.000000
_cell_volume 1358.398189
_symmetry_space_group_name_H-M "P 21/C"
_symmetry_group_IT_number 14
_symmetry_cell_setting 'monoclinic'
loop_
_space_group_symop_operation_xyz
x,y,z
-x,1/2+y,1/2-z
-x,-y,-z
x,1/2-y,1/2+z
loop_
_atom_site_type_symbol
_atom_site_label
_atom_site_fract_x
_atom_site_fract_y
_atom_site_fract_z
Si Si1 0.081717 0.738279 0.789543
Si Si2 0.495509 0.462860 0.722310
Si Si3 0.326427 0.358411 0.298290
Si Si4 0.730064 0.805332 0.288070
Si Si5 0.716237 0.044653 0.021085
Si Si6 0.389651 0.722028 0.592558
Si Si7 0.341576 0.821765 0.486070
O O1 0.124676 0.626839 0.736757
O O2 0.229781 0.775354 0.451618
O O3 0.146918 0.797023 0.766231
O O4 0.867235 0.750273 0.119833
O O5 0.665231 0.469384 0.504098
O O6 0.565775 0.385766 0.523445
O O7 0.420220 0.569986 0.830589
O O8 0.313937 0.408689 0.089565
O O9 0.191634 0.319872 0.450580
O O10 0.234170 0.443045 0.518933
O O11 0.516091 0.410994 0.918098
O O12 0.414133 0.272477 0.206864
O O13 0.520162 0.749755 0.643696
O O14 0.321266 0.791846 0.627753
#
# Coordination Sequence:
#
# PCOD9241925 Si02
#       7
#     4   4   4   4   4   4   4
#     4  11  22  40  60  90 124 157 196 258 298 356
#     4  10  20  37  63  87 118 164 198 244 305 364
#     4   9  16  34  61  83 107 161 195 240 290 357
#     4  10  22  41  59  89 126 154 203 253 301 355
#     4   9  16  33  62  84 109 151 208 238 285 344
#     4  10  19  38  61  86 119 156 201 249 302 349
#     4  11  21  41  63  85 123 160 201 249 303 357
#
# _framework density 20.612513
#
# number of rings (size 3 to 8) (size 9 to 14) (size 15 to 20)
#    0.000    2.000    7.143    0.000    2.000    1.143 
#    7.714    0.714    0.000    0.000    0.000    0.000 
#    0.000    0.000    0.000    0.000    0.000    0.000 
#
# Total GULP energy -156256.358331 kJ/mol
# GULP energy per Si atom -5580.584226 kJ/mol
# Density = 2.056560 g / cm^3
# Si number density = 20.612513 Si / 1000 Ang^3
#
#
#
# Elastic Constant Matrix: (Units=GPa)
#
#
# Indices 1 2 3 4 5 6 
#
# 1 80.1099 -11.6265 12.4506 0.0000 -6.0964 0.0000
# 2 -11.6265 51.9207 -6.1583 0.0000 9.8813 0.0000
# 3 12.4506 -6.1583 19.4358 0.0000 -10.5936 0.0000
# 4 0.0000 0.0000 0.0000 2.9496 0.0000 5.4180
# 5 -6.0964 9.8813 -10.5936 0.0000 32.6305 0.0000
# 6 0.0000 0.0000 0.0000 5.4180 0.0000 25.1700
#
#
#
# Elastic Compliance Matrix: (Units=1/GPa)
#
#
# Indices 1 2 3 4 5 6 
#
# 1 0.014116 0.002290 -0.008818 0.000000 -0.000919 0.000000
# 2 0.002290 0.021039 0.002381 0.000000 -0.005170 0.000000
# 3 -0.008818 0.002381 0.068725 0.000000 0.019943 0.000000
# 4 0.000000 0.000000 0.000000 0.560746 0.000000 -0.120705
# 5 -0.000919 -0.005170 0.019943 0.000000 0.038515 0.000000
# 6 0.000000 0.000000 0.000000 -0.120705 0.000000 0.065712
#
#
# Mechanical properties :
#
#
# Convention : Reuss Voigt Hill
#
# Bulk Modulus (GPa) = 10.46167 15.64423 13.05295
# Shear Modulus (GPa) = 6.18040 22.60340 14.39190
#
# Velocity S-wave (km/s) = 1.73346 3.31507 2.64524
# Velocity P-wave (km/s) = 3.01545 4.71795 3.95929
#
# Compressibility (1/GPa) = 0.09558705
#
# Stress axis : x y z
#
# Youngs Moduli (GPa) = 70.84308 47.53003 14.55074
#
# Poissons Ratio (x) = -0.10884 0.12831
# Poissons Ratio (y) = -0.16222 -0.03465
# Poissons Ratio (z) = 0.62468 -0.11319
#
# Static dielectric constant tensor:
#      x y z
#    x 1.780390 0.000000 0.025750 
#    y 0.000000 1.705510 0.000000 
#    z 0.025750 0.000000 1.788370 
# 
# From -- ./inp_files/51522.got.cif
#   From: 2010.05.17/outbox.cif.g08.bks.cpg/sg14_26_cif.got.tgz:51522.got - 2010.06.03 17:49:19.
