data_PCOD9241071
_publ_section_title
;
Structure prediction by ZEFSAII (Michael W. Deem and Ramdas Pophale) SiO2 
 PCOD9241071
Probable space group: P 21/C
;
_chemical_formula_sum "Si O2"
_cell_formula_units_Z 24
_cell_length_a 14.749308
_cell_length_b 16.186371
_cell_length_c 9.303047
_cell_angle_alpha 90.000000
_cell_angle_beta 150.498147
_cell_angle_gamma 90.000000
_cell_volume 1093.729682
_symmetry_space_group_name_H-M "P 21/C"
_symmetry_group_IT_number 14
_symmetry_cell_setting 'monoclinic'
loop_
_space_group_symop_operation_xyz
x,y,z
-x,1/2+y,1/2-z
-x,-y,-z
x,1/2-y,1/2+z
loop_
_atom_site_type_symbol
_atom_site_label
_atom_site_fract_x
_atom_site_fract_y
_atom_site_fract_z
Si Si1 0.759808 0.166278 0.758414
Si Si2 0.788984 0.825446 0.606755
Si Si3 0.200822 0.165815 0.707533
Si Si4 0.304132 0.510702 0.305197
Si Si5 0.756314 0.169314 0.086470
Si Si6 0.199278 0.505095 0.845552
O O1 0.697436 0.247020 0.585639
O O2 0.705334 0.083350 0.597129
O O3 0.699559 0.166520 0.841273
O O4 0.986064 0.169962 0.073950
O O5 0.731874 0.742318 0.606497
O O6 0.733870 0.821748 0.365117
O O7 0.717483 0.913824 0.564807
O O8 0.979444 0.169213 0.397810
O O9 0.255847 0.072813 0.823925
O O10 0.500000 0.500000 0.500000
O O11 0.298187 0.589767 0.396822
O O12 0.176211 0.517861 0.985841
O O13 0.000000 0.500000 0.500000
#
# Coordination Sequence:
#
# PCOD9241071 Si02
#       6
#     4   4   4   4   4   4
#     4   9  17  31  56  84 107 140 188 234 272 323
#     4   8  16  29  51  82 109 134 180 232 270 315
#     4   9  18  33  54  79 106 143 184 225 271 326
#     4  11  23  38  54  81 118 150 184 233 282 328
#     4  10  19  34  57  84 111 146 189 229 275 334
#     4   9  18  35  56  80 111 147 184 229 275 328
#
# _framework density 21.943263000000002
#
# number of rings (size 3 to 8) (size 9 to 14) (size 15 to 20)
#    0.000    2.667    0.000    2.500    0.000    5.333 
#    0.000    7.500    0.000    0.000    0.000    0.000 
#    0.000    0.000    0.000    0.000    0.000    0.000 
#
# Total GULP energy -134031.596497 kJ/mol
# GULP energy per Si atom -5584.649854 kJ/mol
# Density = 2.189332 g / cm^3
# Si number density = 21.943263 Si / 1000 Ang^3
#
#
#
# Elastic Constant Matrix: (Units=GPa)
#
#
# Indices 1 2 3 4 5 6 
#
# 1 82.6925 107.1443 31.6231 0.0000 -28.7207 0.0000
# 2 107.1443 257.9689 41.3008 0.0000 -52.3348 0.0000
# 3 31.6231 41.3008 53.4087 0.0000 -8.4664 0.0000
# 4 0.0000 0.0000 0.0000 0.3097 0.0000 -25.3428
# 5 -28.7207 -52.3348 -8.4664 0.0000 29.4068 0.0000
# 6 0.0000 0.0000 0.0000 -25.3428 0.0000 43.7370
#
#
#
# Elastic Compliance Matrix: (Units=1/GPa)
#
#
# Indices 1 2 3 4 5 6 
#
# 1 0.032111 -0.009339 -0.009907 0.000000 0.011890 0.000000
# 2 -0.009339 0.009324 -0.000520 0.000000 0.007323 0.000000
# 3 -0.009907 -0.000520 0.024426 0.000000 -0.003568 0.000000
# 4 0.000000 0.000000 0.000000 -0.069566 0.000000 -0.040309
# 5 0.011890 0.007323 -0.003568 0.000000 0.057624 0.000000
# 6 0.000000 0.000000 0.000000 -0.040309 0.000000 -0.000493
#
#
# Mechanical properties :
#
#
# Convention : Reuss Voigt Hill
#
# Bulk Modulus (GPa) = 37.97892 83.80074 60.88983
# Shear Modulus (GPa) = 49.14777 28.95748 39.05263
#
# Velocity S-wave (km/s) = 4.73775 3.63664 4.22324
# Velocity P-wave (km/s) = 6.87559 7.47705 7.18262
#
# Compressibility (1/GPa) = 0.02633039
#
# Stress axis : x y z
#
# Youngs Moduli (GPa) = 31.14155 107.24758 40.94075
#
# Poissons Ratio (x) = 1.00158 0.40558
# Poissons Ratio (y) = 0.29083 0.02129
# Poissons Ratio (z) = 0.30850 0.05576
#
# Static dielectric constant tensor:
#      x y z
#    x 1.763420 0.000000 -0.003910 
#    y 0.000000 1.812680 0.000000 
#    z -0.003910 0.000000 1.792680 
# 
# From -- ./inp_files/16332.got.cif
#   From: 2010.05.17/outbox.cif.g08.bks.cpg/sg14_9_cif.got.tgz:16332.got - 2010.06.03 17:49:19.
