data_PCOD9241756
_publ_section_title
;
Structure prediction by ZEFSAII (Michael W. Deem and Ramdas Pophale) SiO2 
 PCOD9241756
Probable space group: P 21/C
;
_chemical_formula_sum "Si O2"
_cell_formula_units_Z 20
_cell_length_a 20.717811
_cell_length_b 8.153648
_cell_length_c 13.556784
_cell_angle_alpha 90.000000
_cell_angle_beta 160.551125
_cell_angle_gamma 90.000000
_cell_volume 762.521124
_symmetry_space_group_name_H-M "P 21/C"
_symmetry_group_IT_number 14
_symmetry_cell_setting 'monoclinic'
loop_
_space_group_symop_operation_xyz
x,y,z
-x,1/2+y,1/2-z
-x,-y,-z
x,1/2-y,1/2+z
loop_
_atom_site_type_symbol
_atom_site_label
_atom_site_fract_x
_atom_site_fract_y
_atom_site_fract_z
Si Si1 0.308545 0.528046 0.542000
Si Si2 0.169793 0.068818 0.371247
Si Si3 0.107311 0.754568 0.890275
Si Si4 0.331289 0.238934 0.432285
Si Si5 0.462579 0.250727 0.405090
O O1 0.125905 0.595611 0.339185
O O2 0.276865 0.412205 0.402927
O O3 0.426670 0.410828 0.787921
O O4 0.446778 0.684566 0.720989
O O5 0.200955 0.104170 0.301375
O O6 0.381736 0.096328 0.726305
O O7 0.083180 0.902854 0.286946
O O8 0.044299 0.210872 0.242269
O O9 0.315807 0.740158 0.244080
O O10 0.334411 0.242014 0.319802
#
# Coordination Sequence:
#
# PCOD9241756 Si02
#       5
#     4   4   4   4   4
#     4  10  21  38  61  90 121 158 198 245 297 355
#     4  11  23  40  62  90 122 159 201 248 298 355
#     4  11  22  41  62  88 125 158 198 253 299 350
#     4  10  19  37  61  89 120 157 200 242 296 359
#     4  10  22  42  64  89 121 158 198 248 301 353
#
# _framework density 26.228784000000001
#
# number of rings (size 3 to 8) (size 9 to 14) (size 15 to 20)
#    0.000    1.600    0.000    7.800    0.000    1.600 
#    0.000   23.000    0.000    0.000    0.000    0.000 
#    0.000    0.000    0.000    0.000    0.000    0.000 
#
# Total GULP energy -112073.773789 kJ/mol
# GULP energy per Si atom -5603.688689 kJ/mol
# Density = 2.616909 g / cm^3
# Si number density = 26.228784 Si / 1000 Ang^3
#
#
#
# Elastic Constant Matrix: (Units=GPa)
#
#
# Indices 1 2 3 4 5 6 
#
# 1 156.8209 -2.5019 32.0999 0.0000 5.1722 0.0000
# 2 -2.5019 73.8777 -7.4802 0.0000 -9.7563 0.0000
# 3 32.0999 -7.4802 74.2217 0.0000 -2.5328 0.0000
# 4 0.0000 0.0000 0.0000 20.3037 0.0000 12.1606
# 5 5.1722 -9.7563 -2.5328 0.0000 42.7307 0.0000
# 6 0.0000 0.0000 0.0000 12.1606 0.0000 44.8183
#
#
#
# Elastic Compliance Matrix: (Units=1/GPa)
#
#
# Indices 1 2 3 4 5 6 
#
# 1 0.007045 -0.000219 -0.003106 0.000000 -0.001087 0.000000
# 2 -0.000219 0.014136 0.001634 0.000000 0.003351 0.000000
# 3 -0.003106 0.001634 0.015037 0.000000 0.001640 0.000000
# 4 0.000000 0.000000 0.000000 0.058809 0.000000 -0.015957
# 5 -0.001087 0.003351 0.001640 0.000000 0.024396 0.000000
# 6 0.000000 0.000000 0.000000 -0.015957 0.000000 0.026642
#
#
# Mechanical properties :
#
#
# Convention : Reuss Voigt Hill
#
# Bulk Modulus (GPa) = 30.45496 38.79509 34.62502
# Shear Modulus (GPa) = 31.17324 40.42403 35.79864
#
# Velocity S-wave (km/s) = 3.45122 3.93008 3.69841
# Velocity P-wave (km/s) = 5.24573 5.95124 5.60959
#
# Compressibility (1/GPa) = 0.03283538
#
# Stress axis : x y z
#
# Youngs Moduli (GPa) = 141.94823 70.73919 66.50215
#
# Poissons Ratio (x) = 0.01552 0.20656
# Poissons Ratio (y) = 0.03115 -0.10866
# Poissons Ratio (z) = 0.44089 -0.11558
#
# Static dielectric constant tensor:
#      x y z
#    x 2.007880 0.000000 0.000730 
#    y 0.000000 2.105250 0.000000 
#    z 0.000730 0.000000 2.088520 
# 
# From -- ./inp_files/50163.got.cif
#   From: 2010.05.17/outbox.cif.g08.bks.cpg/sg14_26_cif.got.tgz:50163.got - 2010.06.03 17:49:19.
