data_PCOD9241284
_publ_section_title
;
Structure prediction by ZEFSAII (Michael W. Deem and Ramdas Pophale) SiO2 
 PCOD9241284
Probable space group: P 21/C
;
_chemical_formula_sum "Si O2"
_cell_formula_units_Z 32
_cell_length_a 19.856533
_cell_length_b 7.247537
_cell_length_c 11.246681
_cell_angle_alpha 90.000000
_cell_angle_beta 55.820557
_cell_angle_gamma 90.000000
_cell_volume 1338.973293
_symmetry_space_group_name_H-M "P 21/C"
_symmetry_group_IT_number 14
_symmetry_cell_setting 'monoclinic'
loop_
_space_group_symop_operation_xyz
x,y,z
-x,1/2+y,1/2-z
-x,-y,-z
x,1/2-y,1/2+z
loop_
_atom_site_type_symbol
_atom_site_label
_atom_site_fract_x
_atom_site_fract_y
_atom_site_fract_z
Si Si1 0.679252 0.445641 0.058243
Si Si2 0.858352 0.113116 0.428523
Si Si3 0.332998 0.496174 0.421693
Si Si4 0.988382 0.116173 0.128518
Si Si5 0.907311 0.034312 0.625578
Si Si6 0.405013 0.967059 0.601149
Si Si7 0.402209 0.529096 0.609357
Si Si8 0.851093 0.940542 0.920759
O O1 0.669292 0.221403 0.072970
O O2 0.638483 0.522121 0.221685
O O3 0.777032 0.460278 0.947844
O O4 0.637414 0.524871 0.980783
O O5 0.943594 0.037060 0.289684
O O6 0.850157 0.042119 0.570808
O O7 0.862328 0.338025 0.436921
O O8 0.381290 0.450894 0.253140
O O9 0.363960 0.448958 0.524274
O O10 0.244308 0.412766 0.481862
O O11 0.917927 0.260881 0.166517
O O12 0.081196 0.163678 0.069689
O O13 0.000000 0.000000 0.000000
O O14 0.877160 0.906058 0.759216
O O15 0.000000 0.000000 0.500000
O O16 0.387968 0.748764 0.621283
O O17 0.500000 0.000000 0.500000
O O18 0.500000 0.500000 0.500000
#
# Coordination Sequence:
#
# PCOD9241284 Si02
#       8
#     4   4   4   4   4   4   4   4
#     4   9  19  33  56  85 107 140 189 228 268 322
#     4  10  20  35  57  82 110 146 191 237 272 325
#     4   9  19  33  57  83 108 142 185 230 270 322
#     4  11  22  34  57  83 109 147 186 235 279 325
#     4  11  21  36  56  77 112 149 188 227 278 333
#     4  10  20  35  57  83 110 140 178 227 278 336
#     4  10  19  35  59  81 108 144 181 223 276 338
#     4  10  20  35  57  82 109 144 194 235 272 324
#
# _framework density 23.898909
#
# number of rings (size 3 to 8) (size 9 to 14) (size 15 to 20)
#    0.000    2.000    2.500    1.500    1.750    3.000 
#    0.000    0.000    8.250    0.000    0.000    0.000 
#    0.000    0.000    0.000    0.000    0.000    0.000 
#
# Total GULP energy -178440.310413 kJ/mol
# GULP energy per Si atom -5576.259700 kJ/mol
# Density = 2.384451 g / cm^3
# Si number density = 23.898909 Si / 1000 Ang^3
#
#
#
# Elastic Constant Matrix: (Units=GPa)
#
#
# Indices 1 2 3 4 5 6 
#
# 1 169.5754 -3.5255 42.3511 0.0000 7.3273 0.0000
# 2 -3.5255 72.9578 -6.6506 0.0000 7.2809 0.0000
# 3 42.3511 -6.6506 114.0162 0.0000 -2.5636 0.0000
# 4 0.0000 0.0000 0.0000 11.0997 0.0000 -14.3211
# 5 7.3273 7.2809 -2.5636 0.0000 46.1075 0.0000
# 6 0.0000 0.0000 0.0000 -14.3211 0.0000 7.6291
#
#
#
# Elastic Compliance Matrix: (Units=1/GPa)
#
#
# Indices 1 2 3 4 5 6 
#
# 1 0.006567 0.000215 -0.002454 0.000000 -0.001214 0.000000
# 2 0.000215 0.014000 0.000687 0.000000 -0.002207 0.000000
# 3 -0.002454 0.000687 0.009741 0.000000 0.000823 0.000000
# 4 0.000000 0.000000 0.000000 -0.063359 0.000000 -0.118934
# 5 -0.001214 -0.002207 0.000823 0.000000 0.022276 0.000000
# 6 0.000000 0.000000 0.000000 -0.118934 0.000000 -0.092181
#
#
# Mechanical properties :
#
#
# Convention : Reuss Voigt Hill
#
# Bulk Modulus (GPa) = 36.76005 46.76660 41.76333
# Shear Modulus (GPa) = -55.07536 34.59223 -10.24157
#
# Velocity S-wave (km/s) = -4.80574 3.80865 -2.07236
# Velocity P-wave (km/s) = 3.92157 6.24116 3.43318
#
# Compressibility (1/GPa) = 0.02720344
#
# Stress axis : x y z
#
# Youngs Moduli (GPa) = 152.27907 71.42961 102.66078
#
# Poissons Ratio (x) = -0.01534 0.25193
# Poissons Ratio (y) = -0.03271 -0.07055
# Poissons Ratio (z) = 0.37370 -0.04909
#
# Static dielectric constant tensor:
#      x y z
#    x 1.695120 0.000000 -0.094900 
#    y 0.000000 2.014350 0.000000 
#    z -0.094900 0.000000 1.862290 
# 
# From -- ./inp_files/34963.got.cif
#   From: 2010.05.17/outbox.cif.g08.bks.cpg/sg14_18_cif.got.tgz:34963.got - 2010.06.03 17:49:19.
