data_PCOD9241897
_publ_section_title
;
Structure prediction by ZEFSAII (Michael W. Deem and Ramdas Pophale) SiO2 
 PCOD9241897
Probable space group: P 21/C
;
_chemical_formula_sum "Si O2"
_cell_formula_units_Z 30
_cell_length_a 30.259627
_cell_length_b 8.754998
_cell_length_c 13.083304
_cell_angle_alpha 90.000000
_cell_angle_beta 22.008946
_cell_angle_gamma 90.000000
_cell_volume 1298.913612
_symmetry_space_group_name_H-M "P 21/C"
_symmetry_group_IT_number 14
_symmetry_cell_setting 'monoclinic'
loop_
_space_group_symop_operation_xyz
x,y,z
-x,1/2+y,1/2-z
-x,-y,-z
x,1/2-y,1/2+z
loop_
_atom_site_type_symbol
_atom_site_label
_atom_site_fract_x
_atom_site_fract_y
_atom_site_fract_z
Si Si1 0.760090 0.634062 0.224188
Si Si2 0.452001 0.569332 0.380620
Si Si3 0.922867 0.089525 0.244507
Si Si4 0.485211 0.665067 0.086936
Si Si5 0.500000 0.500000 0.500000
Si Si6 0.714932 0.291737 0.629489
Si Si7 0.934134 0.642961 0.020045
Si Si8 0.851018 0.573571 0.420489
O O1 0.630918 0.568161 0.483056
O O2 0.844071 0.524545 0.977595
O O3 0.811514 0.616240 0.226931
O O4 0.788866 0.803512 0.124772
O O5 0.504961 0.637588 0.164011
O O6 0.524689 0.511417 0.322528
O O7 0.369692 0.698762 0.611521
O O8 0.835163 0.197758 0.368802
O O9 0.004800 0.196997 0.137892
O O10 0.000000 0.000000 0.000000
O O11 0.351337 0.706863 0.336726
O O12 0.549846 0.819282 0.909668
O O13 0.500000 0.500000 0.000000
O O14 0.752976 0.453212 0.592554
O O15 0.035736 0.518540 0.779040
O O16 0.905279 0.647998 0.201831
#
# Coordination Sequence:
#
# PCOD9241897 Si02
#       8
#     4   4   4   4   2   4   4   4
#     4  11  21  37  60  92 125 167 225 269 338 408
#     4  10  24  46  67 101 135 170 226 292 355 435
#     4  10  19  38  59  85 136 179 217 278 332 399
#     4  11  25  48  77 102 138 186 230 304 372 433
#     4  10  26  48  74 106 136 176 236 284 368 450
#     4   9  22  42  60  95 134 176 225 286 347 420
#     4  10  20  35  55  86 123 173 221 267 320 399
#     4  10  20  36  57  86 129 167 219 267 327 400
#
# _framework density 23.096226999999999
#
# number of rings (size 3 to 8) (size 9 to 14) (size 15 to 20)
#    0.000    1.867    1.333    1.600    5.600    0.000 
#   12.000    0.000    0.000    0.000    0.000    0.000 
#    0.000    0.000    0.000    0.000    0.000    0.000 
#
# Total GULP energy -167031.450098 kJ/mol
# GULP energy per Si atom -5567.715003 kJ/mol
# Density = 2.304366 g / cm^3
# Si number density = 23.096227 Si / 1000 Ang^3
#
#
#
# Elastic Constant Matrix: (Units=GPa)
#
#
# Indices 1 2 3 4 5 6 
#
# 1 127.9993 19.6054 12.4965 0.0000 7.7345 0.0000
# 2 19.6054 105.5153 16.4883 0.0000 7.9338 0.0000
# 3 12.4965 16.4883 34.6998 0.0000 3.0459 0.0000
# 4 0.0000 0.0000 0.0000 19.8635 0.0000 6.0238
# 5 7.7345 7.9338 3.0459 0.0000 24.3203 0.0000
# 6 0.0000 0.0000 0.0000 6.0238 0.0000 29.8418
#
#
#
# Elastic Compliance Matrix: (Units=1/GPa)
#
#
# Indices 1 2 3 4 5 6 
#
# 1 0.008320 -0.001030 -0.002330 0.000000 -0.002018 0.000000
# 2 -0.001030 0.010552 -0.004418 0.000000 -0.002561 0.000000
# 3 -0.002330 -0.004418 0.031916 0.000000 -0.001815 0.000000
# 4 0.000000 0.000000 0.000000 0.053626 0.000000 -0.010825
# 5 -0.002018 -0.002561 -0.001815 0.000000 0.042823 0.000000
# 6 0.000000 0.000000 0.000000 -0.010825 0.000000 0.035695
#
#
# Mechanical properties :
#
#
# Convention : Reuss Voigt Hill
#
# Bulk Modulus (GPa) = 28.38314 40.59942 34.49128
# Shear Modulus (GPa) = 23.78335 29.44674 26.61504
#
# Velocity S-wave (km/s) = 3.21245 3.57453 3.39832
# Velocity P-wave (km/s) = 5.10642 5.88667 5.51038
#
# Compressibility (1/GPa) = 0.03523218
#
# Stress axis : x y z
#
# Youngs Moduli (GPa) = 120.19668 94.77173 31.33201
#
# Poissons Ratio (x) = 0.09762 0.07299
# Poissons Ratio (y) = 0.12381 0.13843
# Poissons Ratio (z) = 0.28001 0.41871
#
# Static dielectric constant tensor:
#      x y z
#    x 1.902420 0.000000 -0.032350 
#    y 0.000000 1.939200 0.000000 
#    z -0.032350 0.000000 1.835390 
# 
# From -- ./inp_files/36413.got.cif
#   From: 2010.05.17/outbox.cif.g08.bks.cpg/sg14_19_cif.got.tgz:36413.got - 2010.06.03 17:49:19.
