data_PCOD9241934
_publ_section_title
;
Structure prediction by ZEFSAII (Michael W. Deem and Ramdas Pophale) SiO2 
 PCOD9241934
Probable space group: P 21/C
;
_chemical_formula_sum "Si O2"
_cell_formula_units_Z 28
_cell_length_a 8.723827
_cell_length_b 16.496602
_cell_length_c 9.973169
_cell_angle_alpha 90.000000
_cell_angle_beta 75.849793
_cell_angle_gamma 90.000000
_cell_volume 1391.724844
_symmetry_space_group_name_H-M "P 21/C"
_symmetry_group_IT_number 14
_symmetry_cell_setting 'monoclinic'
loop_
_space_group_symop_operation_xyz
x,y,z
-x,1/2+y,1/2-z
-x,-y,-z
x,1/2-y,1/2+z
loop_
_atom_site_type_symbol
_atom_site_label
_atom_site_fract_x
_atom_site_fract_y
_atom_site_fract_z
Si Si1 0.214349 0.911188 0.362440
Si Si2 0.226126 0.082399 0.976633
Si Si3 0.228027 0.905841 0.670365
Si Si4 0.558776 0.824343 0.903291
Si Si5 0.486807 0.511595 0.269815
Si Si6 0.013933 0.533472 0.674084
Si Si7 0.394085 0.741999 0.703798
O O1 0.181763 0.904210 0.525782
O O2 0.300730 0.831162 0.290919
O O3 0.341348 0.982477 0.309288
O O4 0.062721 0.928475 0.303806
O O5 0.384900 0.059275 0.861467
O O6 0.270542 0.154051 0.069048
O O7 0.168901 0.001816 0.068007
O O8 0.085507 0.093449 0.899581
O O9 0.386858 0.957795 0.663928
O O10 0.274161 0.817178 0.711891
O O11 0.094706 0.954260 0.779770
O O12 0.496886 0.912938 0.869946
O O13 0.533874 0.770263 0.775691
O O14 0.459452 0.783811 0.044527
#
# Coordination Sequence:
#
# PCOD9241934 Si02
#       7
#     4   4   4   4   4   4   4
#     4  12  20  39  66  94 121 170 215 260 311 369
#     4  10  19  38  61  92 116 156 210 256 305 372
#     4  10  23  40  57  95 132 165 200 264 320 378
#     4  11  20  39  61  94 121 160 207 266 314 365
#     4  10  20  35  69  93 118 156 221 267 300 360
#     4  10  22  37  64  89 126 164 206 257 311 380
#     4  11  23  37  66  91 126 160 211 266 318 365
#
# _framework density 20.118918000000001
#
# number of rings (size 3 to 8) (size 9 to 14) (size 15 to 20)
#    0.000    1.429    4.286    2.143    0.000    1.143 
#    0.000    1.429    0.000    0.000    0.000    0.000 
#    0.000    0.000    0.000    0.000    0.000    0.000 
#
# Total GULP energy -156254.284802 kJ/mol
# GULP energy per Si atom -5580.510171 kJ/mol
# Density = 2.007313 g / cm^3
# Si number density = 20.118918 Si / 1000 Ang^3
#
#
#
# Elastic Constant Matrix: (Units=GPa)
#
#
# Indices 1 2 3 4 5 6 
#
# 1 54.9711 17.6124 15.2767 0.0000 22.7771 0.0000
# 2 17.6124 69.4938 15.3885 0.0000 12.1881 0.0000
# 3 15.2767 15.3885 93.0097 0.0000 30.4215 0.0000
# 4 0.0000 0.0000 0.0000 17.6923 0.0000 1.7425
# 5 22.7771 12.1881 30.4215 0.0000 41.6114 0.0000
# 6 0.0000 0.0000 0.0000 1.7425 0.0000 33.0672
#
#
#
# Elastic Compliance Matrix: (Units=1/GPa)
#
#
# Indices 1 2 3 4 5 6 
#
# 1 0.024629 -0.004172 0.000861 0.000000 -0.012889 0.000000
# 2 -0.004172 0.016013 -0.001547 0.000000 -0.001276 0.000000
# 3 0.000861 -0.001547 0.014289 0.000000 -0.010464 0.000000
# 4 0.000000 0.000000 0.000000 0.056817 0.000000 -0.002994
# 5 -0.012889 -0.001276 -0.010464 0.000000 0.039111 0.000000
# 6 0.000000 0.000000 0.000000 -0.002994 0.000000 0.030399
#
#
# Mechanical properties :
#
#
# Convention : Reuss Voigt Hill
#
# Bulk Modulus (GPa) = 22.11674 34.89218 28.50446
# Shear Modulus (GPa) = 24.26638 29.75400 27.01019
#
# Velocity S-wave (km/s) = 3.47673 3.84983 3.66803
# Velocity P-wave (km/s) = 5.20901 6.09444 5.66904
#
# Compressibility (1/GPa) = 0.04521462
#
# Stress axis : x y z
#
# Youngs Moduli (GPa) = 40.60206 62.44759 69.98492
#
# Poissons Ratio (x) = 0.26054 -0.06022
# Poissons Ratio (y) = 0.16940 0.10826
# Poissons Ratio (z) = -0.03494 0.09660
#
# Static dielectric constant tensor:
#      x y z
#    x 1.735010 0.000000 0.034920 
#    y 0.000000 1.702030 0.000000 
#    z 0.034920 0.000000 1.725160 
# 
# From -- ./inp_files/9362.got.cif
#   From: 2010.05.17/outbox.cif.g08.bks.cpg/sg14_5_cif.got.tgz:9362.got - 2010.06.03 17:49:19.
