data_PCOD9241499
_publ_section_title
;
Structure prediction by ZEFSAII (Michael W. Deem and Ramdas Pophale) SiO2 
 PCOD9241499
Probable space group: P 21/C
;
_chemical_formula_sum "Si O2"
_cell_formula_units_Z 32
_cell_length_a 22.225643
_cell_length_b 12.317476
_cell_length_c 11.397286
_cell_angle_alpha 90.000000
_cell_angle_beta 31.263734
_cell_angle_gamma 90.000000
_cell_volume 1619.297311
_symmetry_space_group_name_H-M "P 21/C"
_symmetry_group_IT_number 14
_symmetry_cell_setting 'monoclinic'
loop_
_space_group_symop_operation_xyz
x,y,z
-x,1/2+y,1/2-z
-x,-y,-z
x,1/2-y,1/2+z
loop_
_atom_site_type_symbol
_atom_site_label
_atom_site_fract_x
_atom_site_fract_y
_atom_site_fract_z
Si Si1 0.885251 0.529356 0.265768
Si Si2 0.094496 0.820009 0.741369
Si Si3 0.224198 0.033303 0.498504
Si Si4 0.310967 0.768937 0.534444
Si Si5 0.684109 0.479549 0.414952
Si Si6 0.072833 0.222402 0.800048
Si Si7 0.546727 0.049603 0.798076
Si Si8 0.858572 0.148327 0.014444
O O1 0.772752 0.518510 0.368288
O O2 0.908174 0.653386 0.266440
O O3 0.871266 0.445721 0.397243
O O4 0.000000 0.500000 0.000000
O O5 0.193254 0.760791 0.654778
O O6 0.122936 0.768453 0.569804
O O7 0.123770 0.946328 0.694824
O O8 0.968649 0.783544 0.995224
O O9 0.184961 0.154860 0.581926
O O10 0.329538 0.010106 0.411745
O O11 0.260390 0.008326 0.304275
O O12 0.336485 0.649428 0.537719
O O13 0.409873 0.825980 0.291196
O O14 0.265929 0.846916 0.714774
O O15 0.555425 0.530535 0.624126
O O16 0.968274 0.150802 0.918213
O O17 0.500000 0.000000 0.000000
#
# Coordination Sequence:
#
# PCOD9241499 Si02
#       8
#     4   4   4   4   4   4   4   4
#     4  12  23  39  58  92 126 163 210 251 317 377
#     4  10  19  36  59  86 120 161 207 247 299 380
#     4  10  21  39  60  91 120 162 209 256 315 369
#     4  10  20  39  62  90 115 165 212 255 307 374
#     4  11  21  39  67  87 120 161 210 262 310 369
#     4  11  24  35  57  91 128 164 196 261 317 363
#     4   9  22  41  63  90 120 164 214 259 315 374
#     4  11  21  37  60  88 123 164 207 249 303 382
#
# _framework density 19.761657
#
# number of rings (size 3 to 8) (size 9 to 14) (size 15 to 20)
#    0.000    1.500    3.750    1.875    1.750    1.000 
#    0.000    3.125    0.000    0.000    0.000    0.000 
#    0.000    0.000    0.000    0.000    0.000    0.000 
#
# Total GULP energy -178177.304339 kJ/mol
# GULP energy per Si atom -5568.040761 kJ/mol
# Density = 1.971668 g / cm^3
# Si number density = 19.761657 Si / 1000 Ang^3
#
#
#
# Elastic Constant Matrix: (Units=GPa)
#
#
# Indices 1 2 3 4 5 6 
#
# 1 66.9619 15.8178 18.5071 0.0000 -12.3534 0.0000
# 2 15.8178 120.6417 50.1559 0.0000 -7.4486 0.0000
# 3 18.5071 50.1559 61.6275 0.0000 2.0447 0.0000
# 4 0.0000 0.0000 0.0000 27.0028 0.0000 4.0954
# 5 -12.3534 -7.4486 2.0447 0.0000 23.7386 0.0000
# 6 0.0000 0.0000 0.0000 4.0954 0.0000 20.4380
#
#
#
# Elastic Compliance Matrix: (Units=1/GPa)
#
#
# Indices 1 2 3 4 5 6 
#
# 1 0.018496 0.001027 -0.006739 0.000000 0.010528 0.000000
# 2 0.001027 0.013161 -0.011206 0.000000 0.005629 0.000000
# 3 -0.006739 -0.011206 0.027683 0.000000 -0.009408 0.000000
# 4 0.000000 0.000000 0.000000 0.038194 0.000000 -0.007653
# 5 0.010528 0.005629 -0.009408 0.000000 0.050181 0.000000
# 6 0.000000 0.000000 0.000000 -0.007653 0.000000 0.050462
#
#
# Mechanical properties :
#
#
# Convention : Reuss Voigt Hill
#
# Bulk Modulus (GPa) = 39.21239 46.46585 42.83912
# Shear Modulus (GPa) = 20.78876 25.21925 23.00400
#
# Velocity S-wave (km/s) = 3.24693 3.57623 3.41555
# Velocity P-wave (km/s) = 5.82602 6.37313 6.10570
#
# Compressibility (1/GPa) = 0.02550215
#
# Stress axis : x y z
#
# Youngs Moduli (GPa) = 54.06510 75.98328 36.12360
#
# Poissons Ratio (x) = -0.07802 0.24345
# Poissons Ratio (y) = -0.05551 0.40480
# Poissons Ratio (z) = 0.36437 0.85148
#
# Static dielectric constant tensor:
#      x y z
#    x 1.792710 0.000000 0.049170 
#    y 0.000000 1.695970 0.000000 
#    z 0.049170 0.000000 1.753670 
# 
# From -- ./inp_files/35915.got.cif
#   From: 2010.05.17/outbox.cif.g08.bks.cpg/sg14_18_cif.got.tgz:35915.got - 2010.06.03 17:49:19.
