data_PCOD9241467
_publ_section_title
;
Structure prediction by ZEFSAII (Michael W. Deem and Ramdas Pophale) SiO2 
 PCOD9241467
Probable space group: P 21/C
;
_chemical_formula_sum "Si O2"
_cell_formula_units_Z 20
_cell_length_a 8.703988
_cell_length_b 5.116844
_cell_length_c 18.957936
_cell_angle_alpha 90.000000
_cell_angle_beta 89.931942
_cell_angle_gamma 90.000000
_cell_volume 844.328029
_symmetry_space_group_name_H-M "P 21/C"
_symmetry_group_IT_number 14
_symmetry_cell_setting 'monoclinic'
loop_
_space_group_symop_operation_xyz
x,y,z
-x,1/2+y,1/2-z
-x,-y,-z
x,1/2-y,1/2+z
loop_
_atom_site_type_symbol
_atom_site_label
_atom_site_fract_x
_atom_site_fract_y
_atom_site_fract_z
Si Si1 0.943769 0.370221 0.927454
Si Si2 0.348448 0.915787 0.362937
Si Si3 0.938929 0.351333 0.213405
Si Si4 0.372145 0.413546 0.057618
Si Si5 0.229191 0.422050 0.441491
O O1 0.760928 0.377078 0.928166
O O2 0.995951 0.538135 0.860282
O O3 0.047476 0.111048 0.928688
O O4 0.000000 0.500000 0.000000
O O5 0.246577 0.858424 0.294153
O O6 0.530156 0.871017 0.371177
O O7 0.281233 0.705917 0.418950
O O8 0.306696 0.208403 0.388595
O O9 0.998925 0.565282 0.268993
O O10 0.500000 0.500000 0.000000
O O11 0.287735 0.172507 0.018214
#
# Coordination Sequence:
#
# PCOD9241467 Si02
#       5
#     4   4   4   4   4
#     4   9  19  39  65  94 123 162 213 262 317 385
#     4  10  19  36  58  83 117 160 203 251 309 373
#     4  11  23  42  63  88 123 167 211 260 320 390
#     4   9  18  35  59  93 128 159 203 266 325 379
#     4   9  18  34  57  88 119 154 198 253 310 371
#
# _framework density 23.687479
#
# number of rings (size 3 to 8) (size 9 to 14) (size 15 to 20)
#    0.000    2.400    0.000    4.200    0.000    0.000 
#    0.000   67.000    0.000    0.000    0.000    0.000 
#    0.000    0.000    0.000    0.000    0.000    0.000 
#
# Total GULP energy -111647.293500 kJ/mol
# GULP energy per Si atom -5582.364675 kJ/mol
# Density = 2.363357 g / cm^3
# Si number density = 23.687479 Si / 1000 Ang^3
#
#
#
# Elastic Constant Matrix: (Units=GPa)
#
#
# Indices 1 2 3 4 5 6 
#
# 1 174.3124 21.9511 23.6908 0.0000 49.2195 0.0000
# 2 21.9511 83.7262 7.3120 0.0000 3.9815 0.0000
# 3 23.6908 7.3120 75.7028 0.0000 28.9048 0.0000
# 4 0.0000 0.0000 0.0000 36.3423 0.0000 5.8449
# 5 49.2195 3.9815 28.9048 0.0000 54.0351 0.0000
# 6 0.0000 0.0000 0.0000 5.8449 0.0000 23.7212
#
#
#
# Elastic Compliance Matrix: (Units=1/GPa)
#
#
# Indices 1 2 3 4 5 6 
#
# 1 0.007986 -0.001785 0.000503 0.000000 -0.007412 0.000000
# 2 -0.001785 0.012449 -0.001149 0.000000 0.001324 0.000000
# 3 0.000503 -0.001149 0.016721 0.000000 -0.009318 0.000000
# 4 0.000000 0.000000 0.000000 0.028652 0.000000 -0.007060
# 5 -0.007412 0.001324 -0.009318 0.000000 0.030145 0.000000
# 6 0.000000 0.000000 0.000000 -0.007060 0.000000 0.043896
#
#
# Mechanical properties :
#
#
# Convention : Reuss Voigt Hill
#
# Bulk Modulus (GPa) = 30.96543 48.84990 39.90766
# Shear Modulus (GPa) = 32.15937 41.53888 36.84912
#
# Velocity S-wave (km/s) = 3.68863 4.19217 3.94844
# Velocity P-wave (km/s) = 5.58947 6.64077 6.13767
#
# Compressibility (1/GPa) = 0.03229408
#
# Stress axis : x y z
#
# Youngs Moduli (GPa) = 125.21676 80.32670 59.80529
#
# Poissons Ratio (x) = 0.14340 -0.03010
# Poissons Ratio (y) = 0.22355 0.06872
# Poissons Ratio (z) = -0.06302 0.09230
#
# Static dielectric constant tensor:
#      x y z
#    x 1.981180 0.000000 0.038400 
#    y 0.000000 1.875330 0.000000 
#    z 0.038400 0.000000 1.981080 
# 
# From -- ./inp_files/64030.got.cif
#   From: 2010.05.17/outbox.cif.g08.bks.cpg/sg14_33_cif.got.tgz:64030.got - 2010.06.03 17:49:19.
