data_PCOD9241183
_publ_section_title
;
Structure prediction by ZEFSAII (Michael W. Deem and Ramdas Pophale) SiO2 
 PCOD9241183
Probable space group: P 21/C
;
_chemical_formula_sum "Si O2"
_cell_formula_units_Z 32
_cell_length_a 7.888856
_cell_length_b 19.767688
_cell_length_c 11.962384
_cell_angle_alpha 90.000000
_cell_angle_beta 113.762708
_cell_angle_gamma 90.000000
_cell_volume 1707.316974
_symmetry_space_group_name_H-M "P 21/C"
_symmetry_group_IT_number 14
_symmetry_cell_setting 'monoclinic'
loop_
_space_group_symop_operation_xyz
x,y,z
-x,1/2+y,1/2-z
-x,-y,-z
x,1/2-y,1/2+z
loop_
_atom_site_type_symbol
_atom_site_label
_atom_site_fract_x
_atom_site_fract_y
_atom_site_fract_z
Si Si1 0.803520 0.660290 0.846962
Si Si2 0.577757 0.208832 0.095752
Si Si3 0.682573 0.811804 0.794545
Si Si4 0.910379 0.202949 0.748362
Si Si5 0.321560 0.048595 0.857334
Si Si6 0.948865 0.889407 0.027500
Si Si7 0.268084 0.923589 0.960225
Si Si8 0.239219 0.201448 0.419259
O O1 0.691126 0.729750 0.788989
O O2 0.730384 0.595107 0.761525
O O3 0.001911 0.675252 0.843310
O O4 0.796306 0.658783 0.978615
O O5 0.498193 0.170731 0.183297
O O6 0.711229 0.267800 0.171534
O O7 0.693946 0.155082 0.055720
O O8 0.398480 0.242293 0.988643
O O9 0.695100 0.838632 0.672733
O O10 0.852495 0.837424 0.915443
O O11 0.920766 0.147193 0.847265
O O12 0.051524 0.260592 0.831597
O O13 0.215627 0.079638 0.939233
O O14 0.257760 0.970731 0.847310
O O15 0.542391 0.052758 0.929899
O O16 0.086679 0.932607 0.987245
#
# Coordination Sequence:
#
# PCOD9241183 Si02
#       8
#     4   4   4   4   4   4   4   4
#     4   9  18  35  52  75 113 143 181 232 281 330
#     4  11  21  33  55  86 116 146 191 231 287 347
#     4  10  19  35  54  81 117 143 177 244 282 334
#     4  10  20  32  55  83 113 143 184 235 290 340
#     4  10  22  38  54  84 117 147 195 239 273 343
#     4  11  20  37  57  87 117 143 189 236 290 341
#     4  11  21  34  59  82 113 157 187 232 290 334
#     4  10  20  34  53  82 116 148 176 240 292 328
#
# _framework density 18.742857999999998
#
# number of rings (size 3 to 8) (size 9 to 14) (size 15 to 20)
#    0.000    1.750    3.750    3.375    5.250    0.000 
#    0.000    0.000    0.000    3.750    0.000    0.000 
#    0.000    0.000    0.000    0.000    0.000    0.000 
#
# Total GULP energy -178271.661184 kJ/mol
# GULP energy per Si atom -5570.989412 kJ/mol
# Density = 1.870020 g / cm^3
# Si number density = 18.742858 Si / 1000 Ang^3
#
#
#
# Elastic Constant Matrix: (Units=GPa)
#
#
# Indices 1 2 3 4 5 6 
#
# 1 81.4436 7.0638 31.3989 0.0000 -6.8724 0.0000
# 2 7.0638 27.7864 1.4181 0.0000 0.1769 0.0000
# 3 31.3989 1.4181 76.5293 0.0000 -24.3719 0.0000
# 4 0.0000 0.0000 0.0000 12.9938 0.0000 -5.7644
# 5 -6.8724 0.1769 -24.3719 0.0000 31.7808 0.0000
# 6 0.0000 0.0000 0.0000 -5.7644 0.0000 26.0364
#
#
#
# Elastic Compliance Matrix: (Units=1/GPa)
#
#
# Indices 1 2 3 4 5 6 
#
# 1 0.014998 -0.003460 -0.006682 0.000000 -0.001862 0.000000
# 2 -0.003460 0.036842 0.000573 0.000000 -0.000514 0.000000
# 3 -0.006682 0.000573 0.020293 0.000000 0.014114 0.000000
# 4 0.000000 0.000000 0.000000 0.085342 0.000000 0.018894
# 5 -0.001862 -0.000514 0.014114 0.000000 0.041889 0.000000
# 6 0.000000 0.000000 0.000000 0.018894 0.000000 0.042591
#
#
# Mechanical properties :
#
#
# Convention : Reuss Voigt Hill
#
# Bulk Modulus (GPa) = 18.86965 29.50231 24.18598
# Shear Modulus (GPa) = 17.93676 23.88742 20.91209
#
# Velocity S-wave (km/s) = 3.09688 3.57386 3.34389
# Velocity P-wave (km/s) = 4.78300 5.72754 5.27645
#
# Compressibility (1/GPa) = 0.05299515
#
# Stress axis : x y z
#
# Youngs Moduli (GPa) = 66.67747 27.14266 49.27904
#
# Poissons Ratio (x) = 0.09391 0.32929
# Poissons Ratio (y) = 0.23069 -0.02825
# Poissons Ratio (z) = 0.44555 -0.01556
#
# Static dielectric constant tensor:
#      x y z
#    x 1.678520 0.000000 -0.041220 
#    y 0.000000 1.691340 0.000000 
#    z -0.041220 0.000000 1.657260 
# 
# From -- ./inp_files/26661.got.cif
#   From: 2010.05.17/outbox.cif.g08.bks.cpg/sg14_14_cif.got.tgz:26661.got - 2010.06.03 17:49:19.
