data_PCOD9241321
_publ_section_title
;
Structure prediction by ZEFSAII (Michael W. Deem and Ramdas Pophale) SiO2 
 PCOD9241321
Probable space group: P 21/C
;
_chemical_formula_sum "Si O2"
_cell_formula_units_Z 24
_cell_length_a 9.434306
_cell_length_b 12.869812
_cell_length_c 11.590395
_cell_angle_alpha 90.000000
_cell_angle_beta 37.897358
_cell_angle_gamma 90.000000
_cell_volume 864.419837
_symmetry_space_group_name_H-M "P 21/C"
_symmetry_group_IT_number 14
_symmetry_cell_setting 'monoclinic'
loop_
_space_group_symop_operation_xyz
x,y,z
-x,1/2+y,1/2-z
-x,-y,-z
x,1/2-y,1/2+z
loop_
_atom_site_type_symbol
_atom_site_label
_atom_site_fract_x
_atom_site_fract_y
_atom_site_fract_z
Si Si1 0.049262 0.818718 0.902474
Si Si2 0.287760 0.904883 0.946186
Si Si3 0.709119 0.658956 0.015525
Si Si4 0.403380 0.690128 0.998774
Si Si5 0.113237 0.488781 0.760457
Si Si6 0.256679 0.881656 0.371454
O O1 0.823617 0.758348 0.005147
O O2 0.065746 0.888826 0.005065
O O3 0.228899 0.726391 0.824268
O O4 0.189531 0.863970 0.704081
O O5 0.324606 0.805355 0.008252
O O6 0.243103 0.004580 0.055857
O O7 0.506297 0.893649 0.720979
O O8 0.615913 0.688705 0.949222
O O9 0.909635 0.573803 0.878772
O O10 0.437032 0.626840 0.858808
O O11 0.988880 0.393090 0.902675
O O12 0.269981 0.533521 0.763734
#
# Coordination Sequence:
#
# PCOD9241321 Si02
#       6
#     4   4   4   4   4   4
#     4   9  19  38  56  82 111 147 187 234 276 328
#     4  10  20  35  57  82 111 142 194 230 271 337
#     4  10  21  33  58  82 110 145 186 233 280 328
#     4  10  19  35  60  84 109 145 192 233 271 332
#     4  10  20  39  57  79 117 153 179 229 287 328
#     4   9  19  36  60  78 114 155 180 227 283 332
#
# _framework density 27.764288000000001
#
# number of rings (size 3 to 8) (size 9 to 14) (size 15 to 20)
#    0.000    2.333    3.333    0.000    2.333    2.000 
#    0.000   10.833   11.000    0.000    0.000    0.000 
#    0.000    0.000    0.000    0.000    0.000    0.000 
#
# Total GULP energy -134296.375808 kJ/mol
# GULP energy per Si atom -5595.682325 kJ/mol
# Density = 2.770110 g / cm^3
# Si number density = 27.764288 Si / 1000 Ang^3
#
#
#
# Elastic Constant Matrix: (Units=GPa)
#
#
# Indices 1 2 3 4 5 6 
#
# 1 190.8855 26.5817 32.5805 0.0000 13.7725 0.0000
# 2 26.5817 53.4437 7.3888 0.0000 -6.9992 0.0000
# 3 32.5805 7.3888 125.6130 0.0000 -4.2025 0.0000
# 4 0.0000 0.0000 0.0000 34.7881 0.0000 4.7448
# 5 13.7725 -6.9992 -4.2025 0.0000 44.3286 0.0000
# 6 0.0000 0.0000 0.0000 4.7448 0.0000 20.1376
#
#
#
# Elastic Compliance Matrix: (Units=1/GPa)
#
#
# Indices 1 2 3 4 5 6 
#
# 1 0.006117 -0.003170 -0.001485 0.000000 -0.002542 0.000000
# 2 -0.003170 0.020882 -0.000264 0.000000 0.004257 0.000000
# 3 -0.001485 -0.000264 0.008402 0.000000 0.001216 0.000000
# 4 0.000000 0.000000 0.000000 0.029700 0.000000 -0.006998
# 5 -0.002542 0.004257 0.001216 0.000000 0.024136 0.000000
# 6 0.000000 0.000000 0.000000 -0.006998 0.000000 0.051307
#
#
# Mechanical properties :
#
#
# Convention : Reuss Voigt Hill
#
# Bulk Modulus (GPa) = 39.11808 55.89380 47.50594
# Shear Modulus (GPa) = 31.46564 40.07694 35.77129
#
# Velocity S-wave (km/s) = 3.37012 3.80343 3.59331
# Velocity P-wave (km/s) = 5.40958 6.28198 5.86203
#
# Compressibility (1/GPa) = 0.02556363
#
# Stress axis : x y z
#
# Youngs Moduli (GPa) = 163.47679 47.88818 119.01395
#
# Poissons Ratio (x) = 0.15181 0.17676
# Poissons Ratio (y) = 0.51823 0.03138
# Poissons Ratio (z) = 0.24279 0.01263
#
# Static dielectric constant tensor:
#      x y z
#    x 2.203930 0.000000 -0.009620 
#    y 0.000000 2.175010 0.000000 
#    z -0.009620 0.000000 2.168240 
# 
# From -- ./inp_files/26145.got.cif
#   From: 2010.05.17/outbox.cif.g08.bks.cpg/sg14_14_cif.got.tgz:26145.got - 2010.06.03 17:49:19.
