data_PCOD9241184
_publ_section_title
;
Structure prediction by ZEFSAII (Michael W. Deem and Ramdas Pophale) SiO2 
 PCOD9241184
Probable space group: P 21/C
;
_chemical_formula_sum "Si O2"
_cell_formula_units_Z 20
_cell_length_a 28.422343
_cell_length_b 5.278370
_cell_length_c 20.663989
_cell_angle_alpha 90.000000
_cell_angle_beta 163.225563
_cell_angle_gamma 90.000000
_cell_volume 894.699501
_symmetry_space_group_name_H-M "P 21/C"
_symmetry_group_IT_number 14
_symmetry_cell_setting 'monoclinic'
loop_
_space_group_symop_operation_xyz
x,y,z
-x,1/2+y,1/2-z
-x,-y,-z
x,1/2-y,1/2+z
loop_
_atom_site_type_symbol
_atom_site_label
_atom_site_fract_x
_atom_site_fract_y
_atom_site_fract_z
Si Si1 0.832199 0.444685 0.817066
Si Si2 0.630174 0.749179 0.743386
Si Si3 0.715903 0.246982 0.788925
Si Si4 0.189825 0.057569 0.262172
Si Si5 0.589848 0.768346 0.342509
O O1 0.847561 0.331493 0.908715
O O2 0.739588 0.222249 0.656492
O O3 0.000000 0.500000 0.000000
O O4 0.249184 0.276458 0.290540
O O5 0.701214 0.473998 0.820374
O O6 0.452731 0.757542 0.474850
O O7 0.617131 0.777753 0.802932
O O8 0.731292 0.978028 0.843907
O O9 0.239669 0.167462 0.396510
O O10 0.000000 0.000000 0.000000
O O11 0.513963 0.519045 0.275934
#
# Coordination Sequence:
#
# PCOD9241184 Si02
#       5
#     4   4   4   4   4
#     4  10  20  36  61  86 112 158 211 252 295 369
#     4  10  21  33  54  84 119 158 190 244 312 365
#     4  10  19  35  54  82 121 155 194 241 306 372
#     4  10  21  37  59  86 119 158 203 254 312 371
#     4  12  23  37  60  92 124 157 209 268 315 368
#
# _framework density 22.353871999999999
#
# number of rings (size 3 to 8) (size 9 to 14) (size 15 to 20)
#    0.000    1.600    0.000    6.000    0.000    3.200 
#    0.000    0.000    0.000   19.200    0.000    0.000 
#    0.000    0.000    0.000    0.000    0.000    0.000 
#
# Total GULP energy -111608.346274 kJ/mol
# GULP energy per Si atom -5580.417314 kJ/mol
# Density = 2.230299 g / cm^3
# Si number density = 22.353872 Si / 1000 Ang^3
#
#
#
# Elastic Constant Matrix: (Units=GPa)
#
#
# Indices 1 2 3 4 5 6 
#
# 1 141.4487 51.9003 32.8312 0.0000 -17.7654 0.0000
# 2 51.9003 204.7337 28.2231 0.0000 -12.3668 0.0000
# 3 32.8312 28.2231 68.8363 0.0000 -12.6398 0.0000
# 4 0.0000 0.0000 0.0000 26.8532 0.0000 -6.8160
# 5 -17.7654 -12.3668 -12.6398 0.0000 32.1959 0.0000
# 6 0.0000 0.0000 0.0000 -6.8160 0.0000 39.6322
#
#
#
# Elastic Compliance Matrix: (Units=1/GPa)
#
#
# Indices 1 2 3 4 5 6 
#
# 1 0.008730 -0.001624 -0.002940 0.000000 0.003039 0.000000
# 2 -0.001624 0.005526 -0.001364 0.000000 0.000691 0.000000
# 3 -0.002940 -0.001364 0.017345 0.000000 0.004663 0.000000
# 4 0.000000 0.000000 0.000000 0.038939 0.000000 0.006697
# 5 0.003039 0.000691 0.004663 0.000000 0.034833 0.000000
# 6 0.000000 0.000000 0.000000 0.006697 0.000000 0.026384
#
#
# Mechanical properties :
#
#
# Convention : Reuss Voigt Hill
#
# Bulk Modulus (GPa) = 50.64698 71.21421 60.93060
# Shear Modulus (GPa) = 33.29033 39.87388 36.58210
#
# Velocity S-wave (km/s) = 3.86326 4.22804 4.04976
# Velocity P-wave (km/s) = 6.52731 7.46739 7.01312
#
# Compressibility (1/GPa) = 0.01974451
#
# Stress axis : x y z
#
# Youngs Moduli (GPa) = 114.55235 180.96590 57.65399
#
# Poissons Ratio (x) = 0.29392 0.16948
# Poissons Ratio (y) = 0.18605 0.07865
# Poissons Ratio (z) = 0.33674 0.24686
#
# Static dielectric constant tensor:
#      x y z
#    x 1.856480 0.000000 0.073760 
#    y 0.000000 1.993360 0.000000 
#    z 0.073760 0.000000 1.969840 
# 
# From -- ./inp_files/62179.got.cif
#   From: 2010.05.17/outbox.cif.g08.bks.cpg/sg14_32_cif.got.tgz:62179.got - 2010.06.03 17:49:19.
