data_PCOD9241293
_publ_section_title
;
Structure prediction by ZEFSAII (Michael W. Deem and Ramdas Pophale) SiO2 
 PCOD9241293
Probable space group: P 21/C
;
_chemical_formula_sum "Si O2"
_cell_formula_units_Z 28
_cell_length_a 15.859290
_cell_length_b 11.082605
_cell_length_c 17.167011
_cell_angle_alpha 90.000000
_cell_angle_beta 25.668826
_cell_angle_gamma 90.000000
_cell_volume 1307.005463
_symmetry_space_group_name_H-M "P 21/C"
_symmetry_group_IT_number 14
_symmetry_cell_setting 'monoclinic'
loop_
_space_group_symop_operation_xyz
x,y,z
-x,1/2+y,1/2-z
-x,-y,-z
x,1/2-y,1/2+z
loop_
_atom_site_type_symbol
_atom_site_label
_atom_site_fract_x
_atom_site_fract_y
_atom_site_fract_z
Si Si1 0.781390 0.484453 0.147579
Si Si2 0.125519 0.774602 0.538247
Si Si3 0.158194 0.203589 0.505559
Si Si4 0.589751 0.206962 0.906759
Si Si5 0.264571 0.345202 0.562448
Si Si6 0.050922 0.860999 0.947154
Si Si7 0.745790 0.372932 0.428389
O O1 0.671171 0.425484 0.312074
O O2 0.760398 0.378299 0.101676
O O3 0.740722 0.604423 0.133214
O O4 0.000000 0.500000 0.000000
O O5 0.023585 0.700520 0.553853
O O6 0.244848 0.688739 0.495398
O O7 0.961520 0.837501 0.726585
O O8 0.283465 0.266022 0.468743
O O9 0.081519 0.304755 0.510048
O O10 0.963810 0.143505 0.707769
O O11 0.732830 0.313845 0.758138
O O12 0.604626 0.198473 0.986870
O O13 0.387508 0.212318 0.030454
O O14 0.308565 0.486901 0.518052
O O15 0.000000 0.000000 0.000000
#
# Coordination Sequence:
#
# PCOD9241293 Si02
#       7
#     4   4   4   4   4   4   4
#     4  11  17  39  61  80 110 156 199 228 277 356
#     4  10  20  34  62  83 112 153 196 225 284 351
#     4  10  20  35  60  82 112 153 195 229 283 356
#     4  10  22  37  60  84 117 148 191 245 285 338
#     4  11  21  37  55  91 116 143 190 250 292 326
#     4  10  20  39  60  80 112 156 195 230 283 358
#     4  10  19  35  59  84 111 154 191 233 284 352
#
# _framework density 21.423016000000001
#
# number of rings (size 3 to 8) (size 9 to 14) (size 15 to 20)
#    0.000    1.714    5.714    1.286    0.000    0.000 
#    7.714    0.714    0.000    0.000    0.000    0.000 
#    0.000    0.000    0.000    0.000    0.000    0.000 
#
# Total GULP energy -156314.792477 kJ/mol
# GULP energy per Si atom -5582.671160 kJ/mol
# Density = 2.137426 g / cm^3
# Si number density = 21.423016 Si / 1000 Ang^3
#
#
#
# Elastic Constant Matrix: (Units=GPa)
#
#
# Indices 1 2 3 4 5 6 
#
# 1 111.5073 16.1314 15.5128 0.0000 -11.8414 0.0000
# 2 16.1314 118.6038 22.2442 0.0000 -5.1846 0.0000
# 3 15.5128 22.2442 41.6959 0.0000 2.7889 0.0000
# 4 0.0000 0.0000 0.0000 12.6290 0.0000 -1.2106
# 5 -11.8414 -5.1846 2.7889 0.0000 27.9331 0.0000
# 6 0.0000 0.0000 0.0000 -1.2106 0.0000 41.2969
#
#
#
# Elastic Compliance Matrix: (Units=1/GPa)
#
#
# Indices 1 2 3 4 5 6 
#
# 1 0.010046 -0.000455 -0.003800 0.000000 0.004554 0.000000
# 2 -0.000455 0.009532 -0.005055 0.000000 0.002081 0.000000
# 3 -0.003800 -0.005055 0.028454 0.000000 -0.005390 0.000000
# 4 0.000000 0.000000 0.000000 0.079406 0.000000 0.002328
# 5 0.004554 0.002081 -0.005390 0.000000 0.038655 0.000000
# 6 0.000000 0.000000 0.000000 0.002328 0.000000 0.024283
#
#
# Mechanical properties :
#
#
# Convention : Reuss Voigt Hill
#
# Bulk Modulus (GPa) = 33.99826 42.17598 38.08712
# Shear Modulus (GPa) = 22.85189 30.89970 26.87580
#
# Velocity S-wave (km/s) = 3.26958 3.80196 3.54578
# Velocity P-wave (km/s) = 5.49162 6.24525 5.88052
#
# Compressibility (1/GPa) = 0.02941327
#
# Stress axis : x y z
#
# Youngs Moduli (GPa) = 99.54257 104.90521 35.14404
#
# Poissons Ratio (x) = 0.04770 0.13353
# Poissons Ratio (y) = 0.04526 0.17767
# Poissons Ratio (z) = 0.37822 0.53034
#
# Static dielectric constant tensor:
#      x y z
#    x 1.778230 0.000000 -0.004770 
#    y 0.000000 1.757600 0.000000 
#    z -0.004770 0.000000 1.899900 
# 
# From -- ./inp_files/59261.got.cif
#   From: 2010.05.17/outbox.cif.g08.bks.cpg/sg14_30_cif.got.tgz:59261.got - 2010.06.03 17:49:19.
