data_PCOD9241064
_publ_section_title
;
Structure prediction by ZEFSAII (Michael W. Deem and Ramdas Pophale) SiO2 
 PCOD9241064
Probable space group: P 21/C
;
_chemical_formula_sum "Si O2"
_cell_formula_units_Z 32
_cell_length_a 15.405900
_cell_length_b 13.406024
_cell_length_c 12.238248
_cell_angle_alpha 90.000000
_cell_angle_beta 149.666758
_cell_angle_gamma 90.000000
_cell_volume 1276.503983
_symmetry_space_group_name_H-M "P 21/C"
_symmetry_group_IT_number 14
_symmetry_cell_setting 'monoclinic'
loop_
_space_group_symop_operation_xyz
x,y,z
-x,1/2+y,1/2-z
-x,-y,-z
x,1/2-y,1/2+z
loop_
_atom_site_type_symbol
_atom_site_label
_atom_site_fract_x
_atom_site_fract_y
_atom_site_fract_z
Si Si1 0.164360 0.191564 0.117994
Si Si2 0.731038 0.607070 0.836946
Si Si3 0.763522 0.316873 0.117447
Si Si4 0.805041 0.110001 0.430393
Si Si5 0.603823 0.395181 0.384582
Si Si6 0.952981 0.893714 0.791654
Si Si7 0.324118 0.684600 0.752411
Si Si8 0.147900 0.428836 0.404011
O O1 0.242357 0.143182 0.092187
O O2 0.962083 0.199375 0.866852
O O3 0.250537 0.300011 0.224047
O O4 0.159625 0.127486 0.223725
O O5 0.550162 0.593320 0.699352
O O6 0.783232 0.497552 0.852432
O O7 0.858830 0.632061 0.077153
O O8 0.738606 0.384111 0.983718
O O9 0.665475 0.359197 0.115861
O O10 0.698343 0.206824 0.019524
O O11 0.689240 0.195777 0.251162
O O12 0.012239 0.122948 0.673691
O O13 0.556106 0.367323 0.206387
O O14 0.725290 0.492160 0.513406
O O15 0.025716 0.004709 0.852114
O O16 0.130147 0.834656 0.998415
#
# Coordination Sequence:
#
# PCOD9241064 Si02
#       8
#     4   4   4   4   4   4   4   4
#     4  10  19  34  57  79 102 137 182 227 265 309
#     4  11  22  34  49  78 116 147 175 212 266 327
#     4   9  18  36  59  79  99 134 182 228 268 309
#     4   9  18  35  56  78 106 138 174 222 268 317
#     4  10  21  34  50  77 112 143 175 215 266 328
#     4   9  18  34  55  80 103 131 179 228 266 308
#     4   9  18  36  60  80 100 135 183 230 269 309
#     4   9  17  33  55  77 102 137 177 222 266 309
#
# _framework density 25.068466000000001
#
# number of rings (size 3 to 8) (size 9 to 14) (size 15 to 20)
#    0.000    2.500    0.000    4.125    0.000    6.000 
#    0.000    8.750    0.000    0.000    0.000    0.000 
#    0.000    0.000    0.000    0.000    0.000    0.000 
#
# Total GULP energy -178729.043000 kJ/mol
# GULP energy per Si atom -5585.282594 kJ/mol
# Density = 2.501141 g / cm^3
# Si number density = 25.068466 Si / 1000 Ang^3
#
#
#
# Elastic Constant Matrix: (Units=GPa)
#
#
# Indices 1 2 3 4 5 6 
#
# 1 70.7210 -10.2428 10.5641 0.0000 -7.6001 0.0000
# 2 -10.2428 67.6110 -1.6483 0.0000 2.2558 0.0000
# 3 10.5641 -1.6483 47.2375 0.0000 11.6431 0.0000
# 4 0.0000 0.0000 0.0000 3.3211 0.0000 -0.6900
# 5 -7.6001 2.2558 11.6431 0.0000 23.2585 0.0000
# 6 0.0000 0.0000 0.0000 -0.6900 0.0000 3.3627
#
#
#
# Elastic Compliance Matrix: (Units=1/GPa)
#
#
# Indices 1 2 3 4 5 6 
#
# 1 0.016086 0.002045 -0.005445 0.000000 0.007784 0.000000
# 2 0.002045 0.015139 0.000306 0.000000 -0.000953 0.000000
# 3 -0.005445 0.000306 0.026059 0.000000 -0.014854 0.000000
# 4 0.000000 0.000000 0.000000 0.314514 0.000000 0.064541
# 5 0.007784 -0.000953 -0.014854 0.000000 0.053067 0.000000
# 6 0.000000 0.000000 0.000000 0.064541 0.000000 0.310628
#
#
# Mechanical properties :
#
#
# Convention : Reuss Voigt Hill
#
# Bulk Modulus (GPa) = 19.57079 20.32394 19.94736
# Shear Modulus (GPa) = 6.59010 18.44822 12.51916
#
# Velocity S-wave (km/s) = 1.62313 2.71572 2.23715
# Velocity P-wave (km/s) = 3.36699 4.23774 3.82721
#
# Compressibility (1/GPa) = 0.05109657
#
# Stress axis : x y z
#
# Youngs Moduli (GPa) = 62.16600 66.05241 38.37430
#
# Poissons Ratio (x) = -0.13505 0.20893
# Poissons Ratio (y) = -0.12710 -0.01175
# Poissons Ratio (z) = 0.33847 -0.02022
#
# Static dielectric constant tensor:
#      x y z
#    x 2.059240 0.000000 -0.023350 
#    y 0.000000 2.059270 0.000000 
#    z -0.023350 0.000000 1.992630 
# 
# From -- ./inp_files/40984.got.cif
#   From: 2010.05.17/outbox.cif.g08.bks.cpg/sg14_21_cif.got.tgz:40984.got - 2010.06.03 17:49:19.
