data_PCOD9241399
_publ_section_title
;
Structure prediction by ZEFSAII (Michael W. Deem and Ramdas Pophale) SiO2 
 PCOD9241399
Probable space group: P 21/C
;
_chemical_formula_sum "Si O2"
_cell_formula_units_Z 28
_cell_length_a 20.196088
_cell_length_b 8.136184
_cell_length_c 15.694626
_cell_angle_alpha 90.000000
_cell_angle_beta 149.136453
_cell_angle_gamma 90.000000
_cell_volume 1322.977050
_symmetry_space_group_name_H-M "P 21/C"
_symmetry_group_IT_number 14
_symmetry_cell_setting 'monoclinic'
loop_
_space_group_symop_operation_xyz
x,y,z
-x,1/2+y,1/2-z
-x,-y,-z
x,1/2-y,1/2+z
loop_
_atom_site_type_symbol
_atom_site_label
_atom_site_fract_x
_atom_site_fract_y
_atom_site_fract_z
Si Si1 0.338091 0.430172 0.539958
Si Si2 0.268293 0.298737 0.738384
Si Si3 0.511837 0.144047 0.081701
Si Si4 0.904462 0.902278 0.332911
Si Si5 0.807529 0.662047 0.014154
Si Si6 0.942265 0.175172 0.668768
Si Si7 0.280499 0.885261 0.138428
O O1 0.463607 0.414760 0.620915
O O2 0.222536 0.490318 0.348625
O O3 0.280609 0.259053 0.515259
O O4 0.361494 0.539145 0.649334
O O5 0.157912 0.247746 0.682971
O O6 0.262231 0.166523 0.653882
O O7 0.256861 0.474820 0.681817
O O8 0.405604 0.278930 0.935717
O O9 0.648822 0.231092 0.241508
O O10 0.500000 0.000000 0.000000
O O11 0.991303 0.855674 0.348780
O O12 0.000000 0.000000 0.500000
O O13 0.859158 0.485175 0.100466
O O14 0.937338 0.771022 0.141001
O O15 0.848748 0.327712 0.550897
#
# Coordination Sequence:
#
# PCOD9241399 Si02
#       7
#     4   4   4   4   4   4   4
#     4   9  23  41  60  90 122 162 215 258 316 383
#     4  10  21  39  61  89 127 159 203 260 308 369
#     4  11  24  43  66  89 119 168 213 263 323 373
#     4  10  19  35  64  90 126 163 197 252 316 381
#     4  10  19  37  61  87 126 159 203 258 308 382
#     4  11  21  36  60  93 122 166 205 248 320 373
#     4  11  24  40  61  93 127 164 214 261 313 382
#
# _framework density 21.164390000000001
#
# number of rings (size 3 to 8) (size 9 to 14) (size 15 to 20)
#    0.000    1.714    1.429    3.857    2.000    4.000 
#    0.000    5.714    0.000    0.000    0.000    0.000 
#    0.000    0.000    0.000    0.000    0.000    0.000 
#
# Total GULP energy -156316.085700 kJ/mol
# GULP energy per Si atom -5582.717346 kJ/mol
# Density = 2.111622 g / cm^3
# Si number density = 21.164390 Si / 1000 Ang^3
#
#
#
# Elastic Constant Matrix: (Units=GPa)
#
#
# Indices 1 2 3 4 5 6 
#
# 1 64.2737 13.4347 3.7754 0.0000 -3.4179 0.0000
# 2 13.4347 74.5915 4.8261 0.0000 -1.7254 0.0000
# 3 3.7754 4.8261 59.8844 0.0000 -11.2988 0.0000
# 4 0.0000 0.0000 0.0000 31.9860 0.0000 -0.5688
# 5 -3.4179 -1.7254 -11.2988 0.0000 27.1027 0.0000
# 6 0.0000 0.0000 0.0000 -0.5688 0.0000 6.7976
#
#
#
# Elastic Compliance Matrix: (Units=1/GPa)
#
#
# Indices 1 2 3 4 5 6 
#
# 1 0.016274 -0.002861 -0.000480 0.000000 0.001670 0.000000
# 2 -0.002861 0.013985 -0.000919 0.000000 0.000146 0.000000
# 3 -0.000480 -0.000919 0.018213 0.000000 0.007474 0.000000
# 4 0.000000 0.000000 0.000000 0.031310 0.000000 0.002620
# 5 0.001670 0.000146 0.007474 0.000000 0.040232 0.000000
# 6 0.000000 0.000000 0.000000 0.002620 0.000000 0.147329
#
#
# Mechanical properties :
#
#
# Convention : Reuss Voigt Hill
#
# Bulk Modulus (GPa) = 25.03121 26.98022 26.00571
# Shear Modulus (GPa) = 17.29019 24.95817 21.12418
#
# Velocity S-wave (km/s) = 2.86133 3.43775 3.16270
# Velocity P-wave (km/s) = 4.77169 5.34164 5.06469
#
# Compressibility (1/GPa) = 0.03995013
#
# Stress axis : x y z
#
# Youngs Moduli (GPa) = 61.44932 71.50746 54.90487
#
# Poissons Ratio (x) = 0.20461 0.02637
# Poissons Ratio (y) = 0.17583 0.05046
# Poissons Ratio (z) = 0.02952 0.06572
#
# Static dielectric constant tensor:
#      x y z
#    x 1.759190 0.000000 0.017320 
#    y 0.000000 1.822330 0.000000 
#    z 0.017320 0.000000 1.779720 
# 
# From -- ./inp_files/50253.got.cif
#   From: 2010.05.17/outbox.cif.g08.bks.cpg/sg14_26_cif.got.tgz:50253.got - 2010.06.03 17:49:19.
