data_PCOD9241685
_publ_section_title
;
Structure prediction by ZEFSAII (Michael W. Deem and Ramdas Pophale) SiO2 
 PCOD9241685
Probable space group: P 21/C
;
_chemical_formula_sum "Si O2"
_cell_formula_units_Z 28
_cell_length_a 9.359868
_cell_length_b 12.611138
_cell_length_c 14.481091
_cell_angle_alpha 90.000000
_cell_angle_beta 61.675200
_cell_angle_gamma 90.000000
_cell_volume 1504.673267
_symmetry_space_group_name_H-M "P 21/C"
_symmetry_group_IT_number 14
_symmetry_cell_setting 'monoclinic'
loop_
_space_group_symop_operation_xyz
x,y,z
-x,1/2+y,1/2-z
-x,-y,-z
x,1/2-y,1/2+z
loop_
_atom_site_type_symbol
_atom_site_label
_atom_site_fract_x
_atom_site_fract_y
_atom_site_fract_z
Si Si1 0.207919 0.344994 0.596453
Si Si2 0.472407 0.990532 0.805808
Si Si3 0.098807 0.342466 0.240275
Si Si4 0.879077 0.904435 0.059605
Si Si5 0.559390 0.205013 0.047964
Si Si6 0.761242 0.079905 0.840684
Si Si7 0.455506 0.061534 0.606778
O O1 0.126331 0.277671 0.701586
O O2 0.121325 0.324895 0.526178
O O3 0.394797 0.311302 0.539478
O O4 0.204981 0.469332 0.617462
O O5 0.457306 0.875437 0.859793
O O6 0.303743 0.050420 0.878136
O O7 0.620203 0.051822 0.810846
O O8 0.489617 0.994782 0.689714
O O9 0.079597 0.353886 0.355658
O O10 0.263695 0.406356 0.164827
O O11 0.932595 0.384101 0.246966
O O12 0.000000 0.000000 0.000000
O O13 0.555152 0.327261 0.079329
O O14 0.698481 0.163890 0.936381
O O15 0.500000 0.000000 0.500000
#
# Coordination Sequence:
#
# PCOD9241685 Si02
#       7
#     4   4   4   4   4   4   4
#     4  10  19  37  58  86 120 152 201 254 298 358
#     4  10  20  38  63  86 116 159 205 246 300 367
#     4  10  23  37  59  91 119 158 201 249 313 353
#     4  11  18  37  65  86 115 159 206 251 298 367
#     4  10  19  38  64  86 115 159 202 245 309 358
#     4  11  19  39  61  88 117 158 206 254 297 366
#     4  10  24  42  57  89 128 158 198 253 305 361
#
# _framework density 18.608691
#
# number of rings (size 3 to 8) (size 9 to 14) (size 15 to 20)
#    0.000    1.714    4.286    0.857    0.000    2.286 
#   18.000    0.714    0.000    0.000    0.000    0.000 
#    0.000    0.000    0.000    0.000    0.000    0.000 
#
# Total GULP energy -156131.783965 kJ/mol
# GULP energy per Si atom -5576.135142 kJ/mol
# Density = 1.856634 g / cm^3
# Si number density = 18.608691 Si / 1000 Ang^3
#
#
#
# Elastic Constant Matrix: (Units=GPa)
#
#
# Indices 1 2 3 4 5 6 
#
# 1 99.9074 26.8032 46.2039 0.0000 -0.0353 0.0000
# 2 26.8032 62.5005 42.6822 0.0000 10.4748 0.0000
# 3 46.2039 42.6822 117.0670 0.0000 16.8785 0.0000
# 4 0.0000 0.0000 0.0000 33.7631 0.0000 -0.3496
# 5 -0.0353 10.4748 16.8785 0.0000 31.5819 0.0000
# 6 0.0000 0.0000 0.0000 -0.3496 0.0000 17.5583
#
#
#
# Elastic Compliance Matrix: (Units=1/GPa)
#
#
# Indices 1 2 3 4 5 6 
#
# 1 0.012896 -0.003050 -0.004470 0.000000 0.003415 0.000000
# 2 -0.003050 0.022321 -0.006356 0.000000 -0.004010 0.000000
# 3 -0.004470 -0.006356 0.013349 0.000000 -0.005031 0.000000
# 4 0.000000 0.000000 0.000000 0.029624 0.000000 0.000590
# 5 0.003415 -0.004010 -0.005031 0.000000 0.035686 0.000000
# 6 0.000000 0.000000 0.000000 0.000590 0.000000 0.056965
#
#
# Mechanical properties :
#
#
# Convention : Reuss Voigt Hill
#
# Bulk Modulus (GPa) = 48.04659 56.76149 52.40404
# Shear Modulus (GPa) = 24.32721 27.49971 25.91346
#
# Velocity S-wave (km/s) = 3.61959 3.84837 3.73573
# Velocity P-wave (km/s) = 6.58362 7.09334 6.84323
#
# Compressibility (1/GPa) = 0.02081313
#
# Stress axis : x y z
#
# Youngs Moduli (GPa) = 77.54321 44.80184 74.91114
#
# Poissons Ratio (x) = 0.13665 0.33486
# Poissons Ratio (y) = 0.23652 0.47614
# Poissons Ratio (z) = 0.34663 0.28476
#
# Static dielectric constant tensor:
#      x y z
#    x 1.668800 0.000000 0.005300 
#    y 0.000000 1.652160 0.000000 
#    z 0.005300 0.000000 1.657900 
# 
# From -- ./inp_files/39958.got.cif
#   From: 2010.05.17/outbox.cif.g08.bks.cpg/sg14_20_cif.got.tgz:39958.got - 2010.06.03 17:49:19.
