data_PCOD9241908
_publ_section_title
;
Structure prediction by ZEFSAII (Michael W. Deem and Ramdas Pophale) SiO2 
 PCOD9241908
Probable space group: P 21/C
;
_chemical_formula_sum "Si O2"
_cell_formula_units_Z 28
_cell_length_a 8.838299
_cell_length_b 18.370250
_cell_length_c 11.804443
_cell_angle_alpha 90.000000
_cell_angle_beta 146.633684
_cell_angle_gamma 90.000000
_cell_volume 1054.105121
_symmetry_space_group_name_H-M "P 21/C"
_symmetry_group_IT_number 14
_symmetry_cell_setting 'monoclinic'
loop_
_space_group_symop_operation_xyz
x,y,z
-x,1/2+y,1/2-z
-x,-y,-z
x,1/2-y,1/2+z
loop_
_atom_site_type_symbol
_atom_site_label
_atom_site_fract_x
_atom_site_fract_y
_atom_site_fract_z
Si Si1 0.606916 0.898390 0.472734
Si Si2 0.884615 0.019195 0.751149
Si Si3 0.470560 0.417212 0.558669
Si Si4 0.650698 0.883582 0.246550
Si Si5 0.693734 0.248416 0.189665
Si Si6 0.257468 0.747050 0.028573
Si Si7 0.755227 0.403238 0.947823
O O1 0.313143 0.942014 0.283078
O O2 0.723978 0.904981 0.419753
O O3 0.517196 0.816171 0.444288
O O4 0.822864 0.933370 0.698224
O O5 0.744195 0.045192 0.546140
O O6 0.182924 0.055319 0.932582
O O7 0.494874 0.434539 0.439806
O O8 0.535215 0.329354 0.595118
O O9 0.692396 0.440706 0.790668
O O10 0.466052 0.813588 0.148852
O O11 0.938237 0.870623 0.363751
O O12 0.855098 0.255579 0.411382
O O13 0.863403 0.252373 0.176721
O O14 0.415475 0.669393 0.135652
#
# Coordination Sequence:
#
# PCOD9241908 Si02
#       7
#     4   4   4   4   4   4   4
#     4  10  20  39  60  91 122 168 207 245 315 372
#     4  10  21  39  66  83 126 169 202 254 308 369
#     4   9  20  38  60  92 116 161 209 251 312 366
#     4   9  20  38  57  86 120 159 199 254 304 374
#     4   9  17  35  59  82 125 148 208 254 299 367
#     4   9  17  34  55  88 116 152 201 248 306 369
#     4  10  19  38  60  83 121 161 197 252 314 360
#
# _framework density 26.562815000000001
#
# number of rings (size 3 to 8) (size 9 to 14) (size 15 to 20)
#    0.000    2.571    1.429    0.000    0.000    2.286 
#   23.143   10.000    0.000    0.000    0.000    0.000 
#    0.000    0.000    0.000    0.000    0.000    0.000 
#
# Total GULP energy -156018.569297 kJ/mol
# GULP energy per Si atom -5572.091761 kJ/mol
# Density = 2.650236 g / cm^3
# Si number density = 26.562815 Si / 1000 Ang^3
#
#
#
# Elastic Constant Matrix: (Units=GPa)
#
#
# Indices 1 2 3 4 5 6 
#
# 1 123.8306 -11.3664 35.9324 0.0000 -25.5676 0.0000
# 2 -11.3664 43.6612 -13.4770 0.0000 1.8281 0.0000
# 3 35.9324 -13.4770 60.6368 0.0000 -21.5366 0.0000
# 4 0.0000 0.0000 0.0000 22.1552 0.0000 -12.7745
# 5 -25.5676 1.8281 -21.5366 0.0000 50.0648 0.0000
# 6 0.0000 0.0000 0.0000 -12.7745 0.0000 34.3893
#
#
#
# Elastic Compliance Matrix: (Units=1/GPa)
#
#
# Indices 1 2 3 4 5 6 
#
# 1 0.010181 0.001075 -0.004676 0.000000 0.003149 0.000000
# 2 0.001075 0.024830 0.005612 0.000000 0.002057 0.000000
# 3 -0.004676 0.005612 0.023122 0.000000 0.007353 0.000000
# 4 0.000000 0.000000 0.000000 0.057439 0.000000 0.021337
# 5 0.003149 0.002057 0.007353 0.000000 0.024670 0.000000
# 6 0.000000 0.000000 0.000000 0.021337 0.000000 0.037005
#
#
# Mechanical properties :
#
#
# Convention : Reuss Voigt Hill
#
# Bulk Modulus (GPa) = 16.08881 27.81183 21.95032
# Shear Modulus (GPa) = 25.78096 35.79118 30.78607
#
# Velocity S-wave (km/s) = 3.11877 3.67470 3.40809
# Velocity P-wave (km/s) = 4.36337 5.33830 4.87527
#
# Compressibility (1/GPa) = 0.06215498
#
# Stress axis : x y z
#
# Youngs Moduli (GPa) = 98.22030 40.27435 43.24976
#
# Poissons Ratio (x) = -0.04331 0.20223
# Poissons Ratio (y) = -0.10562 -0.24271
# Poissons Ratio (z) = 0.45926 -0.22601
#
# Static dielectric constant tensor:
#      x y z
#    x 2.065950 0.000000 -0.057360 
#    y 0.000000 2.451570 0.000000 
#    z -0.057360 0.000000 2.155170 
# 
# From -- ./inp_files/26846.got.cif
#   From: 2010.05.17/outbox.cif.g08.bks.cpg/sg14_14_cif.got.tgz:26846.got - 2010.06.03 17:49:19.
