data_PCOD9241681
_publ_section_title
;
Structure prediction by ZEFSAII (Michael W. Deem and Ramdas Pophale) SiO2 
 PCOD9241681
Probable space group: P 21/C
;
_chemical_formula_sum "Si O2"
_cell_formula_units_Z 20
_cell_length_a 5.425238
_cell_length_b 12.872922
_cell_length_c 12.229793
_cell_angle_alpha 90.000000
_cell_angle_beta 111.804467
_cell_angle_gamma 90.000000
_cell_volume 793.006548
_symmetry_space_group_name_H-M "P 21/C"
_symmetry_group_IT_number 14
_symmetry_cell_setting 'monoclinic'
loop_
_space_group_symop_operation_xyz
x,y,z
-x,1/2+y,1/2-z
-x,-y,-z
x,1/2-y,1/2+z
loop_
_atom_site_type_symbol
_atom_site_label
_atom_site_fract_x
_atom_site_fract_y
_atom_site_fract_z
Si Si1 0.731800 0.025555 0.245802
Si Si2 0.548875 0.661392 0.567966
Si Si3 0.659422 0.458429 0.129242
Si Si4 0.994079 0.121438 0.975386
Si Si5 0.350131 0.764789 0.251900
O O1 0.748498 0.149642 0.245089
O O2 0.027415 0.985486 0.326913
O O3 0.635094 0.953771 0.128009
O O4 0.491993 0.007422 0.291711
O O5 0.238104 0.664655 0.488231
O O6 0.561042 0.729519 0.683235
O O7 0.718483 0.670290 0.485368
O O8 0.595524 0.336893 0.135379
O O9 0.500000 0.500000 0.000000
O O10 0.881763 0.162139 0.840570
O O11 0.000000 0.000000 0.000000
#
# Coordination Sequence:
#
# PCOD9241681 Si02
#       5
#     4   4   4   4   4
#     4  11  21  41  65  85 122 173 204 252 322 368
#     4   9  19  37  56  84 121 153 198 257 307 350
#     4  11  24  44  63  94 131 165 210 266 312 376
#     4  10  19  37  58  83 123 153 195 261 307 354
#     4   9  23  38  63  87 124 159 213 250 310 378
#
# _framework density 25.220472000000001
#
# number of rings (size 3 to 8) (size 9 to 14) (size 15 to 20)
#    1.200    0.800    2.000    1.200    2.800    0.000 
#    7.200    0.000    0.000    0.000    0.000    0.000 
#    0.000    0.000    0.000    0.000    0.000    0.000 
#
# Total GULP energy -111401.102507 kJ/mol
# GULP energy per Si atom -5570.055125 kJ/mol
# Density = 2.516307 g / cm^3
# Si number density = 25.220472 Si / 1000 Ang^3
#
#
#
# Elastic Constant Matrix: (Units=GPa)
#
#
# Indices 1 2 3 4 5 6 
#
# 1 181.9196 27.1327 11.9846 0.0000 -5.5946 0.0000
# 2 27.1327 185.4687 37.6599 0.0000 2.4458 0.0000
# 3 11.9846 37.6599 35.0896 0.0000 0.9758 0.0000
# 4 0.0000 0.0000 0.0000 6.7126 0.0000 1.1370
# 5 -5.5946 2.4458 0.9758 0.0000 32.2070 0.0000
# 6 0.0000 0.0000 0.0000 1.1370 0.0000 36.7968
#
#
#
# Elastic Compliance Matrix: (Units=1/GPa)
#
#
# Indices 1 2 3 4 5 6 
#
# 1 0.005705 -0.000572 -0.001365 0.000000 0.001076 0.000000
# 2 -0.000572 0.006954 -0.007257 0.000000 -0.000408 0.000000
# 3 -0.001365 -0.007257 0.036776 0.000000 -0.000800 0.000000
# 4 0.000000 0.000000 0.000000 0.149756 0.000000 -0.004627
# 5 0.001076 -0.000408 -0.000800 0.000000 0.031291 0.000000
# 6 0.000000 0.000000 0.000000 -0.004627 0.000000 0.027319
#
#
# Mechanical properties :
#
#
# Convention : Reuss Voigt Hill
#
# Bulk Modulus (GPa) = 32.20856 61.78134 46.99495
# Shear Modulus (GPa) = 17.44966 36.85669 27.15317
#
# Velocity S-wave (km/s) = 2.63322 3.82695 3.28477
# Velocity P-wave (km/s) = 4.69507 6.63905 5.74981
#
# Compressibility (1/GPa) = 0.03104765
#
# Stress axis : x y z
#
# Youngs Moduli (GPa) = 175.27869 143.79528 27.19192
#
# Poissons Ratio (x) = 0.08220 0.03712
# Poissons Ratio (y) = 0.10020 0.19734
# Poissons Ratio (z) = 0.23925 1.04354
#
# Static dielectric constant tensor:
#      x y z
#    x 2.188560 0.000000 0.033530 
#    y 0.000000 1.990270 0.000000 
#    z 0.033530 0.000000 2.153730 
# 
# From -- ./inp_files/36917.got.cif
#   From: 2010.05.17/outbox.cif.g08.bks.cpg/sg14_19_cif.got.tgz:36917.got - 2010.06.03 17:49:19.
