data_PCOD9241413
_publ_section_title
;
Structure prediction by ZEFSAII (Michael W. Deem and Ramdas Pophale) SiO2 
 PCOD9241413
Probable space group: P 21/C
;
_chemical_formula_sum "Si O2"
_cell_formula_units_Z 24
_cell_length_a 5.193000
_cell_length_b 12.939281
_cell_length_c 16.917922
_cell_angle_alpha 90.000000
_cell_angle_beta 122.839373
_cell_angle_gamma 90.000000
_cell_volume 955.113840
_symmetry_space_group_name_H-M "P 21/C"
_symmetry_group_IT_number 14
_symmetry_cell_setting 'monoclinic'
loop_
_space_group_symop_operation_xyz
x,y,z
-x,1/2+y,1/2-z
-x,-y,-z
x,1/2-y,1/2+z
loop_
_atom_site_type_symbol
_atom_site_label
_atom_site_fract_x
_atom_site_fract_y
_atom_site_fract_z
Si Si1 0.731498 0.758351 0.288091
Si Si2 0.347460 0.534490 0.555089
Si Si3 0.751230 0.247118 0.512579
Si Si4 0.114877 0.020165 0.747086
Si Si5 0.323761 0.365132 0.060053
Si Si6 0.463047 0.938718 0.665923
O O1 0.866282 0.857205 0.264430
O O2 0.566181 0.809668 0.338255
O O3 0.544475 0.679829 0.202266
O O4 0.023707 0.707399 0.381368
O O5 0.500000 0.500000 0.500000
O O6 0.350961 0.658048 0.556846
O O7 0.569851 0.489290 0.657791
O O8 0.000000 0.500000 0.500000
O O9 0.483356 0.188210 0.512701
O O10 0.966994 0.167029 0.501830
O O11 0.169757 0.967744 0.671362
O O12 0.808025 0.986681 0.739731
O O13 0.396621 0.485814 0.079542
#
# Coordination Sequence:
#
# PCOD9241413 Si02
#       6
#     4   4   4   4   4   4
#     4   9  21  33  59  76 113 145 188 239 278 319
#     4  12  24  37  56  86 118 154 183 228 300 352
#     4  10  19  36  52  75 115 145 178 231 280 334
#     4  11  23  37  54  91 114 143 197 232 284 349
#     4   9  19  34  51  81 103 148 189 222 282 329
#     4  11  20  35  58  82 115 143 193 241 278 337
#
# _framework density 25.127896
#
# number of rings (size 3 to 8) (size 9 to 14) (size 15 to 20)
#    1.000    0.667    1.667    4.000    4.667    0.000 
#    0.000    0.000    0.000    2.000    0.000    0.000 
#    0.000    0.000    0.000    0.000    0.000    0.000 
#
# Total GULP energy -133916.629755 kJ/mol
# GULP energy per Si atom -5579.859573 kJ/mol
# Density = 2.507070 g / cm^3
# Si number density = 25.127896 Si / 1000 Ang^3
#
#
#
# Elastic Constant Matrix: (Units=GPa)
#
#
# Indices 1 2 3 4 5 6 
#
# 1 161.4284 36.2333 3.6660 0.0000 7.9258 0.0000
# 2 36.2333 161.6358 9.8742 0.0000 -4.4590 0.0000
# 3 3.6660 9.8742 25.1578 0.0000 -0.2611 0.0000
# 4 0.0000 0.0000 0.0000 46.2509 0.0000 -1.4455
# 5 7.9258 -4.4590 -0.2611 0.0000 23.2944 0.0000
# 6 0.0000 0.0000 0.0000 -1.4455 0.0000 30.6329
#
#
#
# Elastic Compliance Matrix: (Units=1/GPa)
#
#
# Indices 1 2 3 4 5 6 
#
# 1 0.006676 -0.001543 -0.000394 0.000000 -0.002571 0.000000
# 2 -0.001543 0.006728 -0.002397 0.000000 0.001786 0.000000
# 3 -0.000394 -0.002397 0.040749 0.000000 0.000132 0.000000
# 4 0.000000 0.000000 0.000000 0.021653 0.000000 0.001022
# 5 -0.002571 0.001786 0.000132 0.000000 0.044147 0.000000
# 6 0.000000 0.000000 0.000000 0.001022 0.000000 0.032693
#
#
# Mechanical properties :
#
#
# Convention : Reuss Voigt Hill
#
# Bulk Modulus (GPa) = 21.98564 49.75212 35.86888
# Shear Modulus (GPa) = 28.33225 39.93222 34.13224
#
# Velocity S-wave (km/s) = 3.36150 3.99075 3.68957
# Velocity P-wave (km/s) = 4.88208 6.40916 5.69702
#
# Compressibility (1/GPa) = 0.04548424
#
# Stress axis : x y z
#
# Youngs Moduli (GPa) = 149.78277 148.62200 24.54063
#
# Poissons Ratio (x) = 0.22940 0.00966
# Poissons Ratio (y) = 0.23119 0.05883
# Poissons Ratio (z) = 0.05898 0.35631
#
# Static dielectric constant tensor:
#      x y z
#    x 1.903140 0.000000 -0.003940 
#    y 0.000000 1.987820 0.000000 
#    z -0.003940 0.000000 2.202250 
# 
# From -- ./inp_files/71184.got.cif
#   From: 2010.05.17/outbox.cif.g08.bks.cpg/sg14_36_cif.got.tgz:71184.got - 2010.06.03 17:49:19.
