data_PCOD9241641
_publ_section_title
;
Structure prediction by ZEFSAII (Michael W. Deem and Ramdas Pophale) SiO2 
 PCOD9241641
Probable space group: P 21/C
;
_chemical_formula_sum "Si O2"
_cell_formula_units_Z 32
_cell_length_a 8.379860
_cell_length_b 24.803700
_cell_length_c 11.172718
_cell_angle_alpha 90.000000
_cell_angle_beta 34.348980
_cell_angle_gamma 90.000000
_cell_volume 1310.297211
_symmetry_space_group_name_H-M "P 21/C"
_symmetry_group_IT_number 14
_symmetry_cell_setting 'monoclinic'
loop_
_space_group_symop_operation_xyz
x,y,z
-x,1/2+y,1/2-z
-x,-y,-z
x,1/2-y,1/2+z
loop_
_atom_site_type_symbol
_atom_site_label
_atom_site_fract_x
_atom_site_fract_y
_atom_site_fract_z
Si Si1 0.624776 0.425824 0.851020
Si Si2 0.250082 0.637965 0.566238
Si Si3 0.805135 0.589675 0.244641
Si Si4 0.291013 0.988109 0.447883
Si Si5 0.351702 0.156227 0.661522
Si Si6 0.248873 0.081936 0.941975
Si Si7 0.093715 0.683653 0.912330
Si Si8 0.461445 0.258312 0.728263
O O1 0.366157 0.450573 0.934956
O O2 0.928443 0.433116 0.601573
O O3 0.639616 0.457229 0.968830
O O4 0.575285 0.364698 0.925096
O O5 0.480201 0.591533 0.404820
O O6 0.218548 0.650636 0.725310
O O7 0.377201 0.690497 0.423617
O O8 0.940163 0.632535 0.706607
O O9 0.790980 0.597685 0.395984
O O10 0.981192 0.535292 0.110644
O O11 0.970882 0.640106 0.083216
O O12 0.526153 0.965825 0.211534
O O13 0.367716 0.219162 0.677147
O O14 0.369539 0.128514 0.781487
O O15 0.323712 0.724178 0.824357
O O16 0.825078 0.719308 0.035147
#
# Coordination Sequence:
#
# PCOD9241641 Si02
#       8
#     4   4   4   4   4   4   4   4
#     4   9  19  33  60  92 128 154 204 252 306 359
#     4  11  25  41  61  87 123 161 202 258 302 373
#     4  10  21  39  61  89 123 163 204 247 306 363
#     4   9  17  34  59  94 121 162 201 252 299 368
#     4  11  23  40  59  93 124 162 206 255 311 360
#     4  10  19  36  65  89 126 158 204 253 303 363
#     4  11  24  40  63  88 120 160 206 251 308 370
#     4  11  23  41  59  91 116 160 206 252 310 364
#
# _framework density 24.421942000000001
#
# number of rings (size 3 to 8) (size 9 to 14) (size 15 to 20)
#    0.000    1.750    1.250    4.125    1.750    5.000 
#    0.000    0.625    0.000    3.750    0.000    0.000 
#    0.000    0.000    0.000    0.000    0.000    0.000 
#
# Total GULP energy -178983.378003 kJ/mol
# GULP energy per Si atom -5593.230563 kJ/mol
# Density = 2.436636 g / cm^3
# Si number density = 24.421942 Si / 1000 Ang^3
#
#
#
# Elastic Constant Matrix: (Units=GPa)
#
#
# Indices 1 2 3 4 5 6 
#
# 1 66.7982 2.4759 36.2244 0.0000 -1.1815 0.0000
# 2 2.4759 36.2129 24.3329 0.0000 9.6649 0.0000
# 3 36.2244 24.3329 130.4935 0.0000 -9.2662 0.0000
# 4 0.0000 0.0000 0.0000 27.2224 0.0000 -1.0266
# 5 -1.1815 9.6649 -9.2662 0.0000 37.7871 0.0000
# 6 0.0000 0.0000 0.0000 -1.0266 0.0000 34.5431
#
#
#
# Elastic Compliance Matrix: (Units=1/GPa)
#
#
# Indices 1 2 3 4 5 6 
#
# 1 0.017888 0.002987 -0.005635 0.000000 -0.001587 0.000000
# 2 0.002987 0.035985 -0.008331 0.000000 -0.011154 0.000000
# 3 -0.005635 -0.008331 0.011113 0.000000 0.004680 0.000000
# 4 0.000000 0.000000 0.000000 0.036776 0.000000 0.001093
# 5 -0.001587 -0.011154 0.004680 0.000000 0.030415 0.000000
# 6 0.000000 0.000000 0.000000 0.001093 0.000000 0.028982
#
#
# Mechanical properties :
#
#
# Convention : Reuss Voigt Hill
#
# Bulk Modulus (GPa) = 23.24115 39.95233 31.59674
# Shear Modulus (GPa) = 25.32162 31.27527 28.29844
#
# Velocity S-wave (km/s) = 3.22349 3.58246 3.40771
# Velocity P-wave (km/s) = 4.83650 5.78850 5.33378
#
# Compressibility (1/GPa) = 0.04302713
#
# Stress axis : x y z
#
# Youngs Moduli (GPa) = 55.90461 27.78927 89.98198
#
# Poissons Ratio (x) = -0.08300 0.50706
# Poissons Ratio (y) = -0.16698 0.74966
# Poissons Ratio (z) = 0.31503 0.23152
#
# Static dielectric constant tensor:
#      x y z
#    x 2.014620 0.000000 -0.032990 
#    y 0.000000 1.913150 0.000000 
#    z -0.032990 0.000000 1.900390 
# 
# From -- ./inp_files/27165.got.cif
#   From: 2010.05.17/outbox.cif.g08.bks.cpg/sg14_14_cif.got.tgz:27165.got - 2010.06.03 17:49:19.
