data_PCOD9241007
_publ_section_title
;
Structure prediction by ZEFSAII (Michael W. Deem and Ramdas Pophale) SiO2 
 PCOD9241007
Probable space group: P 21/C
;
_chemical_formula_sum "Si O2"
_cell_formula_units_Z 32
_cell_length_a 20.742179
_cell_length_b 8.519698
_cell_length_c 13.889816
_cell_angle_alpha 90.000000
_cell_angle_beta 142.672456
_cell_angle_gamma 90.000000
_cell_volume 1488.378227
_symmetry_space_group_name_H-M "P 21/C"
_symmetry_group_IT_number 14
_symmetry_cell_setting 'monoclinic'
loop_
_space_group_symop_operation_xyz
x,y,z
-x,1/2+y,1/2-z
-x,-y,-z
x,1/2-y,1/2+z
loop_
_atom_site_type_symbol
_atom_site_label
_atom_site_fract_x
_atom_site_fract_y
_atom_site_fract_z
Si Si1 0.208306 0.091720 0.062096
Si Si2 0.435068 0.973231 0.588858
Si Si3 0.612871 0.340068 0.230820
Si Si4 0.126148 0.351989 0.090311
Si Si5 0.651355 0.487450 0.673367
Si Si6 0.311805 0.687182 0.461047
Si Si7 0.095822 0.975717 0.745064
Si Si8 0.391508 0.297892 0.212599
O O1 0.122498 0.023004 0.885831
O O2 0.158909 0.179183 0.094751
O O3 0.275252 0.220619 0.080289
O O4 0.297652 0.964351 0.195392
O O5 0.337953 0.857690 0.448639
O O6 0.528090 0.843561 0.712833
O O7 0.492404 0.093553 0.583738
O O8 0.402886 0.071895 0.644148
O O9 0.629766 0.174621 0.201518
O O10 0.638223 0.319672 0.374165
O O11 0.224812 0.462598 0.176464
O O12 0.108404 0.382254 0.182761
O O13 0.019774 0.404576 0.909403
O O14 0.634671 0.448260 0.541315
O O15 0.591634 0.621735 0.662490
O O16 0.188140 0.647153 0.324280
#
# Coordination Sequence:
#
# PCOD9241007 Si02
#       8
#     4   4   4   4   4   4   4   4
#     4   9  20  35  56  84 106 146 181 224 274 327
#     4  11  19  35  55  77 109 148 179 228 270 319
#     4  10  20  37  54  80 115 140 183 231 272 319
#     4   9  19  38  60  81 110 144 182 224 279 331
#     4  10  20  36  56  80 109 144 179 228 274 330
#     4  10  20  34  56  78 105 149 181 214 278 328
#     4   9  19  37  60  81 110 145 183 223 276 336
#     4  10  19  34  55  78 108 143 184 219 272 321
#
# _framework density 21.499911999999998
#
# number of rings (size 3 to 8) (size 9 to 14) (size 15 to 20)
#    0.000    2.250    2.500    0.000    0.000    3.000 
#    2.250    0.000    0.000    3.000    0.000    0.000 
#    0.000    0.000    0.000    0.000    0.000    0.000 
#
# Total GULP energy -178642.981342 kJ/mol
# GULP energy per Si atom -5582.593167 kJ/mol
# Density = 2.145098 g / cm^3
# Si number density = 21.499912 Si / 1000 Ang^3
#
#
#
# Elastic Constant Matrix: (Units=GPa)
#
#
# Indices 1 2 3 4 5 6 
#
# 1 36.2395 1.3032 23.3875 0.0000 2.6513 0.0000
# 2 1.3032 68.3178 13.5724 0.0000 -2.5146 0.0000
# 3 23.3875 13.5724 63.3008 0.0000 -2.6580 0.0000
# 4 0.0000 0.0000 0.0000 20.6132 0.0000 -5.4609
# 5 2.6513 -2.5146 -2.6580 0.0000 31.6493 0.0000
# 6 0.0000 0.0000 0.0000 -5.4609 0.0000 31.9812
#
#
#
# Elastic Compliance Matrix: (Units=1/GPa)
#
#
# Indices 1 2 3 4 5 6 
#
# 1 0.037046 0.001979 -0.014285 0.000000 -0.004146 0.000000
# 2 0.001979 0.015422 -0.004007 0.000000 0.000723 0.000000
# 3 -0.014285 -0.004007 0.022049 0.000000 0.002730 0.000000
# 4 0.000000 0.000000 0.000000 0.050811 0.000000 0.008676
# 5 -0.004146 0.000723 0.002730 0.000000 0.032230 0.000000
# 6 0.000000 0.000000 0.000000 0.008676 0.000000 0.032750
#
#
# Mechanical properties :
#
#
# Convention : Reuss Voigt Hill
#
# Bulk Modulus (GPa) = 23.87248 27.15381 25.51314
# Shear Modulus (GPa) = 21.10593 25.48842 23.29717
#
# Velocity S-wave (km/s) = 3.13657 3.44686 3.29537
# Velocity P-wave (km/s) = 4.92393 5.33838 5.13534
#
# Compressibility (1/GPa) = 0.04188924
#
# Stress axis : x y z
#
# Youngs Moduli (GPa) = 26.99374 64.84039 45.35255
#
# Poissons Ratio (x) = -0.12830 0.64788
# Poissons Ratio (y) = -0.05341 0.18175
# Poissons Ratio (z) = 0.38562 0.25985
#
# Static dielectric constant tensor:
#      x y z
#    x 1.813480 0.000000 -0.013620 
#    y 0.000000 1.793760 0.000000 
#    z -0.013620 0.000000 1.790950 
# 
# From -- ./inp_files/49954.got.cif
#   From: 2010.05.17/outbox.cif.g08.bks.cpg/sg14_25_cif.got.tgz:49954.got - 2010.06.03 17:49:19.
