data_PCOD9241953
_publ_section_title
;
Structure prediction by ZEFSAII (Michael W. Deem and Ramdas Pophale) SiO2 
 PCOD9241953
Probable space group: P 21/C
;
_chemical_formula_sum "Si O2"
_cell_formula_units_Z 20
_cell_length_a 22.377273
_cell_length_b 5.494259
_cell_length_c 12.680421
_cell_angle_alpha 90.000000
_cell_angle_beta 29.771807
_cell_angle_gamma 90.000000
_cell_volume 774.123484
_symmetry_space_group_name_H-M "P 21/C"
_symmetry_group_IT_number 14
_symmetry_cell_setting 'monoclinic'
loop_
_space_group_symop_operation_xyz
x,y,z
-x,1/2+y,1/2-z
-x,-y,-z
x,1/2-y,1/2+z
loop_
_atom_site_type_symbol
_atom_site_label
_atom_site_fract_x
_atom_site_fract_y
_atom_site_fract_z
Si Si1 0.566259 0.490288 0.623800
Si Si2 0.867055 0.111277 0.004917
Si Si3 0.739309 0.610579 0.188927
Si Si4 0.827507 0.400013 0.312931
Si Si5 0.881809 0.899023 0.268657
O O1 0.493922 0.236613 0.738974
O O2 0.610067 0.560768 0.438213
O O3 0.687088 0.433612 0.505314
O O4 0.814482 0.376001 0.115571
O O5 0.787051 0.873326 0.153450
O O6 0.857788 0.112548 0.891425
O O7 0.005669 0.086882 0.824914
O O8 0.763553 0.608001 0.025897
O O9 0.888329 0.654562 0.191276
O O10 0.871129 0.133958 0.211734
#
# Coordination Sequence:
#
# PCOD9241953 Si02
#       5
#     4   4   4   4   4
#     4  12  26  44  57  78 117 158 198 248 280 312
#     4  10  19  38  62  91 120 144 177 234 290 352
#     4  10  20  37  60  84 115 153 191 230 283 342
#     4  10  20  37  60  84 115 153 191 230 283 342
#     4  10  19  38  62  91 120 144 177 234 290 352
#
# _framework density 25.835671999999999
#
# number of rings (size 3 to 8) (size 9 to 14) (size 15 to 20)
#    0.000    1.600    0.000    8.400    0.000    0.000 
#    0.000   35.000    0.000    0.000    0.000    0.000 
#    0.000    0.000    0.000    0.000    0.000    0.000 
#
# Total GULP energy -111941.454258 kJ/mol
# GULP energy per Si atom -5597.072713 kJ/mol
# Density = 2.577687 g / cm^3
# Si number density = 25.835672 Si / 1000 Ang^3
#
#
#
# Elastic Constant Matrix: (Units=GPa)
#
#
# Indices 1 2 3 4 5 6 
#
# 1 66.8478 21.0495 19.6336 0.0000 -4.9764 0.0000
# 2 21.0495 285.8894 55.9197 0.0000 -12.8938 0.0000
# 3 19.6336 55.9197 112.4068 0.0000 10.1470 0.0000
# 4 0.0000 0.0000 0.0000 59.1552 0.0000 -1.3284
# 5 -4.9764 -12.8938 10.1470 0.0000 45.6561 0.0000
# 6 0.0000 0.0000 0.0000 -1.3284 0.0000 54.0767
#
#
#
# Elastic Compliance Matrix: (Units=1/GPa)
#
#
# Indices 1 2 3 4 5 6 
#
# 1 0.016101 -0.000550 -0.002738 0.000000 0.002208 0.000000
# 2 -0.000550 0.004005 -0.002034 0.000000 0.001523 0.000000
# 3 -0.002738 -0.002034 0.010679 0.000000 -0.003246 0.000000
# 4 0.000000 0.000000 0.000000 0.016914 0.000000 0.000415
# 5 0.002208 0.001523 -0.003246 0.000000 0.023295 0.000000
# 6 0.000000 0.000000 0.000000 0.000415 0.000000 0.018502
#
#
# Mechanical properties :
#
#
# Convention : Reuss Voigt Hill
#
# Bulk Modulus (GPa) = 49.64892 73.14996 61.39944
# Shear Modulus (GPa) = 46.79265 56.34701 51.56983
#
# Velocity S-wave (km/s) = 4.26039 4.67516 4.47259
# Velocity P-wave (km/s) = 6.59243 7.58405 7.10556
#
# Compressibility (1/GPa) = 0.02014143
#
# Stress axis : x y z
#
# Youngs Moduli (GPa) = 62.10734 249.69709 93.63996
#
# Poissons Ratio (x) = 0.13743 0.25637
# Poissons Ratio (y) = 0.03418 0.19043
# Poissons Ratio (z) = 0.17004 0.50780
#
# Static dielectric constant tensor:
#      x y z
#    x 2.101160 0.000000 0.075920 
#    y 0.000000 2.150680 0.000000 
#    z 0.075920 0.000000 2.022510 
# 
# From -- ./inp_files/56503.got.cif
#   From: 2010.05.17/outbox.cif.g08.bks.cpg/sg14_29_cif.got.tgz:56503.got - 2010.06.03 17:49:19.
