data_PCOD9241684
_publ_section_title
;
Structure prediction by ZEFSAII (Michael W. Deem and Ramdas Pophale) SiO2 
 PCOD9241684
Probable space group: P 21/C
;
_chemical_formula_sum "Si O2"
_cell_formula_units_Z 28
_cell_length_a 11.168110
_cell_length_b 5.054086
_cell_length_c 21.227573
_cell_angle_alpha 90.000000
_cell_angle_beta 94.199200
_cell_angle_gamma 90.000000
_cell_volume 1194.965102
_symmetry_space_group_name_H-M "P 21/C"
_symmetry_group_IT_number 14
_symmetry_cell_setting 'monoclinic'
loop_
_space_group_symop_operation_xyz
x,y,z
-x,1/2+y,1/2-z
-x,-y,-z
x,1/2-y,1/2+z
loop_
_atom_site_type_symbol
_atom_site_label
_atom_site_fract_x
_atom_site_fract_y
_atom_site_fract_z
Si Si1 0.667050 0.155514 0.762394
Si Si2 0.792755 0.547441 0.478961
Si Si3 0.990556 0.206758 0.558517
Si Si4 0.190290 0.784755 0.847233
Si Si5 0.582273 0.653906 0.825385
Si Si6 0.688964 0.797248 0.594828
Si Si7 0.446951 0.545635 0.567074
O O1 0.781837 0.223483 0.724297
O O2 0.640840 0.371113 0.815071
O O3 0.548251 0.169053 0.713204
O O4 0.664865 0.865836 0.791359
O O5 0.891572 0.405492 0.525875
O O6 0.727442 0.748935 0.524100
O O7 0.689066 0.359327 0.448910
O O8 0.875083 0.683738 0.430044
O O9 0.932816 0.176202 0.625788
O O10 0.000000 0.000000 0.500000
O O11 0.285268 0.597582 0.887643
O O12 0.228229 0.088601 0.862845
O O13 0.568860 0.776715 0.893989
O O14 0.551293 0.719998 0.602466
O O15 0.500000 0.500000 0.500000
#
# Coordination Sequence:
#
# PCOD9241684 Si02
#       7
#     4   4   4   4   4   4   4
#     4  10  21  36  59  85 118 163 204 252 292 360
#     4   9  20  38  54  85 125 165 198 250 318 376
#     4  10  19  37  58  85 121 162 213 258 305 368
#     4  11  20  35  62  86 119 157 209 256 298 358
#     4  10  21  38  57  85 125 156 202 245 305 372
#     4  10  20  34  56  90 124 154 195 246 310 379
#     4  10  21  39  60  92 130 165 192 255 327 395
#
# _framework density 23.431649
#
# number of rings (size 3 to 8) (size 9 to 14) (size 15 to 20)
#    0.000    2.000    2.857    0.857    4.000    0.000 
#    5.143    5.000    0.000    1.714    0.000    0.000 
#    0.000    0.000    0.000    0.000    0.000    0.000 
#
# Total GULP energy -156229.947705 kJ/mol
# GULP energy per Si atom -5579.640989 kJ/mol
# Density = 2.337832 g / cm^3
# Si number density = 23.431649 Si / 1000 Ang^3
#
#
#
# Elastic Constant Matrix: (Units=GPa)
#
#
# Indices 1 2 3 4 5 6 
#
# 1 132.8744 7.1157 25.8750 0.0000 -43.8230 0.0000
# 2 7.1157 37.1654 -0.2586 0.0000 -3.6277 0.0000
# 3 25.8750 -0.2586 95.7972 0.0000 -37.7887 0.0000
# 4 0.0000 0.0000 0.0000 33.7224 0.0000 -10.1472
# 5 -43.8230 -3.6277 -37.7887 0.0000 47.7935 0.0000
# 6 0.0000 0.0000 0.0000 -10.1472 0.0000 19.2636
#
#
#
# Elastic Compliance Matrix: (Units=1/GPa)
#
#
# Indices 1 2 3 4 5 6 
#
# 1 0.010963 -0.001006 0.001412 0.000000 0.011092 0.000000
# 2 -0.001006 0.027309 0.001161 0.000000 0.002068 0.000000
# 3 0.001412 0.001161 0.015413 0.000000 0.013569 0.000000
# 4 0.000000 0.000000 0.000000 0.035239 0.000000 0.018563
# 5 0.011092 0.002068 0.013569 0.000000 0.041979 0.000000
# 6 0.000000 0.000000 0.000000 0.018563 0.000000 0.061690
#
#
# Mechanical properties :
#
#
# Convention : Reuss Voigt Hill
#
# Bulk Modulus (GPa) = 17.59982 36.81123 27.20553
# Shear Modulus (GPa) = 23.99224 35.69623 29.84423
#
# Velocity S-wave (km/s) = 3.20335 3.90733 3.57273
# Velocity P-wave (km/s) = 4.60537 6.00837 5.35303
#
# Compressibility (1/GPa) = 0.05681876
#
# Stress axis : x y z
#
# Youngs Moduli (GPa) = 91.21447 36.61741 64.87977
#
# Poissons Ratio (x) = 0.03686 -0.09158
# Poissons Ratio (y) = 0.09181 -0.07536
# Poissons Ratio (z) = -0.12875 -0.04253
#
# Static dielectric constant tensor:
#      x y z
#    x 1.922990 0.000000 -0.050910 
#    y 0.000000 1.932960 0.000000 
#    z -0.050910 0.000000 1.976440 
# 
# From -- ./inp_files/66288.got.cif
#   From: 2010.05.17/outbox.cif.g08.bks.cpg/sg14_34_cif.got.tgz:66288.got - 2010.06.03 17:49:19.
