data_PCOD9241753
_publ_section_title
;
Structure prediction by ZEFSAII (Michael W. Deem and Ramdas Pophale) SiO2 
 PCOD9241753
Probable space group: P 21/C
;
_chemical_formula_sum "Si O2"
_cell_formula_units_Z 32
_cell_length_a 15.874242
_cell_length_b 5.243091
_cell_length_c 17.886623
_cell_angle_alpha 90.000000
_cell_angle_beta 84.318146
_cell_angle_gamma 90.000000
_cell_volume 1481.391292
_symmetry_space_group_name_H-M "P 21/C"
_symmetry_group_IT_number 14
_symmetry_cell_setting 'monoclinic'
loop_
_space_group_symop_operation_xyz
x,y,z
-x,1/2+y,1/2-z
-x,-y,-z
x,1/2-y,1/2+z
loop_
_atom_site_type_symbol
_atom_site_label
_atom_site_fract_x
_atom_site_fract_y
_atom_site_fract_z
Si Si1 0.710676 0.938503 0.637171
Si Si2 0.567567 0.721392 0.545834
Si Si3 0.410448 0.978430 0.598145
Si Si4 0.189377 0.934484 0.921836
Si Si5 0.109588 0.236439 0.733932
Si Si6 0.300846 0.616711 0.541395
Si Si7 0.304582 0.191002 0.195109
Si Si8 0.055647 0.756080 0.330963
O O1 0.630644 0.887346 0.591293
O O2 0.777671 0.705783 0.613989
O O3 0.683473 0.935505 0.725731
O O4 0.752436 0.208827 0.616674
O O5 0.477513 0.748342 0.595162
O O6 0.625637 0.477719 0.522146
O O7 0.549109 0.820104 0.462875
O O8 0.324550 0.902458 0.561318
O O9 0.376572 0.095686 0.676980
O O10 0.096888 0.834142 0.905521
O O11 0.213122 0.931441 0.007306
O O12 0.207397 0.221252 0.705301
O O13 0.089430 0.477077 0.791594
O O14 0.045552 0.252637 0.669294
O O15 0.087450 0.971052 0.774936
O O16 0.308509 0.478861 0.620280
#
# Coordination Sequence:
#
# PCOD9241753 Si02
#       8
#     4   4   4   4   4   4   4   4
#     4  11  22  38  62  88 119 157 203 259 292 357
#     4   9  20  40  59  85 112 163 213 237 294 367
#     4  10  20  38  60  82 120 158 203 248 301 366
#     4  11  20  39  63  88 116 159 212 237 295 369
#     4  10  21  35  61  89 123 154 200 251 307 357
#     4  10  22  36  62  86 119 167 199 251 305 370
#     4  11  23  37  56  93 122 156 193 263 318 345
#     4  10  19  37  61  89 115 161 205 246 292 374
#
# _framework density 21.601313000000001
#
# number of rings (size 3 to 8) (size 9 to 14) (size 15 to 20)
#    0.000    1.750    3.750    0.375    3.500    0.000 
#    2.250    0.625    0.000    0.750    0.000    0.000 
#    0.000    0.000    0.000    0.000    0.000    0.000 
#
# Total GULP energy -178221.997924 kJ/mol
# GULP energy per Si atom -5569.437435 kJ/mol
# Density = 2.155215 g / cm^3
# Si number density = 21.601313 Si / 1000 Ang^3
#
#
#
# Elastic Constant Matrix: (Units=GPa)
#
#
# Indices 1 2 3 4 5 6 
#
# 1 54.8759 -8.7212 -8.0220 0.0000 7.4076 0.0000
# 2 -8.7212 79.8086 7.3459 0.0000 -5.1982 0.0000
# 3 -8.0220 7.3459 65.7555 0.0000 9.0357 0.0000
# 4 0.0000 0.0000 0.0000 18.6303 0.0000 2.8172
# 5 7.4076 -5.1982 9.0357 0.0000 35.0889 0.0000
# 6 0.0000 0.0000 0.0000 2.8172 0.0000 24.7674
#
#
#
# Elastic Compliance Matrix: (Units=1/GPa)
#
#
# Indices 1 2 3 4 5 6 
#
# 1 0.019511 0.001570 0.002839 0.000000 -0.004618 0.000000
# 2 0.001570 0.012972 -0.001530 0.000000 0.001984 0.000000
# 3 0.002839 -0.001530 0.016420 0.000000 -0.005054 0.000000
# 4 0.000000 0.000000 0.000000 0.054615 0.000000 -0.006212
# 5 -0.004618 0.001984 -0.005054 0.000000 0.031069 0.000000
# 6 0.000000 0.000000 0.000000 -0.006212 0.000000 0.041082
#
#
# Mechanical properties :
#
#
# Convention : Reuss Voigt Hill
#
# Bulk Modulus (GPa) = 18.29477 20.18282 19.23880
# Shear Modulus (GPa) = 26.57721 29.68648 28.13185
#
# Velocity S-wave (km/s) = 3.51144 3.71116 3.61268
# Velocity P-wave (km/s) = 4.99279 5.26567 5.13104
#
# Compressibility (1/GPa) = 0.05466043
#
# Stress axis : x y z
#
# Youngs Moduli (GPa) = 51.25352 77.09128 60.90227
#
# Poissons Ratio (x) = -0.12103 -0.17293
# Poissons Ratio (y) = -0.08047 0.09320
# Poissons Ratio (z) = -0.14553 0.11797
#
# Static dielectric constant tensor:
#      x y z
#    x 1.864890 0.000000 0.054640 
#    y 0.000000 1.861290 0.000000 
#    z 0.054640 0.000000 1.812630 
# 
# From -- ./inp_files/59881.got.cif
#   From: 2010.05.17/outbox.cif.g08.bks.cpg/sg14_30_cif.got.tgz:59881.got - 2010.06.03 17:49:19.
