data_PCOD9241336
_publ_section_title
;
Structure prediction by ZEFSAII (Michael W. Deem and Ramdas Pophale) SiO2 
 PCOD9241336
Probable space group: P 21/C
;
_chemical_formula_sum "Si O2"
_cell_formula_units_Z 32
_cell_length_a 12.374838
_cell_length_b 11.532003
_cell_length_c 14.682675
_cell_angle_alpha 90.000000
_cell_angle_beta 42.613527
_cell_angle_gamma 90.000000
_cell_volume 1418.632902
_symmetry_space_group_name_H-M "P 21/C"
_symmetry_group_IT_number 14
_symmetry_cell_setting 'monoclinic'
loop_
_space_group_symop_operation_xyz
x,y,z
-x,1/2+y,1/2-z
-x,-y,-z
x,1/2-y,1/2+z
loop_
_atom_site_type_symbol
_atom_site_label
_atom_site_fract_x
_atom_site_fract_y
_atom_site_fract_z
Si Si1 0.079738 0.298707 0.626988
Si Si2 0.768428 0.928552 0.478753
Si Si3 0.396543 0.891254 0.947939
Si Si4 0.769691 0.448750 0.789552
Si Si5 0.324215 0.393586 0.604611
Si Si6 0.301851 0.064130 0.848365
Si Si7 0.650847 0.163853 0.611193
Si Si8 0.530072 0.220767 0.357541
O O1 0.085132 0.160867 0.607228
O O2 0.160980 0.331594 0.674715
O O3 0.192237 0.355680 0.479272
O O4 0.914518 0.363430 0.720590
O O5 0.613725 0.851224 0.599428
O O6 0.750021 0.963821 0.384666
O O7 0.761186 0.051108 0.534493
O O8 0.586373 0.885634 0.854082
O O9 0.323446 0.764300 0.979193
O O10 0.358165 0.960487 0.879600
O O11 0.321055 0.973504 0.072771
O O12 0.789918 0.517145 0.682428
O O13 0.615790 0.369402 0.869699
O O14 0.450592 0.324966 0.462113
O O15 0.466484 0.123262 0.714353
O O16 0.650288 0.224840 0.709904
#
# Coordination Sequence:
#
# PCOD9241336 Si02
#       8
#     4   4   4   4   4   4   4   4
#     4  10  24  46  61  95 142 177 228 278 345 415
#     4  11  24  43  66 101 137 177 230 284 331 404
#     4  10  19  35  60  94 124 161 222 271 329 388
#     4  12  24  43  67 101 137 187 224 278 346 418
#     4   9  20  38  62  92 123 171 216 284 325 388
#     4  11  22  39  69  98 131 178 223 282 337 406
#     4  12  20  37  69 100 131 167 222 288 333 394
#     4  11  21  39  67  99 130 165 231 280 330 400
#
# _framework density 22.556927000000002
#
# number of rings (size 3 to 8) (size 9 to 14) (size 15 to 20)
#    0.000    1.250    6.250    1.500    3.500    0.000 
#   11.250    0.625    0.000    0.000    0.000    0.000 
#    0.000    0.000    0.000    0.000    0.000    0.000 
#
# Total GULP energy -178751.857376 kJ/mol
# GULP energy per Si atom -5585.995543 kJ/mol
# Density = 2.250559 g / cm^3
# Si number density = 22.556927 Si / 1000 Ang^3
#
#
#
# Elastic Constant Matrix: (Units=GPa)
#
#
# Indices 1 2 3 4 5 6 
#
# 1 38.0215 11.4048 16.2313 0.0000 13.7448 0.0000
# 2 11.4048 133.6312 22.8149 0.0000 6.0672 0.0000
# 3 16.2313 22.8149 37.8632 0.0000 10.6102 0.0000
# 4 0.0000 0.0000 0.0000 26.9539 0.0000 -0.4502
# 5 13.7448 6.0672 10.6102 0.0000 32.1161 0.0000
# 6 0.0000 0.0000 0.0000 -0.4502 0.0000 29.1881
#
#
#
# Elastic Compliance Matrix: (Units=1/GPa)
#
#
# Indices 1 2 3 4 5 6 
#
# 1 0.035541 -0.000512 -0.011783 0.000000 -0.011221 0.000000
# 2 -0.000512 0.008349 -0.004883 0.000000 0.000255 0.000000
# 3 -0.011783 -0.004883 0.036072 0.000000 -0.005952 0.000000
# 4 0.000000 0.000000 0.000000 0.037110 0.000000 0.000572
# 5 -0.011221 0.000255 -0.005952 0.000000 0.037857 0.000000
# 6 0.000000 0.000000 0.000000 0.000572 0.000000 0.034269
#
#
# Mechanical properties :
#
#
# Convention : Reuss Voigt Hill
#
# Bulk Modulus (GPa) = 21.92662 34.49089 28.20875
# Shear Modulus (GPa) = 20.94186 28.25596 24.59891
#
# Velocity S-wave (km/s) = 3.05027 3.54312 3.30589
# Velocity P-wave (km/s) = 4.70608 5.66234 5.20621
#
# Compressibility (1/GPa) = 0.04560667
#
# Stress axis : x y z
#
# Youngs Moduli (GPa) = 28.13655 119.77416 27.72235
#
# Poissons Ratio (x) = 0.06134 0.32665
# Poissons Ratio (y) = 0.01441 0.13536
# Poissons Ratio (z) = 0.33153 0.58483
#
# Static dielectric constant tensor:
#      x y z
#    x 1.867930 0.000000 0.029120 
#    y 0.000000 1.861380 0.000000 
#    z 0.029120 0.000000 1.855370 
# 
# From -- ./inp_files/44634.got.cif
#   From: 2010.05.17/outbox.cif.g08.bks.cpg/sg14_23_cif.got.tgz:44634.got - 2010.06.03 17:49:19.
