data_PCOD9241579
_publ_section_title
;
Structure prediction by ZEFSAII (Michael W. Deem and Ramdas Pophale) SiO2 
 PCOD9241579
Probable space group: P 21/C
;
_chemical_formula_sum "Si O2"
_cell_formula_units_Z 32
_cell_length_a 10.583185
_cell_length_b 16.843603
_cell_length_c 15.433414
_cell_angle_alpha 90.000000
_cell_angle_beta 142.169309
_cell_angle_gamma 90.000000
_cell_volume 1687.360017
_symmetry_space_group_name_H-M "P 21/C"
_symmetry_group_IT_number 14
_symmetry_cell_setting 'monoclinic'
loop_
_space_group_symop_operation_xyz
x,y,z
-x,1/2+y,1/2-z
-x,-y,-z
x,1/2-y,1/2+z
loop_
_atom_site_type_symbol
_atom_site_label
_atom_site_fract_x
_atom_site_fract_y
_atom_site_fract_z
Si Si1 0.301417 0.167861 0.093947
Si Si2 0.026961 0.060389 0.269771
Si Si3 0.921695 0.681211 0.048359
Si Si4 0.028467 0.878727 0.939373
Si Si5 0.680318 0.497344 0.468226
Si Si6 0.266358 0.718716 0.093848
Si Si7 0.273634 0.054933 0.676996
Si Si8 0.833016 0.442545 0.029403
O O1 0.187163 0.238302 0.980767
O O2 0.350805 0.090236 0.064496
O O3 0.501440 0.205339 0.248404
O O4 0.135177 0.140097 0.075701
O O5 0.017239 0.123525 0.341242
O O6 0.088290 0.105166 0.214710
O O7 0.173907 0.990579 0.384953
O O8 0.807331 0.022598 0.123613
O O9 0.764142 0.633708 0.899948
O O10 0.119274 0.699175 0.096271
O O11 0.187827 0.804554 0.019893
O O12 0.169712 0.957516 0.023826
O O13 0.468071 0.450791 0.343799
O O14 0.219666 0.649718 0.998511
O O15 0.065928 0.045292 0.619900
O O16 0.296391 0.985315 0.617081
#
# Coordination Sequence:
#
# PCOD9241579 Si02
#       8
#     4   4   4   4   4   4   4   4
#     4  11  20  36  61  81 104 152 199 212 258 351
#     4   9  21  36  53  81 124 141 165 239 296 306
#     4   9  20  37  58  83 114 140 181 238 280 312
#     4   9  22  38  52  79 119 146 175 232 276 320
#     4  10  20  34  57  83 110 147 185 222 274 335
#     4  10  19  36  62  83 100 150 196 222 264 335
#     4   9  16  32  56  81 109 143 179 226 268 325
#     4   9  17  32  55  82 111 137 182 227 274 319
#
# _framework density 18.964535999999999
#
# number of rings (size 3 to 8) (size 9 to 14) (size 15 to 20)
#    0.750    1.750    1.250    1.875    0.000    1.500 
#    0.000    1.875    0.000    0.000    0.000    0.000 
#    0.000    0.000    0.000    0.000    0.000    0.000 
#
# Total GULP energy -178152.315443 kJ/mol
# GULP energy per Si atom -5567.259858 kJ/mol
# Density = 1.892137 g / cm^3
# Si number density = 18.964536 Si / 1000 Ang^3
#
#
#
# Elastic Constant Matrix: (Units=GPa)
#
#
# Indices 1 2 3 4 5 6 
#
# 1 10.1477 11.6394 8.3371 0.0000 -2.1932 0.0000
# 2 11.6394 99.0687 31.9921 0.0000 -4.6991 0.0000
# 3 8.3371 31.9921 86.5670 0.0000 -4.3932 0.0000
# 4 0.0000 0.0000 0.0000 22.2924 0.0000 -5.0286
# 5 -2.1932 -4.6991 -4.3932 0.0000 22.9481 0.0000
# 6 0.0000 0.0000 0.0000 -5.0286 0.0000 20.6959
#
#
#
# Elastic Compliance Matrix: (Units=1/GPa)
#
#
# Indices 1 2 3 4 5 6 
#
# 1 0.118907 -0.011392 -0.006850 0.000000 0.007720 0.000000
# 2 -0.011392 0.012608 -0.003521 0.000000 0.000819 0.000000
# 3 -0.006850 -0.003521 0.013575 0.000000 0.001223 0.000000
# 4 0.000000 0.000000 0.000000 0.047460 0.000000 0.011532
# 5 0.007720 0.000819 0.001223 0.000000 0.044716 0.000000
# 6 0.000000 0.000000 0.000000 0.011532 0.000000 0.051121
#
#
# Mechanical properties :
#
#
# Convention : Reuss Voigt Hill
#
# Bulk Modulus (GPa) = 9.84591 33.30227 21.57409
# Shear Modulus (GPa) = 13.66990 22.77495 18.22242
#
# Velocity S-wave (km/s) = 2.68771 3.46919 3.10315
# Velocity P-wave (km/s) = 3.85159 5.80047 4.92342
#
# Compressibility (1/GPa) = 0.10156500
#
# Stress axis : x y z
#
# Youngs Moduli (GPa) = 8.40991 79.31312 73.66647
#
# Poissons Ratio (x) = 0.90353 0.50460
# Poissons Ratio (y) = 0.09581 0.25937
# Poissons Ratio (z) = 0.05761 0.27925
#
# Static dielectric constant tensor:
#      x y z
#    x 1.658690 0.000000 0.007340 
#    y 0.000000 1.696390 0.000000 
#    z 0.007340 0.000000 1.651120 
# 
# From -- ./inp_files/58124.got.cif
#   From: 2010.05.17/outbox.cif.g08.bks.cpg/sg14_30_cif.got.tgz:58124.got - 2010.06.03 17:49:19.
