data_PCOD9241139
_publ_section_title
;
Structure prediction by ZEFSAII (Michael W. Deem and Ramdas Pophale) SiO2 
 PCOD9241139
Probable space group: P 21/C
;
_chemical_formula_sum "Si O2"
_cell_formula_units_Z 28
_cell_length_a 16.623083
_cell_length_b 12.421777
_cell_length_c 11.026245
_cell_angle_alpha 90.000000
_cell_angle_beta 38.954469
_cell_angle_gamma 90.000000
_cell_volume 1431.423724
_symmetry_space_group_name_H-M "P 21/C"
_symmetry_group_IT_number 14
_symmetry_cell_setting 'monoclinic'
loop_
_space_group_symop_operation_xyz
x,y,z
-x,1/2+y,1/2-z
-x,-y,-z
x,1/2-y,1/2+z
loop_
_atom_site_type_symbol
_atom_site_label
_atom_site_fract_x
_atom_site_fract_y
_atom_site_fract_z
Si Si1 0.995635 0.147447 0.898753
Si Si2 0.786209 0.494826 0.791845
Si Si3 0.890249 0.132085 0.542613
Si Si4 0.373758 0.743088 0.198227
Si Si5 0.563843 0.350724 0.132074
Si Si6 0.665754 0.507811 0.693260
Si Si7 0.081967 0.530379 0.731487
O O1 0.948980 0.132752 0.815725
O O2 0.131787 0.090418 0.749030
O O3 0.891734 0.081258 0.101069
O O4 0.989716 0.270150 0.943784
O O5 0.691486 0.543555 0.801015
O O6 0.696980 0.418079 0.976068
O O7 0.758432 0.189522 0.660270
O O8 0.879541 0.068556 0.680875
O O9 0.959027 0.047605 0.373335
O O10 0.451147 0.797829 0.218011
O O11 0.352068 0.620882 0.270979
O O12 0.425952 0.728505 0.998492
O O13 0.450509 0.432603 0.232908
O O14 0.796722 0.528114 0.468668
#
# Coordination Sequence:
#
# PCOD9241139 Si02
#       7
#     4   4   4   4   4   4   4
#     4  10  19  34  61  85 121 155 202 256 301 368
#     4   9  18  34  59  93 111 158 212 249 296 363
#     4  11  21  37  63  87 127 159 199 257 314 374
#     4  11  21  39  68  89 113 172 209 247 317 368
#     4  11  22  40  65  89 123 162 217 255 298 373
#     4  10  21  41  60  85 127 158 210 258 291 376
#     4  10  22  37  56  95 123 154 202 256 314 357
#
# _framework density 19.560945
#
# number of rings (size 3 to 8) (size 9 to 14) (size 15 to 20)
#    0.000    1.714    4.286    3.429    0.000    3.429 
#    5.143    2.857    3.143    0.000    0.000    0.000 
#    0.000    0.000    0.000    0.000    0.000    0.000 
#
# Total GULP energy -156081.935335 kJ/mol
# GULP energy per Si atom -5574.354833 kJ/mol
# Density = 1.951642 g / cm^3
# Si number density = 19.560945 Si / 1000 Ang^3
#
#
#
# Elastic Constant Matrix: (Units=GPa)
#
#
# Indices 1 2 3 4 5 6 
#
# 1 81.0674 29.8176 10.5387 0.0000 -8.3126 0.0000
# 2 29.8176 48.6210 10.2977 0.0000 -0.1438 0.0000
# 3 10.5387 10.2977 41.1461 0.0000 4.2217 0.0000
# 4 0.0000 0.0000 0.0000 12.0271 0.0000 -5.2539
# 5 -8.3126 -0.1438 4.2217 0.0000 19.6281 0.0000
# 6 0.0000 0.0000 0.0000 -5.2539 0.0000 36.9427
#
#
#
# Elastic Compliance Matrix: (Units=1/GPa)
#
#
# Indices 1 2 3 4 5 6 
#
# 1 0.017127 -0.009908 -0.002704 0.000000 0.007762 0.000000
# 2 -0.009908 0.027486 -0.004020 0.000000 -0.003130 0.000000
# 3 -0.002704 -0.004020 0.026712 0.000000 -0.006920 0.000000
# 4 0.000000 0.000000 0.000000 0.088653 0.000000 0.012608
# 5 0.007762 -0.003130 -0.006920 0.000000 0.055700 0.000000
# 6 0.000000 0.000000 0.000000 0.012608 0.000000 0.028862
#
#
# Mechanical properties :
#
#
# Convention : Reuss Voigt Hill
#
# Bulk Modulus (GPa) = 26.27292 30.23806 28.25549
# Shear Modulus (GPa) = 17.21229 21.73163 19.47196
#
# Velocity S-wave (km/s) = 2.96958 3.33674 3.15850
# Velocity P-wave (km/s) = 5.02179 5.50791 5.27046
#
# Compressibility (1/GPa) = 0.03806200
#
# Stress axis : x y z
#
# Youngs Moduli (GPa) = 58.38708 36.38268 37.43614
#
# Poissons Ratio (x) = 0.36048 0.10121
# Poissons Ratio (y) = 0.57849 0.15049
# Poissons Ratio (z) = 0.15785 0.14626
#
# Static dielectric constant tensor:
#      x y z
#    x 1.712620 0.000000 0.011340 
#    y 0.000000 1.684150 0.000000 
#    z 0.011340 0.000000 1.704990 
# 
# From -- ./inp_files/33798.got.cif
#   From: 2010.05.17/outbox.cif.g08.bks.cpg/sg14_17_cif.got.tgz:33798.got - 2010.06.03 17:49:19.
