data_PCOD9241718
_publ_section_title
;
Structure prediction by ZEFSAII (Michael W. Deem and Ramdas Pophale) SiO2 
 PCOD9241718
Probable space group: P 21/C
;
_chemical_formula_sum "Si O2"
_cell_formula_units_Z 24
_cell_length_a 11.610556
_cell_length_b 12.294778
_cell_length_c 15.733620
_cell_angle_alpha 90.000000
_cell_angle_beta 32.686371
_cell_angle_gamma 90.000000
_cell_volume 1212.909513
_symmetry_space_group_name_H-M "P 21/C"
_symmetry_group_IT_number 14
_symmetry_cell_setting 'monoclinic'
loop_
_space_group_symop_operation_xyz
x,y,z
-x,1/2+y,1/2-z
-x,-y,-z
x,1/2-y,1/2+z
loop_
_atom_site_type_symbol
_atom_site_label
_atom_site_fract_x
_atom_site_fract_y
_atom_site_fract_z
Si Si1 0.112971 0.048261 0.012804
Si Si2 0.710077 0.712723 0.726948
Si Si3 0.607291 0.341805 0.662125
Si Si4 0.896481 0.343628 0.046447
Si Si5 0.749976 0.972013 0.342824
Si Si6 0.180960 0.439828 0.004529
O O1 0.919320 0.059456 0.199541
O O2 0.235968 0.151419 0.896690
O O3 0.271225 0.950864 0.942350
O O4 0.000000 0.000000 0.000000
O O5 0.478591 0.765899 0.860876
O O6 0.750399 0.629111 0.777412
O O7 0.878776 0.808859 0.634324
O O8 0.754157 0.264153 0.628816
O O9 0.397402 0.378251 0.843495
O O10 0.971913 0.384997 0.091969
O O11 0.801357 0.442294 0.051570
O O12 0.500000 0.000000 0.500000
O O13 0.825015 0.946193 0.390991
#
# Coordination Sequence:
#
# PCOD9241718 Si02
#       6
#     4   4   4   4   4   4
#     4  10  19  37  60  83 121 158 202 245 297 359
#     4  10  22  39  63  89 117 167 203 246 310 373
#     4  11  19  38  64  86 116 168 202 242 304 373
#     4  10  20  41  62  83 125 163 206 243 312 368
#     4  11  21  38  59  90 124 155 202 258 298 350
#     4  10  23  38  61  91 122 160 204 262 302 354
#
# _framework density 19.787130999999999
#
# number of rings (size 3 to 8) (size 9 to 14) (size 15 to 20)
#    0.000    1.667    3.333    4.000    0.000    0.000 
#    9.000    0.000    0.000    4.000    0.000    0.000 
#    0.000    0.000    0.000    0.000    0.000    0.000 
#
# Total GULP energy -133745.204181 kJ/mol
# GULP energy per Si atom -5572.716841 kJ/mol
# Density = 1.974209 g / cm^3
# Si number density = 19.787131 Si / 1000 Ang^3
#
#
#
# Elastic Constant Matrix: (Units=GPa)
#
#
# Indices 1 2 3 4 5 6 
#
# 1 99.4484 30.2444 38.5123 0.0000 7.2060 0.0000
# 2 30.2444 77.9506 15.5280 0.0000 -6.6019 0.0000
# 3 38.5123 15.5280 69.3941 0.0000 5.0275 0.0000
# 4 0.0000 0.0000 0.0000 30.0862 0.0000 -21.2415
# 5 7.2060 -6.6019 5.0275 0.0000 33.0079 0.0000
# 6 0.0000 0.0000 0.0000 -21.2415 0.0000 40.2120
#
#
#
# Elastic Compliance Matrix: (Units=1/GPa)
#
#
# Indices 1 2 3 4 5 6 
#
# 1 0.014204 -0.004433 -0.006676 0.000000 -0.002971 0.000000
# 2 -0.004433 0.015149 -0.001233 0.000000 0.004185 0.000000
# 3 -0.006676 -0.001233 0.018508 0.000000 -0.001608 0.000000
# 4 0.000000 0.000000 0.000000 0.053007 0.000000 0.028000
# 5 -0.002971 0.004185 -0.001608 0.000000 0.032026 0.000000
# 6 0.000000 0.000000 0.000000 0.028000 0.000000 0.039659
#
#
# Mechanical properties :
#
#
# Convention : Reuss Voigt Hill
#
# Bulk Modulus (GPa) = 43.14537 46.15138 44.64838
# Shear Modulus (GPa) = 24.39485 31.49512 27.94499
#
# Velocity S-wave (km/s) = 3.51503 3.99394 3.76211
# Velocity P-wave (km/s) = 6.19080 6.68156 6.44086
#
# Compressibility (1/GPa) = 0.02317746
#
# Stress axis : x y z
#
# Youngs Moduli (GPa) = 70.40196 66.01264 54.03132
#
# Poissons Ratio (x) = 0.29263 0.36071
# Poissons Ratio (y) = 0.31208 0.06661
# Poissons Ratio (z) = 0.46999 0.08138
#
# Static dielectric constant tensor:
#      x y z
#    x 1.725720 0.000000 -0.024000 
#    y 0.000000 1.773670 0.000000 
#    z -0.024000 0.000000 1.720860 
# 
# From -- ./inp_files/44263.got.cif
#   From: 2010.05.17/outbox.cif.g08.bks.cpg/sg14_23_cif.got.tgz:44263.got - 2010.06.03 17:49:19.
