data_PCOD9241133
_publ_section_title
;
Structure prediction by ZEFSAII (Michael W. Deem and Ramdas Pophale) SiO2 
 PCOD9241133
Probable space group: P 21/C
;
_chemical_formula_sum "Si O2"
_cell_formula_units_Z 22
_cell_length_a 11.331268
_cell_length_b 7.536874
_cell_length_c 9.495210
_cell_angle_alpha 90.000000
_cell_angle_beta 69.962350
_cell_angle_gamma 90.000000
_cell_volume 761.826684
_symmetry_space_group_name_H-M "P 21/C"
_symmetry_group_IT_number 14
_symmetry_cell_setting 'monoclinic'
loop_
_space_group_symop_operation_xyz
x,y,z
-x,1/2+y,1/2-z
-x,-y,-z
x,1/2-y,1/2+z
loop_
_atom_site_type_symbol
_atom_site_label
_atom_site_fract_x
_atom_site_fract_y
_atom_site_fract_z
Si Si1 0.990406 0.870066 0.685614
Si Si2 0.566043 0.791400 0.933497
Si Si3 0.203567 0.384504 0.505066
Si Si4 0.506126 0.978452 0.696796
Si Si5 0.789336 0.016427 0.572867
Si Si6 0.000000 0.500000 0.500000
O O1 0.971740 0.679472 0.621559
O O2 0.942481 0.870056 0.868230
O O3 0.896280 0.015747 0.651354
O O4 0.132488 0.922875 0.595234
O O5 0.694618 0.893014 0.915416
O O6 0.486972 0.919184 0.864511
O O7 0.591245 0.619680 0.823244
O O8 0.507024 0.691072 0.091682
O O9 0.233228 0.194766 0.432385
O O10 0.160536 0.547101 0.430866
O O11 0.644385 0.073030 0.636041
#
# Coordination Sequence:
#
# PCOD9241133 Si02
#       6
#     4   4   4   4   4   2
#     4   9  19  32  57  89 126 161 204 266 327 409
#     4  10  21  39  67  95 131 178 235 277 340 396
#     4   9  19  33  60  90 127 167 208 265 333 406
#     4  10  21  39  66  96 132 184 230 285 331 400
#     4  10  19  34  60  88 132 166 213 271 334 395
#     4   8  18  30  54  92 120 164 214 250 332 406
#
# _framework density 28.877959000000001
#
# number of rings (size 3 to 8) (size 9 to 14) (size 15 to 20)
#    1.091    1.455    1.818    0.000    2.545    2.182 
#    0.000    0.000   24.000    6.545    0.000    0.000 
#    0.000    0.000    0.000    0.000    0.000    0.000 
#
# Total GULP energy -122607.854591 kJ/mol
# GULP energy per Si atom -5573.084300 kJ/mol
# Density = 2.881223 g / cm^3
# Si number density = 28.877959 Si / 1000 Ang^3
#
#
#
# Elastic Constant Matrix: (Units=GPa)
#
#
# Indices 1 2 3 4 5 6 
#
# 1 146.7881 64.1060 63.2394 0.0000 9.6518 0.0000
# 2 64.1060 74.4348 23.7741 0.0000 -12.9300 0.0000
# 3 63.2394 23.7741 171.8634 0.0000 5.8776 0.0000
# 4 0.0000 0.0000 0.0000 50.4186 0.0000 -2.4221
# 5 9.6518 -12.9300 5.8776 0.0000 57.9296 0.0000
# 6 0.0000 0.0000 0.0000 -2.4221 0.0000 58.3606
#
#
#
# Elastic Compliance Matrix: (Units=1/GPa)
#
#
# Indices 1 2 3 4 5 6 
#
# 1 0.013433 -0.011309 -0.003227 0.000000 -0.004435 0.000000
# 2 -0.011309 0.024254 0.000559 0.000000 0.007241 0.000000
# 3 -0.003227 0.000559 0.006930 0.000000 -0.000041 0.000000
# 4 0.000000 0.000000 0.000000 0.019874 0.000000 0.000825
# 5 -0.004435 0.007241 -0.000041 0.000000 0.019622 0.000000
# 6 0.000000 0.000000 0.000000 0.000825 0.000000 0.017169
#
#
# Mechanical properties :
#
#
# Convention : Reuss Voigt Hill
#
# Bulk Modulus (GPa) = 60.01489 77.25837 68.63663
# Shear Modulus (GPa) = 37.09472 49.47290 43.28381
#
# Velocity S-wave (km/s) = 3.58793 4.14354 3.87570
# Velocity P-wave (km/s) = 6.16374 7.05006 6.62175
#
# Compressibility (1/GPa) = 0.01666253
#
# Stress axis : x y z
#
# Youngs Moduli (GPa) = 74.44194 41.23076 144.29851
#
# Poissons Ratio (x) = 0.46628 0.46564
# Poissons Ratio (y) = 0.84186 -0.08061
# Poissons Ratio (z) = 0.24022 -0.02303
#
# Static dielectric constant tensor:
#      x y z
#    x 2.504930 0.000000 0.119960 
#    y 0.000000 2.223650 0.000000 
#    z 0.119960 0.000000 2.462940 
# 
# From -- ./inp_files/27789.got.cif
#   From: 2010.05.17/outbox.cif.g08.bks.cpg/sg14_14_cif.got.tgz:27789.got - 2010.06.03 17:49:19.
