data_PCOD9241003
_publ_section_title
;
Structure prediction by ZEFSAII (Michael W. Deem and Ramdas Pophale) SiO2 
 PCOD9241003
Probable space group: P 21/C
;
_chemical_formula_sum "Si O2"
_cell_formula_units_Z 24
_cell_length_a 16.368176
_cell_length_b 5.205874
_cell_length_c 21.238298
_cell_angle_alpha 90.000000
_cell_angle_beta 152.091845
_cell_angle_gamma 90.000000
_cell_volume 847.053989
_symmetry_space_group_name_H-M "P 21/C"
_symmetry_group_IT_number 14
_symmetry_cell_setting 'monoclinic'
loop_
_space_group_symop_operation_xyz
x,y,z
-x,1/2+y,1/2-z
-x,-y,-z
x,1/2-y,1/2+z
loop_
_atom_site_type_symbol
_atom_site_label
_atom_site_fract_x
_atom_site_fract_y
_atom_site_fract_z
Si Si1 0.609432 0.998033 0.171329
Si Si2 0.050925 0.159188 0.640694
Si Si3 0.897319 0.638077 0.486760
Si Si4 0.174247 0.507708 0.913971
Si Si5 0.656696 0.189935 0.590427
Si Si6 0.349401 0.008934 0.091107
O O1 0.765404 0.798087 0.269750
O O2 0.702998 0.209472 0.191098
O O3 0.545295 0.050713 0.197266
O O4 0.438630 0.910942 0.016154
O O5 0.972131 0.442790 0.590713
O O6 0.020373 0.051171 0.690951
O O7 0.945439 0.936664 0.529754
O O8 0.000000 0.500000 0.500000
O O9 0.694167 0.580083 0.365858
O O10 0.246081 0.231941 0.982337
O O11 0.293352 0.721178 0.031932
O O12 0.206745 0.559443 0.863018
O O13 0.500000 0.000000 0.500000
#
# Coordination Sequence:
#
# PCOD9241003 Si02
#       6
#     4   4   4   4   4   4
#     4  10  21  35  53  85 110 151 183 232 267 317
#     4  10  22  37  58  84 113 139 185 237 277 321
#     4  10  21  40  61  81 107 146 183 228 288 348
#     4   9  18  35  51  78 107 150 179 218 271 322
#     4  10  19  34  55  74 115 151 189 210 263 333
#     4   9  18  34  57  75 110 144 178 217 284 332
#
# _framework density 28.333493000000001
#
# number of rings (size 3 to 8) (size 9 to 14) (size 15 to 20)
#    0.000    2.333    1.667    0.500    2.333    0.000 
#    3.000    1.667    0.000    0.000    0.000    0.000 
#    0.000    0.000    0.000    0.000    0.000    0.000 
#
# Total GULP energy -133889.440403 kJ/mol
# GULP energy per Si atom -5578.726683 kJ/mol
# Density = 2.826900 g / cm^3
# Si number density = 28.333493 Si / 1000 Ang^3
#
#
#
# Elastic Constant Matrix: (Units=GPa)
#
#
# Indices 1 2 3 4 5 6 
#
# 1 213.0284 37.8302 51.6151 0.0000 81.1701 0.0000
# 2 37.8302 172.5768 25.5545 0.0000 -6.5156 0.0000
# 3 51.6151 25.5545 72.9673 0.0000 28.2002 0.0000
# 4 0.0000 0.0000 0.0000 54.0035 0.0000 -1.0853
# 5 81.1701 -6.5156 28.2002 0.0000 63.3463 0.0000
# 6 0.0000 0.0000 0.0000 -1.0853 0.0000 49.8946
#
#
#
# Elastic Compliance Matrix: (Units=1/GPa)
#
#
# Indices 1 2 3 4 5 6 
#
# 1 0.010470 -0.002569 -0.001473 0.000000 -0.013024 0.000000
# 2 -0.002569 0.006939 -0.002610 0.000000 0.005167 0.000000
# 3 -0.001473 -0.002610 0.018159 0.000000 -0.006465 0.000000
# 4 0.000000 0.000000 0.000000 0.018525 0.000000 0.000403
# 5 -0.013024 0.005167 -0.006465 0.000000 0.035885 0.000000
# 6 0.000000 0.000000 0.000000 0.000403 0.000000 0.020051
#
#
# Mechanical properties :
#
#
# Convention : Reuss Voigt Hill
#
# Bulk Modulus (GPa) = 44.91366 76.50800 60.71083
# Shear Modulus (GPa) = 38.23939 56.35373 47.29656
#
# Velocity S-wave (km/s) = 3.67770 4.46460 4.09012
# Velocity P-wave (km/s) = 5.82410 7.32380 6.61658
#
# Compressibility (1/GPa) = 0.02226494
#
# Stress axis : x y z
#
# Youngs Moduli (GPa) = 95.51190 144.10895 55.06762
#
# Poissons Ratio (x) = 0.37017 0.08111
# Poissons Ratio (y) = 0.24534 0.14374
# Poissons Ratio (z) = 0.14068 0.37615
#
# Static dielectric constant tensor:
#      x y z
#    x 2.634130 0.000000 -0.446890 
#    y 0.000000 2.602970 0.000000 
#    z -0.446890 0.000000 3.439580 
# 
# From -- ./inp_files/45794.got.cif
#   From: 2010.05.17/outbox.cif.g08.bks.cpg/sg14_23_cif.got.tgz:45794.got - 2010.06.03 17:49:19.
