data_PCOD9241256
_publ_section_title
;
Structure prediction by ZEFSAII (Michael W. Deem and Ramdas Pophale) SiO2 
 PCOD9241256
Probable space group: P 21/C
;
_chemical_formula_sum "Si O2"
_cell_formula_units_Z 28
_cell_length_a 12.946711
_cell_length_b 15.798786
_cell_length_c 9.217344
_cell_angle_alpha 90.000000
_cell_angle_beta 46.904082
_cell_angle_gamma 90.000000
_cell_volume 1376.693652
_symmetry_space_group_name_H-M "P 21/C"
_symmetry_group_IT_number 14
_symmetry_cell_setting 'monoclinic'
loop_
_space_group_symop_operation_xyz
x,y,z
-x,1/2+y,1/2-z
-x,-y,-z
x,1/2-y,1/2+z
loop_
_atom_site_type_symbol
_atom_site_label
_atom_site_fract_x
_atom_site_fract_y
_atom_site_fract_z
Si Si1 0.039759 0.847387 0.757400
Si Si2 0.004418 0.315310 0.357885
Si Si3 0.625947 0.185023 0.563105
Si Si4 0.633086 0.053220 0.328064
Si Si5 0.710268 0.133509 0.983965
Si Si6 0.615952 0.448466 0.297080
Si Si7 0.160716 0.482694 0.138858
O O1 0.962626 0.780177 0.727014
O O2 0.206641 0.830422 0.570600
O O3 0.033759 0.948686 0.735798
O O4 0.009473 0.824077 0.954616
O O5 0.856881 0.340986 0.420305
O O6 0.111369 0.387200 0.201326
O O7 0.607208 0.146147 0.421477
O O8 0.608090 0.284646 0.585655
O O9 0.552585 0.124158 0.750844
O O10 0.648999 0.060220 0.143165
O O11 0.500000 0.000000 0.500000
O O12 0.768905 0.013757 0.277239
O O13 0.716006 0.100927 0.815665
O O14 0.500000 0.500000 0.500000
O O15 0.717043 0.505432 0.098655
#
# Coordination Sequence:
#
# PCOD9241256 Si02
#       7
#     4   4   4   4   4   4   4
#     4   9  20  35  58  89 115 150 194 234 294 352
#     4  11  21  37  62  86 118 153 189 251 291 355
#     4   9  19  33  55  87 109 142 193 245 286 331
#     4  10  19  35  58  80 110 153 196 235 287 350
#     4  11  19  32  60  85 108 145 197 245 289 335
#     4  10  21  37  57  82 118 149 196 244 284 344
#     4  10  22  39  59  86 121 157 195 241 301 352
#
# _framework density 20.338583
#
# number of rings (size 3 to 8) (size 9 to 14) (size 15 to 20)
#    0.000    2.286    2.857    3.000   10.000    0.571 
#    0.000    0.000   12.571    0.000    0.000    0.000 
#    0.000    0.000    0.000    0.000    0.000    0.000 
#
# Total GULP energy -156040.539263 kJ/mol
# GULP energy per Si atom -5572.876402 kJ/mol
# Density = 2.029229 g / cm^3
# Si number density = 20.338583 Si / 1000 Ang^3
#
#
#
# Elastic Constant Matrix: (Units=GPa)
#
#
# Indices 1 2 3 4 5 6 
#
# 1 17.1541 10.4439 16.8354 0.0000 10.4398 0.0000
# 2 10.4439 84.7232 33.6490 0.0000 -10.3260 0.0000
# 3 16.8354 33.6490 100.3173 0.0000 19.8046 0.0000
# 4 0.0000 0.0000 0.0000 26.4828 0.0000 2.8907
# 5 10.4398 -10.3260 19.8046 0.0000 22.2058 0.0000
# 6 0.0000 0.0000 0.0000 2.8907 0.0000 21.7198
#
#
#
# Elastic Compliance Matrix: (Units=1/GPa)
#
#
# Indices 1 2 3 4 5 6 
#
# 1 0.107413 -0.021217 0.001223 0.000000 -0.061456 0.000000
# 2 -0.021217 0.021522 -0.009228 0.000000 0.028214 0.000000
# 3 0.001223 -0.009228 0.016772 0.000000 -0.019825 0.000000
# 4 0.000000 0.000000 0.000000 0.038317 0.000000 -0.005100
# 5 -0.061456 0.028214 -0.019825 0.000000 0.104727 0.000000
# 6 0.000000 0.000000 0.000000 -0.005100 0.000000 0.046720
#
#
# Mechanical properties :
#
#
# Convention : Reuss Voigt Hill
#
# Bulk Modulus (GPa) = 11.45954 36.00569 23.73261
# Shear Modulus (GPa) = 11.82022 23.49943 17.65983
#
# Velocity S-wave (km/s) = 2.41337 3.40282 2.94988
# Velocity P-wave (km/s) = 3.66229 5.76025 4.82664
#
# Compressibility (1/GPa) = 0.08726354
#
# Stress axis : x y z
#
# Youngs Moduli (GPa) = 9.30983 46.46322 59.62166
#
# Poissons Ratio (x) = 0.98580 -0.07291
# Poissons Ratio (y) = 0.19753 0.55021
# Poissons Ratio (z) = -0.01139 0.42878
#
# Static dielectric constant tensor:
#      x y z
#    x 1.742810 0.000000 -0.002350 
#    y 0.000000 1.847570 0.000000 
#    z -0.002350 0.000000 1.719880 
# 
# From -- ./inp_files/9471.got.cif
#   From: 2010.05.17/outbox.cif.g08.bks.cpg/sg14_5_cif.got.tgz:9471.got - 2010.06.03 17:49:19.
