data_PCOD9241051
_publ_section_title
;
Structure prediction by ZEFSAII (Michael W. Deem and Ramdas Pophale) SiO2 
 PCOD9241051
Probable space group: P 21/C
;
_chemical_formula_sum "Si O2"
_cell_formula_units_Z 28
_cell_length_a 12.660864
_cell_length_b 16.555457
_cell_length_c 15.939684
_cell_angle_alpha 90.000000
_cell_angle_beta 22.815476
_cell_angle_gamma 90.000000
_cell_volume 1295.544558
_symmetry_space_group_name_H-M "P 21/C"
_symmetry_group_IT_number 14
_symmetry_cell_setting 'monoclinic'
loop_
_space_group_symop_operation_xyz
x,y,z
-x,1/2+y,1/2-z
-x,-y,-z
x,1/2-y,1/2+z
loop_
_atom_site_type_symbol
_atom_site_label
_atom_site_fract_x
_atom_site_fract_y
_atom_site_fract_z
Si Si1 0.961847 0.638875 0.919842
Si Si2 0.817639 0.873051 0.973116
Si Si3 0.184075 0.522621 0.639588
Si Si4 0.785295 0.911166 0.717769
Si Si5 0.864138 0.761510 0.773770
Si Si6 0.307103 0.789517 0.702662
Si Si7 0.428033 0.753770 0.803844
O O1 0.967168 0.584738 0.000312
O O2 0.690079 0.691493 0.128369
O O3 0.970452 0.590349 0.826477
O O4 0.212242 0.701067 0.739520
O O5 0.834802 0.964010 0.926553
O O6 0.817446 0.814633 0.891438
O O7 0.082724 0.851052 0.833217
O O8 0.542919 0.838850 0.218992
O O9 0.166928 0.464695 0.734195
O O10 0.477265 0.565222 0.420011
O O11 0.832301 0.820828 0.717809
O O12 0.175207 0.734058 0.549930
O O13 0.619067 0.698027 0.946905
O O14 0.312293 0.781279 0.798708
#
# Coordination Sequence:
#
# PCOD9241051 Si02
#       7
#     4   4   4   4   4   4   4
#     4  11  21  35  58  83 115 150 187 236 283 338
#     4   9  22  36  56  81 115 147 189 234 283 339
#     4  10  21  37  55  87 115 147 185 230 293 340
#     4  10  20  32  59  83 113 143 179 234 289 333
#     4  10  19  34  56  83 110 144 188 231 287 335
#     4  10  20  37  57  81 112 151 190 238 278 333
#     4  10  22  35  56  85 112 147 196 234 281 335
#
# _framework density 21.612534
#
# number of rings (size 3 to 8) (size 9 to 14) (size 15 to 20)
#    0.000    2.000    2.857    0.429    4.000    3.429 
#    0.000    0.714    0.000    1.714    0.000    0.000 
#    0.000    0.000    0.000    0.000    0.000    0.000 
#
# Total GULP energy -156192.128421 kJ/mol
# GULP energy per Si atom -5578.290301 kJ/mol
# Density = 2.156334 g / cm^3
# Si number density = 21.612534 Si / 1000 Ang^3
#
#
#
# Elastic Constant Matrix: (Units=GPa)
#
#
# Indices 1 2 3 4 5 6 
#
# 1 52.6887 7.7174 0.8760 0.0000 -6.8204 0.0000
# 2 7.7174 40.9864 14.1219 0.0000 2.5705 0.0000
# 3 0.8760 14.1219 100.7043 0.0000 -12.6726 0.0000
# 4 0.0000 0.0000 0.0000 15.6228 0.0000 6.6677
# 5 -6.8204 2.5705 -12.6726 0.0000 26.9810 0.0000
# 6 0.0000 0.0000 0.0000 6.6677 0.0000 26.4995
#
#
#
# Elastic Compliance Matrix: (Units=1/GPa)
#
#
# Indices 1 2 3 4 5 6 
#
# 1 0.020446 -0.004672 0.001258 0.000000 0.006205 0.000000
# 2 -0.004672 0.027204 -0.004516 0.000000 -0.005894 0.000000
# 3 0.001258 -0.004516 0.011315 0.000000 0.006063 0.000000
# 4 0.000000 0.000000 0.000000 0.071710 0.000000 -0.018043
# 5 0.006205 -0.005894 0.006063 0.000000 0.042041 0.000000
# 6 0.000000 0.000000 0.000000 -0.018043 0.000000 0.042277
#
#
# Mechanical properties :
#
#
# Convention : Reuss Voigt Hill
#
# Bulk Modulus (GPa) = 23.19929 26.64556 24.92243
# Shear Modulus (GPa) = 20.38982 25.26493 22.82737
#
# Velocity S-wave (km/s) = 3.07486 3.42276 3.25346
# Velocity P-wave (km/s) = 4.83361 5.28923 5.06654
#
# Compressibility (1/GPa) = 0.04310477
#
# Stress axis : x y z
#
# Youngs Moduli (GPa) = 48.90925 36.75977 88.37566
#
# Poissons Ratio (x) = 0.17176 -0.11119
# Poissons Ratio (y) = 0.22852 0.39909
# Poissons Ratio (z) = -0.06153 0.16600
#
# Static dielectric constant tensor:
#      x y z
#    x 1.790720 0.000000 0.019140 
#    y 0.000000 1.872680 0.000000 
#    z 0.019140 0.000000 1.827120 
# 
# From -- ./inp_files/59683.got.cif
#   From: 2010.05.17/outbox.cif.g08.bks.cpg/sg14_30_cif.got.tgz:59683.got - 2010.06.03 17:49:19.
