data_PCOD9241615
_publ_section_title
;
Structure prediction by ZEFSAII (Michael W. Deem and Ramdas Pophale) SiO2 
 PCOD9241615
Probable space group: P 21/C
;
_chemical_formula_sum "Si O2"
_cell_formula_units_Z 32
_cell_length_a 10.998785
_cell_length_b 14.763806
_cell_length_c 14.074381
_cell_angle_alpha 90.000000
_cell_angle_beta 135.846026
_cell_angle_gamma 90.000000
_cell_volume 1592.021562
_symmetry_space_group_name_H-M "P 21/C"
_symmetry_group_IT_number 14
_symmetry_cell_setting 'monoclinic'
loop_
_space_group_symop_operation_xyz
x,y,z
-x,1/2+y,1/2-z
-x,-y,-z
x,1/2-y,1/2+z
loop_
_atom_site_type_symbol
_atom_site_label
_atom_site_fract_x
_atom_site_fract_y
_atom_site_fract_z
Si Si1 0.892633 0.613725 0.417296
Si Si2 0.160569 0.744164 0.008996
Si Si3 0.606428 0.215698 0.195886
Si Si4 0.113238 0.801351 0.271810
Si Si5 0.232633 0.265289 0.030007
Si Si6 0.017084 0.492907 0.342907
Si Si7 0.114264 0.413061 0.091114
Si Si8 0.310053 0.975164 0.854457
O O1 0.769888 0.695806 0.381190
O O2 0.897284 0.548882 0.512190
O O3 0.078288 0.663571 0.503911
O O4 0.873620 0.560680 0.307652
O O5 0.165484 0.744827 0.899210
O O6 0.022240 0.664926 0.956202
O O7 0.338301 0.722708 0.162918
O O8 0.727468 0.286924 0.209544
O O9 0.405246 0.239469 0.070147
O O10 0.664940 0.118256 0.188798
O O11 0.068970 0.907205 0.257511
O O12 0.940793 0.756127 0.128369
O O13 0.219209 0.366579 0.063238
O O14 0.164610 0.532567 0.356272
O O15 0.240999 0.446282 0.245505
O O16 0.000000 0.500000 0.000000
O O17 0.500000 0.000000 0.000000
#
# Coordination Sequence:
#
# PCOD9241615 Si02
#       8
#     4   4   4   4   4   4   4   4
#     4   9  19  38  59  88 122 170 207 267 326 382
#     4  11  21  39  67  90 132 177 214 271 343 394
#     4  12  24  43  63  98 134 171 223 277 338 400
#     4  11  21  42  63  92 132 173 218 273 337 402
#     4  10  23  43  64  91 132 172 222 277 328 404
#     4  10  19  36  63  88 125 165 218 261 328 386
#     4  11  21  42  66  91 127 179 216 270 344 392
#     4  12  24  38  65 100 126 168 231 281 323 407
#
# _framework density 20.100231000000001
#
# number of rings (size 3 to 8) (size 9 to 14) (size 15 to 20)
#    0.000    1.250    6.250    2.250    0.000    2.000 
#    4.500    0.000    0.000    1.500    0.000    0.000 
#    0.000    0.000    0.000    0.000    0.000    0.000 
#
# Total GULP energy -178508.890074 kJ/mol
# GULP energy per Si atom -5578.402815 kJ/mol
# Density = 2.005448 g / cm^3
# Si number density = 20.100231 Si / 1000 Ang^3
#
#
#
# Elastic Constant Matrix: (Units=GPa)
#
#
# Indices 1 2 3 4 5 6 
#
# 1 110.3518 25.5992 39.4989 0.0000 -0.7406 0.0000
# 2 25.5992 87.6304 13.5236 0.0000 -3.3423 0.0000
# 3 39.4989 13.5236 73.9847 0.0000 -5.1911 0.0000
# 4 0.0000 0.0000 0.0000 17.3887 0.0000 -2.0110
# 5 -0.7406 -3.3423 -5.1911 0.0000 30.3855 0.0000
# 6 0.0000 0.0000 0.0000 -2.0110 0.0000 33.1577
#
#
#
# Elastic Compliance Matrix: (Units=1/GPa)
#
#
# Indices 1 2 3 4 5 6 
#
# 1 0.011754 -0.002565 -0.005876 0.000000 -0.001000 0.000000
# 2 -0.002565 0.012329 -0.000803 0.000000 0.001156 0.000000
# 3 -0.005876 -0.000803 0.016988 0.000000 0.002671 0.000000
# 4 0.000000 0.000000 0.000000 0.057915 0.000000 0.003513
# 5 -0.001000 0.001156 0.002671 0.000000 0.033470 0.000000
# 6 0.000000 0.000000 0.000000 0.003513 0.000000 0.030372
#
#
# Mechanical properties :
#
#
# Convention : Reuss Voigt Hill
#
# Bulk Modulus (GPa) = 44.28371 47.69002 45.98686
# Shear Modulus (GPa) = 26.47713 29.07605 27.77659
#
# Velocity S-wave (km/s) = 3.63334 3.80748 3.72143
# Velocity P-wave (km/s) = 6.29927 6.56558 6.43380
#
# Compressibility (1/GPa) = 0.02258167
#
# Stress axis : x y z
#
# Youngs Moduli (GPa) = 85.08084 81.11044 58.86603
#
# Poissons Ratio (x) = 0.20803 0.34591
# Poissons Ratio (y) = 0.21821 0.04728
# Poissons Ratio (z) = 0.49996 0.06514
#
# Static dielectric constant tensor:
#      x y z
#    x 1.740890 0.000000 -0.055900 
#    y 0.000000 1.780080 0.000000 
#    z -0.055900 0.000000 1.739620 
# 
# From -- ./inp_files/45095.got.cif
#   From: 2010.05.17/outbox.cif.g08.bks.cpg/sg14_23_cif.got.tgz:45095.got - 2010.06.03 17:49:19.
