data_PCOD9241454
_publ_section_title
;
Structure prediction by ZEFSAII (Michael W. Deem and Ramdas Pophale) SiO2 
 PCOD9241454
Probable space group: P 21/C
;
_chemical_formula_sum "Si O2"
_cell_formula_units_Z 32
_cell_length_a 18.105746
_cell_length_b 6.382304
_cell_length_c 11.689993
_cell_angle_alpha 90.000000
_cell_angle_beta 101.373638
_cell_angle_gamma 90.000000
_cell_volume 1324.325179
_symmetry_space_group_name_H-M "P 21/C"
_symmetry_group_IT_number 14
_symmetry_cell_setting 'monoclinic'
loop_
_space_group_symop_operation_xyz
x,y,z
-x,1/2+y,1/2-z
-x,-y,-z
x,1/2-y,1/2+z
loop_
_atom_site_type_symbol
_atom_site_label
_atom_site_fract_x
_atom_site_fract_y
_atom_site_fract_z
Si Si1 0.678959 0.814056 0.872103
Si Si2 0.178959 0.185943 0.872103
Si Si3 0.441456 0.043446 0.583222
Si Si4 0.941456 0.543447 0.083222
Si Si5 0.301726 0.944014 0.803969
Si Si6 0.420709 0.690572 0.744321
Si Si7 0.198274 0.944014 0.196031
Si Si8 0.079291 0.690572 0.255679
O O1 0.627886 0.703627 0.955620
O O2 0.693866 0.614307 0.795185
O O3 0.758843 0.939072 0.893095
O O4 0.624614 0.977692 0.790072
O O5 0.127886 0.296372 0.955620
O O6 0.193866 0.385692 0.795185
O O7 0.258843 0.060927 0.893095
O O8 0.124614 0.022308 0.790072
O O9 0.493941 0.141809 0.698635
O O10 0.500000 0.000000 0.500000
O O11 0.413337 0.824295 0.626189
O O12 0.913337 0.324295 0.126189
O O13 0.993941 0.641809 0.198635
O O14 0.000000 0.500000 0.000000
O O15 0.383103 0.832737 0.833261
O O16 0.250000 0.750000 0.750000
O O17 0.116897 0.832737 0.166739
#
# Coordination Sequence:
#
# PCOD9241454 Si02
#       8
#     4   4   4   4   4   4   4   4
#     4   9  17  34  56  83 115 153 194 241 303 348
#     4   9  17  34  56  83 115 153 194 241 303 348
#     4  11  22  35  58  89 121 154 198 246 301 366
#     4  11  22  35  58  89 121 154 198 246 301 366
#     4   8  16  31  60  81 107 158 198 241 298 348
#     4  10  19  36  57  85 117 155 195 246 302 351
#     4   8  16  31  60  81 107 158 198 241 298 348
#     4  10  19  36  57  85 117 155 195 246 302 351
#
# _framework density 24.163250000000001
#
# number of rings (size 3 to 8) (size 9 to 14) (size 15 to 20)
#    0.000    2.500    2.500    0.000    0.000    1.000 
#    0.000    0.000    0.000   69.000    0.000    0.000 
#    0.000    0.000    0.000    0.000    0.000    0.000 
#
# Total GULP energy -178332.429194 kJ/mol
# GULP energy per Si atom -5572.888412 kJ/mol
# Density = 2.410825 g / cm^3
# Si number density = 24.163250 Si / 1000 Ang^3
#
#
#
# Elastic Constant Matrix: (Units=GPa)
#
#
# Indices 1 2 3 4 5 6 
#
# 1 102.9251 63.9934 25.2429 0.0000 -30.0123 0.0000
# 2 63.9934 167.7433 35.5856 0.0000 -23.9755 0.0000
# 3 25.2429 35.5856 68.6924 0.0000 -43.2590 0.0000
# 4 0.0000 0.0000 0.0000 14.9533 0.0000 -20.5642
# 5 -30.0123 -23.9755 -43.2590 0.0000 45.7171 0.0000
# 6 0.0000 0.0000 0.0000 -20.5642 0.0000 79.9010
#
#
#
# Elastic Compliance Matrix: (Units=1/GPa)
#
#
# Indices 1 2 3 4 5 6 
#
# 1 0.015085 -0.005028 0.004051 0.000000 0.011099 0.000000
# 2 -0.005028 0.008379 -0.004465 0.000000 -0.003131 0.000000
# 3 0.004051 -0.004465 0.038559 0.000000 0.036804 0.000000
# 4 0.000000 0.000000 0.000000 0.103512 0.000000 0.026641
# 5 0.011099 -0.003131 0.036804 0.000000 0.062343 0.000000
# 6 0.000000 0.000000 0.000000 0.026641 0.000000 0.019372
#
#
# Mechanical properties :
#
#
# Convention : Reuss Voigt Hill
#
# Bulk Modulus (GPa) = 19.55427 65.44494 42.49960
# Shear Modulus (GPa) = 18.16983 42.41686 30.29334
#
# Velocity S-wave (km/s) = 2.74517 4.19433 3.54460
# Velocity P-wave (km/s) = 4.26123 7.11335 5.86336
#
# Compressibility (1/GPa) = 0.05113974
#
# Stress axis : x y z
#
# Youngs Moduli (GPa) = 66.29209 119.34226 25.93401
#
# Poissons Ratio (x) = 0.60002 -0.10506
# Poissons Ratio (y) = 0.33330 0.11580
# Poissons Ratio (z) = -0.26856 0.53289
#
# Static dielectric constant tensor:
#      x y z
#    x 1.944290 0.000000 -0.059420 
#    y 0.000000 1.908390 0.000000 
#    z -0.059420 0.000000 2.068250 
# 
# From -- ./inp_files/49485.got.cif
#   From: 2010.05.17/outbox.cif.g08.bks.cpg/sg14_25_cif.got.tgz:49485.got - 2010.06.03 17:49:19.
