data_PCOD9241873
_publ_section_title
;
Structure prediction by ZEFSAII (Michael W. Deem and Ramdas Pophale) SiO2 
 PCOD9241873
Probable space group: P 21/C
;
_chemical_formula_sum "Si O2"
_cell_formula_units_Z 30
_cell_length_a 7.855060
_cell_length_b 12.821949
_cell_length_c 14.465847
_cell_angle_alpha 90.000000
_cell_angle_beta 116.845276
_cell_angle_gamma 90.000000
_cell_volume 1299.941701
_symmetry_space_group_name_H-M "P 21/C"
_symmetry_group_IT_number 14
_symmetry_cell_setting 'monoclinic'
loop_
_space_group_symop_operation_xyz
x,y,z
-x,1/2+y,1/2-z
-x,-y,-z
x,1/2-y,1/2+z
loop_
_atom_site_type_symbol
_atom_site_label
_atom_site_fract_x
_atom_site_fract_y
_atom_site_fract_z
Si Si1 0.000000 0.000000 0.000000
Si Si2 0.077299 0.600121 0.320102
Si Si3 0.293325 0.685218 0.614634
Si Si4 0.154961 0.008931 0.395271
Si Si5 0.216569 0.405522 0.105441
Si Si6 0.296409 0.792942 0.426228
Si Si7 0.448390 0.999142 0.813953
Si Si8 0.553880 0.718645 0.337969
O O1 0.958370 0.050034 0.089749
O O2 0.109084 0.890147 0.076888
O O3 0.128669 0.721872 0.341418
O O4 0.267214 0.543701 0.325061
O O5 0.910259 0.576003 0.207349
O O6 0.279146 0.771262 0.530984
O O7 0.454744 0.601397 0.622089
O O8 0.382702 0.743440 0.726814
O O9 0.292978 0.914711 0.403292
O O10 0.974124 0.945839 0.393602
O O11 0.217116 0.077478 0.496869
O O12 0.381544 0.472536 0.194856
O O13 0.263360 0.286740 0.140189
O O14 0.482893 0.745852 0.423239
O O15 0.594910 0.903588 0.845178
#
# Coordination Sequence:
#
# PCOD9241873 Si02
#       8
#     2   4   4   4   4   4   4   4
#     4  10  20  34  54  78 106 138 178 226 264 314
#     4   9  20  36  55  80 108 144 182 221 274 321
#     4  10  21  37  56  82 110 142 184 224 273 326
#     4  10  19  38  57  79 114 141 177 227 271 324
#     4   9  20  36  59  82 106 147 182 216 274 328
#     4  10  21  35  55  80 109 142 177 226 276 317
#     4   9  19  38  58  78 112 146 178 225 270 324
#     4  10  20  36  57  82 108 143 185 221 268 325
#
# _framework density 23.077959
#
# number of rings (size 3 to 8) (size 9 to 14) (size 15 to 20)
#    0.000    2.400    0.000    1.600    0.000    8.533 
#    0.000    8.000    0.000    0.000    0.000    0.000 
#    0.000    0.000    0.000    0.000    0.000    0.000 
#
# Total GULP energy -167065.399048 kJ/mol
# GULP energy per Si atom -5568.846635 kJ/mol
# Density = 2.302543 g / cm^3
# Si number density = 23.077959 Si / 1000 Ang^3
#
#
#
# Elastic Constant Matrix: (Units=GPa)
#
#
# Indices 1 2 3 4 5 6 
#
# 1 29.7281 6.0789 8.1325 0.0000 -5.6719 0.0000
# 2 6.0789 45.1410 7.0612 0.0000 -1.0747 0.0000
# 3 8.1325 7.0612 98.1393 0.0000 -17.0454 0.0000
# 4 0.0000 0.0000 0.0000 22.1625 0.0000 -1.0110
# 5 -5.6719 -1.0747 -17.0454 0.0000 18.6483 0.0000
# 6 0.0000 0.0000 0.0000 -1.0110 0.0000 37.6662
#
#
#
# Elastic Compliance Matrix: (Units=1/GPa)
#
#
# Indices 1 2 3 4 5 6 
#
# 1 0.036749 -0.004558 -0.000977 0.000000 0.010022 0.000000
# 2 -0.004558 0.022971 -0.001529 0.000000 -0.001460 0.000000
# 3 -0.000977 -0.001529 0.012260 0.000000 0.010821 0.000000
# 4 0.000000 0.000000 0.000000 0.045177 0.000000 0.001213
# 5 0.010022 -0.001460 0.010821 0.000000 0.066479 0.000000
# 6 0.000000 0.000000 0.000000 0.001213 0.000000 0.026582
#
#
# Mechanical properties :
#
#
# Convention : Reuss Voigt Hill
#
# Bulk Modulus (GPa) = 17.28470 23.95041 20.61755
# Shear Modulus (GPa) = 20.52305 25.81110 23.16708
#
# Velocity S-wave (km/s) = 2.98534 3.34792 3.17181
# Velocity P-wave (km/s) = 4.40329 5.03442 4.72939
#
# Compressibility (1/GPa) = 0.05785464
#
# Stress axis : x y z
#
# Youngs Moduli (GPa) = 27.21130 43.53325 81.56610
#
# Poissons Ratio (x) = 0.19840 0.07967
# Poissons Ratio (y) = 0.12402 0.12469
# Poissons Ratio (z) = 0.02658 0.06655
#
# Static dielectric constant tensor:
#      x y z
#    x 1.812100 0.000000 0.031630 
#    y 0.000000 1.869970 0.000000 
#    z 0.031630 0.000000 1.849370 
# 
# From -- ./inp_files/40369.got.cif
#   From: 2010.05.17/outbox.cif.g08.bks.cpg/sg14_21_cif.got.tgz:40369.got - 2010.06.03 17:49:19.
