data_PCOD9241436
_publ_section_title
;
Structure prediction by ZEFSAII (Michael W. Deem and Ramdas Pophale) SiO2 
 PCOD9241436
Probable space group: P 21/C
;
_chemical_formula_sum "Si O2"
_cell_formula_units_Z 28
_cell_length_a 16.997964
_cell_length_b 14.116212
_cell_length_c 5.566846
_cell_angle_alpha 90.000000
_cell_angle_beta 124.755955
_cell_angle_gamma 90.000000
_cell_volume 1097.433488
_symmetry_space_group_name_H-M "P 21/C"
_symmetry_group_IT_number 14
_symmetry_cell_setting 'monoclinic'
loop_
_space_group_symop_operation_xyz
x,y,z
-x,1/2+y,1/2-z
-x,-y,-z
x,1/2-y,1/2+z
loop_
_atom_site_type_symbol
_atom_site_label
_atom_site_fract_x
_atom_site_fract_y
_atom_site_fract_z
Si Si1 0.088506 0.617708 0.303743
Si Si2 0.879471 0.907250 0.366396
Si Si3 0.806520 0.029225 0.616973
Si Si4 0.257409 0.774090 0.624876
Si Si5 0.442650 0.986195 0.148618
Si Si6 0.698958 0.588322 0.296837
Si Si7 0.482998 0.199622 0.657664
O O1 0.106179 0.518130 0.192762
O O2 0.102479 0.578845 0.598232
O O3 0.163498 0.704747 0.416239
O O4 0.980405 0.644502 0.051004
O O5 0.837160 0.930454 0.553825
O O6 0.797896 0.864775 0.054035
O O7 0.766210 0.115041 0.388233
O O8 0.728880 0.001366 0.685297
O O9 0.304332 0.730427 0.943251
O O10 0.433391 0.874521 0.140204
O O11 0.500000 0.000000 0.500000
O O12 0.351207 0.050059 0.044091
O O13 0.500000 0.000000 0.000000
O O14 0.622348 0.649950 0.019396
O O15 0.487134 0.269388 0.888933
#
# Coordination Sequence:
#
# PCOD9241436 Si02
#       7
#     4   4   4   4   4   4   4
#     4   9  19  35  56  87 123 180 233 277 339 402
#     4  10  19  36  61  89 127 175 232 280 337 410
#     4  10  20  35  62  90 132 181 230 285 342 402
#     4  10  19  36  56  83 119 171 221 277 334 377
#     4  10  22  43  72 100 131 182 230 269 342 439
#     4  10  24  40  67 101 132 178 228 284 345 419
#     4  11  24  45  71 100 139 178 222 284 352 418
#
# _framework density 25.514071999999999
#
# number of rings (size 3 to 8) (size 9 to 14) (size 15 to 20)
#    0.000    2.000    1.429    2.143    6.000    0.000 
#    0.000    7.143    0.000    0.000    0.000    0.000 
#    0.000    0.000    0.000    0.000    0.000    0.000 
#
# Total GULP energy -156213.972481 kJ/mol
# GULP energy per Si atom -5579.070446 kJ/mol
# Density = 2.545600 g / cm^3
# Si number density = 25.514072 Si / 1000 Ang^3
#
#
#
# Elastic Constant Matrix: (Units=GPa)
#
#
# Indices 1 2 3 4 5 6 
#
# 1 67.5134 11.1892 35.4718 0.0000 -1.4618 0.0000
# 2 11.1892 38.0418 -7.0021 0.0000 1.2111 0.0000
# 3 35.4718 -7.0021 81.2748 0.0000 4.0309 0.0000
# 4 0.0000 0.0000 0.0000 45.1481 0.0000 -1.9628
# 5 -1.4618 1.2111 4.0309 0.0000 50.1752 0.0000
# 6 0.0000 0.0000 0.0000 -1.9628 0.0000 40.8392
#
#
#
# Elastic Compliance Matrix: (Units=1/GPa)
#
#
# Indices 1 2 3 4 5 6 
#
# 1 0.021589 -0.008283 -0.010218 0.000000 0.001650 0.000000
# 2 -0.008283 0.029923 0.006266 0.000000 -0.001467 0.000000
# 3 -0.010218 0.006266 0.017395 0.000000 -0.001846 0.000000
# 4 0.000000 0.000000 0.000000 0.022196 0.000000 0.001067
# 5 0.001650 -0.001467 -0.001846 0.000000 0.020162 0.000000
# 6 0.000000 0.000000 0.000000 0.001067 0.000000 0.024538
#
#
# Mechanical properties :
#
#
# Convention : Reuss Voigt Hill
#
# Bulk Modulus (GPa) = 22.50388 29.57198 26.03793
# Shear Modulus (GPa) = 28.55770 37.04391 32.80080
#
# Velocity S-wave (km/s) = 3.34921 3.81452 3.58941
# Velocity P-wave (km/s) = 4.87808 5.56923 5.23507
#
# Compressibility (1/GPa) = 0.04443678
#
# Stress axis : x y z
#
# Youngs Moduli (GPa) = 46.32036 33.41891 57.48860
#
# Poissons Ratio (x) = 0.27681 0.58740
# Poissons Ratio (y) = 0.38368 -0.36021
# Poissons Ratio (z) = 0.47329 -0.20940
#
# Static dielectric constant tensor:
#      x y z
#    x 2.152430 0.000000 -0.026960 
#    y 0.000000 2.068450 0.000000 
#    z -0.026960 0.000000 2.149130 
# 
# From -- ./inp_files/4164.got.cif
#   From: 2010.05.17/outbox.cif.g08.bks.cpg/sg14_3_cif.got.tgz:4164.got - 2010.06.03 17:49:19.
