data_PCOD9241092
_publ_section_title
;
Structure prediction by ZEFSAII (Michael W. Deem and Ramdas Pophale) SiO2 
 PCOD9241092
Probable space group: P 21/C
;
_chemical_formula_sum "Si O2"
_cell_formula_units_Z 24
_cell_length_a 5.248473
_cell_length_b 15.954831
_cell_length_c 10.390114
_cell_angle_alpha 90.000000
_cell_angle_beta 96.116977
_cell_angle_gamma 90.000000
_cell_volume 865.098839
_symmetry_space_group_name_H-M "P 21/C"
_symmetry_group_IT_number 14
_symmetry_cell_setting 'monoclinic'
loop_
_space_group_symop_operation_xyz
x,y,z
-x,1/2+y,1/2-z
-x,-y,-z
x,1/2-y,1/2+z
loop_
_atom_site_type_symbol
_atom_site_label
_atom_site_fract_x
_atom_site_fract_y
_atom_site_fract_z
Si Si1 0.169361 0.433949 0.932591
Si Si2 0.492079 0.551547 0.809438
Si Si3 0.342141 0.900194 0.819733
Si Si4 0.484233 0.728631 0.823755
Si Si5 0.886359 0.592606 0.474566
Si Si6 0.017350 0.762196 0.499086
O O1 0.265085 0.485017 0.814719
O O2 0.411672 0.424119 0.042548
O O3 0.029853 0.345481 0.918188
O O4 0.000000 0.500000 0.000000
O O5 0.685951 0.490748 0.747308
O O6 0.441197 0.641580 0.746637
O O7 0.432464 0.816561 0.748713
O O8 0.582425 0.910249 0.932469
O O9 0.071114 0.880063 0.867266
O O10 0.776948 0.731120 0.886454
O O11 0.283365 0.730472 0.933919
O O12 0.954996 0.673624 0.567064
O O13 0.000000 0.500000 0.500000
#
# Coordination Sequence:
#
# PCOD9241092 Si02
#       6
#     4   4   4   4   4   4
#     4  10  19  34  58  83 113 151 183 231 279 334
#     4  10  21  35  56  85 115 147 190 229 283 338
#     4  10  22  37  59  83 113 149 186 235 279 339
#     4   9  18  35  54  76 111 149 175 225 290 324
#     4  10  21  40  60  80 111 152 190 229 282 334
#     4   9  18  34  56  78 107 146 183 223 282 332
#
# _framework density 27.742495999999999
#
# number of rings (size 3 to 8) (size 9 to 14) (size 15 to 20)
#    0.000    2.333    1.667    0.500    2.333    0.000 
#    3.000    1.667    0.000    0.000    0.000    0.000 
#    0.000    0.000    0.000    0.000    0.000    0.000 
#
# Total GULP energy -133992.718232 kJ/mol
# GULP energy per Si atom -5583.029926 kJ/mol
# Density = 2.767935 g / cm^3
# Si number density = 27.742496 Si / 1000 Ang^3
#
#
#
# Elastic Constant Matrix: (Units=GPa)
#
#
# Indices 1 2 3 4 5 6 
#
# 1 174.2342 17.0116 30.2910 0.0000 8.9645 0.0000
# 2 17.0116 289.1159 11.0418 0.0000 10.4452 0.0000
# 3 30.2910 11.0418 34.3047 0.0000 2.2542 0.0000
# 4 0.0000 0.0000 0.0000 21.9971 0.0000 -14.0842
# 5 8.9645 10.4452 2.2542 0.0000 37.1383 0.0000
# 6 0.0000 0.0000 0.0000 -14.0842 0.0000 47.5469
#
#
#
# Elastic Compliance Matrix: (Units=1/GPa)
#
#
# Indices 1 2 3 4 5 6 
#
# 1 0.006846 -0.000131 -0.005920 0.000000 -0.001256 0.000000
# 2 -0.000131 0.003536 -0.000963 0.000000 -0.000904 0.000000
# 3 -0.005920 -0.000963 0.034715 0.000000 -0.000407 0.000000
# 4 0.000000 0.000000 0.000000 0.056101 0.000000 0.016618
# 5 -0.001256 -0.000904 -0.000407 0.000000 0.027509 0.000000
# 6 0.000000 0.000000 0.000000 0.016618 0.000000 0.025954
#
#
# Mechanical properties :
#
#
# Convention : Reuss Voigt Hill
#
# Bulk Modulus (GPa) = 32.18734 68.26041 50.22387
# Shear Modulus (GPa) = 27.92590 50.62381 39.27486
#
# Velocity S-wave (km/s) = 3.17616 4.27637 3.76665
# Velocity P-wave (km/s) = 5.00779 7.00297 6.08767
#
# Compressibility (1/GPa) = 0.03106812
#
# Stress axis : x y z
#
# Youngs Moduli (GPa) = 146.06828 282.80624 28.80621
#
# Poissons Ratio (x) = 0.03714 0.17054
# Poissons Ratio (y) = 0.01918 0.02773
# Poissons Ratio (z) = 0.86477 0.27227
#
# Static dielectric constant tensor:
#      x y z
#    x 2.177190 0.000000 -0.016520 
#    y 0.000000 2.341570 0.000000 
#    z -0.016520 0.000000 2.444160 
# 
# From -- ./inp_files/37145.got.cif
#   From: 2010.05.17/outbox.cif.g08.bks.cpg/sg14_19_cif.got.tgz:37145.got - 2010.06.03 17:49:19.
