data_PCOD9241824
_publ_section_title
;
Structure prediction by ZEFSAII (Michael W. Deem and Ramdas Pophale) SiO2 
 PCOD9241824
Probable space group: P 21/C
;
_chemical_formula_sum "Si O2"
_cell_formula_units_Z 32
_cell_length_a 8.075858
_cell_length_b 5.132050
_cell_length_c 31.071456
_cell_angle_alpha 90.000000
_cell_angle_beta 99.749509
_cell_angle_gamma 90.000000
_cell_volume 1269.179736
_symmetry_space_group_name_H-M "P 21/C"
_symmetry_group_IT_number 14
_symmetry_cell_setting 'monoclinic'
loop_
_space_group_symop_operation_xyz
x,y,z
-x,1/2+y,1/2-z
-x,-y,-z
x,1/2-y,1/2+z
loop_
_atom_site_type_symbol
_atom_site_label
_atom_site_fract_x
_atom_site_fract_y
_atom_site_fract_z
Si Si1 0.826300 0.698499 0.377347
Si Si2 0.456346 0.558029 0.355869
Si Si3 0.173921 0.361812 0.859436
Si Si4 0.950266 0.301744 0.924016
Si Si5 0.484792 0.796451 0.444610
Si Si6 0.239569 0.765157 0.281570
Si Si7 0.927006 0.506567 0.298051
Si Si8 0.695629 0.204260 0.980235
O O1 0.654880 0.534001 0.366588
O O2 0.942365 0.500738 0.409066
O O3 0.881850 0.727498 0.330411
O O4 0.821211 0.980653 0.398749
O O5 0.334428 0.327000 0.364357
O O6 0.430398 0.769377 0.392987
O O7 0.405691 0.622122 0.304541
O O8 0.205176 0.572451 0.823593
O O9 0.118560 0.405070 0.906856
O O10 0.012313 0.207852 0.832362
O O11 0.879191 0.276430 0.969711
O O12 0.334566 0.718543 0.470217
O O13 0.629325 0.577233 0.460967
O O14 0.562471 0.077933 0.457798
O O15 0.230061 0.924061 0.237614
O O16 0.078038 0.576959 0.272228
#
# Coordination Sequence:
#
# PCOD9241824 Si02
#       8
#     4   4   4   4   4   4   4   4
#     4  11  23  39  65  89 125 159 209 264 309 367
#     4  11  24  39  58  96 123 163 199 274 322 362
#     4  10  23  37  62  85 121 166 206 254 311 372
#     4  11  20  40  64  92 119 166 215 248 301 390
#     4  10  21  36  62  93 126 158 206 258 316 375
#     4  11  21  39  62  82 123 159 209 255 307 373
#     4  10  21  41  60  86 112 166 217 244 300 380
#     4  10  19  37  64  91 120 166 208 252 305 387
#
# _framework density 25.213135000000001
#
# number of rings (size 3 to 8) (size 9 to 14) (size 15 to 20)
#    0.000    1.500    5.000    0.000    3.500    0.000 
#    2.250    0.625    0.000    0.750    0.000    0.000 
#    0.000    0.000    0.000    0.000    0.000    0.000 
#
# Total GULP energy -178429.021137 kJ/mol
# GULP energy per Si atom -5575.906911 kJ/mol
# Density = 2.515575 g / cm^3
# Si number density = 25.213135 Si / 1000 Ang^3
#
#
#
# Elastic Constant Matrix: (Units=GPa)
#
#
# Indices 1 2 3 4 5 6 
#
# 1 53.6026 12.5060 -1.0118 0.0000 -8.7803 0.0000
# 2 12.5060 88.1989 5.3771 0.0000 15.0401 0.0000
# 3 -1.0118 5.3771 57.8285 0.0000 -1.6176 0.0000
# 4 0.0000 0.0000 0.0000 28.4731 0.0000 0.7180
# 5 -8.7803 15.0401 -1.6176 0.0000 39.8774 0.0000
# 6 0.0000 0.0000 0.0000 0.7180 0.0000 18.6132
#
#
#
# Elastic Compliance Matrix: (Units=1/GPa)
#
#
# Indices 1 2 3 4 5 6 
#
# 1 0.020607 -0.004015 0.000904 0.000000 0.006088 0.000000
# 2 -0.004015 0.012992 -0.001442 0.000000 -0.005842 0.000000
# 3 0.000904 -0.001442 0.017483 0.000000 0.001452 0.000000
# 4 0.000000 0.000000 0.000000 0.035155 0.000000 -0.001356
# 5 0.006088 -0.005842 0.001452 0.000000 0.028680 0.000000
# 6 0.000000 0.000000 0.000000 -0.001356 0.000000 0.053778
#
#
# Mechanical properties :
#
#
# Convention : Reuss Voigt Hill
#
# Bulk Modulus (GPa) = 23.82312 25.93028 24.87670
# Shear Modulus (GPa) = 26.06999 29.57667 27.82333
#
# Velocity S-wave (km/s) = 3.21905 3.42872 3.32554
# Velocity P-wave (km/s) = 4.82551 5.09721 4.96322
#
# Compressibility (1/GPa) = 0.04197604
#
# Stress axis : x y z
#
# Youngs Moduli (GPa) = 48.52726 76.97327 57.19838
#
# Poissons Ratio (x) = 0.30907 -0.05172
# Poissons Ratio (y) = 0.19485 0.08246
# Poissons Ratio (z) = -0.04388 0.11097
#
# Static dielectric constant tensor:
#      x y z
#    x 2.095460 0.000000 -0.016600 
#    y 0.000000 2.081170 0.000000 
#    z -0.016600 0.000000 2.017680 
# 
# From -- ./inp_files/79255.got.cif
#   From: 2010.05.17/outbox.cif.g08.bks.cpg/sg14_40_cif.got.tgz:79255.got - 2010.06.03 17:49:19.
