data_PCOD9241602
_publ_section_title
;
Structure prediction by ZEFSAII (Michael W. Deem and Ramdas Pophale) SiO2 
 PCOD9241602
Probable space group: P 21/C
;
_chemical_formula_sum "Si O2"
_cell_formula_units_Z 28
_cell_length_a 8.777881
_cell_length_b 15.719929
_cell_length_c 9.461442
_cell_angle_alpha 90.000000
_cell_angle_beta 60.619317
_cell_angle_gamma 90.000000
_cell_volume 1137.639920
_symmetry_space_group_name_H-M "P 21/C"
_symmetry_group_IT_number 14
_symmetry_cell_setting 'monoclinic'
loop_
_space_group_symop_operation_xyz
x,y,z
-x,1/2+y,1/2-z
-x,-y,-z
x,1/2-y,1/2+z
loop_
_atom_site_type_symbol
_atom_site_label
_atom_site_fract_x
_atom_site_fract_y
_atom_site_fract_z
Si Si1 0.849880 0.498247 0.187960
Si Si2 0.408082 0.843988 0.245634
Si Si3 0.565902 0.401275 0.963905
Si Si4 0.723728 0.849466 0.602119
Si Si5 0.866322 0.217728 0.272505
Si Si6 0.038585 0.382703 0.286833
Si Si7 0.219315 0.336048 0.460975
O O1 0.704780 0.429593 0.212458
O O2 0.767800 0.589765 0.210266
O O3 0.923047 0.464420 0.301377
O O4 0.000000 0.500000 0.000000
O O5 0.480833 0.848980 0.372782
O O6 0.270873 0.769638 0.266823
O O7 0.584285 0.849876 0.071761
O O8 0.466936 0.366023 0.872160
O O9 0.766529 0.368993 0.862784
O O10 0.500000 0.500000 0.000000
O O11 0.845582 0.868052 0.408038
O O12 0.754308 0.754120 0.630836
O O13 0.920351 0.296514 0.352958
O O14 0.050581 0.184297 0.131161
O O15 0.155199 0.399875 0.369448
#
# Coordination Sequence:
#
# PCOD9241602 Si02
#       7
#     4   4   4   4   4   4   4
#     4   9  19  36  60  94 123 161 214 272 316 376
#     4  11  21  37  65  92 128 171 214 272 323 384
#     4  12  22  38  66  94 123 170 223 263 319 391
#     4  10  19  36  62  92 123 164 218 263 316 389
#     4  10  23  39  58  95 129 168 218 268 318 392
#     4   9  19  37  61  90 127 165 211 264 327 381
#     4  11  21  38  63  93 129 167 213 272 325 382
#
# _framework density 24.612359999999999
#
# number of rings (size 3 to 8) (size 9 to 14) (size 15 to 20)
#    0.000    1.714    4.286    1.714    0.000    0.000 
#    0.000    0.714    0.000    2.571    0.000    0.000 
#    0.000    0.000    0.000    0.000    0.000    0.000 
#
# Total GULP energy -156143.450995 kJ/mol
# GULP energy per Si atom -5576.551821 kJ/mol
# Density = 2.455634 g / cm^3
# Si number density = 24.612360 Si / 1000 Ang^3
#
#
#
# Elastic Constant Matrix: (Units=GPa)
#
#
# Indices 1 2 3 4 5 6 
#
# 1 124.9285 34.1639 41.5005 0.0000 -24.5561 0.0000
# 2 34.1639 91.6130 38.8115 0.0000 -20.4009 0.0000
# 3 41.5005 38.8115 85.6248 0.0000 -38.6357 0.0000
# 4 0.0000 0.0000 0.0000 19.4260 0.0000 -4.2724
# 5 -24.5561 -20.4009 -38.6357 0.0000 42.0533 0.0000
# 6 0.0000 0.0000 0.0000 -4.2724 0.0000 43.9634
#
#
#
# Elastic Compliance Matrix: (Units=1/GPa)
#
#
# Indices 1 2 3 4 5 6 
#
# 1 0.009949 -0.001981 -0.002966 0.000000 0.002124 0.000000
# 2 -0.001981 0.013966 -0.004843 0.000000 0.001169 0.000000
# 3 -0.002966 -0.004843 0.023008 0.000000 0.017057 0.000000
# 4 0.000000 0.000000 0.000000 0.052602 0.000000 0.005112
# 5 0.002124 0.001169 0.017057 0.000000 0.041257 0.000000
# 6 0.000000 0.000000 0.000000 0.005112 0.000000 0.023243
#
#
# Mechanical properties :
#
#
# Convention : Reuss Voigt Hill
#
# Bulk Modulus (GPa) = 36.57105 59.01312 47.79209
# Shear Modulus (GPa) = 25.94451 33.60122 29.77287
#
# Velocity S-wave (km/s) = 3.25025 3.69889 3.48181
# Velocity P-wave (km/s) = 5.38299 6.50165 5.96859
#
# Compressibility (1/GPa) = 0.02734403
#
# Stress axis : x y z
#
# Youngs Moduli (GPa) = 100.51312 71.60158 43.46310
#
# Poissons Ratio (x) = 0.14182 0.12891
# Poissons Ratio (y) = 0.19908 0.21049
# Poissons Ratio (z) = 0.29813 0.34676
#
# Static dielectric constant tensor:
#      x y z
#    x 2.027550 0.000000 0.000520 
#    y 0.000000 2.017250 0.000000 
#    z 0.000520 0.000000 2.107360 
# 
# From -- ./inp_files/25440.got.cif
#   From: 2010.05.17/outbox.cif.g08.bks.cpg/sg14_13_cif.got.tgz:25440.got - 2010.06.03 17:49:19.
