data_PCOD9241974
_publ_section_title
;
Structure prediction by ZEFSAII (Michael W. Deem and Ramdas Pophale) SiO2 
 PCOD9241974
Probable space group: P 21/C
;
_chemical_formula_sum "Si O2"
_cell_formula_units_Z 28
_cell_length_a 9.074854
_cell_length_b 17.116848
_cell_length_c 15.737052
_cell_angle_alpha 90.000000
_cell_angle_beta 35.670949
_cell_angle_gamma 90.000000
_cell_volume 1425.449200
_symmetry_space_group_name_H-M "P 21/C"
_symmetry_group_IT_number 14
_symmetry_cell_setting 'monoclinic'
loop_
_space_group_symop_operation_xyz
x,y,z
-x,1/2+y,1/2-z
-x,-y,-z
x,1/2-y,1/2+z
loop_
_atom_site_type_symbol
_atom_site_label
_atom_site_fract_x
_atom_site_fract_y
_atom_site_fract_z
Si Si1 0.097248 0.042855 0.709060
Si Si2 0.504232 0.363138 0.747877
Si Si3 0.428403 0.611125 0.088768
Si Si4 0.001330 0.922148 0.057514
Si Si5 0.081441 0.037312 0.371889
Si Si6 0.315739 0.284489 0.258186
Si Si7 0.834527 0.303925 0.919333
O O1 0.309956 0.107220 0.586512
O O2 0.268045 0.967143 0.649129
O O3 0.941489 0.021875 0.696883
O O4 0.950921 0.059840 0.864971
O O5 0.503959 0.387227 0.845197
O O6 0.788660 0.365576 0.580814
O O7 0.355493 0.425787 0.760011
O O8 0.363051 0.280600 0.807708
O O9 0.247117 0.679246 0.139285
O O10 0.743745 0.871281 0.180534
O O11 0.000000 0.000000 0.000000
O O12 0.911564 0.112588 0.425482
O O13 0.000000 0.000000 0.500000
O O14 0.574791 0.278917 0.084979
O O15 0.069349 0.253609 0.322568
#
# Coordination Sequence:
#
# PCOD9241974 Si02
#       7
#     4   4   4   4   4   4   4
#     4  10  20  36  64  94 125 166 214 262 325 389
#     4  11  23  41  64  95 131 170 216 272 327 391
#     4  10  19  38  63  92 122 170 221 254 321 401
#     4  12  24  40  67  94 132 169 220 272 334 379
#     4  10  21  37  64  95 127 163 216 264 321 394
#     4  11  23  44  62  91 131 175 215 272 335 385
#     4  10  22  40  65  87 129 173 214 267 324 392
#
# _framework density 19.64293
#
# number of rings (size 3 to 8) (size 9 to 14) (size 15 to 20)
#    0.000    1.429    5.714    0.000    2.000    0.571 
#    2.571    1.429    0.000    0.000    0.000    0.000 
#    0.000    0.000    0.000    0.000    0.000    0.000 
#
# Total GULP energy -156064.103965 kJ/mol
# GULP energy per Si atom -5573.717999 kJ/mol
# Density = 1.959822 g / cm^3
# Si number density = 19.642930 Si / 1000 Ang^3
#
#
#
# Elastic Constant Matrix: (Units=GPa)
#
#
# Indices 1 2 3 4 5 6 
#
# 1 110.9880 22.7388 24.7556 0.0000 15.8496 0.0000
# 2 22.7388 55.5977 9.4764 0.0000 4.7035 0.0000
# 3 24.7556 9.4764 83.8437 0.0000 4.9237 0.0000
# 4 0.0000 0.0000 0.0000 23.4697 0.0000 3.5462
# 5 15.8496 4.7035 4.9237 0.0000 37.1743 0.0000
# 6 0.0000 0.0000 0.0000 3.5462 0.0000 15.7864
#
#
#
# Elastic Compliance Matrix: (Units=1/GPa)
#
#
# Indices 1 2 3 4 5 6 
#
# 1 0.010887 -0.003690 -0.002572 0.000000 -0.003834 0.000000
# 2 -0.003690 0.019748 -0.001097 0.000000 -0.000780 0.000000
# 3 -0.002572 -0.001097 0.012838 0.000000 -0.000465 0.000000
# 4 0.000000 0.000000 0.000000 0.044105 0.000000 -0.009908
# 5 -0.003834 -0.000780 -0.000465 0.000000 0.028695 0.000000
# 6 0.000000 0.000000 0.000000 -0.009908 0.000000 0.065571
#
#
# Mechanical properties :
#
#
# Convention : Reuss Voigt Hill
#
# Bulk Modulus (GPa) = 34.77615 40.48567 37.63091
# Shear Modulus (GPa) = 24.25436 28.18331 26.21884
#
# Velocity S-wave (km/s) = 3.51773 3.79196 3.65742
# Velocity P-wave (km/s) = 5.85165 6.31090 6.08561
#
# Compressibility (1/GPa) = 0.02875534
#
# Stress axis : x y z
#
# Youngs Moduli (GPa) = 91.85029 50.63693 77.89543
#
# Poissons Ratio (x) = 0.18685 0.20037
# Poissons Ratio (y) = 0.33892 0.08543
# Poissons Ratio (z) = 0.23627 0.05554
#
# Static dielectric constant tensor:
#      x y z
#    x 1.707090 0.000000 -0.003670 
#    y 0.000000 1.750550 0.000000 
#    z -0.003670 0.000000 1.691150 
# 
# From -- ./inp_files/26665.got.cif
#   From: 2010.05.17/outbox.cif.g08.bks.cpg/sg14_14_cif.got.tgz:26665.got - 2010.06.03 17:49:19.
