data_PCOD9241807
_publ_section_title
;
Structure prediction by ZEFSAII (Michael W. Deem and Ramdas Pophale) SiO2 
 PCOD9241807
Probable space group: P 21/C
;
_chemical_formula_sum "Si O2"
_cell_formula_units_Z 28
_cell_length_a 11.512308
_cell_length_b 7.304189
_cell_length_c 15.749910
_cell_angle_alpha 90.000000
_cell_angle_beta 125.129382
_cell_angle_gamma 90.000000
_cell_volume 1083.150124
_symmetry_space_group_name_H-M "P 21/C"
_symmetry_group_IT_number 14
_symmetry_cell_setting 'monoclinic'
loop_
_space_group_symop_operation_xyz
x,y,z
-x,1/2+y,1/2-z
-x,-y,-z
x,1/2-y,1/2+z
loop_
_atom_site_type_symbol
_atom_site_label
_atom_site_fract_x
_atom_site_fract_y
_atom_site_fract_z
Si Si1 0.232476 0.552817 0.588060
Si Si2 0.381730 0.580343 0.826001
Si Si3 0.769226 0.481340 0.065306
Si Si4 0.339354 0.344623 0.126750
Si Si5 0.802790 0.853559 0.164516
Si Si6 0.469017 0.348105 0.357563
Si Si7 0.973661 0.333535 0.638276
O O1 0.270807 0.615217 0.701423
O O2 0.243569 0.332780 0.597872
O O3 0.364410 0.608251 0.580659
O O4 0.087930 0.615233 0.480509
O O5 0.330602 0.592859 0.901403
O O6 0.519359 0.704786 0.868094
O O7 0.441575 0.371891 0.845190
O O8 0.789914 0.696226 0.089190
O O9 0.904345 0.359225 0.130864
O O10 0.731534 0.486943 0.950792
O O11 0.402718 0.413960 0.241108
O O12 0.644206 0.919904 0.120940
O O13 0.866526 0.723850 0.268144
O O14 0.902582 0.013402 0.169798
#
# Coordination Sequence:
#
# PCOD9241807 Si02
#       7
#     4   4   4   4   4   4   4
#     4  10  21  38  65  95 128 165 214 261 316 374
#     4   9  20  38  59  93 132 169 203 259 320 372
#     4  11  22  40  64  90 128 169 216 254 314 378
#     4  10  19  37  63  96 133 167 206 260 318 377
#     4  11  24  44  64  91 128 165 217 263 319 378
#     4   9  21  40  62  95 130 166 209 265 312 376
#     4  12  24  43  67  90 124 173 211 267 318 376
#
# _framework density 25.850525000000001
#
# number of rings (size 3 to 8) (size 9 to 14) (size 15 to 20)
#    0.000    1.714    2.857    1.286    2.000    2.857 
#    0.000    8.571    0.000    0.000    0.000    0.000 
#    0.000    0.000    0.000    0.000    0.000    0.000 
#
# Total GULP energy -156331.296103 kJ/mol
# GULP energy per Si atom -5583.260575 kJ/mol
# Density = 2.579169 g / cm^3
# Si number density = 25.850525 Si / 1000 Ang^3
#
#
#
# Elastic Constant Matrix: (Units=GPa)
#
#
# Indices 1 2 3 4 5 6 
#
# 1 59.4131 12.9829 10.8416 0.0000 0.9283 0.0000
# 2 12.9829 39.7404 15.7039 0.0000 2.0806 0.0000
# 3 10.8416 15.7039 104.6304 0.0000 12.2201 0.0000
# 4 0.0000 0.0000 0.0000 38.0063 0.0000 2.8842
# 5 0.9283 2.0806 12.2201 0.0000 25.9018 0.0000
# 6 0.0000 0.0000 0.0000 2.8842 0.0000 18.6783
#
#
#
# Elastic Compliance Matrix: (Units=1/GPa)
#
#
# Indices 1 2 3 4 5 6 
#
# 1 0.018237 -0.005542 -0.001094 0.000000 0.000308 0.000000
# 2 -0.005542 0.028436 -0.003651 0.000000 -0.000363 0.000000
# 3 -0.001094 -0.003651 0.010774 0.000000 -0.004750 0.000000
# 4 0.000000 0.000000 0.000000 0.026623 0.000000 -0.004111
# 5 0.000308 -0.000363 -0.004750 0.000000 0.040867 0.000000
# 6 0.000000 0.000000 0.000000 -0.004111 0.000000 0.054173
#
#
# Mechanical properties :
#
#
# Convention : Reuss Voigt Hill
#
# Bulk Modulus (GPa) = 27.12046 31.42672 29.27359
# Shear Modulus (GPa) = 23.58784 27.46767 25.52776
#
# Velocity S-wave (km/s) = 3.02399 3.26323 3.14588
# Velocity P-wave (km/s) = 4.76516 5.13631 4.95421
#
# Compressibility (1/GPa) = 0.03687253
#
# Stress axis : x y z
#
# Youngs Moduli (GPa) = 54.83338 35.16721 92.81933
#
# Poissons Ratio (x) = 0.19489 0.10153
# Poissons Ratio (y) = 0.30387 0.33891
# Poissons Ratio (z) = 0.05998 0.12840
#
# Static dielectric constant tensor:
#      x y z
#    x 2.154790 0.000000 0.040210 
#    y 0.000000 1.974040 0.000000 
#    z 0.040210 0.000000 2.166010 
# 
# From -- ./inp_files/43540.got.cif
#   From: 2010.05.17/outbox.cif.g08.bks.cpg/sg14_22_cif.got.tgz:43540.got - 2010.06.03 17:49:19.
