data_PCOD9241711
_publ_section_title
;
Structure prediction by ZEFSAII (Michael W. Deem and Ramdas Pophale) SiO2 
 PCOD9241711
Probable space group: P 21/C
;
_chemical_formula_sum "Si O2"
_cell_formula_units_Z 28
_cell_length_a 11.736864
_cell_length_b 11.873262
_cell_length_c 14.527274
_cell_angle_alpha 90.000000
_cell_angle_beta 146.800580
_cell_angle_gamma 90.000000
_cell_volume 1108.495168
_symmetry_space_group_name_H-M "P 21/C"
_symmetry_group_IT_number 14
_symmetry_cell_setting 'monoclinic'
loop_
_space_group_symop_operation_xyz
x,y,z
-x,1/2+y,1/2-z
-x,-y,-z
x,1/2-y,1/2+z
loop_
_atom_site_type_symbol
_atom_site_label
_atom_site_fract_x
_atom_site_fract_y
_atom_site_fract_z
Si Si1 0.453218 0.965155 0.312790
Si Si2 0.287470 0.488992 0.513136
Si Si3 0.739781 0.261213 0.831482
Si Si4 0.855700 0.750586 0.129885
Si Si5 0.098054 0.381309 0.657538
Si Si6 0.190845 0.616092 0.948404
Si Si7 0.113553 0.567471 0.212097
O O1 0.413848 0.835337 0.308911
O O2 0.265776 0.043681 0.219949
O O3 0.655928 0.024329 0.489098
O O4 0.453785 0.973195 0.201448
O O5 0.283364 0.354170 0.498176
O O6 0.275599 0.546739 0.405307
O O7 0.069410 0.535428 0.408050
O O8 0.689634 0.302802 0.900733
O O9 0.767610 0.370314 0.788281
O O10 0.960352 0.195572 0.995769
O O11 0.810218 0.697896 0.199735
O O12 0.080290 0.811085 0.297117
O O13 0.920712 0.650791 0.106394
O O14 0.004409 0.551969 0.877147
#
# Coordination Sequence:
#
# PCOD9241711 Si02
#       7
#     4   4   4   4   4   4   4
#     4  11  21  37  60  90 118 149 195 251 295 342
#     4   9  18  34  56  81 112 153 194 232 286 355
#     4  10  20  37  59  82 114 159 198 234 291 359
#     4   9  18  36  57  82 114 155 194 234 285 351
#     4   9  18  33  58  83 111 156 199 230 287 363
#     4  10  23  38  58  89 118 147 198 248 290 345
#     4  10  19  37  60  79 110 157 196 233 283 357
#
# _framework density 25.259471000000001
#
# number of rings (size 3 to 8) (size 9 to 14) (size 15 to 20)
#    0.000    2.286    0.000    4.714    0.000    2.286 
#    0.000   13.571    0.000    5.143    0.000    0.000 
#    0.000    0.000    0.000    0.000    0.000    0.000 
#
# Total GULP energy -156653.050355 kJ/mol
# GULP energy per Si atom -5594.751798 kJ/mol
# Density = 2.520198 g / cm^3
# Si number density = 25.259471 Si / 1000 Ang^3
#
#
#
# Elastic Constant Matrix: (Units=GPa)
#
#
# Indices 1 2 3 4 5 6 
#
# 1 34.7967 10.4393 3.6969 0.0000 -0.8844 0.0000
# 2 10.4393 122.8091 15.4229 0.0000 2.6513 0.0000
# 3 3.6969 15.4229 53.3585 0.0000 -9.8376 0.0000
# 4 0.0000 0.0000 0.0000 50.1104 0.0000 -5.9748
# 5 -0.8844 2.6513 -9.8376 0.0000 26.2021 0.0000
# 6 0.0000 0.0000 0.0000 -5.9748 0.0000 42.8561
#
#
#
# Elastic Compliance Matrix: (Units=1/GPa)
#
#
# Indices 1 2 3 4 5 6 
#
# 1 0.029602 -0.002380 -0.001219 0.000000 0.000782 0.000000
# 2 -0.002380 0.008730 -0.002725 0.000000 -0.001987 0.000000
# 3 -0.001219 -0.002725 0.021118 0.000000 0.008163 0.000000
# 4 0.000000 0.000000 0.000000 0.020293 0.000000 0.002829
# 5 0.000782 -0.001987 0.008163 0.000000 0.041457 0.000000
# 6 0.000000 0.000000 0.000000 0.002829 0.000000 0.023728
#
#
# Mechanical properties :
#
#
# Convention : Reuss Voigt Hill
#
# Bulk Modulus (GPa) = 21.36619 30.00917 25.68768
# Shear Modulus (GPa) = 28.87213 35.92739 32.39976
#
# Velocity S-wave (km/s) = 3.38453 3.77547 3.58533
# Velocity P-wave (km/s) = 4.87344 5.55984 5.22792
#
# Compressibility (1/GPa) = 0.04680292
#
# Stress axis : x y z
#
# Youngs Moduli (GPa) = 33.78172 114.54597 47.35234
#
# Poissons Ratio (x) = 0.27263 0.05771
# Poissons Ratio (y) = 0.08040 0.12902
# Poissons Ratio (z) = 0.04117 0.31211
#
# Static dielectric constant tensor:
#      x y z
#    x 1.986260 0.000000 0.015380 
#    y 0.000000 1.963610 0.000000 
#    z 0.015380 0.000000 2.080470 
# 
# From -- ./inp_files/59302.got.cif
#   From: 2010.05.17/outbox.cif.g08.bks.cpg/sg14_30_cif.got.tgz:59302.got - 2010.06.03 17:49:19.
