data_PCOD9241453
_publ_section_title
;
Structure prediction by ZEFSAII (Michael W. Deem and Ramdas Pophale) SiO2 
 PCOD9241453
Probable space group: P 21/C
;
_chemical_formula_sum "Si O2"
_cell_formula_units_Z 28
_cell_length_a 30.539578
_cell_length_b 8.532204
_cell_length_c 10.029788
_cell_angle_alpha 90.000000
_cell_angle_beta 145.917971
_cell_angle_gamma 90.000000
_cell_volume 1464.529271
_symmetry_space_group_name_H-M "P 21/C"
_symmetry_group_IT_number 14
_symmetry_cell_setting 'monoclinic'
loop_
_space_group_symop_operation_xyz
x,y,z
-x,1/2+y,1/2-z
-x,-y,-z
x,1/2-y,1/2+z
loop_
_atom_site_type_symbol
_atom_site_label
_atom_site_fract_x
_atom_site_fract_y
_atom_site_fract_z
Si Si1 0.982053 0.629280 0.066146
Si Si2 0.271980 0.298149 0.911788
Si Si3 0.380509 0.460721 0.610953
Si Si4 0.828908 0.813722 0.581352
Si Si5 0.405226 0.456494 0.378607
Si Si6 0.527238 0.258820 0.065435
Si Si7 0.938849 0.048479 0.731409
O O1 0.962624 0.541044 0.155441
O O2 0.048830 0.763904 0.253524
O O3 0.906032 0.720037 0.820356
O O4 0.000000 0.500000 0.000000
O O5 0.217321 0.336421 0.898201
O O6 0.221918 0.287569 0.651350
O O7 0.345454 0.416254 0.108084
O O8 0.315010 0.128290 0.030852
O O9 0.361203 0.443404 0.407054
O O10 0.401681 0.636663 0.703131
O O11 0.462436 0.369328 0.835826
O O12 0.857528 0.972957 0.578791
O O13 0.440865 0.627223 0.452324
O O14 0.477278 0.335254 0.550282
O O15 0.000000 0.000000 0.000000
#
# Coordination Sequence:
#
# PCOD9241453 Si02
#       7
#     4   4   4   4   4   4   4
#     4  11  23  41  67  97 122 158 205 250 299 358
#     4  11  22  39  62  84 122 169 194 247 306 371
#     4  10  19  36  57  84 116 152 207 252 306 360
#     4  11  22  42  62  88 125 163 204 246 311 363
#     4  10  19  36  58  83 116 153 207 248 310 359
#     4   9  20  34  56  86 110 155 198 263 302 358
#     4  10  21  38  65  92 124 156 199 252 293 357
#
# _framework density 19.118770999999999
#
# number of rings (size 3 to 8) (size 9 to 14) (size 15 to 20)
#    0.000    1.714    2.857    2.571    2.000    0.000 
#    5.143    2.857    0.000    0.000    0.000    0.000 
#    0.000    0.000    0.000    0.000    0.000    0.000 
#
# Total GULP energy -156033.537650 kJ/mol
# GULP energy per Si atom -5572.626345 kJ/mol
# Density = 1.907526 g / cm^3
# Si number density = 19.118771 Si / 1000 Ang^3
#
#
#
# Elastic Constant Matrix: (Units=GPa)
#
#
# Indices 1 2 3 4 5 6 
#
# 1 88.6017 25.4556 -1.9118 0.0000 -4.7251 0.0000
# 2 25.4556 98.5073 14.0431 0.0000 -0.1939 0.0000
# 3 -1.9118 14.0431 65.1831 0.0000 -5.2844 0.0000
# 4 0.0000 0.0000 0.0000 23.4486 0.0000 -2.5558
# 5 -4.7251 -0.1939 -5.2844 0.0000 29.8084 0.0000
# 6 0.0000 0.0000 0.0000 -2.5558 0.0000 10.4439
#
#
#
# Elastic Compliance Matrix: (Units=1/GPa)
#
#
# Indices 1 2 3 4 5 6 
#
# 1 0.012401 -0.003381 0.001268 0.000000 0.002169 0.000000
# 2 -0.003381 0.011398 -0.002630 0.000000 -0.000928 0.000000
# 3 0.001268 -0.002630 0.016193 0.000000 0.003055 0.000000
# 4 0.000000 0.000000 0.000000 0.043815 0.000000 0.010722
# 5 0.002169 -0.000928 0.003055 0.000000 0.034427 0.000000
# 6 0.000000 0.000000 0.000000 0.010722 0.000000 0.098374
#
#
# Mechanical properties :
#
#
# Convention : Reuss Voigt Hill
#
# Bulk Modulus (GPa) = 32.78077 36.38511 34.58294
# Shear Modulus (GPa) = 21.16286 27.05385 24.10835
#
# Velocity S-wave (km/s) = 3.33064 3.76578 3.55488
# Velocity P-wave (km/s) = 5.65455 6.16284 5.91416
#
# Compressibility (1/GPa) = 0.03050569
#
# Stress axis : x y z
#
# Youngs Moduli (GPa) = 80.63960 87.73197 61.75567
#
# Poissons Ratio (x) = 0.29663 -0.07830
# Poissons Ratio (y) = 0.27265 0.16242
# Poissons Ratio (z) = -0.10225 0.23074
#
# Static dielectric constant tensor:
#      x y z
#    x 1.669820 0.000000 0.006270 
#    y 0.000000 1.682890 0.000000 
#    z 0.006270 0.000000 1.686970 
# 
# From -- ./inp_files/19685.got.cif
#   From: 2010.05.17/outbox.cif.g08.bks.cpg/sg14_10_cif.got.tgz:19685.got - 2010.06.03 17:49:19.
