data_PCOD9241805
_publ_section_title
;
Structure prediction by ZEFSAII (Michael W. Deem and Ramdas Pophale) SiO2 
 PCOD9241805
Probable space group: P 21/C
;
_chemical_formula_sum "Si O2"
_cell_formula_units_Z 28
_cell_length_a 9.565060
_cell_length_b 13.191946
_cell_length_c 12.924485
_cell_angle_alpha 90.000000
_cell_angle_beta 118.600422
_cell_angle_gamma 90.000000
_cell_volume 1431.838913
_symmetry_space_group_name_H-M "P 21/C"
_symmetry_group_IT_number 14
_symmetry_cell_setting 'monoclinic'
loop_
_space_group_symop_operation_xyz
x,y,z
-x,1/2+y,1/2-z
-x,-y,-z
x,1/2-y,1/2+z
loop_
_atom_site_type_symbol
_atom_site_label
_atom_site_fract_x
_atom_site_fract_y
_atom_site_fract_z
Si Si1 0.295132 0.613722 0.411610
Si Si2 0.566411 0.776554 0.729876
Si Si3 0.435556 0.386407 0.990996
Si Si4 0.294066 0.790390 0.268346
Si Si5 0.657180 0.888473 0.122759
Si Si6 0.209028 0.235202 0.009024
Si Si7 0.081592 0.889868 0.039502
O O1 0.224863 0.698911 0.311228
O O2 0.295344 0.504649 0.357194
O O3 0.481736 0.626696 0.508865
O O4 0.197406 0.615145 0.482545
O O5 0.576279 0.841664 0.629473
O O6 0.387754 0.759920 0.705161
O O7 0.641973 0.667840 0.725985
O O8 0.666216 0.812109 0.863898
O O9 0.573627 0.336203 0.108996
O O10 0.275647 0.345757 0.995320
O O11 0.500000 0.500000 0.000000
O O12 0.181078 0.875232 0.180479
O O13 0.778296 0.830872 0.090731
O O14 0.040077 0.205941 0.998947
O O15 0.000000 0.000000 0.000000
#
# Coordination Sequence:
#
# PCOD9241805 Si02
#       7
#     4   4   4   4   4   4   4
#     4  11  21  38  65  89 125 163 212 269 316 393
#     4  10  19  39  64  90 124 161 219 271 310 391
#     4  10  22  38  63  93 124 165 215 270 317 383
#     4  11  22  40  61  90 123 168 210 265 328 381
#     4  10  19  37  63  94 114 161 223 257 320 387
#     4  10  22  40  60  94 123 164 213 263 322 390
#     4  12  25  41  62  94 133 173 212 267 341 394
#
# _framework density 19.555273
#
# number of rings (size 3 to 8) (size 9 to 14) (size 15 to 20)
#    0.000    1.429    7.143    0.000    2.000    4.571 
#    0.000    0.000    0.000    2.571    0.000    0.000 
#    0.000    0.000    0.000    0.000    0.000    0.000 
#
# Total GULP energy -155904.655412 kJ/mol
# GULP energy per Si atom -5568.023408 kJ/mol
# Density = 1.951076 g / cm^3
# Si number density = 19.555273 Si / 1000 Ang^3
#
#
#
# Elastic Constant Matrix: (Units=GPa)
#
#
# Indices 1 2 3 4 5 6 
#
# 1 74.0370 23.2891 14.3791 0.0000 -14.5691 0.0000
# 2 23.2891 91.9188 13.6405 0.0000 -14.8764 0.0000
# 3 14.3791 13.6405 62.6397 0.0000 -17.3297 0.0000
# 4 0.0000 0.0000 0.0000 23.7345 0.0000 0.1114
# 5 -14.5691 -14.8764 -17.3297 0.0000 26.4322 0.0000
# 6 0.0000 0.0000 0.0000 0.1114 0.0000 28.8755
#
#
#
# Elastic Compliance Matrix: (Units=1/GPa)
#
#
# Indices 1 2 3 4 5 6 
#
# 1 0.015886 -0.002810 -0.001282 0.000000 0.006334 0.000000
# 2 -0.002810 0.012509 -0.000684 0.000000 0.005043 0.000000
# 3 -0.001282 -0.000684 0.019674 0.000000 0.011807 0.000000
# 4 0.000000 0.000000 0.000000 0.042134 0.000000 -0.000163
# 5 0.006334 0.005043 0.011807 0.000000 0.051903 0.000000
# 6 0.000000 0.000000 0.000000 -0.000163 0.000000 0.034632
#
#
# Mechanical properties :
#
#
# Convention : Reuss Voigt Hill
#
# Bulk Modulus (GPa) = 25.96234 36.80145 31.38189
# Shear Modulus (GPa) = 25.10939 27.62755 26.36847
#
# Velocity S-wave (km/s) = 3.58721 3.76279 3.67605
# Velocity P-wave (km/s) = 5.51930 6.14314 5.83956
#
# Compressibility (1/GPa) = 0.03851733
#
# Stress axis : x y z
#
# Youngs Moduli (GPa) = 62.94837 79.94448 50.82810
#
# Poissons Ratio (x) = 0.22461 0.06519
# Poissons Ratio (y) = 0.17686 0.03475
# Poissons Ratio (z) = 0.08073 0.05466
#
# Static dielectric constant tensor:
#      x y z
#    x 1.722350 0.000000 0.018660 
#    y 0.000000 1.738460 0.000000 
#    z 0.018660 0.000000 1.690880 
# 
# From -- ./inp_files/25353.got.cif
#   From: 2010.05.17/outbox.cif.g08.bks.cpg/sg14_13_cif.got.tgz:25353.got - 2010.06.03 17:49:19.
