data_PCOD9241835
_publ_section_title
;
Structure prediction by ZEFSAII (Michael W. Deem and Ramdas Pophale) SiO2 
 PCOD9241835
Probable space group: P 21/C
;
_chemical_formula_sum "Si O2"
_cell_formula_units_Z 28
_cell_length_a 6.415047
_cell_length_b 16.001796
_cell_length_c 15.656290
_cell_angle_alpha 90.000000
_cell_angle_beta 112.576750
_cell_angle_gamma 90.000000
_cell_volume 1483.991275
_symmetry_space_group_name_H-M "P 21/C"
_symmetry_group_IT_number 14
_symmetry_cell_setting 'monoclinic'
loop_
_space_group_symop_operation_xyz
x,y,z
-x,1/2+y,1/2-z
-x,-y,-z
x,1/2-y,1/2+z
loop_
_atom_site_type_symbol
_atom_site_label
_atom_site_fract_x
_atom_site_fract_y
_atom_site_fract_z
Si Si1 0.998441 0.787795 0.378099
Si Si2 0.886283 0.912658 0.513476
Si Si3 0.387497 0.609518 0.877056
Si Si4 0.006277 0.468360 0.797688
Si Si5 0.645109 0.031915 0.944128
Si Si6 0.073811 0.405993 0.615151
Si Si7 0.363655 0.106140 0.760291
O O1 0.253604 0.808890 0.389129
O O2 0.924993 0.693637 0.382361
O O3 0.959982 0.842315 0.457649
O O4 0.831780 0.825211 0.279372
O O5 0.613900 0.912998 0.464632
O O6 0.969139 0.900640 0.623403
O O7 0.000000 0.000000 0.500000
O O8 0.206376 0.534618 0.849227
O O9 0.471083 0.619633 0.793243
O O10 0.031361 0.437068 0.705212
O O11 0.772746 0.518864 0.770661
O O12 0.504232 0.099357 0.868381
O O13 0.868839 0.069715 0.020584
O O14 0.714894 0.956322 0.891378
O O15 0.500000 0.000000 0.000000
#
# Coordination Sequence:
#
# PCOD9241835 Si02
#       7
#     4   4   4   4   4   4   4
#     4  10  24  41  59  96 135 155 213 275 322 372
#     4  11  20  36  63  94 124 163 209 263 323 393
#     4  10  19  37  65  86 122 161 202 261 322 372
#     4  11  20  37  63  90 119 162 215 255 321 387
#     4  11  23  43  70  85 123 176 223 254 319 392
#     4  11  25  43  61  95 127 169 216 270 313 388
#     4  10  20  40  64  93 117 166 211 265 313 384
#
# _framework density 18.868036
#
# number of rings (size 3 to 8) (size 9 to 14) (size 15 to 20)
#    0.000    1.429    7.143    0.429    0.000    2.286 
#    7.714    0.000    0.000    0.000    0.000    0.000 
#    0.000    0.000    0.000    0.000    0.000    0.000 
#
# Total GULP energy -156187.561356 kJ/mol
# GULP energy per Si atom -5578.127191 kJ/mol
# Density = 1.882509 g / cm^3
# Si number density = 18.868036 Si / 1000 Ang^3
#
#
#
# Elastic Constant Matrix: (Units=GPa)
#
#
# Indices 1 2 3 4 5 6 
#
# 1 94.6625 22.8113 30.6694 0.0000 -1.6747 0.0000
# 2 22.8113 98.9842 31.8820 0.0000 -5.9074 0.0000
# 3 30.6694 31.8820 124.7830 0.0000 -2.3241 0.0000
# 4 0.0000 0.0000 0.0000 16.5560 0.0000 -1.7368
# 5 -1.6747 -5.9074 -2.3241 0.0000 34.2753 0.0000
# 6 0.0000 0.0000 0.0000 -1.7368 0.0000 10.8309
#
#
#
# Elastic Compliance Matrix: (Units=1/GPa)
#
#
# Indices 1 2 3 4 5 6 
#
# 1 0.011813 -0.001943 -0.002406 0.000000 0.000079 0.000000
# 2 -0.001943 0.011429 -0.002411 0.000000 0.001711 0.000000
# 3 -0.002406 -0.002411 0.009223 0.000000 0.000092 0.000000
# 4 0.000000 0.000000 0.000000 0.061435 0.000000 0.009852
# 5 0.000079 0.001711 0.000092 0.000000 0.029481 0.000000
# 6 0.000000 0.000000 0.000000 0.009852 0.000000 0.093908
#
#
# Mechanical properties :
#
#
# Convention : Reuss Voigt Hill
#
# Bulk Modulus (GPa) = 52.78019 54.35058 53.56538
# Shear Modulus (GPa) = 21.08626 27.87025 24.47825
#
# Velocity S-wave (km/s) = 3.34663 3.84749 3.60577
# Velocity P-wave (km/s) = 6.55494 6.97179 6.76657
#
# Compressibility (1/GPa) = 0.01894650
#
# Stress axis : x y z
#
# Youngs Moduli (GPa) = 84.65426 87.49713 108.42694
#
# Poissons Ratio (x) = 0.16999 0.26082
# Poissons Ratio (y) = 0.16446 0.26139
# Poissons Ratio (z) = 0.20364 0.21093
#
# Static dielectric constant tensor:
#      x y z
#    x 1.679670 0.000000 0.005010 
#    y 0.000000 1.645900 0.000000 
#    z 0.005010 0.000000 1.664090 
# 
# From -- ./inp_files/37732.got.cif
#   From: 2010.05.17/outbox.cif.g08.bks.cpg/sg14_19_cif.got.tgz:37732.got - 2010.06.03 17:49:19.
