data_PCOD9241245
_publ_section_title
;
Structure prediction by ZEFSAII (Michael W. Deem and Ramdas Pophale) SiO2 
 PCOD9241245
Probable space group: P 21/C
;
_chemical_formula_sum "Si O2"
_cell_formula_units_Z 24
_cell_length_a 8.104157
_cell_length_b 16.642552
_cell_length_c 8.733289
_cell_angle_alpha 90.000000
_cell_angle_beta 77.307489
_cell_angle_gamma 90.000000
_cell_volume 1149.108512
_symmetry_space_group_name_H-M "P 21/C"
_symmetry_group_IT_number 14
_symmetry_cell_setting 'monoclinic'
loop_
_space_group_symop_operation_xyz
x,y,z
-x,1/2+y,1/2-z
-x,-y,-z
x,1/2-y,1/2+z
loop_
_atom_site_type_symbol
_atom_site_label
_atom_site_fract_x
_atom_site_fract_y
_atom_site_fract_z
Si Si1 0.119229 0.730796 0.158698
Si Si2 0.236957 0.497292 0.370387
Si Si3 0.974388 0.636588 0.462866
Si Si4 0.421303 0.485114 0.846847
Si Si5 0.782291 0.354042 0.143273
Si Si6 0.117053 0.435748 0.062265
O O1 0.003436 0.675620 0.290853
O O2 0.249382 0.782394 0.234284
O O3 0.011099 0.791589 0.074554
O O4 0.231277 0.674147 0.027699
O O5 0.123752 0.570437 0.454449
O O6 0.428415 0.526146 0.304119
O O7 0.173514 0.472183 0.212833
O O8 0.193962 0.417035 0.477274
O O9 0.322434 0.565495 0.813251
O O10 0.500000 0.500000 0.000000
O O11 0.275584 0.420770 0.918316
O O12 0.985120 0.365975 0.120833
O O13 0.000000 0.500000 0.000000
#
# Coordination Sequence:
#
# PCOD9241245 Si02
#       6
#     4   4   4   4   4   4
#     4  10  20  35  58  79 108 152 190 229 279 344
#     4  10  19  35  57  84 110 146 187 238 276 327
#     4  10  20  35  59  78 112 148 191 228 283 332
#     4   9  18  32  56  83 111 138 179 234 280 324
#     4  10  19  35  58  80 108 147 188 224 278 344
#     4   9  16  30  56  81 106 135 183 221 274 325
#
# _framework density 20.885755
#
# number of rings (size 3 to 8) (size 9 to 14) (size 15 to 20)
#    0.000    2.333    1.667    3.000    0.000    0.000 
#    0.000    2.500   14.667    0.000    0.000    0.000 
#    0.000    0.000    0.000    0.000    0.000    0.000 
#
# Total GULP energy -133721.641990 kJ/mol
# GULP energy per Si atom -5571.735083 kJ/mol
# Density = 2.083822 g / cm^3
# Si number density = 20.885755 Si / 1000 Ang^3
#
#
#
# Elastic Constant Matrix: (Units=GPa)
#
#
# Indices 1 2 3 4 5 6 
#
# 1 52.7214 0.8942 6.8126 0.0000 -23.5748 0.0000
# 2 0.8942 54.4891 9.3435 0.0000 -2.3239 0.0000
# 3 6.8126 9.3435 57.2892 0.0000 -7.6294 0.0000
# 4 0.0000 0.0000 0.0000 45.6234 0.0000 3.0547
# 5 -23.5748 -2.3239 -7.6294 0.0000 30.9554 0.0000
# 6 0.0000 0.0000 0.0000 3.0547 0.0000 16.8502
#
#
#
# Elastic Compliance Matrix: (Units=1/GPa)
#
#
# Indices 1 2 3 4 5 6 
#
# 1 0.028794 0.000563 -0.000610 0.000000 0.021821 0.000000
# 2 0.000563 0.018905 -0.003003 0.000000 0.001108 0.000000
# 3 -0.000610 -0.003003 0.018534 0.000000 0.003878 0.000000
# 4 0.000000 0.000000 0.000000 0.022188 0.000000 -0.004022
# 5 0.021821 0.001108 0.003878 0.000000 0.049962 0.000000
# 6 0.000000 0.000000 0.000000 -0.004022 0.000000 0.060076
#
#
# Mechanical properties :
#
#
# Convention : Reuss Voigt Hill
#
# Bulk Modulus (GPa) = 16.62964 22.06671 19.34817
# Shear Modulus (GPa) = 22.26148 28.51575 25.38862
#
# Velocity S-wave (km/s) = 3.26831 3.69903 3.49032
# Velocity P-wave (km/s) = 4.71401 5.36956 5.05243
#
# Compressibility (1/GPa) = 0.06013361
#
# Stress axis : x y z
#
# Youngs Moduli (GPa) = 34.72913 52.89552 53.95488
#
# Poissons Ratio (x) = -0.02977 0.03291
# Poissons Ratio (y) = -0.01954 0.16201
# Poissons Ratio (z) = 0.02118 0.15883
#
# Static dielectric constant tensor:
#      x y z
#    x 1.787470 0.000000 0.017640 
#    y 0.000000 1.814910 0.000000 
#    z 0.017640 0.000000 1.778770 
# 
# From -- ./inp_files/9062.got.cif
#   From: 2010.05.17/outbox.cif.g08.bks.cpg/sg14_5_cif.got.tgz:9062.got - 2010.06.03 17:49:19.
