data_PCOD9241935
_publ_section_title
;
Structure prediction by ZEFSAII (Michael W. Deem and Ramdas Pophale) SiO2 
 PCOD9241935
Probable space group: P 21/C
;
_chemical_formula_sum "Si O2"
_cell_formula_units_Z 28
_cell_length_a 23.214832
_cell_length_b 7.106081
_cell_length_c 9.641357
_cell_angle_alpha 90.000000
_cell_angle_beta 138.559241
_cell_angle_gamma 90.000000
_cell_volume 1052.665426
_symmetry_space_group_name_H-M "P 21/C"
_symmetry_group_IT_number 14
_symmetry_cell_setting 'monoclinic'
loop_
_space_group_symop_operation_xyz
x,y,z
-x,1/2+y,1/2-z
-x,-y,-z
x,1/2-y,1/2+z
loop_
_atom_site_type_symbol
_atom_site_label
_atom_site_fract_x
_atom_site_fract_y
_atom_site_fract_z
Si Si1 0.162221 0.087023 0.487755
Si Si2 0.594129 0.440025 0.432502
Si Si3 0.341418 0.027716 0.681245
Si Si4 0.278611 0.585712 0.553445
Si Si5 0.103837 0.828589 0.882004
Si Si6 0.588637 0.999794 0.483653
Si Si7 0.924640 0.838176 0.955563
O O1 0.146129 0.214670 0.590858
O O2 0.094123 0.133422 0.239851
O O3 0.252290 0.116916 0.571241
O O4 0.145712 0.870574 0.501189
O O5 0.589115 0.549018 0.568770
O O6 0.687510 0.481888 0.533875
O O7 0.591992 0.222633 0.466104
O O8 0.513365 0.462236 0.183962
O O9 0.310887 0.806288 0.613417
O O10 0.380414 0.090603 0.605900
O O11 0.178728 0.580601 0.419663
O O12 0.339710 0.472856 0.770568
O O13 0.082643 0.965374 0.972023
O O14 0.015143 0.771846 0.644212
#
# Coordination Sequence:
#
# PCOD9241935 Si02
#       7
#     4   4   4   4   4   4   4
#     4  11  26  48  71 105 148 183 246 295 357 430
#     4  10  20  37  62  93 126 176 216 271 344 407
#     4   9  20  40  63  88 134 178 212 279 345 407
#     4   9  20  38  65  93 128 175 224 271 342 419
#     4  11  24  45  72 104 142 187 237 292 359 421
#     4  10  19  38  61  92 129 172 218 273 339 414
#     4  12  26  46  74 106 141 189 239 299 361 423
#
# _framework density 26.599143999999999
#
# number of rings (size 3 to 8) (size 9 to 14) (size 15 to 20)
#    0.000    1.714    1.429    2.143    0.000    6.286 
#    7.714    0.000    0.000    0.000    0.000    0.000 
#    0.000    0.000    0.000    0.000    0.000    0.000 
#
# Total GULP energy -156893.113171 kJ/mol
# GULP energy per Si atom -5603.325470 kJ/mol
# Density = 2.653860 g / cm^3
# Si number density = 26.599144 Si / 1000 Ang^3
#
#
#
# Elastic Constant Matrix: (Units=GPa)
#
#
# Indices 1 2 3 4 5 6 
#
# 1 130.0948 20.7760 21.6404 0.0000 19.9619 0.0000
# 2 20.7760 93.4302 21.4813 0.0000 1.5865 0.0000
# 3 21.6404 21.4813 75.3703 0.0000 10.6374 0.0000
# 4 0.0000 0.0000 0.0000 27.9619 0.0000 14.0980
# 5 19.9619 1.5865 10.6374 0.0000 47.8915 0.0000
# 6 0.0000 0.0000 0.0000 14.0980 0.0000 33.2829
#
#
#
# Elastic Compliance Matrix: (Units=1/GPa)
#
#
# Indices 1 2 3 4 5 6 
#
# 1 0.008689 -0.001507 -0.001612 0.000000 -0.003214 0.000000
# 2 -0.001507 0.011721 -0.003037 0.000000 0.000914 0.000000
# 3 -0.001612 -0.003037 0.014956 0.000000 -0.002550 0.000000
# 4 0.000000 0.000000 0.000000 0.045475 0.000000 -0.019262
# 5 -0.003214 0.000914 -0.002550 0.000000 0.022756 0.000000
# 6 0.000000 0.000000 0.000000 -0.019262 0.000000 0.038205
#
#
# Mechanical properties :
#
#
# Convention : Reuss Voigt Hill
#
# Bulk Modulus (GPa) = 43.37564 47.41008 45.39286
# Shear Modulus (GPa) = 30.90296 37.49377 34.19836
#
# Velocity S-wave (km/s) = 3.41222 3.75852 3.58955
# Velocity P-wave (km/s) = 5.64508 6.05788 5.85512
#
# Compressibility (1/GPa) = 0.02305442
#
# Stress axis : x y z
#
# Youngs Moduli (GPa) = 115.09403 85.31688 66.86303
#
# Poissons Ratio (x) = 0.12857 0.10776
# Poissons Ratio (y) = 0.17344 0.20306
# Poissons Ratio (z) = 0.18549 0.25911
#
# Static dielectric constant tensor:
#      x y z
#    x 2.007240 0.000000 -0.003860 
#    y 0.000000 2.108690 0.000000 
#    z -0.003860 0.000000 2.119030 
# 
# From -- ./inp_files/18768.got.cif
#   From: 2010.05.17/outbox.cif.g08.bks.cpg/sg14_10_cif.got.tgz:18768.got - 2010.06.03 17:49:19.
