data_PCOD9241686
_publ_section_title
;
Structure prediction by ZEFSAII (Michael W. Deem and Ramdas Pophale) SiO2 
 PCOD9241686
Probable space group: P 21/C
;
_chemical_formula_sum "Si O2"
_cell_formula_units_Z 26
_cell_length_a 13.837931
_cell_length_b 4.826483
_cell_length_c 21.747342
_cell_angle_alpha 90.000000
_cell_angle_beta 132.088576
_cell_angle_gamma 90.000000
_cell_volume 1077.894156
_symmetry_space_group_name_H-M "P 21/C"
_symmetry_group_IT_number 14
_symmetry_cell_setting 'monoclinic'
loop_
_space_group_symop_operation_xyz
x,y,z
-x,1/2+y,1/2-z
-x,-y,-z
x,1/2-y,1/2+z
loop_
_atom_site_type_symbol
_atom_site_label
_atom_site_fract_x
_atom_site_fract_y
_atom_site_fract_z
Si Si1 0.323674 0.276906 0.283967
Si Si2 0.197174 0.347788 0.021327
Si Si3 0.000000 0.000000 0.500000
Si Si4 0.334601 0.467841 0.489962
Si Si5 0.401433 0.786637 0.643734
Si Si6 0.823846 0.465866 0.374675
Si Si7 0.619969 0.275996 0.111044
O O1 0.202989 0.142307 0.197584
O O2 0.357407 0.087879 0.357859
O O3 0.445837 0.251302 0.289126
O O4 0.324936 0.587044 0.309713
O O5 0.104738 0.610503 0.989118
O O6 0.343187 0.407785 0.108147
O O7 0.131422 0.199209 0.054678
O O8 0.214477 0.215416 0.963002
O O9 0.080586 0.792251 0.586163
O O10 0.363656 0.650257 0.562433
O O11 0.315827 0.664256 0.423832
O O12 0.465534 0.284633 0.536762
O O13 0.313426 0.657483 0.659133
#
# Coordination Sequence:
#
# PCOD9241686 Si02
#       7
#     4   4   2   4   4   4   4
#     4  11  23  36  56  92 127 163 193 253 311 390
#     4  10  19  37  58  87 111 158 205 258 307 366
#     4  10  22  40  60  84 112 162 212 262 308 362
#     4   9  19  35  56  85 121 161 204 248 293 384
#     4   9  20  32  56  87 122 154 199 246 320 371
#     4  10  23  36  60  84 124 160 206 257 320 379
#     4  10  22  35  58  87 127 164 200 241 313 367
#
# _framework density 24.121109000000001
#
# number of rings (size 3 to 8) (size 9 to 14) (size 15 to 20)
#    0.000    2.154    1.538    0.462    8.615    1.846 
#    0.000    0.000    0.000    1.846    0.000    0.000 
#    0.000    0.000    0.000    0.000    0.000    0.000 
#
# Total GULP energy -144862.116834 kJ/mol
# GULP energy per Si atom -5571.619878 kJ/mol
# Density = 2.406621 g / cm^3
# Si number density = 24.121109 Si / 1000 Ang^3
#
#
#
# Elastic Constant Matrix: (Units=GPa)
#
#
# Indices 1 2 3 4 5 6 
#
# 1 89.5104 4.1008 16.0288 0.0000 -11.2810 0.0000
# 2 4.1008 75.3492 13.7041 0.0000 3.0816 0.0000
# 3 16.0288 13.7041 71.8838 0.0000 -7.2536 0.0000
# 4 0.0000 0.0000 0.0000 39.7325 0.0000 -0.1697
# 5 -11.2810 3.0816 -7.2536 0.0000 21.6719 0.0000
# 6 0.0000 0.0000 0.0000 -0.1697 0.0000 40.9309
#
#
#
# Elastic Compliance Matrix: (Units=1/GPa)
#
#
# Indices 1 2 3 4 5 6 
#
# 1 0.012294 -0.000532 -0.002056 0.000000 0.005787 0.000000
# 2 -0.000532 0.013954 -0.002867 0.000000 -0.003220 0.000000
# 3 -0.002056 -0.002867 0.015368 0.000000 0.004481 0.000000
# 4 0.000000 0.000000 0.000000 0.025169 0.000000 0.000104
# 5 0.005787 -0.003220 0.004481 0.000000 0.051113 0.000000
# 6 0.000000 0.000000 0.000000 0.000104 0.000000 0.024432
#
#
# Mechanical properties :
#
#
# Convention : Reuss Voigt Hill
#
# Bulk Modulus (GPa) = 32.56571 33.82341 33.19456
# Shear Modulus (GPa) = 30.58605 33.99438 32.29022
#
# Velocity S-wave (km/s) = 3.56479 3.75816 3.66275
# Velocity P-wave (km/s) = 5.52031 5.73450 5.62843
#
# Compressibility (1/GPa) = 0.03070715
#
# Stress axis : x y z
#
# Youngs Moduli (GPa) = 81.34226 71.66646 65.06836
#
# Poissons Ratio (x) = 0.03811 0.13378
# Poissons Ratio (y) = 0.04326 0.18652
# Poissons Ratio (z) = 0.16724 0.20543
#
# Static dielectric constant tensor:
#      x y z
#    x 2.154900 0.000000 0.166030 
#    y 0.000000 2.395380 0.000000 
#    z 0.166030 0.000000 2.038240 
# 
# From -- ./inp_files/67753.got.cif
#   From: 2010.05.17/outbox.cif.g08.bks.cpg/sg14_34_cif.got.tgz:67753.got - 2010.06.03 17:49:19.
