data_PCOD9241378
_publ_section_title
;
Structure prediction by ZEFSAII (Michael W. Deem and Ramdas Pophale) SiO2 
 PCOD9241378
Probable space group: P 21/C
;
_chemical_formula_sum "Si O2"
_cell_formula_units_Z 32
_cell_length_a 25.697235
_cell_length_b 10.936360
_cell_length_c 9.558471
_cell_angle_alpha 90.000000
_cell_angle_beta 151.136527
_cell_angle_gamma 90.000000
_cell_volume 1296.721340
_symmetry_space_group_name_H-M "P 21/C"
_symmetry_group_IT_number 14
_symmetry_cell_setting 'monoclinic'
loop_
_space_group_symop_operation_xyz
x,y,z
-x,1/2+y,1/2-z
-x,-y,-z
x,1/2-y,1/2+z
loop_
_atom_site_type_symbol
_atom_site_label
_atom_site_fract_x
_atom_site_fract_y
_atom_site_fract_z
Si Si1 0.686529 0.849524 0.161493
Si Si2 0.009784 0.266040 0.372119
Si Si3 0.354079 0.753598 0.114613
Si Si4 0.830415 0.523636 0.195486
Si Si5 0.505067 0.316542 0.287351
Si Si6 0.307572 0.499328 0.863318
Si Si7 0.872096 0.238019 0.296402
Si Si8 0.219904 0.362611 0.420202
O O1 0.742942 0.966264 0.364565
O O2 0.706290 0.851614 0.042845
O O3 0.750854 0.743837 0.399001
O O4 0.564202 0.808499 0.900449
O O5 0.908580 0.218817 0.223527
O O6 0.069966 0.383274 0.580986
O O7 0.099570 0.160403 0.583519
O O8 0.968672 0.304295 0.123666
O O9 0.425660 0.842502 0.188032
O O10 0.421280 0.704435 0.404686
O O11 0.330375 0.638008 0.958266
O O12 0.241226 0.802099 0.906263
O O13 0.763816 0.556169 0.178768
O O14 0.867478 0.385594 0.296970
O O15 0.417783 0.422086 0.110272
O O16 0.243209 0.480196 0.568210
#
# Coordination Sequence:
#
# PCOD9241378 Si02
#       8
#     4   4   4   4   4   4   4   4
#     4  10  19  35  63  95 118 147 198 262 308 354
#     4  11  20  39  64  89 123 168 206 249 304 365
#     4  11  24  40  58  87 125 161 201 249 304 369
#     4  10  21  40  64  94 123 156 208 263 306 359
#     4  11  20  39  64  86 115 159 200 246 310 370
#     4  10  21  40  63  92 121 155 200 256 311 363
#     4  11  24  40  59  90 128 169 206 250 307 365
#     4  10  19  35  62  95 122 151 200 255 303 357
#
# _framework density 24.677622
#
# number of rings (size 3 to 8) (size 9 to 14) (size 15 to 20)
#    0.000    1.500    0.000    9.000    0.000    1.000 
#    0.000   15.625    0.000    0.000    0.000    0.000 
#    0.000    0.000    0.000    0.000    0.000    0.000 
#
# Total GULP energy -179129.454619 kJ/mol
# GULP energy per Si atom -5597.795457 kJ/mol
# Density = 2.462145 g / cm^3
# Si number density = 24.677622 Si / 1000 Ang^3
#
#
#
# Elastic Constant Matrix: (Units=GPa)
#
#
# Indices 1 2 3 4 5 6 
#
# 1 116.6858 14.2415 -19.3050 0.0000 25.4263 0.0000
# 2 14.2415 23.6417 4.1661 0.0000 10.8812 0.0000
# 3 -19.3050 4.1661 452.5681 0.0000 -178.3518 0.0000
# 4 0.0000 0.0000 0.0000 12.0861 0.0000 -4.0645
# 5 25.4263 10.8812 -178.3518 0.0000 139.9347 0.0000
# 6 0.0000 0.0000 0.0000 -4.0645 0.0000 32.9529
#
#
#
# Elastic Compliance Matrix: (Units=1/GPa)
#
#
# Indices 1 2 3 4 5 6 
#
# 1 0.009487 -0.004983 -0.000153 0.000000 -0.001531 0.000000
# 2 -0.004983 0.049452 -0.003670 0.000000 -0.007617 0.000000
# 3 -0.000153 -0.003670 0.004742 0.000000 0.006357 0.000000
# 4 0.000000 0.000000 0.000000 0.086320 0.000000 0.010647
# 5 -0.001531 -0.007617 0.006357 0.000000 0.016119 0.000000
# 6 0.000000 0.000000 0.000000 0.010647 0.000000 0.031660
#
#
# Mechanical properties :
#
#
# Convention : Reuss Voigt Hill
#
# Bulk Modulus (GPa) = 21.70598 65.67788 43.69193
# Shear Modulus (GPa) = 21.66874 76.58095 49.12485
#
# Velocity S-wave (km/s) = 2.96644 5.57673 4.46653
# Velocity P-wave (km/s) = 4.53299 8.25462 6.65908
#
# Compressibility (1/GPa) = 0.04607025
#
# Stress axis : x y z
#
# Youngs Moduli (GPa) = 105.41264 20.22154 210.87495
#
# Poissons Ratio (x) = 0.10076 0.03223
# Poissons Ratio (y) = 0.52527 0.77381
# Poissons Ratio (z) = 0.01611 0.07420
#
# Static dielectric constant tensor:
#      x y z
#    x 1.943760 0.000000 0.015290 
#    y 0.000000 2.038740 0.000000 
#    z 0.015290 0.000000 1.940400 
# 
# From -- ./inp_files/19554.got.cif
#   From: 2010.05.17/outbox.cif.g08.bks.cpg/sg14_10_cif.got.tgz:19554.got - 2010.06.03 17:49:19.
