data_PCOD9241376
_publ_section_title
;
Structure prediction by ZEFSAII (Michael W. Deem and Ramdas Pophale) SiO2 
 PCOD9241376
Probable space group: P 21/C
;
_chemical_formula_sum "Si O2"
_cell_formula_units_Z 28
_cell_length_a 20.397533
_cell_length_b 8.539680
_cell_length_c 23.906133
_cell_angle_alpha 90.000000
_cell_angle_beta 16.507822
_cell_angle_gamma 90.000000
_cell_volume 1183.233579
_symmetry_space_group_name_H-M "P 21/C"
_symmetry_group_IT_number 14
_symmetry_cell_setting 'monoclinic'
loop_
_space_group_symop_operation_xyz
x,y,z
-x,1/2+y,1/2-z
-x,-y,-z
x,1/2-y,1/2+z
loop_
_atom_site_type_symbol
_atom_site_label
_atom_site_fract_x
_atom_site_fract_y
_atom_site_fract_z
Si Si1 0.350640 0.213935 0.677316
Si Si2 0.937059 0.516972 0.421932
Si Si3 0.335667 0.783558 0.974114
Si Si4 0.138584 0.061152 0.645338
Si Si5 0.713333 0.345353 0.786033
Si Si6 0.457356 0.286420 0.312242
Si Si7 0.151645 0.711808 0.935871
O O1 0.482324 0.275826 0.624261
O O2 0.510008 0.208263 0.492474
O O3 0.303573 0.025505 0.723053
O O4 0.119897 0.311538 0.852008
O O5 0.739456 0.600440 0.549445
O O6 0.844310 0.382612 0.537747
O O7 0.115632 0.437884 0.231887
O O8 0.064666 0.644022 0.355494
O O9 0.213613 0.613672 0.070302
O O10 0.120595 0.897736 0.162533
O O11 0.448852 0.798328 0.820389
O O12 0.325648 0.175430 0.464616
O O13 0.741964 0.228581 0.711978
O O14 0.670677 0.374796 0.168585
#
# Coordination Sequence:
#
# PCOD9241376 Si02
#       7
#     4   4   4   4   4   4   4
#     4  10  20  36  60  93 132 167 220 280 340 395
#     4  11  21  42  59 101 133 180 220 285 346 396
#     4  12  25  43  70 102 141 183 227 287 349 410
#     4  12  24  43  67 102 139 176 235 280 346 409
#     4  10  19  35  62  91 133 164 223 290 339 382
#     4  12  24  38  66  98 142 175 224 281 350 407
#     4  11  23  35  63 100 136 169 224 289 337 409
#
# _framework density 23.663968000000001
#
# number of rings (size 3 to 8) (size 9 to 14) (size 15 to 20)
#    0.000    0.857    4.286    5.143    4.000    0.000 
#    0.000    0.000    0.000    1.714    0.000    0.000 
#    0.000    0.000    0.000    0.000    0.000    0.000 
#
# Total GULP energy -156605.149778 kJ/mol
# GULP energy per Si atom -5593.041064 kJ/mol
# Density = 2.361011 g / cm^3
# Si number density = 23.663968 Si / 1000 Ang^3
#
#
#
# Elastic Constant Matrix: (Units=GPa)
#
#
# Indices 1 2 3 4 5 6 
#
# 1 177.8696 26.2249 73.5867 0.0000 -26.3734 0.0000
# 2 26.2249 33.1103 23.8718 0.0000 -6.8417 0.0000
# 3 73.5867 23.8718 117.0325 0.0000 -8.4087 0.0000
# 4 0.0000 0.0000 0.0000 18.5461 0.0000 -14.9567
# 5 -26.3734 -6.8417 -8.4087 0.0000 62.1664 0.0000
# 6 0.0000 0.0000 0.0000 -14.9567 0.0000 26.2074
#
#
#
# Elastic Compliance Matrix: (Units=1/GPa)
#
#
# Indices 1 2 3 4 5 6 
#
# 1 0.008253 -0.002807 -0.004431 0.000000 0.002593 0.000000
# 2 -0.002807 0.036908 -0.005612 0.000000 0.002112 0.000000
# 3 -0.004431 -0.005612 0.012416 0.000000 -0.000818 0.000000
# 4 0.000000 0.000000 0.000000 0.099897 0.000000 0.057012
# 5 0.002593 0.002112 -0.000818 0.000000 0.017308 0.000000
# 6 0.000000 0.000000 0.000000 0.057012 0.000000 0.070694
#
#
# Mechanical properties :
#
#
# Convention : Reuss Voigt Hill
#
# Bulk Modulus (GPa) = 31.36852 63.93101 47.64977
# Shear Modulus (GPa) = 17.74299 35.00592 26.37445
#
# Velocity S-wave (km/s) = 2.74120 3.85033 3.34210
# Velocity P-wave (km/s) = 4.82737 6.84409 5.92221
#
# Compressibility (1/GPa) = 0.03187909
#
# Stress axis : x y z
#
# Youngs Moduli (GPa) = 121.16120 27.09470 80.53860
#
# Poissons Ratio (x) = 0.07605 0.35684
# Poissons Ratio (y) = 0.34008 0.45195
# Poissons Ratio (z) = 0.53683 0.15205
#
# Static dielectric constant tensor:
#      x y z
#    x 1.903790 0.000000 -0.037370 
#    y 0.000000 1.933020 0.000000 
#    z -0.037370 0.000000 1.969190 
# 
# From -- ./inp_files/69267.got.cif
#   From: 2010.05.17/outbox.cif.g08.bks.cpg/sg14_35_cif.got.tgz:69267.got - 2010.06.03 17:49:19.
