data_PCOD9241898
_publ_section_title
;
Structure prediction by ZEFSAII (Michael W. Deem and Ramdas Pophale) SiO2 
 PCOD9241898
Probable space group: P 21/C
;
_chemical_formula_sum "Si O2"
_cell_formula_units_Z 28
_cell_length_a 8.017260
_cell_length_b 13.584457
_cell_length_c 16.916159
_cell_angle_alpha 90.000000
_cell_angle_beta 43.630608
_cell_angle_gamma 90.000000
_cell_volume 1271.226886
_symmetry_space_group_name_H-M "P 21/C"
_symmetry_group_IT_number 14
_symmetry_cell_setting 'monoclinic'
loop_
_space_group_symop_operation_xyz
x,y,z
-x,1/2+y,1/2-z
-x,-y,-z
x,1/2-y,1/2+z
loop_
_atom_site_type_symbol
_atom_site_label
_atom_site_fract_x
_atom_site_fract_y
_atom_site_fract_z
Si Si1 0.117748 0.836761 0.348111
Si Si2 0.942212 0.014589 0.190305
Si Si3 0.362913 0.149858 0.757999
Si Si4 0.503142 0.835538 0.449089
Si Si5 0.174883 0.338723 0.490837
Si Si6 0.694438 0.344358 0.383048
Si Si7 0.160141 0.991971 0.597193
O O1 0.374711 0.821358 0.300738
O O2 0.146644 0.809168 0.245819
O O3 0.909572 0.770104 0.456446
O O4 0.061450 0.952910 0.367158
O O5 0.154856 0.931517 0.126713
O O6 0.694460 0.961206 0.249935
O O7 0.906728 0.050538 0.292889
O O8 0.002487 0.090769 0.100935
O O9 0.346871 0.201772 0.678138
O O10 0.181577 0.161742 0.893607
O O11 0.388299 0.743918 0.532840
O O12 0.662825 0.914019 0.444668
O O13 0.279812 0.907642 0.504280
O O14 0.440001 0.373448 0.429256
#
# Coordination Sequence:
#
# PCOD9241898 Si02
#       7
#     4   4   4   4   4   4   4
#     4  10  21  39  59  87 120 154 195 237 287 354
#     4  10  21  39  60  86 117 149 199 242 283 345
#     4  10  24  38  54  88 124 148 197 238 287 352
#     4  10  19  38  59  86 115 151 192 246 282 333
#     4  11  21  40  60  85 117 163 184 239 297 343
#     4  10  21  37  63  87 113 151 204 241 280 344
#     4   9  19  37  62  83 111 151 197 238 286 336
#
# _framework density 22.025967000000001
#
# number of rings (size 3 to 8) (size 9 to 14) (size 15 to 20)
#    0.000    2.000    1.429    1.714    2.000    0.571 
#    0.000    1.429    0.000    0.000    0.000    0.000 
#    0.000    0.000    0.000    0.000    0.000    0.000 
#
# Total GULP energy -155978.313417 kJ/mol
# GULP energy per Si atom -5570.654051 kJ/mol
# Density = 2.197583 g / cm^3
# Si number density = 22.025967 Si / 1000 Ang^3
#
#
#
# Elastic Constant Matrix: (Units=GPa)
#
#
# Indices 1 2 3 4 5 6 
#
# 1 47.7845 5.9081 8.7757 0.0000 2.7993 0.0000
# 2 5.9081 28.3522 24.6013 0.0000 19.8483 0.0000
# 3 8.7757 24.6013 102.7685 0.0000 27.5186 0.0000
# 4 0.0000 0.0000 0.0000 33.4102 0.0000 -7.6471
# 5 2.7993 19.8483 27.5186 0.0000 32.0413 0.0000
# 6 0.0000 0.0000 0.0000 -7.6471 0.0000 9.9588
#
#
#
# Elastic Compliance Matrix: (Units=1/GPa)
#
#
# Indices 1 2 3 4 5 6 
#
# 1 0.021646 -0.005033 -0.001262 0.000000 0.002311 0.000000
# 2 -0.005033 0.066377 -0.005932 0.000000 -0.035584 0.000000
# 3 -0.001262 -0.005932 0.013305 0.000000 -0.007642 0.000000
# 4 0.000000 0.000000 0.000000 0.036313 0.000000 0.027884
# 5 0.002311 -0.035584 -0.007642 0.000000 0.059614 0.000000
# 6 0.000000 0.000000 0.000000 0.027884 0.000000 0.121824
#
#
# Mechanical properties :
#
#
# Convention : Reuss Voigt Hill
#
# Bulk Modulus (GPa) = 13.00824 28.60837 20.80830
# Shear Modulus (GPa) = 13.54433 24.39008 18.96721
#
# Velocity S-wave (km/s) = 2.48246 3.33127 2.93768
# Velocity P-wave (km/s) = 3.75972 5.27382 4.57977
#
# Compressibility (1/GPa) = 0.07687435
#
# Stress axis : x y z
#
# Youngs Moduli (GPa) = 46.19780 15.06536 75.16170
#
# Poissons Ratio (x) = 0.07582 0.09488
# Poissons Ratio (y) = 0.23251 0.44582
# Poissons Ratio (z) = 0.05832 0.08936
#
# Static dielectric constant tensor:
#      x y z
#    x 1.917500 0.000000 -0.024170 
#    y 0.000000 1.790080 0.000000 
#    z -0.024170 0.000000 1.878000 
# 
# From -- ./inp_files/25371.got.cif
#   From: 2010.05.17/outbox.cif.g08.bks.cpg/sg14_13_cif.got.tgz:25371.got - 2010.06.03 17:49:19.
