data_PCOD9241433
_publ_section_title
;
Structure prediction by ZEFSAII (Michael W. Deem and Ramdas Pophale) SiO2 
 PCOD9241433
Probable space group: P 21/C
;
_chemical_formula_sum "Si O2"
_cell_formula_units_Z 32
_cell_length_a 7.724096
_cell_length_b 9.403006
_cell_length_c 20.796070
_cell_angle_alpha 90.000000
_cell_angle_beta 79.273799
_cell_angle_gamma 90.000000
_cell_volume 1484.022513
_symmetry_space_group_name_H-M "P 21/C"
_symmetry_group_IT_number 14
_symmetry_cell_setting 'monoclinic'
loop_
_space_group_symop_operation_xyz
x,y,z
-x,1/2+y,1/2-z
-x,-y,-z
x,1/2-y,1/2+z
loop_
_atom_site_type_symbol
_atom_site_label
_atom_site_fract_x
_atom_site_fract_y
_atom_site_fract_z
Si Si1 0.661285 0.749413 0.241934
Si Si2 0.257466 0.204498 0.055496
Si Si3 0.788269 0.007255 0.159217
Si Si4 0.416983 0.752325 0.384701
Si Si5 0.000505 0.754785 0.305015
Si Si6 0.896973 0.423562 0.449440
Si Si7 0.036269 0.147867 0.463255
Si Si8 0.218055 0.001687 0.339789
O O1 0.527939 0.754704 0.310209
O O2 0.641781 0.602561 0.204665
O O3 0.856565 0.746728 0.259776
O O4 0.660769 0.888789 0.197407
O O5 0.444378 0.257411 0.067527
O O6 0.108670 0.244138 0.119724
O O7 0.188470 0.272097 0.993951
O O8 0.259589 0.032146 0.054023
O O9 0.694626 0.106872 0.112214
O O10 0.863596 0.123418 0.204401
O O11 0.960900 0.932001 0.118005
O O12 0.297557 0.891136 0.385774
O O13 0.109098 0.901101 0.299161
O O14 0.875568 0.259964 0.469835
O O15 0.000000 0.500000 0.500000
O O16 0.095419 0.107890 0.387890
O O17 0.000000 0.000000 0.500000
#
# Coordination Sequence:
#
# PCOD9241433 Si02
#       8
#     4   4   4   4   4   4   4   4
#     4  11  20  36  56  81 115 145 196 236 271 338
#     4   9  19  38  57  82 115 151 184 229 280 344
#     4  10  19  36  56  80 110 150 187 226 280 338
#     4  10  23  37  55  79 120 157 182 223 290 343
#     4   9  19  34  57  84 110 148 188 237 285 327
#     4   9  19  36  61  81 104 142 190 230 272 328
#     4  11  20  36  63  87 113 139 188 244 286 327
#     4  11  21  36  59  88 113 151 188 235 295 333
#
# _framework density 21.563016000000001
#
# number of rings (size 3 to 8) (size 9 to 14) (size 15 to 20)
#    0.000    2.000    2.500    1.500    1.750    0.500 
#    0.000    3.750    0.000    0.000    0.000    0.000 
#    0.000    0.000    0.000    0.000    0.000    0.000 
#
# Total GULP energy -178645.430762 kJ/mol
# GULP energy per Si atom -5582.669711 kJ/mol
# Density = 2.151394 g / cm^3
# Si number density = 21.563016 Si / 1000 Ang^3
#
#
#
# Elastic Constant Matrix: (Units=GPa)
#
#
# Indices 1 2 3 4 5 6 
#
# 1 52.1945 21.3354 -11.7134 0.0000 13.0830 0.0000
# 2 21.3354 148.2023 13.6839 0.0000 3.1028 0.0000
# 3 -11.7134 13.6839 37.4937 0.0000 -4.6808 0.0000
# 4 0.0000 0.0000 0.0000 25.4681 0.0000 -5.7085
# 5 13.0830 3.1028 -4.6808 0.0000 25.3043 0.0000
# 6 0.0000 0.0000 0.0000 -5.7085 0.0000 21.0576
#
#
#
# Elastic Compliance Matrix: (Units=1/GPa)
#
#
# Indices 1 2 3 4 5 6 
#
# 1 0.025484 -0.004182 0.008094 0.000000 -0.011166 0.000000
# 2 -0.004182 0.007715 -0.004064 0.000000 0.000464 0.000000
# 3 0.008094 -0.004064 0.030937 0.000000 0.002036 0.000000
# 4 0.000000 0.000000 0.000000 0.041805 0.000000 0.011333
# 5 -0.011166 0.000464 0.002036 0.000000 0.045612 0.000000
# 6 0.000000 0.000000 0.000000 0.011333 0.000000 0.050561
#
#
# Mechanical properties :
#
#
# Convention : Reuss Voigt Hill
#
# Bulk Modulus (GPa) = 15.66641 31.61135 23.63888
# Shear Modulus (GPa) = 22.35170 28.67165 25.51167
#
# Velocity S-wave (km/s) = 3.22308 3.65042 3.44339
# Velocity P-wave (km/s) = 4.59698 5.69730 5.17646
#
# Compressibility (1/GPa) = 0.06383083
#
# Stress axis : x y z
#
# Youngs Moduli (GPa) = 39.24051 129.61492 32.32341
#
# Poissons Ratio (x) = 0.54208 -0.26162
# Poissons Ratio (y) = 0.16411 0.13137
# Poissons Ratio (z) = -0.31761 0.52680
#
# Static dielectric constant tensor:
#      x y z
#    x 1.774120 0.000000 -0.029690 
#    y 0.000000 1.813810 0.000000 
#    z -0.029690 0.000000 1.806760 
# 
# From -- ./inp_files/64832.got.cif
#   From: 2010.05.17/outbox.cif.g08.bks.cpg/sg14_33_cif.got.tgz:64832.got - 2010.06.03 17:49:19.
