data_PCOD9241068
_publ_section_title
;
Structure prediction by ZEFSAII (Michael W. Deem and Ramdas Pophale) SiO2 
 PCOD9241068
Probable space group: P 21/C
;
_chemical_formula_sum "Si O2"
_cell_formula_units_Z 28
_cell_length_a 14.584840
_cell_length_b 7.805359
_cell_length_c 12.920880
_cell_angle_alpha 90.000000
_cell_angle_beta 118.783163
_cell_angle_gamma 90.000000
_cell_volume 1289.178054
_symmetry_space_group_name_H-M "P 21/C"
_symmetry_group_IT_number 14
_symmetry_cell_setting 'monoclinic'
loop_
_space_group_symop_operation_xyz
x,y,z
-x,1/2+y,1/2-z
-x,-y,-z
x,1/2-y,1/2+z
loop_
_atom_site_type_symbol
_atom_site_label
_atom_site_fract_x
_atom_site_fract_y
_atom_site_fract_z
Si Si1 0.062042 0.173758 0.507051
Si Si2 0.564124 0.017545 0.931537
Si Si3 0.249198 0.963109 0.596568
Si Si4 0.200836 0.076473 0.176235
Si Si5 0.209280 0.613939 0.463158
Si Si6 0.587934 0.760869 0.270359
Si Si7 0.864090 0.265528 0.779387
O O1 0.108096 0.282842 0.627972
O O2 0.977587 0.268219 0.391179
O O3 0.167798 0.106650 0.511729
O O4 0.000000 0.000000 0.500000
O O5 0.514472 0.183070 0.847726
O O6 0.557656 0.856971 0.850425
O O7 0.685662 0.033106 0.024815
O O8 0.500000 0.000000 0.000000
O O9 0.243289 0.800683 0.520952
O O10 0.203969 0.888648 0.681246
O O11 0.357446 0.060385 0.667676
O O12 0.316524 0.161229 0.236818
O O13 0.191436 0.920073 0.250316
O O14 0.181814 0.991382 0.051401
O O15 0.128291 0.644388 0.327362
#
# Coordination Sequence:
#
# PCOD9241068 Si02
#       7
#     4   4   4   4   4   4   4
#     4   9  18  34  57  81 110 149 185 223 272 331
#     4  11  23  38  59  84 109 146 193 236 286 350
#     4   9  19  37  54  77 111 143 181 226 277 333
#     4   9  20  37  56  81 114 148 186 230 282 339
#     4  10  21  35  54  81 111 144 184 231 283 337
#     4  10  21  39  58  78 112 149 181 237 292 334
#     4  10  19  34  57  82 110 145 183 229 276 330
#
# _framework density 21.719263999999999
#
# number of rings (size 3 to 8) (size 9 to 14) (size 15 to 20)
#    0.000    2.286    0.000    2.143    0.000    4.571 
#    0.000    9.286    0.000    0.000    0.000    0.000 
#    0.000    0.000    0.000    0.000    0.000    0.000 
#
# Total GULP energy -156143.893738 kJ/mol
# GULP energy per Si atom -5576.567633 kJ/mol
# Density = 2.166983 g / cm^3
# Si number density = 21.719264 Si / 1000 Ang^3
#
#
#
# Elastic Constant Matrix: (Units=GPa)
#
#
# Indices 1 2 3 4 5 6 
#
# 1 37.3218 1.9296 8.2416 0.0000 9.9592 0.0000
# 2 1.9296 84.9814 0.4930 0.0000 1.6941 0.0000
# 3 8.2416 0.4930 35.9001 0.0000 8.1915 0.0000
# 4 0.0000 0.0000 0.0000 22.2587 0.0000 12.4890
# 5 9.9592 1.6941 8.1915 0.0000 24.5211 0.0000
# 6 0.0000 0.0000 0.0000 12.4890 0.0000 32.0995
#
#
#
# Elastic Compliance Matrix: (Units=1/GPa)
#
#
# Indices 1 2 3 4 5 6 
#
# 1 0.030741 -0.000454 -0.004557 0.000000 -0.010932 0.000000
# 2 -0.000454 0.011790 0.000093 0.000000 -0.000661 0.000000
# 3 -0.004557 0.000093 0.030829 0.000000 -0.008454 0.000000
# 4 0.000000 0.000000 0.000000 0.057473 0.000000 -0.022361
# 5 -0.010932 -0.000661 -0.008454 0.000000 0.048091 0.000000
# 6 0.000000 0.000000 0.000000 -0.022361 0.000000 0.039853
#
#
# Mechanical properties :
#
#
# Convention : Reuss Voigt Hill
#
# Bulk Modulus (GPa) = 15.74164 19.94797 17.84481
# Shear Modulus (GPa) = 20.01713 25.61181 22.81447
#
# Velocity S-wave (km/s) = 3.03913 3.43770 3.24454
# Velocity P-wave (km/s) = 4.42477 4.99615 4.71911
#
# Compressibility (1/GPa) = 0.06352577
#
# Stress axis : x y z
#
# Youngs Moduli (GPa) = 32.53009 84.81598 32.43709
#
# Poissons Ratio (x) = 0.03848 0.14780
# Poissons Ratio (y) = 0.01476 -0.00302
# Poissons Ratio (z) = 0.14823 -0.00790
#
# Static dielectric constant tensor:
#      x y z
#    x 1.815530 0.000000 0.037090 
#    y 0.000000 1.838720 0.000000 
#    z 0.037090 0.000000 1.845610 
# 
# From -- ./inp_files/31890.got.cif
#   From: 2010.05.17/outbox.cif.g08.bks.cpg/sg14_16_cif.got.tgz:31890.got - 2010.06.03 17:49:19.
