data_PCOD9241822
_publ_section_title
;
Structure prediction by ZEFSAII (Michael W. Deem and Ramdas Pophale) SiO2 
 PCOD9241822
Probable space group: P 21/C
;
_chemical_formula_sum "Si O2"
_cell_formula_units_Z 28
_cell_length_a 13.662285
_cell_length_b 10.285536
_cell_length_c 13.502017
_cell_angle_alpha 90.000000
_cell_angle_beta 38.075619
_cell_angle_gamma 90.000000
_cell_volume 1170.101514
_symmetry_space_group_name_H-M "P 21/C"
_symmetry_group_IT_number 14
_symmetry_cell_setting 'monoclinic'
loop_
_space_group_symop_operation_xyz
x,y,z
-x,1/2+y,1/2-z
-x,-y,-z
x,1/2-y,1/2+z
loop_
_atom_site_type_symbol
_atom_site_label
_atom_site_fract_x
_atom_site_fract_y
_atom_site_fract_z
Si Si1 0.897656 0.868793 0.562566
Si Si2 0.510235 0.295208 0.274737
Si Si3 0.655066 0.923794 0.907386
Si Si4 0.267670 0.591206 0.192980
Si Si5 0.558665 0.962150 0.597601
Si Si6 0.893607 0.348163 0.271369
Si Si7 0.858974 0.187291 0.027210
O O1 0.727408 0.863619 0.749258
O O2 0.934266 0.845044 0.417931
O O3 0.996512 0.763479 0.543198
O O4 0.000000 0.000000 0.500000
O O5 0.400916 0.342403 0.453059
O O6 0.453313 0.145932 0.307197
O O7 0.505476 0.400710 0.190011
O O8 0.698266 0.277450 0.152688
O O9 0.793213 0.023296 0.827967
O O10 0.500000 0.000000 0.000000
O O11 0.442102 0.594277 0.104446
O O12 0.204882 0.726176 0.196432
O O13 0.171392 0.570226 0.371266
O O14 0.281278 0.492332 0.090978
O O15 0.896915 0.343863 0.385541
#
# Coordination Sequence:
#
# PCOD9241822 Si02
#       7
#     4   4   4   4   4   4   4
#     4   9  20  38  62  86 124 168 215 268 325 406
#     4  11  21  35  59  94 125 168 223 278 341 403
#     4  11  21  37  62  95 134 166 221 284 341 394
#     4   9  18  34  59  86 124 169 215 269 336 398
#     4  10  20  35  57  90 130 166 219 277 341 401
#     4  10  19  38  66  92 125 181 223 267 337 416
#     4  10  19  37  64  90 120 173 224 265 337 408
#
# _framework density 23.929545999999998
#
# number of rings (size 3 to 8) (size 9 to 14) (size 15 to 20)
#    0.000    2.000    1.429    5.143    0.000    0.000 
#    0.000    5.714    6.286    1.714    0.000    0.000 
#    0.000    0.000    0.000    0.000    0.000    0.000 
#
# Total GULP energy -156091.225504 kJ/mol
# GULP energy per Si atom -5574.686625 kJ/mol
# Density = 2.387508 g / cm^3
# Si number density = 23.929546 Si / 1000 Ang^3
#
#
#
# Elastic Constant Matrix: (Units=GPa)
#
#
# Indices 1 2 3 4 5 6 
#
# 1 56.2792 20.4208 58.9245 0.0000 24.6104 0.0000
# 2 20.4208 54.4010 34.5833 0.0000 14.1683 0.0000
# 3 58.9245 34.5833 226.2440 0.0000 27.5906 0.0000
# 4 0.0000 0.0000 0.0000 35.4975 0.0000 2.5854
# 5 24.6104 14.1683 27.5906 0.0000 47.4950 0.0000
# 6 0.0000 0.0000 0.0000 2.5854 0.0000 15.6943
#
#
#
# Elastic Compliance Matrix: (Units=1/GPa)
#
#
# Indices 1 2 3 4 5 6 
#
# 1 0.030435 -0.004860 -0.005852 0.000000 -0.010921 0.000000
# 2 -0.004860 0.022111 -0.001740 0.000000 -0.003067 0.000000
# 3 -0.005852 -0.001740 0.006217 0.000000 -0.000060 0.000000
# 4 0.000000 0.000000 0.000000 0.028513 0.000000 -0.004697
# 5 -0.010921 -0.003067 -0.000060 0.000000 0.027664 0.000000
# 6 0.000000 0.000000 0.000000 -0.004697 0.000000 0.064491
#
#
# Mechanical properties :
#
#
# Convention : Reuss Voigt Hill
#
# Bulk Modulus (GPa) = 29.53391 62.75349 46.14370
# Shear Modulus (GPa) = 23.18875 34.60374 28.89624
#
# Velocity S-wave (km/s) = 3.11632 3.80684 3.47876
# Velocity P-wave (km/s) = 5.03164 6.75307 5.95489
#
# Compressibility (1/GPa) = 0.03385938
#
# Stress axis : x y z
#
# Youngs Moduli (GPa) = 32.85734 45.22577 160.83697
#
# Poissons Ratio (x) = 0.21980 0.94120
# Poissons Ratio (y) = 0.15969 0.27988
# Poissons Ratio (z) = 0.19228 0.07870
#
# Static dielectric constant tensor:
#      x y z
#    x 1.917480 0.000000 0.047300 
#    y 0.000000 1.939490 0.000000 
#    z 0.047300 0.000000 2.030200 
# 
# From -- ./inp_files/48762.got.cif
#   From: 2010.05.17/outbox.cif.g08.bks.cpg/sg14_25_cif.got.tgz:48762.got - 2010.06.03 17:49:19.
