data_PCOD9241037
_publ_section_title
;
Structure prediction by ZEFSAII (Michael W. Deem and Ramdas Pophale) SiO2 
 PCOD9241037
Probable space group: P 21/C
;
_chemical_formula_sum "Si O2"
_cell_formula_units_Z 28
_cell_length_a 7.656297
_cell_length_b 19.326511
_cell_length_c 9.668228
_cell_angle_alpha 90.000000
_cell_angle_beta 61.720727
_cell_angle_gamma 90.000000
_cell_volume 1259.858763
_symmetry_space_group_name_H-M "P 21/C"
_symmetry_group_IT_number 14
_symmetry_cell_setting 'monoclinic'
loop_
_space_group_symop_operation_xyz
x,y,z
-x,1/2+y,1/2-z
-x,-y,-z
x,1/2-y,1/2+z
loop_
_atom_site_type_symbol
_atom_site_label
_atom_site_fract_x
_atom_site_fract_y
_atom_site_fract_z
Si Si1 0.328012 0.103754 0.553401
Si Si2 0.907645 0.465764 0.777498
Si Si3 0.585978 0.394472 0.700494
Si Si4 0.989776 0.692808 0.693108
Si Si5 0.739677 0.445250 0.380686
Si Si6 0.830693 0.259755 0.629276
Si Si7 0.724039 0.395075 0.084835
O O1 0.198965 0.036575 0.635162
O O2 0.394784 0.103085 0.369559
O O3 0.207376 0.170151 0.652886
O O4 0.529042 0.098677 0.565472
O O5 0.770054 0.431463 0.712137
O O6 0.123425 0.488073 0.644396
O O7 0.901657 0.420296 0.919039
O O8 0.570305 0.432009 0.558101
O O9 0.657023 0.314742 0.668530
O O10 0.123036 0.623234 0.644631
O O11 0.100536 0.752257 0.738922
O O12 0.986488 0.717159 0.536765
O O13 0.694659 0.439208 0.235210
O O14 0.761559 0.183486 0.613758
#
# Coordination Sequence:
#
# PCOD9241037 Si02
#       7
#     4   4   4   4   4   4   4
#     4  10  21  36  55  79 110 145 175 221 279 316
#     4  10  19  36  57  79 107 143 178 218 271 318
#     4  10  19  34  56  80 108 141 179 224 265 320
#     4   9  19  35  52  76 107 138 178 222 263 318
#     4   9  19  33  55  80 103 134 180 221 258 312
#     4  10  20  36  56  78 104 144 186 218 262 320
#     4  10  19  34  56  80 108 141 179 224 265 320
#
# _framework density 22.224713999999999
#
# number of rings (size 3 to 8) (size 9 to 14) (size 15 to 20)
#    0.000    2.286    0.000    4.286    0.000    1.143 
#    0.000    4.286    0.000   10.286    0.000    0.000 
#    0.000    0.000    0.000    0.000    0.000    0.000 
#
# Total GULP energy -156398.990536 kJ/mol
# GULP energy per Si atom -5585.678233 kJ/mol
# Density = 2.217413 g / cm^3
# Si number density = 22.224714 Si / 1000 Ang^3
#
#
#
# Elastic Constant Matrix: (Units=GPa)
#
#
# Indices 1 2 3 4 5 6 
#
# 1 25.9144 -4.4179 0.1036 0.0000 -9.2755 0.0000
# 2 -4.4179 71.9765 6.0525 0.0000 -3.8794 0.0000
# 3 0.1036 6.0525 90.1545 0.0000 -0.4504 0.0000
# 4 0.0000 0.0000 0.0000 19.4907 0.0000 10.1501
# 5 -9.2755 -3.8794 -0.4504 0.0000 27.6322 0.0000
# 6 0.0000 0.0000 0.0000 10.1501 0.0000 19.3589
#
#
#
# Elastic Compliance Matrix: (Units=1/GPa)
#
#
# Indices 1 2 3 4 5 6 
#
# 1 0.044761 0.003603 -0.000216 0.000000 0.015528 0.000000
# 2 0.003603 0.014368 -0.000953 0.000000 0.003211 0.000000
# 3 -0.000216 -0.000953 0.011156 0.000000 -0.000024 0.000000
# 4 0.000000 0.000000 0.000000 0.070578 0.000000 -0.037005
# 5 0.015528 0.003211 -0.000024 0.000000 0.041852 0.000000
# 6 0.000000 0.000000 0.000000 -0.037005 0.000000 0.071058
#
#
# Mechanical properties :
#
#
# Convention : Reuss Voigt Hill
#
# Bulk Modulus (GPa) = 13.30607 21.28018 17.29312
# Shear Modulus (GPa) = 18.25109 25.71683 21.98396
#
# Velocity S-wave (km/s) = 2.86878 3.40535 3.14852
# Velocity P-wave (km/s) = 4.11986 5.00576 4.58426
#
# Compressibility (1/GPa) = 0.07515367
#
# Stress axis : x y z
#
# Youngs Moduli (GPa) = 22.34063 69.60051 89.63664
#
# Poissons Ratio (x) = -0.25074 0.01933
# Poissons Ratio (y) = -0.08048 0.08539
# Poissons Ratio (z) = 0.00482 0.06631
#
# Static dielectric constant tensor:
#      x y z
#    x 1.824270 0.000000 -0.034140 
#    y 0.000000 1.819210 0.000000 
#    z -0.034140 0.000000 1.881530 
# 
# From -- ./inp_files/9885.got.cif
#   From: 2010.05.17/outbox.cif.g08.bks.cpg/sg14_5_cif.got.tgz:9885.got - 2010.06.03 17:49:19.
