data_PCOD9241155
_publ_section_title
;
Structure prediction by ZEFSAII (Michael W. Deem and Ramdas Pophale) SiO2 
 PCOD9241155
Probable space group: P 21/C
;
_chemical_formula_sum "Si O2"
_cell_formula_units_Z 28
_cell_length_a 16.730518
_cell_length_b 5.344672
_cell_length_c 17.224217
_cell_angle_alpha 90.000000
_cell_angle_beta 57.787070
_cell_angle_gamma 90.000000
_cell_volume 1303.099905
_symmetry_space_group_name_H-M "P 21/C"
_symmetry_group_IT_number 14
_symmetry_cell_setting 'monoclinic'
loop_
_space_group_symop_operation_xyz
x,y,z
-x,1/2+y,1/2-z
-x,-y,-z
x,1/2-y,1/2+z
loop_
_atom_site_type_symbol
_atom_site_label
_atom_site_fract_x
_atom_site_fract_y
_atom_site_fract_z
Si Si1 0.658198 0.983539 0.671613
Si Si2 0.994395 0.751780 0.450286
Si Si3 0.802795 0.299348 0.682471
Si Si4 0.342375 0.790484 0.980588
Si Si5 0.354025 0.998989 0.627279
Si Si6 0.457437 0.003638 0.126810
Si Si7 0.206388 0.096634 0.973566
O O1 0.565117 0.949826 0.770421
O O2 0.704960 0.761908 0.599409
O O3 0.737946 0.061163 0.694160
O O4 0.642583 0.188985 0.614018
O O5 0.891604 0.742223 0.463129
O O6 0.000000 0.500000 0.500000
O O7 0.089663 0.753938 0.349418
O O8 0.000000 0.000000 0.500000
O O9 0.742054 0.462887 0.773582
O O10 0.810042 0.428005 0.594242
O O11 0.433834 0.957333 0.949936
O O12 0.243934 0.939003 0.026709
O O13 0.338044 0.572889 0.046295
O O14 0.422330 0.775136 0.623927
O O15 0.399590 0.268551 0.617056
#
# Coordination Sequence:
#
# PCOD9241155 Si02
#       7
#     4   4   4   4   4   4   4
#     4  10  21  36  61  88 122 155 206 257 306 360
#     4  10  19  34  63  90 117 155 204 255 305 362
#     4   9  19  38  61  90 117 162 204 255 300 378
#     4  11  26  37  62  90 130 164 205 264 319 366
#     4  11  24  43  62  89 125 167 213 252 315 383
#     4  11  25  42  63  88 123 169 214 251 308 383
#     4  10  20  37  58  91 122 153 206 259 308 358
#
# _framework density 21.487223
#
# number of rings (size 3 to 8) (size 9 to 14) (size 15 to 20)
#    0.000    1.714    2.857    0.857    6.000    0.000 
#    0.000    0.000    3.143    0.000    0.000    0.000 
#    0.000    0.000    0.000    0.000    0.000    0.000 
#
# Total GULP energy -156247.259538 kJ/mol
# GULP energy per Si atom -5580.259269 kJ/mol
# Density = 2.143832 g / cm^3
# Si number density = 21.487223 Si / 1000 Ang^3
#
#
#
# Elastic Constant Matrix: (Units=GPa)
#
#
# Indices 1 2 3 4 5 6 
#
# 1 70.6428 23.8751 48.0429 0.0000 -7.3011 0.0000
# 2 23.8751 88.3556 10.8504 0.0000 -2.2003 0.0000
# 3 48.0429 10.8504 67.4069 0.0000 -5.4918 0.0000
# 4 0.0000 0.0000 0.0000 30.9991 0.0000 3.5549
# 5 -7.3011 -2.2003 -5.4918 0.0000 20.9587 0.0000
# 6 0.0000 0.0000 0.0000 3.5549 0.0000 24.3909
#
#
#
# Elastic Compliance Matrix: (Units=1/GPa)
#
#
# Indices 1 2 3 4 5 6 
#
# 1 0.030385 -0.005592 -0.020376 0.000000 0.004658 0.000000
# 2 -0.005592 0.012587 0.001950 0.000000 -0.000116 0.000000
# 3 -0.020376 0.001950 0.029104 0.000000 0.000733 0.000000
# 4 0.000000 0.000000 0.000000 0.032807 0.000000 -0.004782
# 5 0.004658 -0.000116 0.000733 0.000000 0.049515 0.000000
# 6 0.000000 0.000000 0.000000 -0.004782 0.000000 0.041696
#
#
# Mechanical properties :
#
#
# Convention : Reuss Voigt Hill
#
# Bulk Modulus (GPa) = 41.59980 43.54913 42.57446
# Shear Modulus (GPa) = 19.83000 24.84555 22.33778
#
# Velocity S-wave (km/s) = 3.04118 3.40412 3.22776
# Velocity P-wave (km/s) = 5.63329 5.98015 5.80931
#
# Compressibility (1/GPa) = 0.02403858
#
# Stress axis : x y z
#
# Youngs Moduli (GPa) = 32.91125 79.44949 34.35966
#
# Poissons Ratio (x) = 0.44429 0.70013
# Poissons Ratio (y) = 0.18404 -0.06701
# Poissons Ratio (z) = 0.67061 -0.15494
#
# Static dielectric constant tensor:
#      x y z
#    x 1.841860 0.000000 -0.034980 
#    y 0.000000 1.813340 0.000000 
#    z -0.034980 0.000000 1.767890 
# 
# From -- ./inp_files/58530.got.cif
#   From: 2010.05.17/outbox.cif.g08.bks.cpg/sg14_30_cif.got.tgz:58530.got - 2010.06.03 17:49:19.
