data_PCOD9241654
_publ_section_title
;
Structure prediction by ZEFSAII (Michael W. Deem and Ramdas Pophale) SiO2 
 PCOD9241654
Probable space group: P 21/C
;
_chemical_formula_sum "Si O2"
_cell_formula_units_Z 32
_cell_length_a 25.435562
_cell_length_b 9.010697
_cell_length_c 18.015533
_cell_angle_alpha 90.000000
_cell_angle_beta 15.888666
_cell_angle_gamma 90.000000
_cell_volume 1130.397153
_symmetry_space_group_name_H-M "P 21/C"
_symmetry_group_IT_number 14
_symmetry_cell_setting 'monoclinic'
loop_
_space_group_symop_operation_xyz
x,y,z
-x,1/2+y,1/2-z
-x,-y,-z
x,1/2-y,1/2+z
loop_
_atom_site_type_symbol
_atom_site_label
_atom_site_fract_x
_atom_site_fract_y
_atom_site_fract_z
Si Si1 0.386404 0.310046 0.425261
Si Si2 0.381469 0.553221 0.553206
Si Si3 0.475892 0.074865 0.425811
Si Si4 0.138638 0.659088 0.392362
Si Si5 0.119906 0.027358 0.191776
Si Si6 0.990257 0.436471 0.711426
Si Si7 0.183389 0.729012 0.177825
Si Si8 0.350674 0.286230 0.710365
O O1 0.398098 0.466966 0.453165
O O2 0.381585 0.180512 0.491785
O O3 0.197946 0.329572 0.630677
O O4 0.590649 0.278125 0.108412
O O5 0.207095 0.668992 0.801053
O O6 0.346692 0.421981 0.658852
O O7 0.570653 0.643787 0.320843
O O8 0.681692 0.021751 0.119330
O O9 0.496400 0.172711 0.471743
O O10 0.329599 0.942467 0.633881
O O11 0.032432 0.584965 0.606811
O O12 0.070267 0.652343 0.398655
O O13 0.974418 0.038055 0.320410
O O14 0.090726 0.889362 0.287123
O O15 0.161466 0.313771 0.473112
O O16 0.823925 0.357164 0.890623
#
# Coordination Sequence:
#
# PCOD9241654 Si02
#       8
#     4   4   4   4   4   4   4   4
#     4  10  21  38  64  90 123 161 215 266 315 370
#     4  10  19  36  66  96 118 165 214 273 304 361
#     4   9  19  35  60  94 117 157 213 263 309 370
#     4  11  20  40  68  89 126 166 213 259 314 375
#     4  11  21  40  63  92 123 166 212 264 315 376
#     4  11  25  41  62  91 134 171 203 258 327 384
#     4  11  24  42  62  94 131 164 215 259 316 393
#     4   9  20  36  60  93 127 153 212 260 317 369
#
# _framework density 28.308636
#
# number of rings (size 3 to 8) (size 9 to 14) (size 15 to 20)
#    0.000    1.750    2.500    1.875    0.000    4.000 
#    2.250    0.625    0.000    0.000    0.000    0.000 
#    0.000    0.000    0.000    0.000    0.000    0.000 
#
# Total GULP energy -179373.813428 kJ/mol
# GULP energy per Si atom -5605.431670 kJ/mol
# Density = 2.824420 g / cm^3
# Si number density = 28.308636 Si / 1000 Ang^3
#
#
#
# Elastic Constant Matrix: (Units=GPa)
#
#
# Indices 1 2 3 4 5 6 
#
# 1 181.7819 60.3510 19.2541 0.0000 -16.9865 0.0000
# 2 60.3510 153.0793 0.1844 0.0000 -6.8449 0.0000
# 3 19.2541 0.1844 60.2509 0.0000 -9.9046 0.0000
# 4 0.0000 0.0000 0.0000 33.7242 0.0000 -4.4935
# 5 -16.9865 -6.8449 -9.9046 0.0000 40.1761 0.0000
# 6 0.0000 0.0000 0.0000 -4.4935 0.0000 61.8466
#
#
#
# Elastic Compliance Matrix: (Units=1/GPa)
#
#
# Indices 1 2 3 4 5 6 
#
# 1 0.006728 -0.002563 -0.001820 0.000000 0.001959 0.000000
# 2 -0.002563 0.007560 0.000864 0.000000 0.000418 0.000000
# 3 -0.001820 0.000864 0.017795 0.000000 0.003765 0.000000
# 4 0.000000 0.000000 0.000000 0.029942 0.000000 0.002175
# 5 0.001959 0.000418 0.003765 0.000000 0.026718 0.000000
# 6 0.000000 0.000000 0.000000 0.002175 0.000000 0.016327
#
#
# Mechanical properties :
#
#
# Convention : Reuss Voigt Hill
#
# Bulk Modulus (GPa) = 39.92491 61.63233 50.77862
# Shear Modulus (GPa) = 41.50893 48.17088 44.83990
#
# Velocity S-wave (km/s) = 3.83338 4.12956 3.98422
# Velocity P-wave (km/s) = 5.80751 6.67507 6.25634
#
# Compressibility (1/GPa) = 0.02504702
#
# Stress axis : x y z
#
# Youngs Moduli (GPa) = 148.63871 132.26647 56.19514
#
# Poissons Ratio (x) = 0.33894 0.10228
# Poissons Ratio (y) = 0.38090 -0.04858
# Poissons Ratio (z) = 0.27053 -0.11434
#
# Static dielectric constant tensor:
#      x y z
#    x 2.195970 0.000000 0.003220 
#    y 0.000000 2.195550 0.000000 
#    z 0.003220 0.000000 2.213770 
# 
# From -- ./inp_files/70482.got.cif
#   From: 2010.05.17/outbox.cif.g08.bks.cpg/sg14_36_cif.got.tgz:70482.got - 2010.06.03 17:49:19.
