data_PCOD9241723
_publ_section_title
;
Structure prediction by ZEFSAII (Michael W. Deem and Ramdas Pophale) SiO2 
 PCOD9241723
Probable space group: P 21/C
;
_chemical_formula_sum "Si O2"
_cell_formula_units_Z 32
_cell_length_a 13.785285
_cell_length_b 7.437831
_cell_length_c 12.913413
_cell_angle_alpha 90.000000
_cell_angle_beta 69.280358
_cell_angle_gamma 90.000000
_cell_volume 1238.410475
_symmetry_space_group_name_H-M "P 21/C"
_symmetry_group_IT_number 14
_symmetry_cell_setting 'monoclinic'
loop_
_space_group_symop_operation_xyz
x,y,z
-x,1/2+y,1/2-z
-x,-y,-z
x,1/2-y,1/2+z
loop_
_atom_site_type_symbol
_atom_site_label
_atom_site_fract_x
_atom_site_fract_y
_atom_site_fract_z
Si Si1 0.794505 0.090475 0.565933
Si Si2 0.104526 0.347348 0.248714
Si Si3 0.064885 0.706539 0.326087
Si Si4 0.870116 0.799866 0.021947
Si Si5 0.293252 0.170488 0.057716
Si Si6 0.364559 0.581716 0.029301
Si Si7 0.446731 0.050735 0.691709
Si Si8 0.384110 0.436936 0.718357
O O1 0.870939 0.205382 0.606453
O O2 0.733191 0.170276 0.490765
O O3 0.855058 0.913100 0.503321
O O4 0.704413 0.028652 0.679855
O O5 0.130988 0.557734 0.242095
O O6 0.104069 0.297996 0.368419
O O7 0.191941 0.223773 0.164475
O O8 0.993391 0.330242 0.235080
O O9 0.965310 0.621649 0.421981
O O10 0.762419 0.891512 0.026604
O O11 0.348309 0.363593 0.018999
O O12 0.363116 0.043134 0.103305
O O13 0.388519 0.597852 0.142673
O O14 0.464473 0.622595 0.921465
O O15 0.375698 0.221844 0.738678
O O16 0.505798 0.990131 0.772660
#
# Coordination Sequence:
#
# PCOD9241723 Si02
#       8
#     4   4   4   4   4   4   4   4
#     4  10  19  37  60  85 117 161 204 246 298 368
#     4  11  22  39  58  90 125 160 201 251 295 358
#     4  11  24  37  60  89 123 163 203 247 301 357
#     4  10  20  38  62  85 122 159 204 251 302 348
#     4   9  19  36  63  88 117 165 199 242 307 363
#     4   8  17  35  57  83 109 154 197 238 293 372
#     4   9  18  35  61  85 113 150 198 252 312 356
#     4  10  19  37  60  88 117 154 200 251 298 364
#
# _framework density 25.839573999999999
#
# number of rings (size 3 to 8) (size 9 to 14) (size 15 to 20)
#    0.000    2.250    1.250    1.500    1.750    2.000 
#    9.000    1.250    0.000   25.500    0.000    0.000 
#    0.000    0.000    0.000    0.000    0.000    0.000 
#
# Total GULP energy -178825.176190 kJ/mol
# GULP energy per Si atom -5588.286756 kJ/mol
# Density = 2.578076 g / cm^3
# Si number density = 25.839574 Si / 1000 Ang^3
#
#
#
# Elastic Constant Matrix: (Units=GPa)
#
#
# Indices 1 2 3 4 5 6 
#
# 1 146.0488 16.1176 47.6000 0.0000 59.8577 0.0000
# 2 16.1176 24.6295 -8.7570 0.0000 12.4695 0.0000
# 3 47.6000 -8.7570 79.5883 0.0000 31.9119 0.0000
# 4 0.0000 0.0000 0.0000 36.7280 0.0000 13.3557
# 5 59.8577 12.4695 31.9119 0.0000 66.0685 0.0000
# 6 0.0000 0.0000 0.0000 13.3557 0.0000 21.5380
#
#
#
# Elastic Compliance Matrix: (Units=1/GPa)
#
#
# Indices 1 2 3 4 5 6 
#
# 1 0.012200 -0.005899 -0.004911 0.000000 -0.007568 0.000000
# 2 -0.005899 0.055840 0.014578 0.000000 -0.012236 0.000000
# 3 -0.004911 0.014578 0.020370 0.000000 -0.008141 0.000000
# 4 0.000000 0.000000 0.000000 0.035154 0.000000 -0.021799
# 5 -0.007568 -0.012236 -0.008141 0.000000 0.028234 0.000000
# 6 0.000000 0.000000 0.000000 -0.021799 0.000000 0.059947
#
#
# Mechanical properties :
#
#
# Convention : Reuss Voigt Hill
#
# Bulk Modulus (GPa) = 10.42239 40.02086 25.22163
# Shear Modulus (GPa) = 21.16919 37.88728 29.52823
#
# Velocity S-wave (km/s) = 2.86537 3.83332 3.38413
# Velocity P-wave (km/s) = 3.87161 5.92573 5.00518
#
# Compressibility (1/GPa) = 0.09594724
#
# Stress axis : x y z
#
# Youngs Moduli (GPa) = 81.96460 17.90823 49.09126
#
# Poissons Ratio (x) = 0.10563 0.24110
# Poissons Ratio (y) = 0.48348 -0.71566
# Poissons Ratio (z) = 0.40256 -0.26107
#
# Static dielectric constant tensor:
#      x y z
#    x 2.070710 0.000000 0.099860 
#    y 0.000000 2.089680 0.000000 
#    z 0.099860 0.000000 2.121720 
# 
# From -- ./inp_files/46283.got.cif
#   From: 2010.05.17/outbox.cif.g08.bks.cpg/sg14_24_cif.got.tgz:46283.got - 2010.06.03 17:49:19.
