data_PCOD9241351
_publ_section_title
;
Structure prediction by ZEFSAII (Michael W. Deem and Ramdas Pophale) SiO2 
 PCOD9241351
Probable space group: P 21/C
;
_chemical_formula_sum "Si O2"
_cell_formula_units_Z 28
_cell_length_a 10.022796
_cell_length_b 16.139629
_cell_length_c 14.533875
_cell_angle_alpha 90.000000
_cell_angle_beta 149.499112
_cell_angle_gamma 90.000000
_cell_volume 1193.284942
_symmetry_space_group_name_H-M "P 21/C"
_symmetry_group_IT_number 14
_symmetry_cell_setting 'monoclinic'
loop_
_space_group_symop_operation_xyz
x,y,z
-x,1/2+y,1/2-z
-x,-y,-z
x,1/2-y,1/2+z
loop_
_atom_site_type_symbol
_atom_site_label
_atom_site_fract_x
_atom_site_fract_y
_atom_site_fract_z
Si Si1 0.838322 0.221406 0.816099
Si Si2 0.862017 0.947430 0.340275
Si Si3 0.428763 0.832082 0.165849
Si Si4 0.574427 0.107362 0.152280
Si Si5 0.956720 0.956208 0.873791
Si Si6 0.009063 0.893574 0.246798
Si Si7 0.612549 0.659129 0.264181
O O1 0.615115 0.182567 0.750572
O O2 0.780226 0.317885 0.767841
O O3 0.846855 0.177619 0.723184
O O4 0.112785 0.199634 0.031357
O O5 0.684497 0.019045 0.188373
O O6 0.688042 0.877793 0.285293
O O7 0.061063 0.911158 0.383657
O O8 0.000000 0.000000 0.500000
O O9 0.436171 0.737937 0.134706
O O10 0.192328 0.891933 0.995387
O O11 0.494201 0.107286 0.212557
O O12 0.303594 0.127846 0.939883
O O13 0.696692 0.901227 0.732569
O O14 0.950646 0.024993 0.791995
O O15 0.000000 0.000000 0.000000
#
# Coordination Sequence:
#
# PCOD9241351 Si02
#       7
#     4   4   4   4   4   4   4
#     4   9  19  37  63  90 125 159 211 260 315 375
#     4  12  25  40  59  89 131 164 212 262 321 367
#     4  10  19  35  61  89 123 164 203 252 314 376
#     4  10  19  37  65  90 120 163 208 258 316 376
#     4  11  17  36  65  91 120 164 214 253 307 387
#     4  11  22  40  64  93 120 168 215 256 313 381
#     4   9  18  33  61  94 123 163 204 254 318 373
#
# _framework density 23.464638000000001
#
# number of rings (size 3 to 8) (size 9 to 14) (size 15 to 20)
#    0.000    1.714    5.714    1.286    0.000    0.000 
#    2.571    3.571    0.000    0.000    0.000    0.000 
#    0.000    0.000    0.000    0.000    0.000    0.000 
#
# Total GULP energy -156601.408420 kJ/mol
# GULP energy per Si atom -5592.907444 kJ/mol
# Density = 2.341123 g / cm^3
# Si number density = 23.464638 Si / 1000 Ang^3
#
#
#
# Elastic Constant Matrix: (Units=GPa)
#
#
# Indices 1 2 3 4 5 6 
#
# 1 128.4304 58.4103 28.6953 0.0000 8.5170 0.0000
# 2 58.4103 114.8946 10.6999 0.0000 15.2721 0.0000
# 3 28.6953 10.6999 38.9366 0.0000 -13.9076 0.0000
# 4 0.0000 0.0000 0.0000 29.9380 0.0000 21.0358
# 5 8.5170 15.2721 -13.9076 0.0000 22.8992 0.0000
# 6 0.0000 0.0000 0.0000 21.0358 0.0000 47.7983
#
#
#
# Elastic Compliance Matrix: (Units=1/GPa)
#
#
# Indices 1 2 3 4 5 6 
#
# 1 0.012910 -0.004303 -0.011521 0.000000 -0.008929 0.000000
# 2 -0.004303 0.012349 -0.003310 0.000000 -0.008646 0.000000
# 3 -0.011521 -0.003310 0.047763 0.000000 0.035501 0.000000
# 4 0.000000 0.000000 0.000000 0.048355 0.000000 -0.021281
# 5 -0.008929 -0.008646 0.035501 0.000000 0.074318 0.000000
# 6 0.000000 0.000000 0.000000 -0.021281 0.000000 0.030287
#
#
# Mechanical properties :
#
#
# Convention : Reuss Voigt Hill
#
# Bulk Modulus (GPa) = 28.77398 53.09697 40.93548
# Shear Modulus (GPa) = 18.12680 32.42417 25.27548
#
# Velocity S-wave (km/s) = 2.78243 3.72133 3.28559
# Velocity P-wave (km/s) = 4.75520 6.41421 5.64597
#
# Compressibility (1/GPa) = 0.03475362
#
# Stress axis : x y z
#
# Youngs Moduli (GPa) = 77.46135 80.97936 20.93652
#
# Poissons Ratio (x) = 0.34848 0.24120
# Poissons Ratio (y) = 0.33334 0.06930
# Poissons Ratio (z) = 0.89241 0.26805
#
# Static dielectric constant tensor:
#      x y z
#    x 1.880490 0.000000 -0.005100 
#    y 0.000000 1.863670 0.000000 
#    z -0.005100 0.000000 2.017970 
# 
# From -- ./inp_files/41811.got.cif
#   From: 2010.05.17/outbox.cif.g08.bks.cpg/sg14_21_cif.got.tgz:41811.got - 2010.06.03 17:49:19.
