data_PCOD9241497
_publ_section_title
;
Structure prediction by ZEFSAII (Michael W. Deem and Ramdas Pophale) SiO2 
 PCOD9241497
Probable space group: P 21/C
;
_chemical_formula_sum "Si O2"
_cell_formula_units_Z 16
_cell_length_a 8.993172
_cell_length_b 16.628941
_cell_length_c 4.986692
_cell_angle_alpha 90.000000
_cell_angle_beta 55.893320
_cell_angle_gamma 90.000000
_cell_volume 617.472660
_symmetry_space_group_name_H-M "P 21/C"
_symmetry_group_IT_number 14
_symmetry_cell_setting 'monoclinic'
loop_
_space_group_symop_operation_xyz
x,y,z
-x,1/2+y,1/2-z
-x,-y,-z
x,1/2-y,1/2+z
loop_
_atom_site_type_symbol
_atom_site_label
_atom_site_fract_x
_atom_site_fract_y
_atom_site_fract_z
Si Si1 0.056289 0.694039 0.713072
Si Si2 0.511842 0.692093 0.650254
Si Si3 0.225102 0.574480 0.178423
Si Si4 0.821021 0.902703 0.097719
O O1 0.074296 0.732204 0.983846
O O2 0.197463 0.626727 0.477419
O O3 0.871889 0.652756 0.801396
O O4 0.493792 0.736610 0.387566
O O5 0.699824 0.648402 0.523252
O O6 0.366125 0.622853 0.860824
O O7 0.271843 0.483638 0.205351
O O8 0.017563 0.572882 0.279402
#
# Coordination Sequence:
#
# PCOD9241497 Si02
#       4
#     4   4   4   4
#     4  10  19  36  59  86 118 154 200 246 297 360
#     4  12  25  42  67  94 126 168 212 260 311 374
#     4   9  21  42  65  93 129 166 208 260 317 373
#     4   9  21  42  65  93 129 166 208 260 317 373
#
# _framework density 25.912075000000002
#
# number of rings (size 3 to 8) (size 9 to 14) (size 15 to 20)
#    1.500    0.500    0.000    3.750    0.000    0.000 
#    0.000   15.000    0.000    0.000    0.000    0.000 
#    0.000    0.000    0.000    0.000    0.000    0.000 
#
# Total GULP energy -89572.710759 kJ/mol
# GULP energy per Si atom -5598.294422 kJ/mol
# Density = 2.585310 g / cm^3
# Si number density = 25.912075 Si / 1000 Ang^3
#
#
#
# Elastic Constant Matrix: (Units=GPa)
#
#
# Indices 1 2 3 4 5 6 
#
# 1 87.9471 1.3865 18.1662 0.0000 -1.7037 0.0000
# 2 1.3865 126.5763 -7.4555 0.0000 8.1793 0.0000
# 3 18.1662 -7.4555 57.8740 0.0000 4.7344 0.0000
# 4 0.0000 0.0000 0.0000 -173.4151 0.0000 31.2228
# 5 -1.7037 8.1793 4.7344 0.0000 34.0867 0.0000
# 6 0.0000 0.0000 0.0000 31.2228 0.0000 30.6567
#
#
#
# Elastic Compliance Matrix: (Units=1/GPa)
#
#
# Indices 1 2 3 4 5 6 
#
# 1 0.012229 -0.000452 -0.004001 0.000000 0.001275 0.000000
# 2 -0.000452 0.008125 0.001365 0.000000 -0.002162 0.000000
# 3 -0.004001 0.001365 0.018969 0.000000 -0.003162 0.000000
# 4 0.000000 0.000000 0.000000 -0.004873 0.000000 0.004963
# 5 0.001275 -0.002162 -0.003162 0.000000 0.030359 0.000000
# 6 0.000000 0.000000 0.000000 0.004963 0.000000 0.027565
#
#
# Mechanical properties :
#
#
# Convention : Reuss Voigt Hill
#
# Bulk Modulus (GPa) = 30.16735 32.95465 31.56100
# Shear Modulus (GPa) = 45.62089 -4.38101 20.61994
#
# Velocity S-wave (km/s) = 4.20051 -1.30169 2.82399
# Velocity P-wave (km/s) = 5.93238 3.23826 4.77909
#
# Compressibility (1/GPa) = 0.03314842
#
# Stress axis : x y z
#
# Youngs Moduli (GPa) = 81.77445 123.06991 52.71633
#
# Poissons Ratio (x) = 0.05563 0.21092
# Poissons Ratio (y) = 0.03696 -0.07198
# Poissons Ratio (z) = 0.32719 -0.16805
#
# Static dielectric constant tensor:
#      x y z
#    x 2.109410 0.000000 -0.083530 
#    y 0.000000 2.016000 0.000000 
#    z -0.083530 0.000000 2.077890 
# 
# From -- ./inp_files/1025.got.cif
#   From: 2010.05.17/outbox.cif.g08.bks.cpg/sg14_1_cif.got.tgz:1025.got - 2010.06.03 17:49:19.
