data_PCOD9241712
_publ_section_title
;
Structure prediction by ZEFSAII (Michael W. Deem and Ramdas Pophale) SiO2 
 PCOD9241712
Probable space group: P 21/C
;
_chemical_formula_sum "Si O2"
_cell_formula_units_Z 20
_cell_length_a 6.875308
_cell_length_b 9.613845
_cell_length_c 12.464367
_cell_angle_alpha 90.000000
_cell_angle_beta 93.168684
_cell_angle_gamma 90.000000
_cell_volume 822.611946
_symmetry_space_group_name_H-M "P 21/C"
_symmetry_group_IT_number 14
_symmetry_cell_setting 'monoclinic'
loop_
_space_group_symop_operation_xyz
x,y,z
-x,1/2+y,1/2-z
-x,-y,-z
x,1/2-y,1/2+z
loop_
_atom_site_type_symbol
_atom_site_label
_atom_site_fract_x
_atom_site_fract_y
_atom_site_fract_z
Si Si1 0.890038 0.158540 0.675601
Si Si2 0.705214 0.739559 0.894357
Si Si3 0.300219 0.955658 0.118189
Si Si4 0.629086 0.341216 0.972153
Si Si5 0.623930 0.108127 0.230667
O O1 0.771393 0.105220 0.568883
O O2 0.825828 0.074640 0.779007
O O3 0.819001 0.317355 0.697584
O O4 0.114373 0.162514 0.651970
O O5 0.587330 0.668193 0.986370
O O6 0.540984 0.773808 0.799718
O O7 0.234223 0.103200 0.067524
O O8 0.525611 0.984950 0.160997
O O9 0.301240 0.818343 0.047310
O O10 0.632167 0.413287 0.857296
#
# Coordination Sequence:
#
# PCOD9241712 Si02
#       5
#     4   4   4   4   4
#     4  10  20  36  57  85 110 143 189 231 264 328
#     4   9  20  37  55  84 110 146 185 225 274 326
#     4   9  20  40  55  79 117 147 182 220 285 329
#     4  10  19  37  60  82 112 143 187 231 266 329
#     4   8  20  38  54  80 116 144 181 226 278 323
#
# _framework density 24.312801
#
# number of rings (size 3 to 8) (size 9 to 14) (size 15 to 20)
#    1.200    1.600    0.000    0.600    0.000    4.800 
#   10.800    1.000    0.000    0.000    0.000    0.000 
#    0.000    0.000    0.000    0.000    0.000    0.000 
#
# Total GULP energy -111722.158719 kJ/mol
# GULP energy per Si atom -5586.107936 kJ/mol
# Density = 2.425746 g / cm^3
# Si number density = 24.312801 Si / 1000 Ang^3
#
#
#
# Elastic Constant Matrix: (Units=GPa)
#
#
# Indices 1 2 3 4 5 6 
#
# 1 114.8268 19.1513 46.1635 0.0000 -41.8099 0.0000
# 2 19.1513 60.6138 9.2203 0.0000 0.9031 0.0000
# 3 46.1635 9.2203 123.5859 0.0000 -17.7401 0.0000
# 4 0.0000 0.0000 0.0000 21.7589 0.0000 -4.7841
# 5 -41.8099 0.9031 -17.7401 0.0000 22.8377 0.0000
# 6 0.0000 0.0000 0.0000 -4.7841 0.0000 23.9090
#
#
#
# Elastic Compliance Matrix: (Units=1/GPa)
#
#
# Indices 1 2 3 4 5 6 
#
# 1 0.033154 -0.010870 -0.003150 0.000000 0.058680 0.000000
# 2 -0.010870 0.020320 -0.000481 0.000000 -0.021078 0.000000
# 3 -0.003150 -0.000481 0.009543 0.000000 0.001665 0.000000
# 4 0.000000 0.000000 0.000000 0.048073 0.000000 0.009619
# 5 0.058680 -0.021078 0.001665 0.000000 0.153342 0.000000
# 6 0.000000 0.000000 0.000000 0.009619 0.000000 0.043750
#
#
# Mechanical properties :
#
#
# Convention : Reuss Voigt Hill
#
# Bulk Modulus (GPa) = 29.39985 49.78853 39.59419
# Shear Modulus (GPa) = 14.34623 28.66721 21.50672
#
# Velocity S-wave (km/s) = 2.43177 3.43753 2.97742
# Velocity P-wave (km/s) = 4.47250 6.02314 5.30478
#
# Compressibility (1/GPa) = 0.03401377
#
# Stress axis : x y z
#
# Youngs Moduli (GPa) = 30.16203 49.21321 104.78772
#
# Poissons Ratio (x) = 0.53497 0.33009
# Poissons Ratio (y) = 0.32787 0.05042
# Poissons Ratio (z) = 0.09501 0.02368
#
# Static dielectric constant tensor:
#      x y z
#    x 1.901380 0.000000 0.023380 
#    y 0.000000 2.045700 0.000000 
#    z 0.023380 0.000000 1.895190 
# 
# From -- ./inp_files/36956.got.cif
#   From: 2010.05.17/outbox.cif.g08.bks.cpg/sg14_19_cif.got.tgz:36956.got - 2010.06.03 17:49:19.
