data_PCOD9241633
_publ_section_title
;
Structure prediction by ZEFSAII (Michael W. Deem and Ramdas Pophale) SiO2 
 PCOD9241633
Probable space group: P 21/C
;
_chemical_formula_sum "Si O2"
_cell_formula_units_Z 32
_cell_length_a 13.101693
_cell_length_b 17.464006
_cell_length_c 5.492207
_cell_angle_alpha 90.000000
_cell_angle_beta 95.351150
_cell_angle_gamma 90.000000
_cell_volume 1251.184416
_symmetry_space_group_name_H-M "P 21/C"
_symmetry_group_IT_number 14
_symmetry_cell_setting 'monoclinic'
loop_
_space_group_symop_operation_xyz
x,y,z
-x,1/2+y,1/2-z
-x,-y,-z
x,1/2-y,1/2+z
loop_
_atom_site_type_symbol
_atom_site_label
_atom_site_fract_x
_atom_site_fract_y
_atom_site_fract_z
Si Si1 0.513512 0.277415 0.766784
Si Si2 0.017406 0.204127 0.993800
Si Si3 0.281412 0.286372 0.262254
Si Si4 0.246427 0.444319 0.051858
Si Si5 0.298017 0.544103 0.451568
Si Si6 0.100179 0.042090 0.122940
Si Si7 0.778576 0.205048 0.002134
Si Si8 0.558169 0.552018 0.212552
O O1 0.563034 0.240460 0.538657
O O2 0.403034 0.233861 0.775632
O O3 0.498316 0.368724 0.736071
O O4 0.032039 0.260890 0.227639
O O5 0.084655 0.129159 0.042979
O O6 0.897890 0.179702 0.998104
O O7 0.240846 0.248042 0.499272
O O8 0.260531 0.376473 0.249128
O O9 0.282633 0.525917 0.164103
O O10 0.133491 0.452301 0.915349
O O11 0.333421 0.419800 0.879092
O O12 0.197299 0.503051 0.538486
O O13 0.291865 0.630620 0.530290
O O14 0.399715 0.501906 0.563810
O O15 0.000000 0.000000 0.000000
O O16 0.766886 0.261672 0.771526
O O17 0.500000 0.500000 0.000000
#
# Coordination Sequence:
#
# PCOD9241633 Si02
#       8
#     4   4   4   4   4   4   4   4
#     4  10  19  39  67  95 137 178 220 275 355 419
#     4  10  23  43  64 100 141 185 236 284 344 415
#     4  10  19  36  64  93 136 178 219 271 344 421
#     4  11  25  40  69 101 136 186 230 286 355 419
#     4  11  25  45  70 101 138 180 237 288 355 419
#     4  11  25  43  65 101 141 184 230 287 347 415
#     4  10  23  44  73  94 134 189 237 291 342 402
#     4  11  25  45  69 103 138 183 234 296 355 424
#
# _framework density 25.575766000000002
#
# number of rings (size 3 to 8) (size 9 to 14) (size 15 to 20)
#    0.000    1.500    3.750    1.500    7.000    3.000 
#    0.000    1.250    0.000    0.000    0.000    0.000 
#    0.000    0.000    0.000    0.000    0.000    0.000 
#
# Total GULP energy -179162.630658 kJ/mol
# GULP energy per Si atom -5598.832208 kJ/mol
# Density = 2.551755 g / cm^3
# Si number density = 25.575766 Si / 1000 Ang^3
#
#
#
# Elastic Constant Matrix: (Units=GPa)
#
#
# Indices 1 2 3 4 5 6 
#
# 1 96.7965 30.0897 36.8995 0.0000 14.7297 0.0000
# 2 30.0897 142.6820 36.6776 0.0000 0.4798 0.0000
# 3 36.8995 36.6776 125.1613 0.0000 0.4275 0.0000
# 4 0.0000 0.0000 0.0000 42.8310 0.0000 8.8330
# 5 14.7297 0.4798 0.4275 0.0000 56.1217 0.0000
# 6 0.0000 0.0000 0.0000 8.8330 0.0000 34.1642
#
#
#
# Elastic Compliance Matrix: (Units=1/GPa)
#
#
# Indices 1 2 3 4 5 6 
#
# 1 0.012606 -0.001833 -0.003168 0.000000 -0.003269 0.000000
# 2 -0.001833 0.007846 -0.001760 0.000000 0.000427 0.000000
# 3 -0.003168 -0.001760 0.009437 0.000000 0.000775 0.000000
# 4 0.000000 0.000000 0.000000 0.024663 0.000000 -0.006376
# 5 -0.003269 0.000427 0.000775 0.000000 0.018667 0.000000
# 6 0.000000 0.000000 0.000000 -0.006376 0.000000 0.030919
#
#
# Mechanical properties :
#
#
# Convention : Reuss Voigt Hill
#
# Bulk Modulus (GPa) = 61.10196 63.55261 62.32728
# Shear Modulus (GPa) = 40.61225 44.02157 42.31691
#
# Velocity S-wave (km/s) = 3.98919 4.15326 4.07205
# Velocity P-wave (km/s) = 6.72017 6.92114 6.82139
#
# Compressibility (1/GPa) = 0.01636609
#
# Stress axis : x y z
#
# Youngs Moduli (GPa) = 79.32817 127.44979 105.96698
#
# Poissons Ratio (x) = 0.23362 0.33571
# Poissons Ratio (y) = 0.14541 0.18654
# Poissons Ratio (z) = 0.25132 0.22435
#
# Static dielectric constant tensor:
#      x y z
#    x 2.053370 0.000000 -0.026340 
#    y 0.000000 1.949580 0.000000 
#    z -0.026340 0.000000 2.161270 
# 
# From -- ./inp_files/3812.got.cif
#   From: 2010.05.17/outbox.cif.g08.bks.cpg/sg14_2_cif.got.tgz:3812.got - 2010.06.03 17:49:19.
