data_PCOD9241504
_publ_section_title
;
Structure prediction by ZEFSAII (Michael W. Deem and Ramdas Pophale) SiO2 
 PCOD9241504
Probable space group: P 21/C
;
_chemical_formula_sum "Si O2"
_cell_formula_units_Z 32
_cell_length_a 22.888809
_cell_length_b 13.066295
_cell_length_c 8.364310
_cell_angle_alpha 90.000000
_cell_angle_beta 32.642854
_cell_angle_gamma 90.000000
_cell_volume 1349.327319
_symmetry_space_group_name_H-M "P 21/C"
_symmetry_group_IT_number 14
_symmetry_cell_setting 'monoclinic'
loop_
_space_group_symop_operation_xyz
x,y,z
-x,1/2+y,1/2-z
-x,-y,-z
x,1/2-y,1/2+z
loop_
_atom_site_type_symbol
_atom_site_label
_atom_site_fract_x
_atom_site_fract_y
_atom_site_fract_z
Si Si1 0.332113 0.284142 0.848108
Si Si2 0.467376 0.835875 0.287129
Si Si3 0.822278 0.787591 0.558251
Si Si4 0.151246 0.456139 0.554424
Si Si5 0.315700 0.715093 0.412779
Si Si6 0.639477 0.500824 0.105284
Si Si7 0.771446 0.392294 0.083557
Si Si8 0.939189 0.976718 0.380681
O O1 0.428587 0.269513 0.499838
O O2 0.228835 0.324888 0.988454
O O3 0.375610 0.377485 0.850160
O O4 0.275547 0.198870 0.086640
O O5 0.369172 0.799290 0.403068
O O6 0.418846 0.823253 0.573020
O O7 0.468646 0.952368 0.223946
O O8 0.843095 0.667182 0.483971
O O9 0.921633 0.858144 0.374638
O O10 0.117089 0.484401 0.813329
O O11 0.264226 0.507748 0.248091
O O12 0.061913 0.495355 0.635082
O O13 0.229473 0.780055 0.503977
O O14 0.274855 0.631743 0.632369
O O15 0.692236 0.458727 0.150637
O O16 0.881130 0.452567 0.880164
#
# Coordination Sequence:
#
# PCOD9241504 Si02
#       8
#     4   4   4   4   4   4   4   4
#     4  11  21  37  63  88 124 166 209 254 319 374
#     4  10  19  36  59  89 123 169 208 256 312 378
#     4  11  22  42  63  94 128 166 209 266 317 383
#     4  10  24  43  65  94 126 171 214 269 320 383
#     4   9  20  37  58  86 129 159 213 258 317 366
#     4  10  21  38  60  89 127 161 211 265 314 373
#     4  10  20  39  62  89 123 171 201 270 317 379
#     4  11  22  44  67  91 129 166 220 261 327 385
#
# _framework density 23.715522
#
# number of rings (size 3 to 8) (size 9 to 14) (size 15 to 20)
#    0.000    1.750    2.500    1.875    0.000    0.500 
#   11.250    0.625    0.000    0.000    0.000    0.000 
#    0.000    0.000    0.000    0.000    0.000    0.000 
#
# Total GULP energy -178326.079631 kJ/mol
# GULP energy per Si atom -5572.689988 kJ/mol
# Density = 2.366154 g / cm^3
# Si number density = 23.715522 Si / 1000 Ang^3
#
#
#
# Elastic Constant Matrix: (Units=GPa)
#
#
# Indices 1 2 3 4 5 6 
#
# 1 84.1199 14.9759 3.9229 0.0000 4.5448 0.0000
# 2 14.9759 63.4463 1.4859 0.0000 -2.1319 0.0000
# 3 3.9229 1.4859 52.3377 0.0000 6.5785 0.0000
# 4 0.0000 0.0000 0.0000 13.6391 0.0000 8.9908
# 5 4.5448 -2.1319 6.5785 0.0000 37.9996 0.0000
# 6 0.0000 0.0000 0.0000 8.9908 0.0000 26.8596
#
#
#
# Elastic Compliance Matrix: (Units=1/GPa)
#
#
# Indices 1 2 3 4 5 6 
#
# 1 0.012536 -0.002996 -0.000659 0.000000 -0.001553 0.000000
# 2 -0.002996 0.016524 -0.000415 0.000000 0.001357 0.000000
# 3 -0.000659 -0.000415 0.019587 0.000000 -0.003335 0.000000
# 4 0.000000 0.000000 0.000000 0.094077 0.000000 -0.031491
# 5 -0.001553 0.001357 -0.003335 0.000000 0.027155 0.000000
# 6 0.000000 0.000000 0.000000 -0.031491 0.000000 0.047772
#
#
# Mechanical properties :
#
#
# Convention : Reuss Voigt Hill
#
# Bulk Modulus (GPa) = 24.68750 26.74146 25.71448
# Shear Modulus (GPa) = 20.89485 27.66760 24.28123
#
# Velocity S-wave (km/s) = 2.97149 3.41932 3.20324
# Velocity P-wave (km/s) = 4.71227 5.18550 4.95454
#
# Compressibility (1/GPa) = 0.04050633
#
# Stress axis : x y z
#
# Youngs Moduli (GPa) = 79.77164 60.51879 51.05396
#
# Poissons Ratio (x) = 0.18130 0.03366
# Poissons Ratio (y) = 0.23897 0.02120
# Poissons Ratio (z) = 0.05260 0.02512
#
# Static dielectric constant tensor:
#      x y z
#    x 1.919980 0.000000 0.058860 
#    y 0.000000 2.140460 0.000000 
#    z 0.058860 0.000000 1.951360 
# 
# From -- ./inp_files/19527.got.cif
#   From: 2010.05.17/outbox.cif.g08.bks.cpg/sg14_10_cif.got.tgz:19527.got - 2010.06.03 17:49:19.
