data_PCOD9241842
_publ_section_title
;
Structure prediction by ZEFSAII (Michael W. Deem and Ramdas Pophale) SiO2 
 PCOD9241842
Probable space group: P 21/C
;
_chemical_formula_sum "Si O2"
_cell_formula_units_Z 28
_cell_length_a 9.350348
_cell_length_b 18.421661
_cell_length_c 13.636607
_cell_angle_alpha 90.000000
_cell_angle_beta 28.447548
_cell_angle_gamma 90.000000
_cell_volume 1118.903769
_symmetry_space_group_name_H-M "P 21/C"
_symmetry_group_IT_number 14
_symmetry_cell_setting 'monoclinic'
loop_
_space_group_symop_operation_xyz
x,y,z
-x,1/2+y,1/2-z
-x,-y,-z
x,1/2-y,1/2+z
loop_
_atom_site_type_symbol
_atom_site_label
_atom_site_fract_x
_atom_site_fract_y
_atom_site_fract_z
Si Si1 0.964361 0.919814 0.565680
Si Si2 0.404769 0.039569 0.800040
Si Si3 0.252233 0.319498 0.343363
Si Si4 0.147516 0.060627 0.165366
Si Si5 0.649928 0.551047 0.993874
Si Si6 0.233705 0.787734 0.316533
Si Si7 0.641977 0.318279 0.921853
O O1 0.297357 0.915831 0.412205
O O2 0.743476 0.914334 0.791459
O O3 0.005650 0.856607 0.461928
O O4 0.000000 0.000000 0.500000
O O5 0.167410 0.094431 0.895625
O O6 0.471675 0.966040 0.702571
O O7 0.353672 0.042460 0.947052
O O8 0.442018 0.301322 0.328551
O O9 0.949869 0.274472 0.516910
O O10 0.471474 0.299354 0.123393
O O11 0.924382 0.126130 0.265333
O O12 0.979784 0.984298 0.292345
O O13 0.594613 0.632950 0.997380
O O14 0.500000 0.500000 0.000000
O O15 0.274440 0.754461 0.185210
#
# Coordination Sequence:
#
# PCOD9241842 Si02
#       7
#     4   4   4   4   4   4   4
#     4  10  23  44  64  90 129 177 224 283 331 401
#     4  10  19  37  65  91 128 172 222 263 346 389
#     4  11  23  42  62  97 131 180 217 281 333 402
#     4  10  19  37  66  90 132 171 218 272 339 390
#     4   9  18  33  57  95 126 164 205 270 322 393
#     4  11  25  42  69  94 131 177 228 269 343 404
#     4  11  21  39  65  93 136 172 215 277 337 396
#
# _framework density 25.024493
#
# number of rings (size 3 to 8) (size 9 to 14) (size 15 to 20)
#    0.000    1.714    7.143    0.000    0.000    9.714 
#    0.000    1.429    0.000    0.000    0.000    0.000 
#    0.000    0.000    0.000    0.000    0.000    0.000 
#
# Total GULP energy -155971.190741 kJ/mol
# GULP energy per Si atom -5570.399669 kJ/mol
# Density = 2.496754 g / cm^3
# Si number density = 25.024493 Si / 1000 Ang^3
#
#
#
# Elastic Constant Matrix: (Units=GPa)
#
#
# Indices 1 2 3 4 5 6 
#
# 1 46.2850 7.7132 28.0761 0.0000 20.1882 0.0000
# 2 7.7132 76.5384 12.3413 0.0000 14.3438 0.0000
# 3 28.0761 12.3413 153.6709 0.0000 45.3389 0.0000
# 4 0.0000 0.0000 0.0000 37.7209 0.0000 5.7132
# 5 20.1882 14.3438 45.3389 0.0000 51.0740 0.0000
# 6 0.0000 0.0000 0.0000 5.7132 0.0000 33.6021
#
#
#
# Elastic Compliance Matrix: (Units=1/GPa)
#
#
# Indices 1 2 3 4 5 6 
#
# 1 0.026783 -0.000768 -0.002401 0.000000 -0.008240 0.000000
# 2 -0.000768 0.013813 0.000116 0.000000 -0.003679 0.000000
# 3 -0.002401 0.000116 0.009032 0.000000 -0.007102 0.000000
# 4 0.000000 0.000000 0.000000 0.027211 0.000000 -0.004627
# 5 -0.008240 -0.003679 -0.007102 0.000000 0.030174 0.000000
# 6 0.000000 0.000000 0.000000 -0.004627 0.000000 0.030547
#
#
# Mechanical properties :
#
#
# Convention : Reuss Voigt Hill
#
# Bulk Modulus (GPa) = 22.97531 41.41727 32.19629
# Shear Modulus (GPa) = 31.61100 39.70366 35.65733
#
# Velocity S-wave (km/s) = 3.55801 3.98753 3.77888
# Velocity P-wave (km/s) = 5.10689 6.14712 5.65099
#
# Compressibility (1/GPa) = 0.04352498
#
# Stress axis : x y z
#
# Youngs Moduli (GPa) = 37.33645 72.39315 110.71892
#
# Poissons Ratio (x) = 0.05558 0.26579
# Poissons Ratio (y) = 0.02867 -0.01290
# Poissons Ratio (z) = 0.08963 -0.00843
#
# Static dielectric constant tensor:
#      x y z
#    x 2.205170 0.000000 -0.067420 
#    y 0.000000 2.075450 0.000000 
#    z -0.067420 0.000000 2.052440 
# 
# From -- ./inp_files/45271.got.cif
#   From: 2010.05.17/outbox.cif.g08.bks.cpg/sg14_23_cif.got.tgz:45271.got - 2010.06.03 17:49:19.
