data_PCOD9241471
_publ_section_title
;
Structure prediction by ZEFSAII (Michael W. Deem and Ramdas Pophale) SiO2 
 PCOD9241471
Probable space group: P 21/C
;
_chemical_formula_sum "Si O2"
_cell_formula_units_Z 28
_cell_length_a 12.304030
_cell_length_b 8.427218
_cell_length_c 14.236405
_cell_angle_alpha 90.000000
_cell_angle_beta 69.455123
_cell_angle_gamma 90.000000
_cell_volume 1382.267946
_symmetry_space_group_name_H-M "P 21/C"
_symmetry_group_IT_number 14
_symmetry_cell_setting 'monoclinic'
loop_
_space_group_symop_operation_xyz
x,y,z
-x,1/2+y,1/2-z
-x,-y,-z
x,1/2-y,1/2+z
loop_
_atom_site_type_symbol
_atom_site_label
_atom_site_fract_x
_atom_site_fract_y
_atom_site_fract_z
Si Si1 0.333085 0.838627 0.888106
Si Si2 0.956657 0.907527 0.605770
Si Si3 0.783502 0.874618 0.157065
Si Si4 0.587841 0.617298 0.233669
Si Si5 0.614631 0.041102 0.521968
Si Si6 0.243840 0.877059 0.257059
Si Si7 0.180082 0.924539 0.666618
O O1 0.452891 0.862395 0.794653
O O2 0.371242 0.730194 0.963516
O O3 0.254499 0.720589 0.850672
O O4 0.261277 0.002199 0.909272
O O5 0.886045 0.747735 0.599859
O O6 0.065007 0.890436 0.642493
O O7 0.864124 0.008837 0.693727
O O8 0.000000 0.000000 0.500000
O O9 0.667919 0.772989 0.218359
O O10 0.826536 0.972459 0.235715
O O11 0.606438 0.548804 0.123591
O O12 0.642213 0.485030 0.286057
O O13 0.727412 0.991640 0.429450
O O14 0.500000 0.000000 0.500000
O O15 0.228153 0.746107 0.183672
#
# Coordination Sequence:
#
# PCOD9241471 Si02
#       7
#     4   4   4   4   4   4   4
#     4  10  19  36  58  85 118 155 195 240 291 350
#     4  11  22  40  62  85 114 153 197 246 301 357
#     4  10  21  37  61  87 114 156 202 246 296 356
#     4  10  19  37  60  85 118 158 195 242 300 353
#     4  11  22  37  60  88 121 160 196 244 302 357
#     4   9  20  36  56  83 114 150 189 237 293 348
#     4  11  21  39  59  85 117 152 195 243 294 357
#
# _framework density 20.256564000000001
#
# number of rings (size 3 to 8) (size 9 to 14) (size 15 to 20)
#    0.000    1.714    0.000    7.714    0.000    0.000 
#    0.000   16.429    0.000    0.000    0.000    0.000 
#    0.000    0.000    0.000    0.000    0.000    0.000 
#
# Total GULP energy -156196.414584 kJ/mol
# GULP energy per Si atom -5578.443378 kJ/mol
# Density = 2.021046 g / cm^3
# Si number density = 20.256564 Si / 1000 Ang^3
#
#
#
# Elastic Constant Matrix: (Units=GPa)
#
#
# Indices 1 2 3 4 5 6 
#
# 1 130.7601 44.0521 17.8274 0.0000 16.5116 0.0000
# 2 44.0521 104.5853 16.4869 0.0000 18.1459 0.0000
# 3 17.8274 16.4869 61.5438 0.0000 5.2792 0.0000
# 4 0.0000 0.0000 0.0000 22.6854 0.0000 14.2760
# 5 16.5116 18.1459 5.2792 0.0000 25.2778 0.0000
# 6 0.0000 0.0000 0.0000 14.2760 0.0000 28.5399
#
#
#
# Elastic Compliance Matrix: (Units=1/GPa)
#
#
# Indices 1 2 3 4 5 6 
#
# 1 0.009348 -0.003068 -0.001579 0.000000 -0.003574 0.000000
# 2 -0.003068 0.012257 -0.001845 0.000000 -0.006409 0.000000
# 3 -0.001579 -0.001845 0.017308 0.000000 -0.001259 0.000000
# 4 0.000000 0.000000 0.000000 0.064332 0.000000 -0.032179
# 5 -0.003574 -0.006409 -0.001259 0.000000 0.046758 0.000000
# 6 0.000000 0.000000 0.000000 -0.032179 0.000000 0.051135
#
#
# Mechanical properties :
#
#
# Convention : Reuss Voigt Hill
#
# Bulk Modulus (GPa) = 38.56854 50.40247 44.48550
# Shear Modulus (GPa) = 22.44508 29.86881 26.15695
#
# Velocity S-wave (km/s) = 3.33233 3.84412 3.59734
# Velocity P-wave (km/s) = 5.82128 6.68125 6.26603
#
# Compressibility (1/GPa) = 0.02592787
#
# Stress axis : x y z
#
# Youngs Moduli (GPa) = 106.97611 81.58715 57.77583
#
# Poissons Ratio (x) = 0.25034 0.09124
# Poissons Ratio (y) = 0.32825 0.10659
# Poissons Ratio (z) = 0.16894 0.15052
#
# Static dielectric constant tensor:
#      x y z
#    x 1.720930 0.000000 0.015110 
#    y 0.000000 1.743370 0.000000 
#    z 0.015110 0.000000 1.723290 
# 
# From -- ./inp_files/43383.got.cif
#   From: 2010.05.17/outbox.cif.g08.bks.cpg/sg14_22_cif.got.tgz:43383.got - 2010.06.03 17:49:19.
