data_PCOD9241392
_publ_section_title
;
Structure prediction by ZEFSAII (Michael W. Deem and Ramdas Pophale) SiO2 
 PCOD9241392
Probable space group: P 21/C
;
_chemical_formula_sum "Si O2"
_cell_formula_units_Z 24
_cell_length_a 9.231601
_cell_length_b 15.720345
_cell_length_c 13.996648
_cell_angle_alpha 90.000000
_cell_angle_beta 147.472366
_cell_angle_gamma 90.000000
_cell_volume 1092.215355
_symmetry_space_group_name_H-M "P 21/C"
_symmetry_group_IT_number 14
_symmetry_cell_setting 'monoclinic'
loop_
_space_group_symop_operation_xyz
x,y,z
-x,1/2+y,1/2-z
-x,-y,-z
x,1/2-y,1/2+z
loop_
_atom_site_type_symbol
_atom_site_label
_atom_site_fract_x
_atom_site_fract_y
_atom_site_fract_z
Si Si1 0.903337 0.683790 0.332191
Si Si2 0.963708 0.499305 0.626506
Si Si3 0.592618 0.558523 0.775686
Si Si4 0.928070 0.059118 0.604606
Si Si5 0.777053 0.328709 0.313161
Si Si6 0.669893 0.269465 0.048669
O O1 0.860979 0.582190 0.308435
O O2 0.012976 0.711645 0.496131
O O3 0.147761 0.696278 0.393983
O O4 0.641188 0.732291 0.152033
O O5 0.665414 0.484238 0.419318
O O6 0.977549 0.508835 0.748273
O O7 0.089827 0.584539 0.652660
O O8 0.478549 0.640981 0.767292
O O9 0.818834 0.577348 0.822919
O O10 0.723318 0.496507 0.927420
O O11 0.790572 0.144920 0.567294
O O12 0.701146 0.273822 0.179721
#
# Coordination Sequence:
#
# PCOD9241392 Si02
#       6
#     4   4   4   4   4   4
#     4  11  24  41  65  91 125 165 204 256 306 374
#     4  10  20  39  65  88 118 160 213 254 303 358
#     4  10  19  35  63  93 118 156 205 253 303 354
#     4  10  21  37  61  92 123 156 204 259 299 362
#     4  10  22  42  67  87 123 165 212 253 306 367
#     4  11  25  42  61  91 127 164 203 250 316 368
#
# _framework density 21.973690000000001
#
# number of rings (size 3 to 8) (size 9 to 14) (size 15 to 20)
#    0.000    1.667    0.000    5.500    4.667    4.000 
#    6.000    0.000    0.000    0.000    0.000    0.000 
#    0.000    0.000    0.000    0.000    0.000    0.000 
#
# Total GULP energy -134320.687478 kJ/mol
# GULP energy per Si atom -5596.695312 kJ/mol
# Density = 2.192368 g / cm^3
# Si number density = 21.973690 Si / 1000 Ang^3
#
#
#
# Elastic Constant Matrix: (Units=GPa)
#
#
# Indices 1 2 3 4 5 6 
#
# 1 131.1235 7.4156 75.3806 0.0000 -19.1530 0.0000
# 2 7.4156 25.6779 26.8518 0.0000 -12.9022 0.0000
# 3 75.3806 26.8518 135.2609 0.0000 -14.0915 0.0000
# 4 0.0000 0.0000 0.0000 -35.8730 0.0000 -6.8230
# 5 -19.1530 -12.9022 -14.0915 0.0000 42.2673 0.0000
# 6 0.0000 0.0000 0.0000 -6.8230 0.0000 31.0971
#
#
#
# Elastic Compliance Matrix: (Units=1/GPa)
#
#
# Indices 1 2 3 4 5 6 
#
# 1 0.012502 0.007250 -0.007859 0.000000 0.005258 0.000000
# 2 0.007250 0.060243 -0.014236 0.000000 0.016928 0.000000
# 3 -0.007859 -0.014236 0.014271 0.000000 -0.003149 0.000000
# 4 0.000000 0.000000 0.000000 -0.026759 0.000000 -0.005871
# 5 0.005258 0.016928 -0.003149 0.000000 0.030159 0.000000
# 6 0.000000 0.000000 0.000000 -0.005871 0.000000 0.030869
#
#
# Mechanical properties :
#
#
# Convention : Reuss Voigt Hill
#
# Bulk Modulus (GPa) = 17.44411 56.81760 37.13085
# Shear Modulus (GPa) = 29.39711 19.65925 24.52818
#
# Velocity S-wave (km/s) = 3.66161 2.99435 3.34466
# Velocity P-wave (km/s) = 5.08255 6.15371 5.64360
#
# Compressibility (1/GPa) = 0.05732595
#
# Stress axis : x y z
#
# Youngs Moduli (GPa) = 79.98420 16.59941 70.07219
#
# Poissons Ratio (x) = -0.12034 0.55070
# Poissons Ratio (y) = -0.57987 0.99755
# Poissons Ratio (z) = 0.62860 0.23631
#
# Static dielectric constant tensor:
#      x y z
#    x 1.799150 0.000000 0.000890 
#    y 0.000000 1.824150 0.000000 
#    z 0.000890 0.000000 1.780180 
# 
# From -- ./inp_files/41862.got.cif
#   From: 2010.05.17/outbox.cif.g08.bks.cpg/sg14_21_cif.got.tgz:41862.got - 2010.06.03 17:49:19.
