data_PCOD9241906
_publ_section_title
;
Structure prediction by ZEFSAII (Michael W. Deem and Ramdas Pophale) SiO2 
 PCOD9241906
Probable space group: P 21/C
;
_chemical_formula_sum "Si O2"
_cell_formula_units_Z 28
_cell_length_a 13.855879
_cell_length_b 7.782652
_cell_length_c 13.612402
_cell_angle_alpha 90.000000
_cell_angle_beta 49.776885
_cell_angle_gamma 90.000000
_cell_volume 1120.793832
_symmetry_space_group_name_H-M "P 21/C"
_symmetry_group_IT_number 14
_symmetry_cell_setting 'monoclinic'
loop_
_space_group_symop_operation_xyz
x,y,z
-x,1/2+y,1/2-z
-x,-y,-z
x,1/2-y,1/2+z
loop_
_atom_site_type_symbol
_atom_site_label
_atom_site_fract_x
_atom_site_fract_y
_atom_site_fract_z
Si Si1 0.261339 0.966936 0.925333
Si Si2 0.713314 0.512022 0.036419
Si Si3 0.797813 0.795491 0.203326
Si Si4 0.945093 0.318369 0.895749
Si Si5 0.643220 0.319252 0.267423
Si Si6 0.180233 0.664340 0.205390
Si Si7 0.376371 0.157574 0.022121
O O1 0.137796 0.509613 0.034830
O O2 0.230483 0.142393 0.887533
O O3 0.359151 0.861739 0.791614
O O4 0.139154 0.842653 0.010995
O O5 0.643951 0.456863 0.180224
O O6 0.661833 0.676527 0.017759
O O7 0.713415 0.367334 0.949477
O O8 0.828149 0.978180 0.237804
O O9 0.921642 0.684638 0.141281
O O10 0.683107 0.699783 0.333412
O O11 0.944011 0.296898 0.777308
O O12 0.688369 0.991349 0.999675
O O13 0.769726 0.299550 0.249234
O O14 0.526516 0.350080 0.415333
#
# Coordination Sequence:
#
# PCOD9241906 Si02
#       7
#     4   4   4   4   4   4   4
#     4  10  22  38  60  85 109 158 186 229 283 337
#     4   8  19  37  53  81 114 144 191 228 283 323
#     4  10  21  38  59  85 114 150 189 228 286 337
#     4   9  19  40  59  80 113 144 192 233 277 339
#     4  10  19  38  60  80 114 152 190 228 282 337
#     4   8  19  36  60  83 101 156 183 230 281 327
#     4  11  22  35  56  89 115 147 188 238 274 335
#
# _framework density 24.982294
#
# number of rings (size 3 to 8) (size 9 to 14) (size 15 to 20)
#    0.857    1.714    0.000    1.286    2.000    6.286 
#    2.571    1.429    0.000    0.000    0.000    0.000 
#    0.000    0.000    0.000    0.000    0.000    0.000 
#
# Total GULP energy -156363.130071 kJ/mol
# GULP energy per Si atom -5584.397503 kJ/mol
# Density = 2.492543 g / cm^3
# Si number density = 24.982294 Si / 1000 Ang^3
#
#
#
# Elastic Constant Matrix: (Units=GPa)
#
#
# Indices 1 2 3 4 5 6 
#
# 1 62.9236 12.8274 10.2437 0.0000 18.6580 0.0000
# 2 12.8274 69.9826 4.1704 0.0000 2.7384 0.0000
# 3 10.2437 4.1704 39.2397 0.0000 1.7302 0.0000
# 4 0.0000 0.0000 0.0000 17.4428 0.0000 8.7231
# 5 18.6580 2.7384 1.7302 0.0000 44.7814 0.0000
# 6 0.0000 0.0000 0.0000 8.7231 0.0000 35.4820
#
#
#
# Elastic Compliance Matrix: (Units=1/GPa)
#
#
# Indices 1 2 3 4 5 6 
#
# 1 0.019537 -0.003012 -0.004437 0.000000 -0.007784 0.000000
# 2 -0.003012 0.014875 -0.000811 0.000000 0.000377 0.000000
# 3 -0.004437 -0.000811 0.026691 0.000000 0.000867 0.000000
# 4 0.000000 0.000000 0.000000 0.065367 0.000000 -0.016070
# 5 -0.007784 0.000377 0.000867 0.000000 0.025518 0.000000
# 6 0.000000 0.000000 0.000000 -0.016070 0.000000 0.032134
#
#
# Mechanical properties :
#
#
# Convention : Reuss Voigt Hill
#
# Bulk Modulus (GPa) = 22.43040 25.18098 23.80569
# Shear Modulus (GPa) = 23.20167 29.20153 26.20160
#
# Velocity S-wave (km/s) = 3.05080 3.42261 3.24204
# Velocity P-wave (km/s) = 4.62687 5.07153 4.85429
#
# Compressibility (1/GPa) = 0.04458236
#
# Stress axis : x y z
#
# Youngs Moduli (GPa) = 51.18544 67.22718 37.46628
#
# Poissons Ratio (x) = 0.20249 0.16623
# Poissons Ratio (y) = 0.15417 0.03039
# Poissons Ratio (z) = 0.22710 0.05454
#
# Static dielectric constant tensor:
#      x y z
#    x 1.977890 0.000000 0.018530 
#    y 0.000000 2.042870 0.000000 
#    z 0.018530 0.000000 2.004070 
# 
# From -- ./inp_files/46444.got.cif
#   From: 2010.05.17/outbox.cif.g08.bks.cpg/sg14_24_cif.got.tgz:46444.got - 2010.06.03 17:49:19.
