data_PCOD9241851
_publ_section_title
;
Structure prediction by ZEFSAII (Michael W. Deem and Ramdas Pophale) SiO2 
 PCOD9241851
Probable space group: P 21/C
;
_chemical_formula_sum "Si O2"
_cell_formula_units_Z 32
_cell_length_a 13.788240
_cell_length_b 9.459271
_cell_length_c 12.385830
_cell_angle_alpha 90.000000
_cell_angle_beta 49.778439
_cell_angle_gamma 90.000000
_cell_volume 1233.476419
_symmetry_space_group_name_H-M "P 21/C"
_symmetry_group_IT_number 14
_symmetry_cell_setting 'monoclinic'
loop_
_space_group_symop_operation_xyz
x,y,z
-x,1/2+y,1/2-z
-x,-y,-z
x,1/2-y,1/2+z
loop_
_atom_site_type_symbol
_atom_site_label
_atom_site_fract_x
_atom_site_fract_y
_atom_site_fract_z
Si Si1 0.379144 0.096657 0.667142
Si Si2 0.026946 0.428916 0.294943
Si Si3 0.108912 0.142927 0.945408
Si Si4 0.031725 0.624039 0.893270
Si Si5 0.280515 0.844215 0.305653
Si Si6 0.303557 0.008109 0.500624
Si Si7 0.557765 0.790974 0.160801
Si Si8 0.633181 0.918003 0.909018
O O1 0.380924 0.996200 0.559657
O O2 0.466523 0.125564 0.709829
O O3 0.372236 0.257179 0.626624
O O4 0.242876 0.073368 0.823084
O O5 0.055064 0.310680 0.365104
O O6 0.164381 0.463280 0.149029
O O7 0.970254 0.544016 0.417339
O O8 0.941311 0.409256 0.251463
O O9 0.099979 0.288518 0.015036
O O10 0.149678 0.718323 0.854503
O O11 0.000000 0.500000 0.000000
O O12 0.419540 0.771204 0.202041
O O13 0.273429 0.887363 0.435364
O O14 0.283361 0.985480 0.228269
O O15 0.374138 0.138721 0.387313
O O16 0.649246 0.893318 0.024753
O O17 0.500000 0.000000 0.000000
#
# Coordination Sequence:
#
# PCOD9241851 Si02
#       8
#     4   4   4   4   4   4   4   4
#     4  10  19  37  66  89 121 174 212 268 335 392
#     4  10  23  44  68  96 137 175 223 286 336 409
#     4  10  24  43  66 102 133 171 232 278 339 411
#     4  12  24  39  69 100 134 181 216 283 349 401
#     4  11  22  39  60  95 129 167 223 268 330 400
#     4  10  20  40  63  90 128 167 220 269 330 400
#     4  10  21  37  62  90 123 170 213 270 316 399
#     4   9  19  36  57  86 123 158 218 260 311 400
#
# _framework density 25.942936
#
# number of rings (size 3 to 8) (size 9 to 14) (size 15 to 20)
#    0.000    1.750    2.500    1.500    3.500    0.500 
#    0.000   11.250    0.000    0.000    0.000    0.000 
#    0.000    0.000    0.000    0.000    0.000    0.000 
#
# Total GULP energy -178279.297160 kJ/mol
# GULP energy per Si atom -5571.228036 kJ/mol
# Density = 2.588389 g / cm^3
# Si number density = 25.942936 Si / 1000 Ang^3
#
#
#
# Elastic Constant Matrix: (Units=GPa)
#
#
# Indices 1 2 3 4 5 6 
#
# 1 174.7915 -12.0406 36.8140 0.0000 18.9330 0.0000
# 2 -12.0406 10.4175 -2.1240 0.0000 9.2193 0.0000
# 3 36.8140 -2.1240 120.7048 0.0000 28.7083 0.0000
# 4 0.0000 0.0000 0.0000 36.0533 0.0000 5.5592
# 5 18.9330 9.2193 28.7083 0.0000 49.9416 0.0000
# 6 0.0000 0.0000 0.0000 5.5592 0.0000 18.4879
#
#
#
# Elastic Compliance Matrix: (Units=1/GPa)
#
#
# Indices 1 2 3 4 5 6 
#
# 1 0.007232 0.012092 -0.000938 0.000000 -0.004435 0.000000
# 2 0.012092 0.142367 0.007134 0.000000 -0.034966 0.000000
# 3 -0.000938 0.007134 0.010338 0.000000 -0.006904 0.000000
# 4 0.000000 0.000000 0.000000 0.029085 0.000000 -0.008746
# 5 -0.004435 -0.034966 -0.006904 0.000000 0.032128 0.000000
# 6 0.000000 0.000000 0.000000 -0.008746 0.000000 0.056719
#
#
# Mechanical properties :
#
#
# Convention : Reuss Voigt Hill
#
# Bulk Modulus (GPa) = 5.08875 39.02362 22.05618
# Shear Modulus (GPa) = 16.29730 39.78085 28.03907
#
# Velocity S-wave (km/s) = 2.50911 3.92011 3.29112
# Velocity P-wave (km/s) = 3.21868 5.96359 4.79189
#
# Compressibility (1/GPa) = 0.19651188
#
# Stress axis : x y z
#
# Youngs Moduli (GPa) = 138.27418 7.02410 96.72673
#
# Poissons Ratio (x) = -0.08494 0.09075
# Poissons Ratio (y) = -1.67201 -0.69000
# Poissons Ratio (z) = 0.12973 -0.05011
#
# Static dielectric constant tensor:
#      x y z
#    x 1.779690 0.000000 0.189860 
#    y 0.000000 2.139100 0.000000 
#    z 0.189860 0.000000 1.933870 
# 
# From -- ./inp_files/32372.got.cif
#   From: 2010.05.17/outbox.cif.g08.bks.cpg/sg14_17_cif.got.tgz:32372.got - 2010.06.03 17:49:19.
