data_PCOD9241694
_publ_section_title
;
Structure prediction by ZEFSAII (Michael W. Deem and Ramdas Pophale) SiO2 
 PCOD9241694
Probable space group: P 21/C
;
_chemical_formula_sum "Si O2"
_cell_formula_units_Z 28
_cell_length_a 9.103616
_cell_length_b 18.208970
_cell_length_c 18.674686
_cell_angle_alpha 90.000000
_cell_angle_beta 149.514271
_cell_angle_gamma 90.000000
_cell_volume 1570.499495
_symmetry_space_group_name_H-M "P 21/C"
_symmetry_group_IT_number 14
_symmetry_cell_setting 'monoclinic'
loop_
_space_group_symop_operation_xyz
x,y,z
-x,1/2+y,1/2-z
-x,-y,-z
x,1/2-y,1/2+z
loop_
_atom_site_type_symbol
_atom_site_label
_atom_site_fract_x
_atom_site_fract_y
_atom_site_fract_z
Si Si1 0.094342 0.451604 0.831400
Si Si2 0.301379 0.363209 0.708514
Si Si3 0.487532 0.105520 0.127724
Si Si4 0.492077 0.328036 0.487775
Si Si5 0.343135 0.902920 0.504434
Si Si6 0.198221 0.961820 0.942863
Si Si7 0.051483 0.263118 0.192484
O O1 0.196047 0.519626 0.922742
O O2 0.827560 0.410123 0.756267
O O3 0.976202 0.479501 0.703981
O O4 0.373279 0.401811 0.928533
O O5 0.419638 0.368808 0.678561
O O6 0.210172 0.281417 0.695641
O O7 0.017109 0.413928 0.598807
O O8 0.530363 0.394131 0.862701
O O9 0.390192 0.162874 0.025893
O O10 0.320353 0.030628 0.036761
O O11 0.542205 0.408745 0.474521
O O12 0.283383 0.282242 0.350080
O O13 0.808159 0.291911 0.619536
O O14 0.117492 0.837240 0.398452
#
# Coordination Sequence:
#
# PCOD9241694 Si02
#       7
#     4   4   4   4   4   4   4
#     4   9  19  34  62  90 105 148 200 248 284 334
#     4  10  22  35  54  85 119 155 187 235 291 354
#     4  11  20  36  56  89 119 140 198 248 286 335
#     4  10  21  35  61  82 111 151 202 233 283 344
#     4  10  19  37  59  81 118 149 194 237 290 349
#     4   9  18  36  59  83 111 150 192 232 289 346
#     4  11  20  39  57  80 111 165 191 226 285 356
#
# _framework density 17.828723
#
# number of rings (size 3 to 8) (size 9 to 14) (size 15 to 20)
#    0.000    2.000    1.429    4.714    0.000    0.571 
#    2.571    0.000    0.000    0.000    0.000    0.000 
#    0.000    0.000    0.000    0.000    0.000    0.000 
#
# Total GULP energy -156207.660773 kJ/mol
# GULP energy per Si atom -5578.845028 kJ/mol
# Density = 1.778814 g / cm^3
# Si number density = 17.828723 Si / 1000 Ang^3
#
#
#
# Elastic Constant Matrix: (Units=GPa)
#
#
# Indices 1 2 3 4 5 6 
#
# 1 156.6040 53.1377 61.0087 0.0000 -19.0698 0.0000
# 2 53.1377 77.9442 50.0055 0.0000 -13.1329 0.0000
# 3 61.0087 50.0055 89.2103 0.0000 4.1531 0.0000
# 4 0.0000 0.0000 0.0000 40.0909 0.0000 -0.0749
# 5 -19.0698 -13.1329 4.1531 0.0000 19.7019 0.0000
# 6 0.0000 0.0000 0.0000 -0.0749 0.0000 21.9271
#
#
#
# Elastic Compliance Matrix: (Units=1/GPa)
#
#
# Indices 1 2 3 4 5 6 
#
# 1 0.011085 -0.000464 -0.007883 0.000000 0.012082 0.000000
# 2 -0.000464 0.026572 -0.015533 0.000000 0.020538 0.000000
# 3 -0.007883 -0.015533 0.026404 0.000000 -0.023551 0.000000
# 4 0.000000 0.000000 0.000000 0.024943 0.000000 0.000085
# 5 0.012082 0.020538 -0.023551 0.000000 0.081106 0.000000
# 6 0.000000 0.000000 0.000000 0.000085 0.000000 0.045606
#
#
# Mechanical properties :
#
#
# Convention : Reuss Voigt Hill
#
# Bulk Modulus (GPa) = 61.34979 72.45138 66.90058
# Shear Modulus (GPa) = 18.59351 26.98441 22.78896
#
# Velocity S-wave (km/s) = 3.23289 3.89464 3.57909
# Velocity P-wave (km/s) = 6.95851 7.80705 7.39496
#
# Compressibility (1/GPa) = 0.01629998
#
# Stress axis : x y z
#
# Youngs Moduli (GPa) = 90.20863 37.63386 37.87286
#
# Poissons Ratio (x) = 0.01746 0.29857
# Poissons Ratio (y) = 0.04185 0.58829
# Poissons Ratio (z) = 0.71116 0.58458
#
# Static dielectric constant tensor:
#      x y z
#    x 1.589780 0.000000 0.018930 
#    y 0.000000 1.646070 0.000000 
#    z 0.018930 0.000000 1.622040 
# 
# From -- ./inp_files/56156.got.cif
#   From: 2010.05.17/outbox.cif.g08.bks.cpg/sg14_29_cif.got.tgz:56156.got - 2010.06.03 17:49:19.
