data_PCOD9241868
_publ_section_title
;
Structure prediction by ZEFSAII (Michael W. Deem and Ramdas Pophale) SiO2 
 PCOD9241868
Probable space group: P 21/C
;
_chemical_formula_sum "Si O2"
_cell_formula_units_Z 24
_cell_length_a 17.143626
_cell_length_b 5.613591
_cell_length_c 14.752584
_cell_angle_alpha 90.000000
_cell_angle_beta 141.538899
_cell_angle_gamma 90.000000
_cell_volume 883.059932
_symmetry_space_group_name_H-M "P 21/C"
_symmetry_group_IT_number 14
_symmetry_cell_setting 'monoclinic'
loop_
_space_group_symop_operation_xyz
x,y,z
-x,1/2+y,1/2-z
-x,-y,-z
x,1/2-y,1/2+z
loop_
_atom_site_type_symbol
_atom_site_label
_atom_site_fract_x
_atom_site_fract_y
_atom_site_fract_z
Si Si1 0.352431 0.749999 0.437164
Si Si2 0.979453 0.250000 0.033600
Si Si3 0.394712 0.250000 0.416379
Si Si4 0.454594 0.250002 0.166329
Si Si5 0.181377 0.749999 0.461204
Si Si6 0.152060 0.249999 0.367522
O O1 0.321499 0.498364 0.360822
O O2 0.513448 0.750002 0.411267
O O3 0.288599 0.749999 0.478685
O O4 0.321499 0.001635 0.360823
O O5 0.837050 0.250000 0.946806
O O6 0.084371 0.250001 0.209184
O O7 0.000000 0.500000 0.000000
O O8 0.000000 0.000000 0.000000
O O9 0.505744 0.749998 0.574423
O O10 0.303696 0.249998 0.521703
O O11 0.500000 0.500002 0.250000
O O12 0.119430 0.496784 0.385045
O O13 0.119430 0.003213 0.385044
#
# Coordination Sequence:
#
# PCOD9241868 Si02
#       6
#     4   4   4   4   4   4
#     4  10  19  37  70  98 138 194 248 302 374 449
#     4  12  28  51  79 120 155 198 264 336 400 471
#     4  10  20  38  63  99 146 185 257 300 364 445
#     4  12  24  42  71 107 153 205 259 311 379 463
#     4  12  22  46  82 111 151 206 261 318 407 467
#     4  12  25  48  79 111 155 212 255 323 400 459
#
# _framework density 27.178225999999999
#
# number of rings (size 3 to 8) (size 9 to 14) (size 15 to 20)
#    0.000    0.667    3.333    5.000    0.000    0.000 
#    0.000   10.000    0.000    0.000    0.000    0.000 
#    0.000    0.000    0.000    0.000    0.000    0.000 
#
# Total GULP energy -133646.288667 kJ/mol
# GULP energy per Si atom -5568.595361 kJ/mol
# Density = 2.711637 g / cm^3
# Si number density = 27.178226 Si / 1000 Ang^3
#
#
#
# Elastic Constant Matrix: (Units=GPa)
#
#
# Indices 1 2 3 4 5 6 
#
# 1 198.1269 45.9404 25.0554 0.0000 -26.3008 0.0000
# 2 45.9404 345.4204 80.9993 0.0000 -21.9404 0.0000
# 3 25.0554 80.9993 132.7564 0.0000 -1.4039 0.0000
# 4 0.0000 0.0000 0.0000 -77.1318 0.0000 -303.4018
# 5 -26.3008 -21.9404 -1.4039 0.0000 53.3556 0.0000
# 6 0.0000 0.0000 0.0000 -303.4018 0.0000 -515.0482
#
#
#
# Elastic Compliance Matrix: (Units=1/GPa)
#
#
# Indices 1 2 3 4 5 6 
#
# 1 0.005579 -0.000395 -0.000785 0.000000 0.002567 0.000000
# 2 -0.000395 0.003504 -0.002051 0.000000 0.001192 0.000000
# 3 -0.000785 -0.002051 0.008922 0.000000 -0.000995 0.000000
# 4 0.000000 0.000000 0.000000 0.009843 0.000000 -0.005798
# 5 0.002567 0.001192 -0.000995 0.000000 0.020472 0.000000
# 6 0.000000 0.000000 0.000000 -0.005798 0.000000 0.001474
#
#
# Mechanical properties :
#
#
# Convention : Reuss Voigt Hill
#
# Bulk Modulus (GPa) = 86.63010 108.92154 97.77582
# Shear Modulus (GPa) = 83.19150 -72.81096 5.19027
#
# Velocity S-wave (km/s) = 5.53860 -5.18154 1.38342
# Velocity P-wave (km/s) = 8.53495 2.08949 6.21335
#
# Compressibility (1/GPa) = 0.01154333
#
# Stress axis : x y z
#
# Youngs Moduli (GPa) = 179.24872 285.37152 112.08856
#
# Poissons Ratio (x) = 0.11269 0.08797
# Poissons Ratio (y) = 0.07078 0.22988
# Poissons Ratio (z) = 0.14068 0.58527
#
# Static dielectric constant tensor:
#      x y z
#    x 2.402080 0.000000 -0.027810 
#    y 0.000000 2.096830 0.000000 
#    z -0.027810 0.000000 2.132410 
# 
# From -- ./inp_files/33404.got.cif
#   From: 2010.05.17/outbox.cif.g08.bks.cpg/sg14_17_cif.got.tgz:33404.got - 2010.06.03 17:49:19.
