data_PCOD9241588
_publ_section_title
;
Structure prediction by ZEFSAII (Michael W. Deem and Ramdas Pophale) SiO2 
 PCOD9241588
Probable space group: P 21/C
;
_chemical_formula_sum "Si O2"
_cell_formula_units_Z 32
_cell_length_a 9.103131
_cell_length_b 12.877778
_cell_length_c 11.573036
_cell_angle_alpha 90.000000
_cell_angle_beta 98.449767
_cell_angle_gamma 90.000000
_cell_volume 1341.958305
_symmetry_space_group_name_H-M "P 21/C"
_symmetry_group_IT_number 14
_symmetry_cell_setting 'monoclinic'
loop_
_space_group_symop_operation_xyz
x,y,z
-x,1/2+y,1/2-z
-x,-y,-z
x,1/2-y,1/2+z
loop_
_atom_site_type_symbol
_atom_site_label
_atom_site_fract_x
_atom_site_fract_y
_atom_site_fract_z
Si Si1 0.610241 0.998897 0.666886
Si Si2 0.178890 0.416483 0.621210
Si Si3 0.126002 0.464603 0.359816
Si Si4 0.224612 0.641050 0.990383
Si Si5 0.241046 0.655750 0.246437
Si Si6 0.975380 0.784745 0.311400
Si Si7 0.462120 0.280730 0.954612
Si Si8 0.457918 0.208149 0.707835
O O1 0.679847 0.957020 0.793071
O O2 0.556133 0.901660 0.585337
O O3 0.731182 0.057838 0.601447
O O4 0.494901 0.087572 0.689080
O O5 0.187050 0.416881 0.484822
O O6 0.040173 0.492128 0.635096
O O7 0.135056 0.307226 0.671797
O O8 0.222599 0.564641 0.336346
O O9 0.104657 0.380978 0.256661
O O10 0.066283 0.685562 0.936691
O O11 0.222980 0.601758 0.120097
O O12 0.358051 0.726731 0.006928
O O13 0.105828 0.737069 0.245803
O O14 0.392613 0.720374 0.268402
O O15 0.405602 0.219819 0.835109
O O16 0.392843 0.261006 0.073227
#
# Coordination Sequence:
#
# PCOD9241588 Si02
#       8
#     4   4   4   4   4   4   4   4
#     4  11  21  42  62  89 124 164 199 250 316 360
#     4  10  22  37  61  86 126 161 201 251 311 363
#     4  10  21  37  56  89 122 161 203 253 300 366
#     4  10  19  36  62  86 117 156 203 251 295 367
#     4  10  20  33  62  91 115 152 214 247 298 364
#     4  11  19  37  55  92 121 163 201 248 308 361
#     4  10  22  39  66  94 117 159 211 254 308 365
#     4  10  20  39  67  91 118 161 207 257 299 374
#
# _framework density 23.845749000000001
#
# number of rings (size 3 to 8) (size 9 to 14) (size 15 to 20)
#    0.000    1.750    3.750    2.250    1.750    2.500 
#    4.500    3.125    0.000    0.000    0.000    0.000 
#    0.000    0.000    0.000    0.000    0.000    0.000 
#
# Total GULP energy -178901.822881 kJ/mol
# GULP energy per Si atom -5590.681965 kJ/mol
# Density = 2.379148 g / cm^3
# Si number density = 23.845749 Si / 1000 Ang^3
#
#
#
# Elastic Constant Matrix: (Units=GPa)
#
#
# Indices 1 2 3 4 5 6 
#
# 1 48.6693 12.7658 19.2621 0.0000 8.9292 0.0000
# 2 12.7658 94.8910 40.5978 0.0000 7.6495 0.0000
# 3 19.2621 40.5978 179.9709 0.0000 7.9400 0.0000
# 4 0.0000 0.0000 0.0000 32.7530 0.0000 17.1226
# 5 8.9292 7.6495 7.9400 0.0000 29.1103 0.0000
# 6 0.0000 0.0000 0.0000 17.1226 0.0000 21.3065
#
#
#
# Elastic Compliance Matrix: (Units=1/GPa)
#
#
# Indices 1 2 3 4 5 6 
#
# 1 0.022834 -0.001830 -0.001765 0.000000 -0.006042 0.000000
# 2 -0.001830 0.011975 -0.002421 0.000000 -0.001925 0.000000
# 3 -0.001765 -0.002421 0.006315 0.000000 -0.000545 0.000000
# 4 0.000000 0.000000 0.000000 0.052652 0.000000 -0.042313
# 5 -0.006042 -0.001925 -0.000545 0.000000 0.036860 0.000000
# 6 0.000000 0.000000 0.000000 -0.042313 0.000000 0.080938
#
#
# Mechanical properties :
#
#
# Convention : Reuss Voigt Hill
#
# Bulk Modulus (GPa) = 34.37080 52.08696 43.22888
# Shear Modulus (GPa) = 21.43137 33.36097 27.39617
#
# Velocity S-wave (km/s) = 3.00117 3.74442 3.39321
# Velocity P-wave (km/s) = 5.14339 6.37063 5.78962
#
# Compressibility (1/GPa) = 0.02909446
#
# Stress axis : x y z
#
# Youngs Moduli (GPa) = 43.79500 83.50436 158.34292
#
# Poissons Ratio (x) = 0.15280 0.27940
# Poissons Ratio (y) = 0.08014 0.38329
# Poissons Ratio (z) = 0.07728 0.20213
#
# Static dielectric constant tensor:
#      x y z
#    x 1.946540 0.000000 -0.025530 
#    y 0.000000 1.907290 0.000000 
#    z -0.025530 0.000000 1.902120 
# 
# From -- ./inp_files/29388.got.cif
#   From: 2010.05.17/outbox.cif.g08.bks.cpg/sg14_15_cif.got.tgz:29388.got - 2010.06.03 17:49:19.
