data_PCOD9241255
_publ_section_title
;
Structure prediction by ZEFSAII (Michael W. Deem and Ramdas Pophale) SiO2 
 PCOD9241255
Probable space group: P 21/C
;
_chemical_formula_sum "Si O2"
_cell_formula_units_Z 28
_cell_length_a 10.809735
_cell_length_b 5.030399
_cell_length_c 31.833876
_cell_angle_alpha 90.000000
_cell_angle_beta 123.213046
_cell_angle_gamma 90.000000
_cell_volume 1448.256297
_symmetry_space_group_name_H-M "P 21/C"
_symmetry_group_IT_number 14
_symmetry_cell_setting 'monoclinic'
loop_
_space_group_symop_operation_xyz
x,y,z
-x,1/2+y,1/2-z
-x,-y,-z
x,1/2-y,1/2+z
loop_
_atom_site_type_symbol
_atom_site_label
_atom_site_fract_x
_atom_site_fract_y
_atom_site_fract_z
Si Si1 0.174294 0.641313 0.755954
Si Si2 0.557068 0.434933 0.964404
Si Si3 0.600237 0.974121 0.773790
Si Si4 0.303946 0.975533 0.113866
Si Si5 0.442828 0.563758 0.400746
Si Si6 0.173010 0.026127 0.542109
Si Si7 0.834818 0.641455 0.689956
O O1 0.289024 0.563100 0.742032
O O2 0.190450 0.939326 0.775914
O O3 0.005499 0.611484 0.709207
O O4 0.192074 0.438056 0.798335
O O5 0.462444 0.630657 0.916560
O O6 0.725053 0.499362 0.981010
O O7 0.526911 0.126677 0.949217
O O8 0.500000 0.500000 0.000000
O O9 0.534972 0.683209 0.752860
O O10 0.681826 0.990206 0.833852
O O11 0.469986 0.007878 0.126299
O O12 0.209562 0.199108 0.072212
O O13 0.235456 0.699169 0.085309
O O14 0.277832 0.457853 0.365988
O O15 0.000000 0.000000 0.500000
#
# Coordination Sequence:
#
# PCOD9241255 Si02
#       7
#     4   4   4   4   4   4   4
#     4  10  21  36  55  81 117 145 188 229 269 333
#     4  10  21  37  55  83 107 135 188 232 273 335
#     4  12  23  37  58  87 120 152 190 236 283 328
#     4  10  21  36  58  85 111 146 193 222 272 356
#     4  10  19  35  58  78 107 142 182 220 277 327
#     4  10  21  40  59  80 112 153 183 234 291 332
#     4  10  20  37  57  80 110 153 185 225 281 326
#
# _framework density 19.333594999999999
#
# number of rings (size 3 to 8) (size 9 to 14) (size 15 to 20)
#    0.000    1.714    0.000    5.143    0.000    2.286 
#    5.143    0.000    0.000    0.000    0.000    0.000 
#    0.000    0.000    0.000    0.000    0.000    0.000 
#
# Total GULP energy -156346.225787 kJ/mol
# GULP energy per Si atom -5583.793778 kJ/mol
# Density = 1.928959 g / cm^3
# Si number density = 19.333595 Si / 1000 Ang^3
#
#
#
# Elastic Constant Matrix: (Units=GPa)
#
#
# Indices 1 2 3 4 5 6 
#
# 1 88.7328 -13.3252 32.0800 0.0000 2.0651 0.0000
# 2 -13.3252 58.1535 -16.0631 0.0000 0.3627 0.0000
# 3 32.0800 -16.0631 40.2939 0.0000 13.6442 0.0000
# 4 0.0000 0.0000 0.0000 14.2034 0.0000 3.1240
# 5 2.0651 0.3627 13.6442 0.0000 21.8903 0.0000
# 6 0.0000 0.0000 0.0000 3.1240 0.0000 21.0054
#
#
#
# Elastic Compliance Matrix: (Units=1/GPa)
#
#
# Indices 1 2 3 4 5 6 
#
# 1 0.017067 -0.000829 -0.016957 0.000000 0.008973 0.000000
# 2 -0.000829 0.020120 0.011113 0.000000 -0.007182 0.000000
# 3 -0.016957 0.011113 0.053576 0.000000 -0.031979 0.000000
# 4 0.000000 0.000000 0.000000 0.072786 0.000000 -0.010825
# 5 0.008973 -0.007182 -0.031979 0.000000 0.064887 0.000000
# 6 0.000000 0.000000 0.000000 -0.010825 0.000000 0.049217
#
#
# Mechanical properties :
#
#
# Convention : Reuss Voigt Hill
#
# Bulk Modulus (GPa) = 12.91694 21.39597 17.15646
# Shear Modulus (GPa) = 15.78256 23.71906 19.75081
#
# Velocity S-wave (km/s) = 2.86025 3.50642 3.19968
# Velocity P-wave (km/s) = 4.19566 5.24252 4.74803
#
# Compressibility (1/GPa) = 0.07741771
#
# Stress axis : x y z
#
# Youngs Moduli (GPa) = 58.59297 49.70115 18.66497
#
# Poissons Ratio (x) = 0.04120 0.31650
# Poissons Ratio (y) = 0.04858 -0.20742
# Poissons Ratio (z) = 0.99354 -0.55232
#
# Static dielectric constant tensor:
#      x y z
#    x 1.677930 0.000000 0.004700 
#    y 0.000000 1.665380 0.000000 
#    z 0.004700 0.000000 1.660970 
# 
# From -- ./inp_files/79204.got.cif
#   From: 2010.05.17/outbox.cif.g08.bks.cpg/sg14_40_cif.got.tgz:79204.got - 2010.06.03 17:49:19.
