data_PCOD9241231
_publ_section_title
;
Structure prediction by ZEFSAII (Michael W. Deem and Ramdas Pophale) SiO2 
 PCOD9241231
Probable space group: P 21/C
;
_chemical_formula_sum "Si O2"
_cell_formula_units_Z 24
_cell_length_a 9.817635
_cell_length_b 7.129404
_cell_length_c 23.361139
_cell_angle_alpha 90.000000
_cell_angle_beta 145.538548
_cell_angle_gamma 90.000000
_cell_volume 925.244908
_symmetry_space_group_name_H-M "P 21/C"
_symmetry_group_IT_number 14
_symmetry_cell_setting 'monoclinic'
loop_
_space_group_symop_operation_xyz
x,y,z
-x,1/2+y,1/2-z
-x,-y,-z
x,1/2-y,1/2+z
loop_
_atom_site_type_symbol
_atom_site_label
_atom_site_fract_x
_atom_site_fract_y
_atom_site_fract_z
Si Si1 0.481915 0.156955 0.197534
Si Si2 0.018218 0.587163 0.174918
Si Si3 0.888021 0.967917 0.167889
Si Si4 0.743643 0.290290 0.394382
Si Si5 0.752295 0.811315 0.481846
Si Si6 0.353046 0.617447 0.514512
O O1 0.714923 0.040439 0.255241
O O2 0.538530 0.217271 0.280822
O O3 0.258447 0.014285 0.118415
O O4 0.423545 0.327245 0.133514
O O5 0.992019 0.519844 0.230684
O O6 0.038939 0.813714 0.187094
O O7 0.800200 0.560970 0.054440
O O8 0.631241 0.869306 0.093422
O O9 0.819319 0.136056 0.100671
O O10 0.704694 0.268974 0.448320
O O11 0.985203 0.197904 0.455506
O O12 0.676487 0.604298 0.478806
#
# Coordination Sequence:
#
# PCOD9241231 Si02
#       6
#     4   4   4   4   4   4
#     4  10  19  37  56  79 114 138 181 227 271 319
#     4  10  20  36  55  82 106 149 180 226 264 322
#     4  10  19  35  57  77 110 146 187 215 269 315
#     4  10  19  35  59  84 106 144 178 227 274 324
#     4   9  18  35  61  77 108 145 183 215 281 324
#     4   9  17  34  56  76 105 148 182 217 257 332
#
# _framework density 25.939077999999999
#
# number of rings (size 3 to 8) (size 9 to 14) (size 15 to 20)
#    0.000    2.333    3.333    2.000    0.000    0.000 
#   12.000    5.833    0.000    0.000    0.000    0.000 
#    0.000    0.000    0.000    0.000    0.000    0.000 
#
# Total GULP energy -134049.183789 kJ/mol
# GULP energy per Si atom -5585.382658 kJ/mol
# Density = 2.588004 g / cm^3
# Si number density = 25.939078 Si / 1000 Ang^3
#
#
#
# Elastic Constant Matrix: (Units=GPa)
#
#
# Indices 1 2 3 4 5 6 
#
# 1 94.8126 2.6725 34.4496 0.0000 -25.9563 0.0000
# 2 2.6725 34.1586 27.3553 0.0000 -18.4077 0.0000
# 3 34.4496 27.3553 126.5980 0.0000 -38.4822 0.0000
# 4 0.0000 0.0000 0.0000 41.1922 0.0000 -16.6105
# 5 -25.9563 -18.4077 -38.4822 0.0000 59.4256 0.0000
# 6 0.0000 0.0000 0.0000 -16.6105 0.0000 23.1516
#
#
#
# Elastic Compliance Matrix: (Units=1/GPa)
#
#
# Indices 1 2 3 4 5 6 
#
# 1 0.012831 0.003953 -0.002826 0.000000 0.004999 0.000000
# 2 0.003953 0.039512 -0.006684 0.000000 0.009638 0.000000
# 3 -0.002826 -0.006684 0.011340 0.000000 0.004038 0.000000
# 4 0.000000 0.000000 0.000000 0.034159 0.000000 0.024508
# 5 0.004999 0.009638 0.004038 0.000000 0.024612 0.000000
# 6 0.000000 0.000000 0.000000 0.024508 0.000000 0.060777
#
#
# Mechanical properties :
#
#
# Convention : Reuss Voigt Hill
#
# Bulk Modulus (GPa) = 19.02242 42.72488 30.87365
# Shear Modulus (GPa) = 23.59949 37.49332 30.54640
#
# Velocity S-wave (km/s) = 3.01957 3.80602 3.43537
# Velocity P-wave (km/s) = 4.41661 5.98509 5.25965
#
# Compressibility (1/GPa) = 0.05256953
#
# Stress axis : x y z
#
# Youngs Moduli (GPa) = 77.93563 25.30851 88.18358
#
# Poissons Ratio (x) = -0.10005 0.24923
# Poissons Ratio (y) = -0.30810 0.58942
# Poissons Ratio (z) = 0.22027 0.16916
#
# Static dielectric constant tensor:
#      x y z
#    x 2.003120 0.000000 -0.073300 
#    y 0.000000 2.126640 0.000000 
#    z -0.073300 0.000000 2.121300 
# 
# From -- ./inp_files/52228.got.cif
#   From: 2010.05.17/outbox.cif.g08.bks.cpg/sg14_27_cif.got.tgz:52228.got - 2010.06.03 17:49:19.
