data_PCOD9241050
_publ_section_title
;
Structure prediction by ZEFSAII (Michael W. Deem and Ramdas Pophale) SiO2 
 PCOD9241050
Probable space group: P 21/C
;
_chemical_formula_sum "Si O2"
_cell_formula_units_Z 32
_cell_length_a 13.682148
_cell_length_b 9.251792
_cell_length_c 23.059046
_cell_angle_alpha 90.000000
_cell_angle_beta 32.491809
_cell_angle_gamma 90.000000
_cell_volume 1567.980047
_symmetry_space_group_name_H-M "P 21/C"
_symmetry_group_IT_number 14
_symmetry_cell_setting 'monoclinic'
loop_
_space_group_symop_operation_xyz
x,y,z
-x,1/2+y,1/2-z
-x,-y,-z
x,1/2-y,1/2+z
loop_
_atom_site_type_symbol
_atom_site_label
_atom_site_fract_x
_atom_site_fract_y
_atom_site_fract_z
Si Si1 0.491456 0.812845 0.366366
Si Si2 0.250956 0.424052 0.785456
Si Si3 0.595303 0.163489 0.724871
Si Si4 0.302155 0.934319 0.028263
Si Si5 0.965302 0.536736 0.431056
Si Si6 0.003214 0.746529 0.506773
Si Si7 0.683565 0.391091 0.347730
Si Si8 0.621365 0.115541 0.308612
O O1 0.673914 0.719195 0.283431
O O2 0.479341 0.827791 0.302411
O O3 0.342364 0.714074 0.472744
O O4 0.506015 0.974912 0.381466
O O5 0.414158 0.508502 0.738186
O O6 0.107151 0.365720 0.903093
O O7 0.193100 0.535351 0.764177
O O8 0.537156 0.290479 0.797710
O O9 0.811755 0.185984 0.609240
O O10 0.246430 0.904898 0.122292
O O11 0.153914 0.022448 0.066447
O O12 0.491110 0.023865 0.938100
O O13 0.901300 0.668263 0.504437
O O14 0.948681 0.388154 0.475451
O O15 0.178512 0.561777 0.311520
O O16 0.648832 0.227095 0.346838
#
# Coordination Sequence:
#
# PCOD9241050 Si02
#       8
#     4   4   4   4   4   4   4   4
#     4  11  20  32  56  82 109 149 194 232 286 340
#     4  10  20  34  55  79 113 148 180 237 279 339
#     4  10  20  33  52  83 116 146 183 233 293 347
#     4  10  21  41  61  79 111 157 195 233 291 338
#     4  10  20  36  59  83 117 150 181 237 295 341
#     4  10  19  34  56  82 115 144 184 227 293 348
#     4   9  22  42  58  80 114 150 196 240 282 336
#     4  10  21  38  55  85 119 148 191 246 285 341
#
# _framework density 20.408424
#
# number of rings (size 3 to 8) (size 9 to 14) (size 15 to 20)
#    0.000    2.000    2.500    1.125    0.000    4.500 
#    2.250    0.000    0.000    0.000    0.000    0.000 
#    0.000    0.000    0.000    0.000    0.000    0.000 
#
# Total GULP energy -178576.180711 kJ/mol
# GULP energy per Si atom -5580.505647 kJ/mol
# Density = 2.036197 g / cm^3
# Si number density = 20.408424 Si / 1000 Ang^3
#
#
#
# Elastic Constant Matrix: (Units=GPa)
#
#
# Indices 1 2 3 4 5 6 
#
# 1 88.5649 15.2439 14.9055 0.0000 29.4540 0.0000
# 2 15.2439 106.7678 17.8520 0.0000 4.1549 0.0000
# 3 14.9055 17.8520 43.3803 0.0000 17.2245 0.0000
# 4 0.0000 0.0000 0.0000 22.2317 0.0000 1.0136
# 5 29.4540 4.1549 17.2245 0.0000 25.1520 0.0000
# 6 0.0000 0.0000 0.0000 1.0136 0.0000 15.3321
#
#
#
# Elastic Compliance Matrix: (Units=1/GPa)
#
#
# Indices 1 2 3 4 5 6 
#
# 1 0.019410 -0.002527 0.004436 0.000000 -0.025351 0.000000
# 2 -0.002527 0.010435 -0.005379 0.000000 0.004919 0.000000
# 3 0.004436 -0.005379 0.034956 0.000000 -0.028245 0.000000
# 4 0.000000 0.000000 0.000000 0.045117 0.000000 -0.002983
# 5 -0.025351 0.004919 -0.028245 0.000000 0.087976 0.000000
# 6 0.000000 0.000000 0.000000 -0.002983 0.000000 0.065420
#
#
# Mechanical properties :
#
#
# Convention : Reuss Voigt Hill
#
# Bulk Modulus (GPa) = 17.28233 37.19065 27.23649
# Shear Modulus (GPa) = 17.26878 25.25726 21.26302
#
# Velocity S-wave (km/s) = 2.91204 3.52176 3.23131
# Velocity P-wave (km/s) = 4.44896 5.89913 5.22461
#
# Compressibility (1/GPa) = 0.05786256
#
# Stress axis : x y z
#
# Youngs Moduli (GPa) = 51.51877 95.83289 28.60722
#
# Poissons Ratio (x) = 0.24212 -0.12690
# Poissons Ratio (y) = 0.13016 0.15388
# Poissons Ratio (z) = -0.22854 0.51549
#
# Static dielectric constant tensor:
#      x y z
#    x 1.721520 0.000000 -0.001510 
#    y 0.000000 1.751700 0.000000 
#    z -0.001510 0.000000 1.750780 
# 
# From -- ./inp_files/58892.got.cif
#   From: 2010.05.17/outbox.cif.g08.bks.cpg/sg14_30_cif.got.tgz:58892.got - 2010.06.03 17:49:19.
