data_PCOD9241826
_publ_section_title
;
Structure prediction by ZEFSAII (Michael W. Deem and Ramdas Pophale) SiO2 
 PCOD9241826
Probable space group: P 21/C
;
_chemical_formula_sum "Si O2"
_cell_formula_units_Z 24
_cell_length_a 11.335905
_cell_length_b 14.294691
_cell_length_c 11.341866
_cell_angle_alpha 90.000000
_cell_angle_beta 149.126816
_cell_angle_gamma 90.000000
_cell_volume 943.085377
_symmetry_space_group_name_H-M "P 21/C"
_symmetry_group_IT_number 14
_symmetry_cell_setting 'monoclinic'
loop_
_space_group_symop_operation_xyz
x,y,z
-x,1/2+y,1/2-z
-x,-y,-z
x,1/2-y,1/2+z
loop_
_atom_site_type_symbol
_atom_site_label
_atom_site_fract_x
_atom_site_fract_y
_atom_site_fract_z
Si Si1 0.986848 0.922695 0.141628
Si Si2 0.041868 0.781184 0.725889
Si Si3 0.260910 0.562598 0.094820
Si Si4 0.768242 0.103084 0.896065
Si Si5 0.457460 0.765464 0.894377
Si Si6 0.786988 0.892396 0.316330
O O1 0.925430 0.819881 0.135726
O O2 0.206181 0.953901 0.410349
O O3 0.071557 0.907080 0.081179
O O4 0.783810 0.999445 0.965731
O O5 0.882053 0.851426 0.519054
O O6 0.258813 0.768102 0.824456
O O7 0.118975 0.827060 0.913072
O O8 0.386238 0.659224 0.233118
O O9 0.361141 0.480158 0.263507
O O10 0.999650 0.573149 0.920450
O O11 0.544576 0.160494 0.659563
O O12 0.668026 0.808849 0.144963
#
# Coordination Sequence:
#
# PCOD9241826 Si02
#       6
#     4   4   4   4   4   4
#     4  10  20  37  64  90 123 170 209 259 323 379
#     4  10  20  39  62  85 122 169 209 259 316 384
#     4  10  19  37  64  92 124 157 207 265 316 377
#     4  10  20  38  64  87 127 169 207 263 323 378
#     4  10  21  38  62  91 121 161 211 266 314 378
#     4  10  21  37  63  92 121 160 212 258 318 376
#
# _framework density 25.448385999999999
#
# number of rings (size 3 to 8) (size 9 to 14) (size 15 to 20)
#    0.000    2.000    3.333    0.500    0.000    0.000 
#    3.000    0.833    0.000    0.000    0.000    0.000 
#    0.000    0.000    0.000    0.000    0.000    0.000 
#
# Total GULP energy -134175.066967 kJ/mol
# GULP energy per Si atom -5590.627790 kJ/mol
# Density = 2.539046 g / cm^3
# Si number density = 25.448386 Si / 1000 Ang^3
#
#
#
# Elastic Constant Matrix: (Units=GPa)
#
#
# Indices 1 2 3 4 5 6 
#
# 1 88.1740 17.8830 31.4191 0.0000 -13.5604 0.0000
# 2 17.8830 131.0781 21.3425 0.0000 -21.7411 0.0000
# 3 31.4191 21.3425 95.3580 0.0000 -39.1336 0.0000
# 4 0.0000 0.0000 0.0000 82.2454 0.0000 -23.8803
# 5 -13.5604 -21.7411 -39.1336 0.0000 36.5268 0.0000
# 6 0.0000 0.0000 0.0000 -23.8803 0.0000 30.3674
#
#
#
# Elastic Compliance Matrix: (Units=1/GPa)
#
#
# Indices 1 2 3 4 5 6 
#
# 1 0.013007 -0.001149 -0.004154 0.000000 -0.000305 0.000000
# 2 -0.001149 0.008571 0.000676 0.000000 0.005399 0.000000
# 3 -0.004154 0.000676 0.020053 0.000000 0.020345 0.000000
# 4 0.000000 0.000000 0.000000 0.015756 0.000000 0.012390
# 5 -0.000305 0.005399 0.020345 0.000000 0.052274 0.000000
# 6 0.000000 0.000000 0.000000 0.012390 0.000000 0.042674
#
#
# Mechanical properties :
#
#
# Convention : Reuss Voigt Hill
#
# Bulk Modulus (GPa) = 30.88458 50.65546 40.77002
# Shear Modulus (GPa) = 29.00520 46.09228 37.54874
#
# Velocity S-wave (km/s) = 3.37970 4.26044 3.84537
# Velocity P-wave (km/s) = 5.23377 6.64456 5.98091
#
# Compressibility (1/GPa) = 0.03237862
#
# Stress axis : x y z
#
# Youngs Moduli (GPa) = 76.87910 116.66858 49.86697
#
# Poissons Ratio (x) = 0.13404 0.20714
# Poissons Ratio (y) = 0.08832 -0.03371
# Poissons Ratio (z) = 0.31935 -0.07887
#
# Static dielectric constant tensor:
#      x y z
#    x 2.029560 0.000000 0.011560 
#    y 0.000000 2.082290 0.000000 
#    z 0.011560 0.000000 2.016240 
# 
# From -- ./inp_files/32650.got.cif
#   From: 2010.05.17/outbox.cif.g08.bks.cpg/sg14_17_cif.got.tgz:32650.got - 2010.06.03 17:49:19.
