data_PCOD9241160
_publ_section_title
;
Structure prediction by ZEFSAII (Michael W. Deem and Ramdas Pophale) SiO2 
 PCOD9241160
Probable space group: P 21/C
;
_chemical_formula_sum "Si O2"
_cell_formula_units_Z 32
_cell_length_a 10.885283
_cell_length_b 14.400724
_cell_length_c 13.893054
_cell_angle_alpha 90.000000
_cell_angle_beta 38.573311
_cell_angle_gamma 90.000000
_cell_volume 1357.903854
_symmetry_space_group_name_H-M "P 21/C"
_symmetry_group_IT_number 14
_symmetry_cell_setting 'monoclinic'
loop_
_space_group_symop_operation_xyz
x,y,z
-x,1/2+y,1/2-z
-x,-y,-z
x,1/2-y,1/2+z
loop_
_atom_site_type_symbol
_atom_site_label
_atom_site_fract_x
_atom_site_fract_y
_atom_site_fract_z
Si Si1 0.987875 0.799457 0.127948
Si Si2 0.693214 0.556355 0.158245
Si Si3 0.711458 0.348007 0.152036
Si Si4 0.767043 0.585675 0.338696
Si Si5 0.706103 0.072644 0.025810
Si Si6 0.728278 0.769593 0.119025
Si Si7 0.400034 0.703508 0.574813
Si Si8 0.053203 0.686642 0.269397
O O1 0.083334 0.901105 0.061933
O O2 0.785743 0.788002 0.194887
O O3 0.990421 0.773387 0.238992
O O4 0.134666 0.725750 0.985108
O O5 0.758709 0.452957 0.089609
O O6 0.749421 0.565451 0.237349
O O7 0.455990 0.550858 0.296602
O O8 0.743034 0.658621 0.087770
O O9 0.488727 0.311284 0.266798
O O10 0.716269 0.346976 0.266146
O O11 0.693012 0.503818 0.451615
O O12 0.625601 0.673588 0.451678
O O13 0.986291 0.603621 0.241820
O O14 0.636364 0.163729 0.009591
O O15 0.906766 0.816035 0.949480
O O16 0.285181 0.801612 0.647630
#
# Coordination Sequence:
#
# PCOD9241160 Si02
#       8
#     4   4   4   4   4   4   4   4
#     4  11  25  41  62  98 137 166 212 270 333 386
#     4  11  21  39  68  97 127 170 228 267 319 385
#     4  12  22  42  65  98 130 167 222 271 318 391
#     4  11  19  39  68  97 129 171 221 270 317 392
#     4  10  19  38  65  97 124 170 213 268 318 390
#     4  12  24  41  67  96 134 177 212 271 333 382
#     4  10  19  34  64  91 125 162 210 260 320 372
#     4  11  23  39  61  98 131 171 211 265 328 386
#
# _framework density 23.565733999999999
#
# number of rings (size 3 to 8) (size 9 to 14) (size 15 to 20)
#    0.000    1.000    7.500    0.750    0.000    0.500 
#    4.500    3.750    0.000    0.750    0.000    0.000 
#    0.000    0.000    0.000    0.000    0.000    0.000 
#
# Total GULP energy -178355.950731 kJ/mol
# GULP energy per Si atom -5573.623460 kJ/mol
# Density = 2.351210 g / cm^3
# Si number density = 23.565734 Si / 1000 Ang^3
#
#
#
# Elastic Constant Matrix: (Units=GPa)
#
#
# Indices 1 2 3 4 5 6 
#
# 1 60.1982 27.7920 1.5467 0.0000 -9.6568 0.0000
# 2 27.7920 60.4421 20.5036 0.0000 -13.8420 0.0000
# 3 1.5467 20.5036 56.4380 0.0000 5.0405 0.0000
# 4 0.0000 0.0000 0.0000 30.7234 0.0000 3.3583
# 5 -9.6568 -13.8420 5.0405 0.0000 31.0667 0.0000
# 6 0.0000 0.0000 0.0000 3.3583 0.0000 25.7276
#
#
#
# Elastic Compliance Matrix: (Units=1/GPa)
#
#
# Indices 1 2 3 4 5 6 
#
# 1 0.021717 -0.010729 0.003172 0.000000 0.001456 0.000000
# 2 -0.010729 0.027537 -0.010663 0.000000 0.010665 0.000000
# 3 0.003172 -0.010663 0.022163 0.000000 -0.007360 0.000000
# 4 0.000000 0.000000 0.000000 0.033020 0.000000 -0.004310
# 5 0.001456 0.010665 -0.007360 0.000000 0.038587 0.000000
# 6 0.000000 0.000000 0.000000 -0.004310 0.000000 0.039431
#
#
# Mechanical properties :
#
#
# Convention : Reuss Voigt Hill
#
# Bulk Modulus (GPa) = 28.58819 30.75143 29.66981
# Shear Modulus (GPa) = 21.68709 25.98592 23.83650
#
# Velocity S-wave (km/s) = 3.03690 3.32429 3.18384
# Velocity P-wave (km/s) = 4.94516 5.27372 5.11208
#
# Compressibility (1/GPa) = 0.03497948
#
# Stress axis : x y z
#
# Youngs Moduli (GPa) = 46.04716 36.31451 45.12100
#
# Poissons Ratio (x) = 0.38960 -0.14314
# Poissons Ratio (y) = 0.49402 0.48110
# Poissons Ratio (z) = -0.14608 0.38720
#
# Static dielectric constant tensor:
#      x y z
#    x 1.965140 0.000000 -0.041690 
#    y 0.000000 1.971030 0.000000 
#    z -0.041690 0.000000 1.975420 
# 
# From -- ./inp_files/45082.got.cif
#   From: 2010.05.17/outbox.cif.g08.bks.cpg/sg14_23_cif.got.tgz:45082.got - 2010.06.03 17:49:19.
