data_PCOD9241466
_publ_section_title
;
Structure prediction by ZEFSAII (Michael W. Deem and Ramdas Pophale) SiO2 
 PCOD9241466
Probable space group: P 21/C
;
_chemical_formula_sum "Si O2"
_cell_formula_units_Z 20
_cell_length_a 10.780392
_cell_length_b 4.995322
_cell_length_c 22.966001
_cell_angle_alpha 90.000000
_cell_angle_beta 34.040432
_cell_angle_gamma 90.000000
_cell_volume 692.307579
_symmetry_space_group_name_H-M "P 21/C"
_symmetry_group_IT_number 14
_symmetry_cell_setting 'monoclinic'
loop_
_space_group_symop_operation_xyz
x,y,z
-x,1/2+y,1/2-z
-x,-y,-z
x,1/2-y,1/2+z
loop_
_atom_site_type_symbol
_atom_site_label
_atom_site_fract_x
_atom_site_fract_y
_atom_site_fract_z
Si Si1 0.215259 0.861387 0.873000
Si Si2 0.357398 0.468733 0.133983
Si Si3 0.800651 0.782202 0.482074
Si Si4 0.660248 0.857048 0.751331
Si Si5 0.223487 0.771085 0.082600
O O1 0.388776 0.821176 0.857657
O O2 0.289227 0.648001 0.793767
O O3 0.953674 0.796571 0.976820
O O4 0.260260 0.147923 0.828048
O O5 0.258315 0.267752 0.219536
O O6 0.199115 0.654276 0.156845
O O7 0.539387 0.668360 0.092417
O O8 0.510819 0.279632 0.033018
O O9 0.832183 0.561205 0.419413
O O10 0.877381 0.060812 0.424112
#
# Coordination Sequence:
#
# PCOD9241466 Si02
#       5
#     4   4   4   4   4
#     4  10  22  39  55  82 119 149 194 236 294 334
#     4   9  21  35  62  81 113 147 196 226 293 337
#     4  10  19  36  58  83 114 146 186 243 277 338
#     4  10  22  38  58  80 114 159 187 238 290 350
#     4   9  20  34  59  83 113 143 187 239 285 336
#
# _framework density 28.888894000000001
#
# number of rings (size 3 to 8) (size 9 to 14) (size 15 to 20)
#    1.200    1.200    0.000    1.800    2.800    0.800 
#    0.000    5.000    0.000    0.000    0.000    0.000 
#    0.000    0.000    0.000    0.000    0.000    0.000 
#
# Total GULP energy -111997.194687 kJ/mol
# GULP energy per Si atom -5599.859734 kJ/mol
# Density = 2.882314 g / cm^3
# Si number density = 28.888894 Si / 1000 Ang^3
#
#
#
# Elastic Constant Matrix: (Units=GPa)
#
#
# Indices 1 2 3 4 5 6 
#
# 1 134.1733 21.1776 17.3135 0.0000 -16.8167 0.0000
# 2 21.1776 147.9586 31.8365 0.0000 1.8677 0.0000
# 3 17.3135 31.8365 80.1829 0.0000 12.9587 0.0000
# 4 0.0000 0.0000 0.0000 41.7549 0.0000 -7.7486
# 5 -16.8167 1.8677 12.9587 0.0000 45.5474 0.0000
# 6 0.0000 0.0000 0.0000 -7.7486 0.0000 49.2072
#
#
#
# Elastic Compliance Matrix: (Units=1/GPa)
#
#
# Indices 1 2 3 4 5 6 
#
# 1 0.008308 -0.000789 -0.002077 0.000000 0.003691 0.000000
# 2 -0.000789 0.007478 -0.002833 0.000000 0.000208 0.000000
# 3 -0.002077 -0.002833 0.014832 0.000000 -0.004871 0.000000
# 4 0.000000 0.000000 0.000000 0.024670 0.000000 0.003885
# 5 0.003691 0.000208 -0.004871 0.000000 0.024695 0.000000
# 6 0.000000 0.000000 0.000000 0.003885 0.000000 0.020934
#
#
# Mechanical properties :
#
#
# Convention : Reuss Voigt Hill
#
# Bulk Modulus (GPa) = 52.02589 55.88554 53.95572
# Shear Modulus (GPa) = 42.11519 46.76772 44.44145
#
# Velocity S-wave (km/s) = 3.82230 4.02790 3.92645
# Velocity P-wave (km/s) = 6.12601 6.40460 6.26686
#
# Compressibility (1/GPa) = 0.01922120
#
# Stress axis : x y z
#
# Youngs Moduli (GPa) = 120.36325 133.71811 67.42243
#
# Poissons Ratio (x) = 0.10548 0.14005
# Poissons Ratio (y) = 0.09494 0.19098
# Poissons Ratio (z) = 0.25002 0.37877
#
# Static dielectric constant tensor:
#      x y z
#    x 2.283650 0.000000 -0.134930 
#    y 0.000000 2.152830 0.000000 
#    z -0.134930 0.000000 2.394910 
# 
# From -- ./inp_files/72590.got.cif
#   From: 2010.05.17/outbox.cif.g08.bks.cpg/sg14_37_cif.got.tgz:72590.got - 2010.06.03 17:49:19.
