data_PCOD9241386
_publ_section_title
;
Structure prediction by ZEFSAII (Michael W. Deem and Ramdas Pophale) SiO2 
 PCOD9241386
Probable space group: P 21/C
;
_chemical_formula_sum "Si O2"
_cell_formula_units_Z 20
_cell_length_a 11.634032
_cell_length_b 7.976979
_cell_length_c 13.653185
_cell_angle_alpha 90.000000
_cell_angle_beta 35.144772
_cell_angle_gamma 90.000000
_cell_volume 729.385218
_symmetry_space_group_name_H-M "P 21/C"
_symmetry_group_IT_number 14
_symmetry_cell_setting 'monoclinic'
loop_
_space_group_symop_operation_xyz
x,y,z
-x,1/2+y,1/2-z
-x,-y,-z
x,1/2-y,1/2+z
loop_
_atom_site_type_symbol
_atom_site_label
_atom_site_fract_x
_atom_site_fract_y
_atom_site_fract_z
Si Si1 0.996895 0.701664 0.473840
Si Si2 0.400674 0.680412 0.268538
Si Si3 0.650556 0.398233 0.465864
Si Si4 0.647743 0.643017 0.833325
Si Si5 0.817703 0.717652 0.398355
O O1 0.791933 0.761071 0.666108
O O2 0.981796 0.731989 0.368529
O O3 0.000000 0.500000 0.500000
O O4 0.197761 0.776688 0.378956
O O5 0.379525 0.632518 0.396435
O O6 0.396673 0.514802 0.203831
O O7 0.603733 0.775253 0.103043
O O8 0.500000 0.500000 0.500000
O O9 0.570757 0.215157 0.488014
O O10 0.831714 0.532112 0.341559
O O11 0.784683 0.646626 0.835806
#
# Coordination Sequence:
#
# PCOD9241386 Si02
#       5
#     4   4   4   4   4
#     4  10  20  39  63  87 120 167 202 252 313 370
#     4  11  20  40  65  89 124 166 203 257 315 364
#     4  10  19  35  63  87 121 162 204 247 307 367
#     4  10  21  38  63  88 122 162 207 252 310 371
#     4  11  21  39  61  91 123 157 212 253 306 372
#
# _framework density 27.420352999999999
#
# number of rings (size 3 to 8) (size 9 to 14) (size 15 to 20)
#    0.000    1.600    6.000    0.600    0.000    0.000 
#    7.200    1.000    4.400    0.000    0.000    0.000 
#    0.000    0.000    0.000    0.000    0.000    0.000 
#
# Total GULP energy -111421.111135 kJ/mol
# GULP energy per Si atom -5571.055557 kJ/mol
# Density = 2.735794 g / cm^3
# Si number density = 27.420353 Si / 1000 Ang^3
#
#
#
# Elastic Constant Matrix: (Units=GPa)
#
#
# Indices 1 2 3 4 5 6 
#
# 1 233.0188 15.4655 21.3959 0.0000 32.1071 0.0000
# 2 15.4655 42.7817 -1.4888 0.0000 7.2815 0.0000
# 3 21.3959 -1.4888 35.6031 0.0000 -11.5303 0.0000
# 4 0.0000 0.0000 0.0000 41.8108 0.0000 9.5672
# 5 32.1071 7.2815 -11.5303 0.0000 64.3187 0.0000
# 6 0.0000 0.0000 0.0000 9.5672 0.0000 37.3839
#
#
#
# Elastic Compliance Matrix: (Units=1/GPa)
#
#
# Indices 1 2 3 4 5 6 
#
# 1 0.005220 -0.001490 -0.004234 0.000000 -0.003196 0.000000
# 2 -0.001490 0.024260 0.001339 0.000000 -0.001762 0.000000
# 3 -0.004234 0.001339 0.033254 0.000000 0.007923 0.000000
# 4 0.000000 0.000000 0.000000 0.025405 0.000000 -0.006502
# 5 -0.003196 -0.001762 0.007923 0.000000 0.018763 0.000000
# 6 0.000000 0.000000 0.000000 -0.006502 0.000000 0.028413
#
#
# Mechanical properties :
#
#
# Convention : Reuss Voigt Hill
#
# Bulk Modulus (GPa) = 18.53117 42.46098 30.49608
# Shear Modulus (GPa) = 30.85046 47.10474 38.97760
#
# Velocity S-wave (km/s) = 3.35788 4.14922 3.77435
# Velocity P-wave (km/s) = 4.66976 6.20271 5.49000
#
# Compressibility (1/GPa) = 0.05396314
#
# Stress axis : x y z
#
# Youngs Moduli (GPa) = 191.58830 41.22049 30.07167
#
# Poissons Ratio (x) = 0.06143 0.12732
# Poissons Ratio (y) = 0.28551 -0.04027
# Poissons Ratio (z) = 0.81119 -0.05520
#
# Static dielectric constant tensor:
#      x y z
#    x 2.150350 0.000000 -0.130100 
#    y 0.000000 2.270260 0.000000 
#    z -0.130100 0.000000 2.563920 
# 
# From -- ./inp_files/42975.got.cif
#   From: 2010.05.17/outbox.cif.g08.bks.cpg/sg14_22_cif.got.tgz:42975.got - 2010.06.03 17:49:19.
