data_PCOD9241571
_publ_section_title
;
Structure prediction by ZEFSAII (Michael W. Deem and Ramdas Pophale) SiO2 
 PCOD9241571
Probable space group: P 21/C
;
_chemical_formula_sum "Si O2"
_cell_formula_units_Z 28
_cell_length_a 15.125145
_cell_length_b 15.034254
_cell_length_c 9.268668
_cell_angle_alpha 90.000000
_cell_angle_beta 143.261290
_cell_angle_gamma 90.000000
_cell_volume 1260.726818
_symmetry_space_group_name_H-M "P 21/C"
_symmetry_group_IT_number 14
_symmetry_cell_setting 'monoclinic'
loop_
_space_group_symop_operation_xyz
x,y,z
-x,1/2+y,1/2-z
-x,-y,-z
x,1/2-y,1/2+z
loop_
_atom_site_type_symbol
_atom_site_label
_atom_site_fract_x
_atom_site_fract_y
_atom_site_fract_z
Si Si1 0.349561 0.949637 0.260519
Si Si2 0.314111 0.835241 0.753286
Si Si3 0.187248 0.832923 0.266900
Si Si4 0.053844 0.208805 0.491299
Si Si5 0.254449 0.226192 0.001289
Si Si6 0.853143 0.450998 0.751879
Si Si7 0.453385 0.290634 0.012160
O O1 0.246815 0.918988 0.260093
O O2 0.414915 0.857563 0.279325
O O3 0.500000 0.000000 0.500000
O O4 0.243896 0.992359 0.002595
O O5 0.240160 0.837216 0.500165
O O6 0.258455 0.750851 0.774697
O O7 0.259267 0.921574 0.767862
O O8 0.483204 0.807732 0.941808
O O9 0.015960 0.804068 0.054121
O O10 0.157725 0.220305 0.490495
O O11 0.923653 0.141184 0.283210
O O12 0.143295 0.175556 0.748565
O O13 0.346261 0.284617 0.007537
O O14 0.370951 0.178125 0.258823
O O15 0.000000 0.500000 0.000000
#
# Coordination Sequence:
#
# PCOD9241571 Si02
#       7
#     4   4   4   4   4   4   4
#     4  11  24  42  63  88 133 173 212 260 325 391
#     4  10  19  38  68  92 119 166 223 260 311 383
#     4  10  19  38  68  92 119 166 223 260 311 383
#     4  10  19  36  61  92 121 160 210 260 319 363
#     4  10  20  32  62  94 124 148 206 278 304 364
#     4  11  24  42  63  88 133 173 212 260 325 391
#     4  10  19  36  61  92 121 160 210 260 319 363
#
# _framework density 22.209410999999999
#
# number of rings (size 3 to 8) (size 9 to 14) (size 15 to 20)
#    0.000    1.714    0.000    8.571    2.000    0.000 
#    2.571    1.429    0.000    0.000    0.000    0.000 
#    0.000    0.000    0.000    0.000    0.000    0.000 
#
# Total GULP energy -156125.578290 kJ/mol
# GULP energy per Si atom -5575.913510 kJ/mol
# Density = 2.215886 g / cm^3
# Si number density = 22.209411 Si / 1000 Ang^3
#
#
#
# Elastic Constant Matrix: (Units=GPa)
#
#
# Indices 1 2 3 4 5 6 
#
# 1 88.5035 8.7120 4.5240 0.0000 3.6404 0.0000
# 2 8.7120 39.8831 19.0034 0.0000 7.6249 0.0000
# 3 4.5240 19.0034 136.1559 0.0000 -6.2040 0.0000
# 4 0.0000 0.0000 0.0000 36.8354 0.0000 13.5638
# 5 3.6404 7.6249 -6.2040 0.0000 42.7513 0.0000
# 6 0.0000 0.0000 0.0000 13.5638 0.0000 -2.1248
#
#
#
# Elastic Compliance Matrix: (Units=1/GPa)
#
#
# Indices 1 2 3 4 5 6 
#
# 1 0.011561 -0.002379 -0.000078 0.000000 -0.000572 0.000000
# 2 -0.002379 0.028632 -0.004168 0.000000 -0.005509 0.000000
# 3 -0.000078 -0.004168 0.008016 0.000000 0.001913 0.000000
# 4 0.000000 0.000000 0.000000 0.008102 0.000000 0.051722
# 5 -0.000572 -0.005509 0.001913 0.000000 0.024700 0.000000
# 6 0.000000 0.000000 0.000000 0.051722 0.000000 -0.140461
#
#
# Mechanical properties :
#
#
# Convention : Reuss Voigt Hill
#
# Bulk Modulus (GPa) = 28.60525 36.55792 32.58159
# Shear Modulus (GPa) = -144.73224 30.97925 -56.87650
#
# Velocity S-wave (km/s) = -8.08137 3.73885 -5.06604
# Velocity P-wave (km/s) = 8.61222 5.92747 4.41788
#
# Compressibility (1/GPa) = 0.03495861
#
# Stress axis : x y z
#
# Youngs Moduli (GPa) = 86.50026 34.92569 124.74954
#
# Poissons Ratio (x) = 0.08308 0.00975
# Poissons Ratio (y) = 0.20577 0.51998
# Poissons Ratio (z) = 0.00676 0.14558
#
# Static dielectric constant tensor:
#      x y z
#    x 1.827790 0.000000 0.013610 
#    y 0.000000 1.871380 0.000000 
#    z 0.013610 0.000000 1.945200 
# 
# From -- ./inp_files/16678.got.cif
#   From: 2010.05.17/outbox.cif.g08.bks.cpg/sg14_9_cif.got.tgz:16678.got - 2010.06.03 17:49:19.
