data_PCOD9241260
_publ_section_title
;
Structure prediction by ZEFSAII (Michael W. Deem and Ramdas Pophale) SiO2 
 PCOD9241260
Probable space group: P 21/C
;
_chemical_formula_sum "Si O2"
_cell_formula_units_Z 20
_cell_length_a 5.191126
_cell_length_b 18.421101
_cell_length_c 8.530195
_cell_angle_alpha 90.000000
_cell_angle_beta 89.655801
_cell_angle_gamma 90.000000
_cell_volume 815.695895
_symmetry_space_group_name_H-M "P 21/C"
_symmetry_group_IT_number 14
_symmetry_cell_setting 'monoclinic'
loop_
_space_group_symop_operation_xyz
x,y,z
-x,1/2+y,1/2-z
-x,-y,-z
x,1/2-y,1/2+z
loop_
_atom_site_type_symbol
_atom_site_label
_atom_site_fract_x
_atom_site_fract_y
_atom_site_fract_z
Si Si1 0.748421 0.144597 0.050223
Si Si2 0.253412 0.537163 0.925625
Si Si3 0.751099 0.930157 0.815635
Si Si4 0.925397 0.220286 0.763751
Si Si5 0.921682 0.841950 0.520521
O O1 0.500933 0.098539 0.099105
O O2 0.781927 0.217691 0.159845
O O3 0.998053 0.095455 0.090957
O O4 0.745279 0.170189 0.870581
O O5 0.253272 0.513552 0.743118
O O6 0.201879 0.619206 0.985986
O O7 0.500000 0.500000 0.000000
O O8 0.000000 0.500000 0.000000
O O9 0.770523 0.888500 0.647496
O O10 0.133213 0.175656 0.659632
O O11 0.072096 0.265368 0.895234
#
# Coordination Sequence:
#
# PCOD9241260 Si02
#       5
#     4   4   4   4   4
#     4  10  21  36  56  81 112 146 181 229 276 324
#     4  10  19  35  58  83 108 143 185 223 268 328
#     4  10  20  37  57  82 110 144 185 228 270 323
#     4   9  19  37  56  82 114 145 183 225 277 328
#     4   9  19  35  59  84 110 146 184 227 272 325
#
# _framework density 24.518941000000002
#
# number of rings (size 3 to 8) (size 9 to 14) (size 15 to 20)
#    0.000    2.400    0.000    3.600    0.000    6.400 
#    0.000   16.000    0.000    0.000    0.000    0.000 
#    0.000    0.000    0.000    0.000    0.000    0.000 
#
# Total GULP energy -111443.760586 kJ/mol
# GULP energy per Si atom -5572.188029 kJ/mol
# Density = 2.446314 g / cm^3
# Si number density = 24.518941 Si / 1000 Ang^3
#
#
#
# Elastic Constant Matrix: (Units=GPa)
#
#
# Indices 1 2 3 4 5 6 
#
# 1 118.2728 -1.4022 10.2147 0.0000 1.8826 0.0000
# 2 -1.4022 37.0854 5.3379 0.0000 9.4100 0.0000
# 3 10.2147 5.3379 118.2345 0.0000 -13.1770 0.0000
# 4 0.0000 0.0000 0.0000 35.5571 0.0000 0.4458
# 5 1.8826 9.4100 -13.1770 0.0000 17.8685 0.0000
# 6 0.0000 0.0000 0.0000 0.4458 0.0000 9.6028
#
#
#
# Elastic Compliance Matrix: (Units=1/GPa)
#
#
# Indices 1 2 3 4 5 6 
#
# 1 0.008592 0.001036 -0.001036 0.000000 -0.002215 0.000000
# 2 0.001036 0.032655 -0.003805 0.000000 -0.020112 0.000000
# 3 -0.001036 -0.003805 0.009756 0.000000 0.009308 0.000000
# 4 0.000000 0.000000 0.000000 0.028140 0.000000 -0.001306
# 5 -0.002215 -0.020112 0.009308 0.000000 0.073653 0.000000
# 6 0.000000 0.000000 0.000000 -0.001306 0.000000 0.104197
#
#
# Mechanical properties :
#
#
# Convention : Reuss Voigt Hill
#
# Bulk Modulus (GPa) = 23.04523 33.54371 28.29447
# Shear Modulus (GPa) = 17.91675 29.90183 23.90929
#
# Velocity S-wave (km/s) = 2.70614 3.49598 3.12610
# Velocity P-wave (km/s) = 4.37991 5.47780 4.95933
#
# Compressibility (1/GPa) = 0.04339293
#
# Stress axis : x y z
#
# Youngs Moduli (GPa) = 116.38701 30.62331 102.49685
#
# Poissons Ratio (x) = -0.03172 0.10617
# Poissons Ratio (y) = -0.12057 0.39002
# Poissons Ratio (z) = 0.12056 0.11653
#
# Static dielectric constant tensor:
#      x y z
#    x 1.930410 0.000000 0.016600 
#    y 0.000000 2.169160 0.000000 
#    z 0.016600 0.000000 1.974620 
# 
# From -- ./inp_files/5678.got.cif
#   From: 2010.05.17/outbox.cif.g08.bks.cpg/sg14_3_cif.got.tgz:5678.got - 2010.06.03 17:49:19.
