data_PCOD9241776
_publ_section_title
;
Structure prediction by ZEFSAII (Michael W. Deem and Ramdas Pophale) SiO2 
 PCOD9241776
Probable space group: P 21/C
;
_chemical_formula_sum "Si O2"
_cell_formula_units_Z 28
_cell_length_a 8.940631
_cell_length_b 9.040927
_cell_length_c 25.748729
_cell_angle_alpha 90.000000
_cell_angle_beta 42.869232
_cell_angle_gamma 90.000000
_cell_volume 1415.972725
_symmetry_space_group_name_H-M "P 21/C"
_symmetry_group_IT_number 14
_symmetry_cell_setting 'monoclinic'
loop_
_space_group_symop_operation_xyz
x,y,z
-x,1/2+y,1/2-z
-x,-y,-z
x,1/2-y,1/2+z
loop_
_atom_site_type_symbol
_atom_site_label
_atom_site_fract_x
_atom_site_fract_y
_atom_site_fract_z
Si Si1 0.530446 0.658411 0.906293
Si Si2 0.391983 0.818820 0.236383
Si Si3 0.077959 0.112554 0.615420
Si Si4 0.979843 0.394417 0.945908
Si Si5 0.561261 0.007287 0.670299
Si Si6 0.378006 0.542839 0.399123
Si Si7 0.949773 0.686039 0.477677
O O1 0.706178 0.624066 0.905399
O O2 0.579165 0.567908 0.841471
O O3 0.510775 0.830459 0.895251
O O4 0.284607 0.609142 0.984559
O O5 0.496717 0.658671 0.201345
O O6 0.128154 0.812124 0.303956
O O7 0.457278 0.887074 0.275540
O O8 0.475215 0.932330 0.171572
O O9 0.111040 0.198808 0.551987
O O10 0.001372 0.945162 0.619560
O O11 0.181114 0.502118 0.913974
O O12 0.044879 0.253446 0.964878
O O13 0.226807 0.445016 0.475953
O O14 0.197325 0.624463 0.408148
#
# Coordination Sequence:
#
# PCOD9241776 Si02
#       7
#     4   4   4   4   4   4   4
#     4  11  23  38  58  90 125 160 194 249 311 369
#     4  11  22  39  62  90 115 159 203 253 299 360
#     4  11  23  36  60  89 131 156 196 245 317 368
#     4  10  19  37  62  88 111 154 209 252 286 344
#     4  11  21  38  63  86 116 155 207 253 293 355
#     4  10  21  38  65  87 118 154 207 253 299 349
#     4  10  19  38  64  91 113 155 208 259 289 352
#
# _framework density 19.774391999999999
#
# number of rings (size 3 to 8) (size 9 to 14) (size 15 to 20)
#    0.000    1.429    1.429    7.286    0.000    1.714 
#    0.000    0.000    0.000    0.000    0.000    0.000 
#    0.000    0.000    0.000    0.000    0.000    0.000 
#
# Total GULP energy -155901.498798 kJ/mol
# GULP energy per Si atom -5567.910671 kJ/mol
# Density = 1.972938 g / cm^3
# Si number density = 19.774392 Si / 1000 Ang^3
#
#
#
# Elastic Constant Matrix: (Units=GPa)
#
#
# Indices 1 2 3 4 5 6 
#
# 1 142.2763 52.7171 34.1099 0.0000 -10.1709 0.0000
# 2 52.7171 115.4622 35.1505 0.0000 4.0243 0.0000
# 3 34.1099 35.1505 58.6642 0.0000 -6.1825 0.0000
# 4 0.0000 0.0000 0.0000 38.3348 0.0000 2.9076
# 5 -10.1709 4.0243 -6.1825 0.0000 13.6394 0.0000
# 6 0.0000 0.0000 0.0000 2.9076 0.0000 18.1731
#
#
#
# Elastic Compliance Matrix: (Units=1/GPa)
#
#
# Indices 1 2 3 4 5 6 
#
# 1 0.009567 -0.003856 -0.002500 0.000000 0.007138 0.000000
# 2 -0.003856 0.012690 -0.006363 0.000000 -0.009504 0.000000
# 3 -0.002500 -0.006363 0.023433 0.000000 0.010635 0.000000
# 4 0.000000 0.000000 0.000000 0.026406 0.000000 -0.004225
# 5 0.007138 -0.009504 0.010635 0.000000 0.086265 0.000000
# 6 0.000000 0.000000 0.000000 -0.004225 0.000000 0.055702
#
#
# Mechanical properties :
#
#
# Convention : Reuss Voigt Hill
#
# Bulk Modulus (GPa) = 49.37751 62.26197 55.81974
# Shear Modulus (GPa) = 20.30444 26.99115 23.64780
#
# Velocity S-wave (km/s) = 3.20786 3.69854 3.46190
# Velocity P-wave (km/s) = 6.22456 7.05645 6.65351
#
# Compressibility (1/GPa) = 0.02025214
#
# Stress axis : x y z
#
# Youngs Moduli (GPa) = 104.52712 78.80466 42.67445
#
# Poissons Ratio (x) = 0.30385 0.10669
# Poissons Ratio (y) = 0.40303 0.27154
# Poissons Ratio (z) = 0.26132 0.50144
#
# Static dielectric constant tensor:
#      x y z
#    x 1.661700 0.000000 0.009230 
#    y 0.000000 1.775100 0.000000 
#    z 0.009230 0.000000 1.756010 
# 
# From -- ./inp_files/76432.got.cif
#   From: 2010.05.17/outbox.cif.g08.bks.cpg/sg14_39_cif.got.tgz:76432.got - 2010.06.03 17:49:19.
