data_PCOD9241055
_publ_section_title
;
Structure prediction by ZEFSAII (Michael W. Deem and Ramdas Pophale) SiO2 
 PCOD9241055
Probable space group: P 21/C
;
_chemical_formula_sum "Si O2"
_cell_formula_units_Z 24
_cell_length_a 7.036565
_cell_length_b 14.395414
_cell_length_c 8.521057
_cell_angle_alpha 90.000000
_cell_angle_beta 82.359330
_cell_angle_gamma 90.000000
_cell_volume 855.470804
_symmetry_space_group_name_H-M "P 21/C"
_symmetry_group_IT_number 14
_symmetry_cell_setting 'monoclinic'
loop_
_space_group_symop_operation_xyz
x,y,z
-x,1/2+y,1/2-z
-x,-y,-z
x,1/2-y,1/2+z
loop_
_atom_site_type_symbol
_atom_site_label
_atom_site_fract_x
_atom_site_fract_y
_atom_site_fract_z
Si Si1 0.110314 0.887407 0.325586
Si Si2 0.497752 0.110557 0.169292
Si Si3 0.047818 0.443751 0.655272
Si Si4 0.993675 0.222303 0.972145
Si Si5 0.419475 0.269783 0.974525
Si Si6 0.458988 0.059111 0.661629
O O1 0.072900 0.675613 0.678777
O O2 0.333868 0.907360 0.306817
O O3 0.001794 0.985015 0.302650
O O4 0.065395 0.827030 0.483102
O O5 0.273885 0.081578 0.161767
O O6 0.543886 0.185353 0.029856
O O7 0.509818 0.172424 0.324578
O O8 0.605731 0.013915 0.196499
O O9 0.000000 0.500000 0.500000
O O10 0.950172 0.345541 0.625571
O O11 0.223140 0.226521 0.937323
O O12 0.361041 0.346414 0.113329
O O13 0.500000 0.000000 0.500000
#
# Coordination Sequence:
#
# PCOD9241055 Si02
#       6
#     4   4   4   4   4   4
#     4  10  20  35  56  81 111 143 182 226 271 321
#     4   9  18  34  55  79 106 143 181 220 270 323
#     4   8  16  32  52  73 106 144 174 212 269 323
#     4  10  19  34  56  84 108 141 185 229 269 317
#     4  10  19  35  58  80 109 146 184 223 269 324
#     4   9  20  38  56  77 111 151 179 216 275 330
#
# _framework density 28.054729999999999
#
# number of rings (size 3 to 8) (size 9 to 14) (size 15 to 20)
#    0.000    2.667    0.000    2.000    0.000    2.667 
#    0.000   15.833    0.000    0.000    0.000    0.000 
#    0.000    0.000    0.000    0.000    0.000    0.000 
#
# Total GULP energy -134384.491472 kJ/mol
# GULP energy per Si atom -5599.353811 kJ/mol
# Density = 2.799088 g / cm^3
# Si number density = 28.054730 Si / 1000 Ang^3
#
#
#
# Elastic Constant Matrix: (Units=GPa)
#
#
# Indices 1 2 3 4 5 6 
#
# 1 73.9608 41.3630 52.1867 0.0000 25.7428 0.0000
# 2 41.3630 144.6222 75.6271 0.0000 23.2041 0.0000
# 3 52.1867 75.6271 112.0415 0.0000 25.7881 0.0000
# 4 0.0000 0.0000 0.0000 73.8454 0.0000 10.8212
# 5 25.7428 23.2041 25.7881 0.0000 43.1530 0.0000
# 6 0.0000 0.0000 0.0000 10.8212 0.0000 29.1774
#
#
#
# Elastic Compliance Matrix: (Units=1/GPa)
#
#
# Indices 1 2 3 4 5 6 
#
# 1 0.022515 -0.000971 -0.007954 0.000000 -0.008156 0.000000
# 2 -0.000971 0.010833 -0.006554 0.000000 -0.001329 0.000000
# 3 -0.007954 -0.006554 0.017567 0.000000 -0.002229 0.000000
# 4 0.000000 0.000000 0.000000 0.014320 0.000000 -0.005311
# 5 -0.008156 -0.001329 -0.002229 0.000000 0.030085 0.000000
# 6 0.000000 0.000000 0.000000 -0.005311 0.000000 0.036243
#
#
# Mechanical properties :
#
#
# Convention : Reuss Voigt Hill
#
# Bulk Modulus (GPa) = 50.11026 74.33091 62.22058
# Shear Modulus (GPa) = 29.55550 39.99833 34.77692
#
# Velocity S-wave (km/s) = 3.24928 3.77997 3.52463
# Velocity P-wave (km/s) = 5.65486 6.75303 6.22820
#
# Compressibility (1/GPa) = 0.01995599
#
# Stress axis : x y z
#
# Youngs Moduli (GPa) = 44.41467 92.31297 56.92553
#
# Poissons Ratio (x) = 0.08968 0.45280
# Poissons Ratio (y) = 0.04315 0.37307
# Poissons Ratio (z) = 0.35328 0.60498
#
# Static dielectric constant tensor:
#      x y z
#    x 2.249090 0.000000 -0.076140 
#    y 0.000000 2.209220 0.000000 
#    z -0.076140 0.000000 2.202230 
# 
# From -- ./inp_files/8533.got.cif
#   From: 2010.05.17/outbox.cif.g08.bks.cpg/sg14_5_cif.got.tgz:8533.got - 2010.06.03 17:49:19.
