data_PCOD9241213
_publ_section_title
;
Structure prediction by ZEFSAII (Michael W. Deem and Ramdas Pophale) SiO2 
 PCOD9241213
Probable space group: P 21/C
;
_chemical_formula_sum "Si O2"
_cell_formula_units_Z 32
_cell_length_a 19.601812
_cell_length_b 7.888020
_cell_length_c 13.176374
_cell_angle_alpha 90.000000
_cell_angle_beta 47.807834
_cell_angle_gamma 90.000000
_cell_volume 1509.446206
_symmetry_space_group_name_H-M "P 21/C"
_symmetry_group_IT_number 14
_symmetry_cell_setting 'monoclinic'
loop_
_space_group_symop_operation_xyz
x,y,z
-x,1/2+y,1/2-z
-x,-y,-z
x,1/2-y,1/2+z
loop_
_atom_site_type_symbol
_atom_site_label
_atom_site_fract_x
_atom_site_fract_y
_atom_site_fract_z
Si Si1 0.101142 0.956995 0.091269
Si Si2 0.103321 0.175112 0.694734
Si Si3 0.601165 0.042860 0.206256
Si Si4 0.249905 0.655659 0.296420
Si Si5 0.750069 0.977262 0.595328
Si Si6 0.749883 0.165042 0.906503
Si Si7 0.749902 0.797045 0.800455
Si Si8 0.603308 0.825010 0.598415
O O1 0.159902 0.845393 0.113486
O O2 0.998433 0.890081 0.182997
O O3 0.100140 0.146163 0.137376
O O4 0.160457 0.938919 0.929515
O O5 0.161464 0.050844 0.564035
O O6 0.161318 0.207874 0.739097
O O7 0.660761 0.060866 0.249006
O O8 0.498462 0.109604 0.320196
O O9 0.600143 0.853747 0.162088
O O10 0.659638 0.154714 0.066776
O O11 0.250014 0.688055 0.176618
O O12 0.249949 0.842846 0.348482
O O13 0.750008 0.830214 0.681089
O O14 0.661659 0.949136 0.612603
O O15 0.749859 0.985987 0.847947
O O16 0.661085 0.707822 0.938234
#
# Coordination Sequence:
#
# PCOD9241213 Si02
#       8
#     4   4   4   4   4   4   4   4
#     4  10  20  36  54  77 106 138 172 212 256 306
#     4  10  20  36  54  77 106 138 172 212 256 306
#     4  10  20  36  54  77 106 138 172 212 256 306
#     4  10  19  35  56  77 100 135 175 214 256 306
#     4  10  19  35  56  77 100 135 175 214 256 306
#     4   8  18  35  54  73 102 139 173 206 256 316
#     4   8  18  35  54  73 102 139 173 206 256 316
#     4  10  20  36  54  77 106 138 172 212 256 306
#
# _framework density 21.199828
#
# number of rings (size 3 to 8) (size 9 to 14) (size 15 to 20)
#    0.000    2.500    0.000    3.750    0.000    2.000 
#    0.000   25.000    0.000    0.000    0.000    0.000 
#    0.000    0.000    0.000    0.000    0.000    0.000 
#
# Total GULP energy -178891.918617 kJ/mol
# GULP energy per Si atom -5590.372457 kJ/mol
# Density = 2.115158 g / cm^3
# Si number density = 21.199828 Si / 1000 Ang^3
#
#
#
# Elastic Constant Matrix: (Units=GPa)
#
#
# Indices 1 2 3 4 5 6 
#
# 1 69.2658 22.3121 72.1263 0.0000 -20.3059 0.0000
# 2 22.3121 102.9521 23.5798 0.0000 -5.0220 0.0000
# 3 72.1263 23.5798 80.8970 0.0000 -30.0208 0.0000
# 4 0.0000 0.0000 0.0000 -16.2092 0.0000 49.9306
# 5 -20.3059 -5.0220 -30.0208 0.0000 47.6939 0.0000
# 6 0.0000 0.0000 0.0000 49.9306 0.0000 -5.8339
#
#
#
# Elastic Compliance Matrix: (Units=1/GPa)
#
#
# Indices 1 2 3 4 5 6 
#
# 1 0.262230 -0.001726 -0.250429 0.000000 -0.046168 0.000000
# 2 -0.001726 0.010461 -0.001793 0.000000 -0.000762 0.000000
# 3 -0.250429 -0.001793 0.256422 0.000000 0.054594 0.000000
# 4 0.000000 0.000000 0.000000 0.002432 0.000000 0.020817
# 5 -0.046168 -0.000762 0.054594 0.000000 0.035594 0.000000
# 6 0.000000 0.000000 0.000000 0.020817 0.000000 0.006758
#
#
# Mechanical properties :
#
#
# Convention : Reuss Voigt Hill
#
# Bulk Modulus (GPa) = 47.13405 54.35015 50.74210
# Shear Modulus (GPa) = 4.59193 14.13662 9.36428
#
# Velocity S-wave (km/s) = 1.47334 2.58510 2.10398
# Velocity P-wave (km/s) = 5.01755 5.88244 5.46712
#
# Compressibility (1/GPa) = 0.02121609
#
# Stress axis : x y z
#
# Youngs Moduli (GPa) = 3.81345 95.59490 3.89982
#
# Poissons Ratio (x) = 0.16497 0.97663
# Poissons Ratio (y) = 0.00658 0.00699
# Poissons Ratio (z) = 0.95500 0.17143
#
# Static dielectric constant tensor:
#      x y z
#    x 1.730780 0.000000 0.034430 
#    y 0.000000 1.803640 0.000000 
#    z 0.034430 0.000000 1.723980 
# 
# From -- ./inp_files/50089.got.cif
#   From: 2010.05.17/outbox.cif.g08.bks.cpg/sg14_26_cif.got.tgz:50089.got - 2010.06.03 17:49:19.
