data_PCOD9241946
_publ_section_title
;
Structure prediction by ZEFSAII (Michael W. Deem and Ramdas Pophale) SiO2 
 PCOD9241946
Probable space group: P 21/C
;
_chemical_formula_sum "Si O2"
_cell_formula_units_Z 28
_cell_length_a 9.999950
_cell_length_b 29.673033
_cell_length_c 5.349352
_cell_angle_alpha 90.000000
_cell_angle_beta 122.351150
_cell_angle_gamma 90.000000
_cell_volume 1340.932329
_symmetry_space_group_name_H-M "P 21/C"
_symmetry_group_IT_number 14
_symmetry_cell_setting 'monoclinic'
loop_
_space_group_symop_operation_xyz
x,y,z
-x,1/2+y,1/2-z
-x,-y,-z
x,1/2-y,1/2+z
loop_
_atom_site_type_symbol
_atom_site_label
_atom_site_fract_x
_atom_site_fract_y
_atom_site_fract_z
Si Si1 0.016923 0.275075 0.758144
Si Si2 0.392267 0.502890 0.141964
Si Si3 0.315826 0.894787 0.550355
Si Si4 0.632955 0.737773 0.387854
Si Si5 0.866419 0.372920 0.631923
Si Si6 0.815088 0.913456 0.573603
Si Si7 0.317886 0.367634 0.559198
O O1 0.960976 0.250724 0.450105
O O2 0.962619 0.326295 0.709550
O O3 0.208670 0.268958 0.951213
O O4 0.500000 0.500000 0.500000
O O5 0.269732 0.461680 0.017023
O O6 0.500000 0.500000 0.000000
O O7 0.307526 0.551117 0.054033
O O8 0.224574 0.875041 0.697399
O O9 0.499325 0.881822 0.751779
O O10 0.247169 0.877638 0.219496
O O11 0.541404 0.749634 0.546891
O O12 0.688251 0.686360 0.441582
O O13 0.995536 0.412853 0.748195
O O14 0.764450 0.888556 0.778964
O O15 0.756800 0.886492 0.270063
#
# Coordination Sequence:
#
# PCOD9241946 Si02
#       7
#     4   4   4   4   4   4   4
#     4  10  19  38  62  88 125 170 219 272 319 397
#     4  12  23  45  70 102 132 181 231 279 336 399
#     4  12  26  44  66 101 147 173 219 290 351 404
#     4  10  20  36  62  94 125 161 223 284 312 378
#     4  12  26  42  66 104 138 181 219 282 356 399
#     4  12  23  42  73  99 130 183 238 270 325 416
#     4  12  23  43  71 100 129 181 231 279 331 397
#
# _framework density 20.880994000000001
#
# number of rings (size 3 to 8) (size 9 to 14) (size 15 to 20)
#    0.000    0.571    2.857    7.714    0.000    1.143 
#    0.000    4.286    0.000    0.000    0.000    0.000 
#    0.000    0.000    0.000    0.000    0.000    0.000 
#
# Total GULP energy -156685.080497 kJ/mol
# GULP energy per Si atom -5595.895732 kJ/mol
# Density = 2.083347 g / cm^3
# Si number density = 20.880994 Si / 1000 Ang^3
#
#
#
# Elastic Constant Matrix: (Units=GPa)
#
#
# Indices 1 2 3 4 5 6 
#
# 1 46.8211 -3.0708 5.2324 0.0000 -15.9862 0.0000
# 2 -3.0708 87.3398 16.2081 0.0000 -22.4823 0.0000
# 3 5.2324 16.2081 71.5601 0.0000 -26.3858 0.0000
# 4 0.0000 0.0000 0.0000 23.5161 0.0000 -1.8491
# 5 -15.9862 -22.4823 -26.3858 0.0000 39.6956 0.0000
# 6 0.0000 0.0000 0.0000 -1.8491 0.0000 25.6047
#
#
#
# Elastic Compliance Matrix: (Units=1/GPa)
#
#
# Indices 1 2 3 4 5 6 
#
# 1 0.026375 0.004244 0.002534 0.000000 0.014710 0.000000
# 2 0.004244 0.014092 0.000094 0.000000 0.009752 0.000000
# 3 0.002534 0.000094 0.018762 0.000000 0.013545 0.000000
# 4 0.000000 0.000000 0.000000 0.042767 0.000000 0.003088
# 5 0.014710 0.009752 0.013545 0.000000 0.045642 0.000000
# 6 0.000000 0.000000 0.000000 0.003088 0.000000 0.039278
#
#
# Mechanical properties :
#
#
# Convention : Reuss Voigt Hill
#
# Bulk Modulus (GPa) = 13.70383 26.94005 20.32194
# Shear Modulus (GPa) = 25.31675 30.25337 27.78506
#
# Velocity S-wave (km/s) = 3.48577 3.81050 3.65175
# Velocity P-wave (km/s) = 4.77262 5.68240 5.24726
#
# Compressibility (1/GPa) = 0.07297231
#
# Stress axis : x y z
#
# Youngs Moduli (GPa) = 37.91412 70.96383 53.29914
#
# Poissons Ratio (x) = -0.30114 -0.13507
# Poissons Ratio (y) = -0.16089 -0.00501
# Poissons Ratio (z) = -0.09608 -0.00667
#
# Static dielectric constant tensor:
#      x y z
#    x 1.753960 0.000000 -0.050080 
#    y 0.000000 1.731530 0.000000 
#    z -0.050080 0.000000 1.781220 
# 
# From -- ./inp_files/2288.got.cif
#   From: 2010.05.17/outbox.cif.g08.bks.cpg/sg14_2_cif.got.tgz:2288.got - 2010.06.03 17:49:19.
