data_PCOD9241215
_publ_section_title
;
Structure prediction by ZEFSAII (Michael W. Deem and Ramdas Pophale) SiO2 
 PCOD9241215
Probable space group: P 21/C
;
_chemical_formula_sum "Si O2"
_cell_formula_units_Z 32
_cell_length_a 27.938948
_cell_length_b 8.622414
_cell_length_c 12.604404
_cell_angle_alpha 90.000000
_cell_angle_beta 31.071027
_cell_angle_gamma 90.000000
_cell_volume 1567.094991
_symmetry_space_group_name_H-M "P 21/C"
_symmetry_group_IT_number 14
_symmetry_cell_setting 'monoclinic'
loop_
_space_group_symop_operation_xyz
x,y,z
-x,1/2+y,1/2-z
-x,-y,-z
x,1/2-y,1/2+z
loop_
_atom_site_type_symbol
_atom_site_label
_atom_site_fract_x
_atom_site_fract_y
_atom_site_fract_z
Si Si1 0.036679 0.758405 0.932383
Si Si2 0.323687 0.467031 0.229621
Si Si3 0.579755 0.692566 0.363186
Si Si4 0.402844 0.443624 0.435812
Si Si5 0.913808 0.960222 0.020694
Si Si6 0.431173 0.747244 0.984501
Si Si7 0.886787 0.541732 0.323611
Si Si8 0.285610 0.183886 0.579353
O O1 0.999412 0.864286 0.906621
O O2 0.948050 0.679434 0.158197
O O3 0.095010 0.614579 0.777130
O O4 0.087235 0.874564 0.917560
O O5 0.399610 0.373887 0.152030
O O6 0.222522 0.424291 0.465420
O O7 0.326452 0.409041 0.102718
O O8 0.344253 0.648369 0.188161
O O9 0.591307 0.614307 0.454176
O O10 0.482848 0.676503 0.487023
O O11 0.658759 0.638508 0.131222
O O12 0.491900 0.371462 0.207947
O O13 0.406805 0.627866 0.440619
O O14 0.313104 0.362522 0.553286
O O15 0.821333 0.861057 0.221359
O O16 0.917876 0.981053 0.886755
#
# Coordination Sequence:
#
# PCOD9241215 Si02
#       8
#     4   4   4   4   4   4   4   4
#     4  10  21  37  62  87 112 153 197 235 298 368
#     4  10  21  36  55  80 114 147 187 238 287 339
#     4  10  19  35  56  78 108 149 190 235 282 333
#     4  10  21  36  55  79 112 150 192 237 285 340
#     4  10  20  38  61  86 117 152 191 243 297 355
#     4  11  21  36  54  79 110 149 195 236 283 336
#     4  10  21  39  57  85 121 150 190 246 296 354
#     4   9  20  37  56  82 113 146 186 238 290 343
#
# _framework density 20.419948999999999
#
# number of rings (size 3 to 8) (size 9 to 14) (size 15 to 20)
#    0.000    2.000    0.000    4.500    0.000    2.000 
#    0.000   15.000    0.000    0.000    0.000    0.000 
#    0.000    0.000    0.000    0.000    0.000    0.000 
#
# Total GULP energy -178674.142624 kJ/mol
# GULP energy per Si atom -5583.566957 kJ/mol
# Density = 2.037347 g / cm^3
# Si number density = 20.419949 Si / 1000 Ang^3
#
#
#
# Elastic Constant Matrix: (Units=GPa)
#
#
# Indices 1 2 3 4 5 6 
#
# 1 66.9158 18.3446 15.4772 0.0000 10.8957 0.0000
# 2 18.3446 80.7309 7.8760 0.0000 -13.3155 0.0000
# 3 15.4772 7.8760 61.5178 0.0000 10.5677 0.0000
# 4 0.0000 0.0000 0.0000 21.1520 0.0000 5.1207
# 5 10.8957 -13.3155 10.5677 0.0000 23.2999 0.0000
# 6 0.0000 0.0000 0.0000 5.1207 0.0000 32.1856
#
#
#
# Elastic Compliance Matrix: (Units=1/GPa)
#
#
# Indices 1 2 3 4 5 6 
#
# 1 0.018893 -0.005959 -0.002047 0.000000 -0.011312 0.000000
# 2 -0.005959 0.016225 -0.002873 0.000000 0.013362 0.000000
# 3 -0.002047 -0.002873 0.018714 0.000000 -0.009173 0.000000
# 4 0.000000 0.000000 0.000000 0.049171 0.000000 -0.007823
# 5 -0.011312 0.013362 -0.009173 0.000000 0.060005 0.000000
# 6 0.000000 0.000000 0.000000 -0.007823 0.000000 0.032314
#
#
# Mechanical properties :
#
#
# Convention : Reuss Voigt Hill
#
# Bulk Modulus (GPa) = 31.17895 32.50669 31.84282
# Shear Modulus (GPa) = 21.95165 26.49196 24.22180
#
# Velocity S-wave (km/s) = 3.28229 3.60579 3.44784
# Velocity P-wave (km/s) = 5.44671 5.76969 5.61052
#
# Compressibility (1/GPa) = 0.03207292
#
# Stress axis : x y z
#
# Youngs Moduli (GPa) = 52.92901 61.63247 53.43575
#
# Poissons Ratio (x) = 0.36728 0.10939
# Poissons Ratio (y) = 0.31541 0.15354
# Poissons Ratio (z) = 0.10835 0.17710
#
# Static dielectric constant tensor:
#      x y z
#    x 1.723350 0.000000 0.004470 
#    y 0.000000 1.764810 0.000000 
#    z 0.004470 0.000000 1.708720 
# 
# From -- ./inp_files/36465.got.cif
#   From: 2010.05.17/outbox.cif.g08.bks.cpg/sg14_19_cif.got.tgz:36465.got - 2010.06.03 17:49:19.
