data_PCOD9241916
_publ_section_title
;
Structure prediction by ZEFSAII (Michael W. Deem and Ramdas Pophale) SiO2 
 PCOD9241916
Probable space group: P 21/C
;
_chemical_formula_sum "Si O2"
_cell_formula_units_Z 28
_cell_length_a 7.660748
_cell_length_b 17.363246
_cell_length_c 19.387390
_cell_angle_alpha 90.000000
_cell_angle_beta 32.226968
_cell_angle_gamma 90.000000
_cell_volume 1375.220259
_symmetry_space_group_name_H-M "P 21/C"
_symmetry_group_IT_number 14
_symmetry_cell_setting 'monoclinic'
loop_
_space_group_symop_operation_xyz
x,y,z
-x,1/2+y,1/2-z
-x,-y,-z
x,1/2-y,1/2+z
loop_
_atom_site_type_symbol
_atom_site_label
_atom_site_fract_x
_atom_site_fract_y
_atom_site_fract_z
Si Si1 0.574783 0.597363 0.256118
Si Si2 0.824483 0.563426 0.818533
Si Si3 0.266505 0.919798 0.297181
Si Si4 0.700873 0.835395 0.564969
Si Si5 0.759424 0.675132 0.716446
Si Si6 0.808307 0.284662 0.544270
Si Si7 0.237947 0.607567 0.115445
O O1 0.603370 0.506118 0.236287
O O2 0.585466 0.638506 0.178712
O O3 0.270114 0.630953 0.400166
O O4 0.894760 0.620499 0.193552
O O5 0.843438 0.606094 0.739997
O O6 0.801558 0.470924 0.826311
O O7 0.126380 0.586054 0.766998
O O8 0.496449 0.590318 0.968094
O O9 0.541877 0.860036 0.227084
O O10 0.952854 0.899978 0.450564
O O11 0.402096 0.830785 0.611352
O O12 0.915406 0.759178 0.503662
O O13 0.519702 0.734058 0.835809
O O14 0.069944 0.711849 0.574938
#
# Coordination Sequence:
#
# PCOD9241916 Si02
#       7
#     4   4   4   4   4   4   4
#     4  11  20  38  61  93 120 160 205 259 297 367
#     4   9  18  35  63  92 119 149 204 257 299 359
#     4   9  20  36  64  91 118 156 206 253 306 355
#     4  10  19  38  60  89 123 164 199 253 298 367
#     4  11  22  43  58  87 123 171 196 258 302 364
#     4  11  24  39  61  86 130 161 210 239 314 367
#     4   9  18  35  64  96 114 153 208 250 301 363
#
# _framework density 20.360374
#
# number of rings (size 3 to 8) (size 9 to 14) (size 15 to 20)
#    0.000    2.000    1.429    3.857    0.000    0.571 
#    2.571    7.143    0.000    0.000    0.000    0.000 
#    0.000    0.000    0.000    0.000    0.000    0.000 
#
# Total GULP energy -156345.475786 kJ/mol
# GULP energy per Si atom -5583.766992 kJ/mol
# Density = 2.031403 g / cm^3
# Si number density = 20.360374 Si / 1000 Ang^3
#
#
#
# Elastic Constant Matrix: (Units=GPa)
#
#
# Indices 1 2 3 4 5 6 
#
# 1 57.2301 7.2631 19.9730 0.0000 5.5090 0.0000
# 2 7.2631 54.4250 26.2303 0.0000 3.2711 0.0000
# 3 19.9730 26.2303 86.8342 0.0000 14.0793 0.0000
# 4 0.0000 0.0000 0.0000 21.1191 0.0000 8.8091
# 5 5.5090 3.2711 14.0793 0.0000 14.3009 0.0000
# 6 0.0000 0.0000 0.0000 8.8091 0.0000 18.9318
#
#
#
# Elastic Compliance Matrix: (Units=1/GPa)
#
#
# Indices 1 2 3 4 5 6 
#
# 1 0.019170 -0.000584 -0.003638 0.000000 -0.003670 0.000000
# 2 -0.000584 0.021560 -0.006682 0.000000 0.001872 0.000000
# 3 -0.003638 -0.006682 0.016536 0.000000 -0.013350 0.000000
# 4 0.000000 0.000000 0.000000 0.058754 0.000000 -0.027339
# 5 -0.003670 0.001872 -0.013350 0.000000 0.084054 0.000000
# 6 0.000000 0.000000 0.000000 -0.027339 0.000000 0.065542
#
#
# Mechanical properties :
#
#
# Convention : Reuss Voigt Hill
#
# Bulk Modulus (GPa) = 28.20254 33.93582 31.06918
# Shear Modulus (GPa) = 16.70879 20.53854 18.62366
#
# Velocity S-wave (km/s) = 2.86781 3.17953 3.02768
# Velocity P-wave (km/s) = 4.98473 5.49390 5.24550
#
# Compressibility (1/GPa) = 0.03545780
#
# Stress axis : x y z
#
# Youngs Moduli (GPa) = 52.16393 46.38290 60.47461
#
# Poissons Ratio (x) = 0.02711 0.22000
# Poissons Ratio (y) = 0.03049 0.40407
# Poissons Ratio (z) = 0.18977 0.30992
#
# Static dielectric constant tensor:
#      x y z
#    x 1.708410 0.000000 -0.014350 
#    y 0.000000 1.763290 0.000000 
#    z -0.014350 0.000000 1.718830 
# 
# From -- ./inp_files/65999.got.cif
#   From: 2010.05.17/outbox.cif.g08.bks.cpg/sg14_33_cif.got.tgz:65999.got - 2010.06.03 17:49:19.
