data_PCOD9241381
_publ_section_title
;
Structure prediction by ZEFSAII (Michael W. Deem and Ramdas Pophale) SiO2 
 PCOD9241381
Probable space group: P 21/C
;
_chemical_formula_sum "Si O2"
_cell_formula_units_Z 16
_cell_length_a 22.555494
_cell_length_b 5.181342
_cell_length_c 16.165185
_cell_angle_alpha 90.000000
_cell_angle_beta 20.829433
_cell_angle_gamma 90.000000
_cell_volume 671.771114
_symmetry_space_group_name_H-M "P 21/C"
_symmetry_group_IT_number 14
_symmetry_cell_setting 'monoclinic'
loop_
_space_group_symop_operation_xyz
x,y,z
-x,1/2+y,1/2-z
-x,-y,-z
x,1/2-y,1/2+z
loop_
_atom_site_type_symbol
_atom_site_label
_atom_site_fract_x
_atom_site_fract_y
_atom_site_fract_z
Si Si1 0.407197 0.445342 0.533643
Si Si2 0.919799 0.039996 0.825468
Si Si3 0.543196 0.955822 0.346177
Si Si4 0.962002 0.753570 0.495713
O O1 0.500000 0.500000 0.500000
O O2 0.424257 0.726075 0.470840
O O3 0.230708 0.307664 0.776480
O O4 0.507311 0.231845 0.352263
O O5 0.964445 0.279540 0.829802
O O6 0.933097 0.204063 0.723993
O O7 0.739474 0.918823 0.079227
O O8 0.500000 0.000000 0.500000
O O9 0.000000 0.500000 0.500000
O O10 0.000000 0.000000 0.500000
#
# Coordination Sequence:
#
# PCOD9241381 Si02
#       4
#     4   4   4   4
#     4  10  20  39  65  93 129 179 230 277 340 428
#     4  12  23  41  70 103 137 189 251 299 355 449
#     4  10  19  35  62  96 126 166 228 291 332 397
#     4  12  26  45  68 104 149 188 232 309 385 430
#
# _framework density 23.817636
#
# number of rings (size 3 to 8) (size 9 to 14) (size 15 to 20)
#    0.000    1.000    0.000   10.500    0.000    0.000 
#    0.000    5.000    0.000    0.000    0.000    0.000 
#    0.000    0.000    0.000    0.000    0.000    0.000 
#
# Total GULP energy -89167.828020 kJ/mol
# GULP energy per Si atom -5572.989251 kJ/mol
# Density = 2.376343 g / cm^3
# Si number density = 23.817636 Si / 1000 Ang^3
#
#
#
# Elastic Constant Matrix: (Units=GPa)
#
#
# Indices 1 2 3 4 5 6 
#
# 1 68.8554 27.4393 32.3143 0.0000 -2.6943 0.0000
# 2 27.4393 215.7833 19.8886 0.0000 -4.0039 0.0000
# 3 32.3143 19.8886 126.4199 0.0000 -12.6056 0.0000
# 4 0.0000 0.0000 0.0000 27.3174 0.0000 -5.8824
# 5 -2.6943 -4.0039 -12.6056 0.0000 24.4233 0.0000
# 6 0.0000 0.0000 0.0000 -5.8824 0.0000 42.7971
#
#
#
# Elastic Compliance Matrix: (Units=1/GPa)
#
#
# Indices 1 2 3 4 5 6 
#
# 1 0.017176 -0.001811 -0.004160 0.000000 -0.000549 0.000000
# 2 -0.001811 0.004897 -0.000261 0.000000 0.000468 0.000000
# 3 -0.004160 -0.000261 0.009451 0.000000 0.004376 0.000000
# 4 0.000000 0.000000 0.000000 0.037723 0.000000 0.005185
# 5 -0.000549 0.000468 0.004376 0.000000 0.043219 0.000000
# 6 0.000000 0.000000 0.000000 0.005185 0.000000 0.024079
#
#
# Mechanical properties :
#
#
# Convention : Reuss Voigt Hill
#
# Bulk Modulus (GPa) = 52.46546 63.37144 57.91845
# Shear Modulus (GPa) = 32.18277 41.00197 36.59237
#
# Velocity S-wave (km/s) = 3.67988 4.15359 3.92389
# Velocity P-wave (km/s) = 6.33491 7.04754 6.70071
#
# Compressibility (1/GPa) = 0.01906016
#
# Stress axis : x y z
#
# Youngs Moduli (GPa) = 58.22165 204.19481 105.80958
#
# Poissons Ratio (x) = 0.36976 0.44019
# Poissons Ratio (y) = 0.10543 0.02760
# Poissons Ratio (z) = 0.24221 0.05327
#
# Static dielectric constant tensor:
#      x y z
#    x 3.106240 0.000000 -0.170800 
#    y 0.000000 2.446610 0.000000 
#    z -0.170800 0.000000 1.926520 
# 
# From -- ./inp_files/49552.got.cif
#   From: 2010.05.17/outbox.cif.g08.bks.cpg/sg14_25_cif.got.tgz:49552.got - 2010.06.03 17:49:19.
