data_PCOD9241563
_publ_section_title
;
Structure prediction by ZEFSAII (Michael W. Deem and Ramdas Pophale) SiO2 
 PCOD9241563
Probable space group: P 21/C
;
_chemical_formula_sum "Si O2"
_cell_formula_units_Z 28
_cell_length_a 11.675547
_cell_length_b 8.999596
_cell_length_c 14.095575
_cell_angle_alpha 90.000000
_cell_angle_beta 122.301930
_cell_angle_gamma 90.000000
_cell_volume 1251.886794
_symmetry_space_group_name_H-M "P 21/C"
_symmetry_group_IT_number 14
_symmetry_cell_setting 'monoclinic'
loop_
_space_group_symop_operation_xyz
x,y,z
-x,1/2+y,1/2-z
-x,-y,-z
x,1/2-y,1/2+z
loop_
_atom_site_type_symbol
_atom_site_label
_atom_site_fract_x
_atom_site_fract_y
_atom_site_fract_z
Si Si1 0.095616 0.129518 0.745803
Si Si2 0.612835 0.652876 0.647780
Si Si3 0.974131 0.827350 0.493774
Si Si4 0.858981 0.419939 0.473380
Si Si5 0.561621 0.302648 0.596528
Si Si6 0.145185 0.805410 0.808344
Si Si7 0.692446 0.711117 0.385196
O O1 0.245193 0.170361 0.845782
O O2 0.070441 0.210106 0.634816
O O3 0.970739 0.183006 0.751745
O O4 0.097180 0.952908 0.732757
O O5 0.584861 0.476406 0.634104
O O6 0.490639 0.718326 0.533966
O O7 0.642275 0.722519 0.762432
O O8 0.833561 0.787074 0.483117
O O9 0.113356 0.735919 0.568519
O O10 0.000000 0.000000 0.500000
O O11 0.841468 0.372979 0.577193
O O12 0.738300 0.536686 0.398858
O O13 0.000000 0.500000 0.500000
O O14 0.712856 0.240848 0.664347
O O15 0.436147 0.256896 0.605457
#
# Coordination Sequence:
#
# PCOD9241563 Si02
#       7
#     4   4   4   4   4   4   4
#     4   9  19  35  56  82 110 148 200 248 295 360
#     4   9  19  37  60  85 117 159 205 250 303 377
#     4   9  19  35  56  86 123 158 199 253 309 365
#     4   9  18  33  56  86 119 156 202 252 302 355
#     4  10  20  38  61  86 122 165 200 253 325 377
#     4  10  20  37  60  86 116 156 203 251 309 369
#     4  10  19  36  61  89 118 158 210 255 309 379
#
# _framework density 22.366239
#
# number of rings (size 3 to 8) (size 9 to 14) (size 15 to 20)
#    0.000    2.571    0.000    3.429    0.000    3.429 
#    0.000   20.000    0.000    6.857    0.000    0.000 
#    0.000    0.000    0.000    0.000    0.000    0.000 
#
# Total GULP energy -155900.023697 kJ/mol
# GULP energy per Si atom -5567.857989 kJ/mol
# Density = 2.231533 g / cm^3
# Si number density = 22.366239 Si / 1000 Ang^3
#
#
#
# Elastic Constant Matrix: (Units=GPa)
#
#
# Indices 1 2 3 4 5 6 
#
# 1 142.7624 6.5277 19.1972 0.0000 15.7183 0.0000
# 2 6.5277 47.0483 8.6463 0.0000 9.0132 0.0000
# 3 19.1972 8.6463 75.5185 0.0000 2.6440 0.0000
# 4 0.0000 0.0000 0.0000 29.4542 0.0000 7.5450
# 5 15.7183 9.0132 2.6440 0.0000 33.8583 0.0000
# 6 0.0000 0.0000 0.0000 7.5450 0.0000 31.7362
#
#
#
# Elastic Compliance Matrix: (Units=1/GPa)
#
#
# Indices 1 2 3 4 5 6 
#
# 1 0.007624 -0.000078 -0.001811 0.000000 -0.003377 0.000000
# 2 -0.000078 0.022826 -0.002389 0.000000 -0.005854 0.000000
# 3 -0.001811 -0.002389 0.013962 0.000000 0.000386 0.000000
# 4 0.000000 0.000000 0.000000 0.036153 0.000000 -0.008595
# 5 -0.003377 -0.005854 0.000386 0.000000 0.032631 0.000000
# 6 0.000000 0.000000 0.000000 -0.008595 0.000000 0.033553
#
#
# Mechanical properties :
#
#
# Convention : Reuss Voigt Hill
#
# Bulk Modulus (GPa) = 27.88879 37.11906 32.50392
# Shear Modulus (GPa) = 29.89447 34.40695 32.15071
#
# Velocity S-wave (km/s) = 3.65990 3.92643 3.79551
# Velocity P-wave (km/s) = 5.50964 6.09818 5.81136
#
# Compressibility (1/GPa) = 0.03585670
#
# Stress axis : x y z
#
# Youngs Moduli (GPa) = 131.17313 43.80980 71.62270
#
# Poissons Ratio (x) = 0.00342 0.12969
# Poissons Ratio (y) = 0.01023 0.17108
# Poissons Ratio (z) = 0.23752 0.10465
#
# Static dielectric constant tensor:
#      x y z
#    x 1.906130 0.000000 -0.057680 
#    y 0.000000 1.849650 0.000000 
#    z -0.057680 0.000000 1.893090 
# 
# From -- ./inp_files/43538.got.cif
#   From: 2010.05.17/outbox.cif.g08.bks.cpg/sg14_22_cif.got.tgz:43538.got - 2010.06.03 17:49:19.
