data_PCOD9241958
_publ_section_title
;
Structure prediction by ZEFSAII (Michael W. Deem and Ramdas Pophale) SiO2 
 PCOD9241958
Probable space group: P 21/C
;
_chemical_formula_sum "Si O2"
_cell_formula_units_Z 24
_cell_length_a 15.609671
_cell_length_b 9.909473
_cell_length_c 13.829591
_cell_angle_alpha 90.000000
_cell_angle_beta 24.660646
_cell_angle_gamma 90.000000
_cell_volume 892.570775
_symmetry_space_group_name_H-M "P 21/C"
_symmetry_group_IT_number 14
_symmetry_cell_setting 'monoclinic'
loop_
_space_group_symop_operation_xyz
x,y,z
-x,1/2+y,1/2-z
-x,-y,-z
x,1/2-y,1/2+z
loop_
_atom_site_type_symbol
_atom_site_label
_atom_site_fract_x
_atom_site_fract_y
_atom_site_fract_z
Si Si1 0.146217 0.371700 0.364541
Si Si2 0.171533 0.939371 0.538823
Si Si3 0.159156 0.289796 0.568984
Si Si4 0.441422 0.108122 0.395468
Si Si5 0.151858 0.625513 0.852498
Si Si6 0.838535 0.114616 0.874043
O O1 0.199186 0.338841 0.419566
O O2 0.000000 0.500000 0.500000
O O3 0.998545 0.252508 0.477483
O O4 0.644779 0.613853 0.908759
O O5 0.265959 0.903674 0.336247
O O6 0.105144 0.782234 0.651736
O O7 0.332449 0.979593 0.457411
O O8 0.900663 0.941500 0.813703
O O9 0.347079 0.242101 0.442399
O O10 0.102200 0.114635 0.600459
O O11 0.675888 0.101423 0.128395
O O12 0.250960 0.634795 0.644009
O O13 0.000000 0.500000 0.000000
#
# Coordination Sequence:
#
# PCOD9241958 Si02
#       6
#     4   4   4   4   4   4
#     4  11  21  39  65  92 127 167 205 259 323 375
#     4  10  19  38  63  82 122 170 202 251 318 371
#     4  10  21  40  60  85 125 169 200 248 325 376
#     4  11  22  40  62  91 126 161 210 267 310 370
#     4   9  19  40  62  85 123 166 205 253 310 373
#     4   9  22  38  59  93 120 159 219 260 299 374
#
# _framework density 26.888622999999999
#
# number of rings (size 3 to 8) (size 9 to 14) (size 15 to 20)
#    0.000    2.000    3.333    1.000    0.000    2.000 
#    3.000    0.833    0.000    0.000    0.000    0.000 
#    0.000    0.000    0.000    0.000    0.000    0.000 
#
# Total GULP energy -134033.498960 kJ/mol
# GULP energy per Si atom -5584.729123 kJ/mol
# Density = 2.682742 g / cm^3
# Si number density = 26.888623 Si / 1000 Ang^3
#
#
#
# Elastic Constant Matrix: (Units=GPa)
#
#
# Indices 1 2 3 4 5 6 
#
# 1 105.4812 22.2462 28.8532 0.0000 39.0957 0.0000
# 2 22.2462 219.9763 42.6055 0.0000 -7.8220 0.0000
# 3 28.8532 42.6055 142.2829 0.0000 40.2424 0.0000
# 4 0.0000 0.0000 0.0000 39.6371 0.0000 -0.1101
# 5 39.0957 -7.8220 40.2424 0.0000 45.0027 0.0000
# 6 0.0000 0.0000 0.0000 -0.1101 0.0000 54.3153
#
#
#
# Elastic Compliance Matrix: (Units=1/GPa)
#
#
# Indices 1 2 3 4 5 6 
#
# 1 0.015160 -0.002473 0.002025 0.000000 -0.015411 0.000000
# 2 -0.002473 0.005519 -0.002718 0.000000 0.005538 0.000000
# 3 0.002025 -0.002718 0.010792 0.000000 -0.011882 0.000000
# 4 0.000000 0.000000 0.000000 0.025229 0.000000 0.000051
# 5 -0.015411 0.005538 -0.011882 0.000000 0.047197 0.000000
# 6 0.000000 0.000000 0.000000 0.000051 0.000000 0.018411
#
#
# Mechanical properties :
#
#
# Convention : Reuss Voigt Hill
#
# Bulk Modulus (GPa) = 39.77770 72.79446 56.28608
# Shear Modulus (GPa) = 36.49114 52.72669 44.60892
#
# Velocity S-wave (km/s) = 3.68791 4.43304 4.07753
# Velocity P-wave (km/s) = 5.74107 7.30300 6.56863
#
# Compressibility (1/GPa) = 0.02513972
#
# Stress axis : x y z
#
# Youngs Moduli (GPa) = 65.96330 181.18139 92.66149
#
# Poissons Ratio (x) = 0.44812 -0.18765
# Poissons Ratio (y) = 0.16315 0.25181
# Poissons Ratio (z) = -0.13358 0.49236
#
# Static dielectric constant tensor:
#      x y z
#    x 1.960710 0.000000 -0.013060 
#    y 0.000000 2.420290 0.000000 
#    z -0.013060 0.000000 2.076930 
# 
# From -- ./inp_files/61192.got.cif
#   From: 2010.05.17/outbox.cif.g08.bks.cpg/sg14_31_cif.got.tgz:61192.got - 2010.06.03 17:49:19.
