data_PCOD9241987
_publ_section_title
;
Structure prediction by ZEFSAII (Michael W. Deem and Ramdas Pophale) SiO2 
 PCOD9241987
Probable space group: P 21/C
;
_chemical_formula_sum "Si O2"
_cell_formula_units_Z 32
_cell_length_a 11.863681
_cell_length_b 14.093546
_cell_length_c 9.902286
_cell_angle_alpha 90.000000
_cell_angle_beta 78.325842
_cell_angle_gamma 90.000000
_cell_volume 1621.426414
_symmetry_space_group_name_H-M "P 21/C"
_symmetry_group_IT_number 14
_symmetry_cell_setting 'monoclinic'
loop_
_space_group_symop_operation_xyz
x,y,z
-x,1/2+y,1/2-z
-x,-y,-z
x,1/2-y,1/2+z
loop_
_atom_site_type_symbol
_atom_site_label
_atom_site_fract_x
_atom_site_fract_y
_atom_site_fract_z
Si Si1 0.712792 0.657975 0.981083
Si Si2 0.461746 0.864174 0.116178
Si Si3 0.325068 0.868442 0.887486
Si Si4 0.532391 0.134526 0.400425
Si Si5 0.294649 0.158814 0.831868
Si Si6 0.111731 0.513123 0.064985
Si Si7 0.886703 0.008294 0.117944
Si Si8 0.308756 0.859945 0.393887
O O1 0.685934 0.684608 0.830991
O O2 0.816869 0.584950 0.957126
O O3 0.599740 0.606221 0.068180
O O4 0.730879 0.749992 0.069125
O O5 0.468247 0.748901 0.117912
O O6 0.588732 0.889854 0.137806
O O7 0.356417 0.892990 0.238361
O O8 0.420193 0.890712 0.977811
O O9 0.382573 0.902010 0.734077
O O10 0.201763 0.917128 0.926966
O O11 0.303483 0.754860 0.893470
O O12 0.589352 0.114204 0.528467
O O13 0.186867 0.088630 0.863618
O O14 0.089057 0.533510 0.229876
O O15 0.193381 0.593178 0.978261
O O16 0.000000 0.500000 0.000000
O O17 0.000000 0.000000 0.000000
#
# Coordination Sequence:
#
# PCOD9241987 Si02
#       8
#     4   4   4   4   4   4   4   4
#     4  10  22  40  64  91 124 158 195 247 304 359
#     4   9  19  33  60  97 125 149 194 239 302 365
#     4  10  21  38  63  92 123 158 192 248 305 359
#     4   9  17  35  61  92 121 156 191 238 306 364
#     4  10  22  41  63  91 125 158 196 245 303 361
#     4  11  26  44  61  86 117 162 215 250 289 357
#     4  11  26  45  60  84 121 163 209 253 294 349
#     4  10  19  38  64  91 120 154 195 247 301 362
#
# _framework density 19.735710000000001
#
# number of rings (size 3 to 8) (size 9 to 14) (size 15 to 20)
#    0.000    2.000    2.500    0.000    7.000    4.000 
#    0.000    2.500    0.000    0.000    0.000    0.000 
#    0.000    0.000    0.000    0.000    0.000    0.000 
#
# Total GULP energy -178621.189067 kJ/mol
# GULP energy per Si atom -5581.912158 kJ/mol
# Density = 1.969079 g / cm^3
# Si number density = 19.735710 Si / 1000 Ang^3
#
#
#
# Elastic Constant Matrix: (Units=GPa)
#
#
# Indices 1 2 3 4 5 6 
#
# 1 116.5894 18.4411 26.2971 0.0000 -5.7432 0.0000
# 2 18.4411 66.6154 21.8413 0.0000 0.6103 0.0000
# 3 26.2971 21.8413 64.3067 0.0000 -18.2879 0.0000
# 4 0.0000 0.0000 0.0000 25.5985 0.0000 -3.7824
# 5 -5.7432 0.6103 -18.2879 0.0000 31.6216 0.0000
# 6 0.0000 0.0000 0.0000 -3.7824 0.0000 28.0562
#
#
#
# Elastic Compliance Matrix: (Units=1/GPa)
#
#
# Indices 1 2 3 4 5 6 
#
# 1 0.009588 -0.001513 -0.003475 0.000000 -0.000239 0.000000
# 2 -0.001513 0.017649 -0.006644 0.000000 -0.004458 0.000000
# 3 -0.003475 -0.006644 0.022842 0.000000 0.012707 0.000000
# 4 0.000000 0.000000 0.000000 0.039859 0.000000 0.005374
# 5 -0.000239 -0.004458 0.012707 0.000000 0.039016 0.000000
# 6 0.000000 0.000000 0.000000 0.005374 0.000000 0.036367
#
#
# Mechanical properties :
#
#
# Convention : Reuss Voigt Hill
#
# Bulk Modulus (GPa) = 37.29039 42.29673 39.79356
# Shear Modulus (GPa) = 25.31348 29.11739 27.21544
#
# Velocity S-wave (km/s) = 3.58526 3.84522 3.71751
# Velocity P-wave (km/s) = 6.00622 6.41813 6.21559
#
# Compressibility (1/GPa) = 0.02681656
#
# Stress axis : x y z
#
# Youngs Moduli (GPa) = 104.29212 56.65921 43.77938
#
# Poissons Ratio (x) = 0.08571 0.15214
# Poissons Ratio (y) = 0.15777 0.29085
# Poissons Ratio (z) = 0.36244 0.37642
#
# Static dielectric constant tensor:
#      x y z
#    x 1.669050 0.000000 -0.002120 
#    y 0.000000 1.734190 0.000000 
#    z -0.002120 0.000000 1.700990 
# 
# From -- ./inp_files/13285.got.cif
#   From: 2010.05.17/outbox.cif.g08.bks.cpg/sg14_7_cif.got.tgz:13285.got - 2010.06.03 17:49:19.
