data_PCOD9241575
_publ_section_title
;
Structure prediction by ZEFSAII (Michael W. Deem and Ramdas Pophale) SiO2 
 PCOD9241575
Probable space group: P 21/C
;
_chemical_formula_sum "Si O2"
_cell_formula_units_Z 30
_cell_length_a 21.185607
_cell_length_b 5.209319
_cell_length_c 18.406908
_cell_angle_alpha 90.000000
_cell_angle_beta 32.641116
_cell_angle_gamma 90.000000
_cell_volume 1095.705089
_symmetry_space_group_name_H-M "P 21/C"
_symmetry_group_IT_number 14
_symmetry_cell_setting 'monoclinic'
loop_
_space_group_symop_operation_xyz
x,y,z
-x,1/2+y,1/2-z
-x,-y,-z
x,1/2-y,1/2+z
loop_
_atom_site_type_symbol
_atom_site_label
_atom_site_fract_x
_atom_site_fract_y
_atom_site_fract_z
Si Si1 0.453735 0.526956 0.668518
Si Si2 0.646901 0.976316 0.168616
Si Si3 0.950912 0.064819 0.337818
Si Si4 0.254362 0.156756 0.538802
Si Si5 0.321518 0.672790 0.090792
Si Si6 0.255725 0.300693 0.283756
Si Si7 0.500000 0.000000 0.000000
Si Si8 0.115151 0.079222 0.298506
O O1 0.430883 0.277355 0.742433
O O2 0.493129 0.740815 0.564301
O O3 0.408392 0.749287 0.766514
O O4 0.430211 0.868809 0.993371
O O5 0.747294 0.933293 0.134615
O O6 0.696263 0.918839 0.040916
O O7 0.987891 0.045958 0.386440
O O8 0.023445 0.838653 0.225366
O O9 0.817343 0.988826 0.453571
O O10 0.341332 0.980950 0.497967
O O11 0.165695 0.219754 0.690514
O O12 0.297979 0.502435 0.183662
O O13 0.201788 0.840064 0.203086
O O14 0.361400 0.085922 0.187813
O O15 0.142293 0.178399 0.353498
#
# Coordination Sequence:
#
# PCOD9241575 Si02
#       8
#     4   4   4   4   4   4   2   4
#     4  10  22  37  65  92 123 167 217 272 330 406
#     4  10  21  40  61  90 131 177 210 267 352 402
#     4  10  20  36  60  91 131 173 226 276 337 395
#     4  10  23  37  63  93 133 183 219 277 346 422
#     4  11  20  37  63 100 131 167 231 287 338 403
#     4   9  19  37  60  91 127 170 212 280 332 394
#     4  12  20  40  70 100 122 170 230 286 340 394
#     4  10  19  36  61  96 126 169 225 288 325 395
#
# _framework density 27.379632000000001
#
# number of rings (size 3 to 8) (size 9 to 14) (size 15 to 20)
#    0.800    1.067    4.000    0.000    1.867    2.133 
#    0.000    0.667    2.933    1.600    0.000    0.000 
#    0.000    0.000    0.000    0.000    0.000    0.000 
#
# Total GULP energy -167118.212816 kJ/mol
# GULP energy per Si atom -5570.607094 kJ/mol
# Density = 2.731731 g / cm^3
# Si number density = 27.379632 Si / 1000 Ang^3
#
#
#
# Elastic Constant Matrix: (Units=GPa)
#
#
# Indices 1 2 3 4 5 6 
#
# 1 182.6098 57.9796 22.7899 0.0000 17.8944 0.0000
# 2 57.9796 146.6539 22.6053 0.0000 9.4032 0.0000
# 3 22.7899 22.6053 52.9662 0.0000 24.8255 0.0000
# 4 0.0000 0.0000 0.0000 36.8001 0.0000 7.9731
# 5 17.8944 9.4032 24.8255 0.0000 25.0815 0.0000
# 6 0.0000 0.0000 0.0000 7.9731 0.0000 43.5555
#
#
#
# Elastic Compliance Matrix: (Units=1/GPa)
#
#
# Indices 1 2 3 4 5 6 
#
# 1 0.006602 -0.002358 -0.000076 0.000000 -0.003750 0.000000
# 2 -0.002358 0.008147 -0.003394 0.000000 0.001987 0.000000
# 3 -0.000076 -0.003394 0.036822 0.000000 -0.035119 0.000000
# 4 0.000000 0.000000 0.000000 0.028296 0.000000 -0.005180
# 5 -0.003750 0.001987 -0.035119 0.000000 0.076561 0.000000
# 6 0.000000 0.000000 0.000000 -0.005180 0.000000 0.023907
#
#
# Mechanical properties :
#
#
# Convention : Reuss Voigt Hill
#
# Bulk Modulus (GPa) = 25.05373 65.44216 45.24794
# Shear Modulus (GPa) = 24.35514 39.67776 32.01645
#
# Velocity S-wave (km/s) = 2.98574 3.81093 3.42329
# Velocity P-wave (km/s) = 4.58874 6.58163 5.67338
#
# Compressibility (1/GPa) = 0.03991421
#
# Stress axis : x y z
#
# Youngs Moduli (GPa) = 151.47336 122.75023 27.15797
#
# Poissons Ratio (x) = 0.28942 0.00208
# Poissons Ratio (y) = 0.35714 0.09217
# Poissons Ratio (z) = 0.01158 0.41658
#
# Static dielectric constant tensor:
#      x y z
#    x 2.284990 0.000000 -0.036000 
#    y 0.000000 2.091170 0.000000 
#    z -0.036000 0.000000 2.392970 
# 
# From -- ./inp_files/61587.got.cif
#   From: 2010.05.17/outbox.cif.g08.bks.cpg/sg14_31_cif.got.tgz:61587.got - 2010.06.03 17:49:19.
