data_PCOD9241170
_publ_section_title
;
Structure prediction by ZEFSAII (Michael W. Deem and Ramdas Pophale) SiO2 
 PCOD9241170
Probable space group: P 21/C
;
_chemical_formula_sum "Si O2"
_cell_formula_units_Z 28
_cell_length_a 18.071193
_cell_length_b 17.943073
_cell_length_c 13.078378
_cell_angle_alpha 90.000000
_cell_angle_beta 159.787467
_cell_angle_gamma 90.000000
_cell_volume 1465.176546
_symmetry_space_group_name_H-M "P 21/C"
_symmetry_group_IT_number 14
_symmetry_cell_setting 'monoclinic'
loop_
_space_group_symop_operation_xyz
x,y,z
-x,1/2+y,1/2-z
-x,-y,-z
x,1/2-y,1/2+z
loop_
_atom_site_type_symbol
_atom_site_label
_atom_site_fract_x
_atom_site_fract_y
_atom_site_fract_z
Si Si1 0.453107 0.270239 0.164542
Si Si2 0.902036 0.849221 0.265228
Si Si3 0.916593 0.295986 0.805730
Si Si4 0.772059 0.264592 0.408161
Si Si5 0.254613 0.585910 0.738871
Si Si6 0.724833 0.954868 0.878657
Si Si7 0.127298 0.135876 0.128174
O O1 0.661571 0.293033 0.499201
O O2 0.563264 0.241421 0.201703
O O3 0.302828 0.205883 0.013305
O O4 0.310021 0.340666 0.945875
O O5 0.960099 0.852094 0.460439
O O6 0.098524 0.803670 0.470056
O O7 0.853355 0.924316 0.141922
O O8 0.919522 0.303896 0.687205
O O9 0.016372 0.214555 0.956335
O O10 0.715948 0.328265 0.255123
O O11 0.224126 0.536657 0.597307
O O12 0.052399 0.585636 0.551328
O O13 0.471021 0.553662 0.068804
O O14 0.779838 0.901915 0.852581
#
# Coordination Sequence:
#
# PCOD9241170 Si02
#       7
#     4   4   4   4   4   4   4
#     4   9  19  31  54  77 104 138 175 224 265 311
#     4  11  20  34  56  78 108 143 177 227 267 315
#     4   9  19  33  51  82 102 130 185 222 259 318
#     4  10  19  35  53  76 107 139 182 218 271 320
#     4  11  22  35  56  83 112 145 178 219 280 328
#     4  11  22  35  55  83 114 143 179 226 269 325
#     4  11  18  35  55  81 108 139 177 224 273 315
#
# _framework density 19.110323999999999
#
# number of rings (size 3 to 8) (size 9 to 14) (size 15 to 20)
#    0.857    0.857    5.714    1.286    0.000    0.000 
#    0.000    0.714    0.000    0.857    0.000    0.000 
#    0.000    0.000    0.000    0.000    0.000    0.000 
#
# Total GULP energy -156020.379154 kJ/mol
# GULP energy per Si atom -5572.156398 kJ/mol
# Density = 1.906683 g / cm^3
# Si number density = 19.110324 Si / 1000 Ang^3
#
#
#
# Elastic Constant Matrix: (Units=GPa)
#
#
# Indices 1 2 3 4 5 6 
#
# 1 32.2038 -6.1004 -0.4844 0.0000 9.9892 0.0000
# 2 -6.1004 29.6375 5.9947 0.0000 5.5908 0.0000
# 3 -0.4844 5.9947 70.9134 0.0000 2.8641 0.0000
# 4 0.0000 0.0000 0.0000 19.8161 0.0000 -8.9114
# 5 9.9892 5.5908 2.8641 0.0000 37.1110 0.0000
# 6 0.0000 0.0000 0.0000 -8.9114 0.0000 20.8021
#
#
#
# Elastic Compliance Matrix: (Units=1/GPa)
#
#
# Indices 1 2 3 4 5 6 
#
# 1 0.036356 0.009624 -0.000112 0.000000 -0.011227 0.000000
# 2 0.009624 0.037812 -0.002805 0.000000 -0.008070 0.000000
# 3 -0.000112 -0.002805 0.014365 0.000000 -0.000656 0.000000
# 4 0.000000 0.000000 0.000000 0.062506 0.000000 0.026777
# 5 -0.011227 -0.008070 -0.000656 0.000000 0.031235 0.000000
# 6 0.000000 0.000000 0.000000 0.026777 0.000000 0.059543
#
#
# Mechanical properties :
#
#
# Convention : Reuss Voigt Hill
#
# Bulk Modulus (GPa) = 9.80904 14.61942 12.21423
# Shear Modulus (GPa) = 19.05610 24.43549 21.74580
#
# Velocity S-wave (km/s) = 3.16121 3.57971 3.37695
# Velocity P-wave (km/s) = 4.29748 4.97517 4.64869
#
# Compressibility (1/GPa) = 0.10194678
#
# Stress axis : x y z
#
# Youngs Moduli (GPa) = 27.50568 26.44693 69.61590
#
# Poissons Ratio (x) = -0.25452 0.00778
# Poissons Ratio (y) = -0.26471 0.19526
# Poissons Ratio (z) = 0.00307 0.07418
#
# Static dielectric constant tensor:
#      x y z
#    x 1.699060 0.000000 -0.006490 
#    y 0.000000 1.644880 0.000000 
#    z -0.006490 0.000000 1.692360 
# 
# From -- ./inp_files/41523.got.cif
#   From: 2010.05.17/outbox.cif.g08.bks.cpg/sg14_21_cif.got.tgz:41523.got - 2010.06.03 17:49:19.
