data_PCOD9241416
_publ_section_title
;
Structure prediction by ZEFSAII (Michael W. Deem and Ramdas Pophale) SiO2 
 PCOD9241416
Probable space group: P 21/C
;
_chemical_formula_sum "Si O2"
_cell_formula_units_Z 32
_cell_length_a 9.473374
_cell_length_b 23.135597
_cell_length_c 12.923672
_cell_angle_alpha 90.000000
_cell_angle_beta 32.730011
_cell_angle_gamma 90.000000
_cell_volume 1531.483940
_symmetry_space_group_name_H-M "P 21/C"
_symmetry_group_IT_number 14
_symmetry_cell_setting 'monoclinic'
loop_
_space_group_symop_operation_xyz
x,y,z
-x,1/2+y,1/2-z
-x,-y,-z
x,1/2-y,1/2+z
loop_
_atom_site_type_symbol
_atom_site_label
_atom_site_fract_x
_atom_site_fract_y
_atom_site_fract_z
Si Si1 0.272857 0.861837 0.043172
Si Si2 0.304245 0.089961 0.578763
Si Si3 0.212640 0.066523 0.856441
Si Si4 0.234249 0.674627 0.133307
Si Si5 0.388564 0.952903 0.803103
Si Si6 0.790503 0.810772 0.059644
Si Si7 0.469189 0.219866 0.970259
Si Si8 0.048163 0.748871 0.084637
O O1 0.453264 0.840729 0.025571
O O2 0.980758 0.880712 0.256711
O O3 0.224126 0.805090 0.001567
O O4 0.401488 0.912529 0.895836
O O5 0.268911 0.049715 0.701893
O O6 0.537140 0.132805 0.470527
O O7 0.396652 0.062244 0.414789
O O8 0.279046 0.133698 0.829258
O O9 0.369014 0.021846 0.830992
O O10 0.901526 0.061356 0.062831
O O11 0.305629 0.736941 0.136038
O O12 0.970503 0.661047 0.357882
O O13 0.186388 0.690246 0.041959
O O14 0.563186 0.782692 0.132268
O O15 0.929573 0.762807 0.045255
O O16 0.210244 0.246473 0.182660
#
# Coordination Sequence:
#
# PCOD9241416 Si02
#       8
#     4   4   4   4   4   4   4   4
#     4  10  20  38  56  83 114 149 188 229 278 340
#     4  11  18  35  60  84 118 144 189 238 279 339
#     4  10  20  34  56  89 110 146 192 237 290 331
#     4  10  20  33  55  83 114 146 183 228 281 337
#     4  10  20  35  59  83 115 145 189 242 286 330
#     4  11  20  37  56  83 113 151 187 233 282 336
#     4  10  22  36  55  81 117 152 188 224 279 344
#     4  10  19  36  54  80 112 146 184 224 278 334
#
# _framework density 20.894767000000002
#
# number of rings (size 3 to 8) (size 9 to 14) (size 15 to 20)
#    0.000    1.750    5.000    0.375    0.000    4.000 
#    0.000    0.625    0.000    0.750    0.000    0.000 
#    0.000    0.000    0.000    0.000    0.000    0.000 
#
# Total GULP energy -178301.874216 kJ/mol
# GULP energy per Si atom -5571.933569 kJ/mol
# Density = 2.084721 g / cm^3
# Si number density = 20.894767 Si / 1000 Ang^3
#
#
#
# Elastic Constant Matrix: (Units=GPa)
#
#
# Indices 1 2 3 4 5 6 
#
# 1 96.2392 4.7550 -1.9659 0.0000 8.5570 0.0000
# 2 4.7550 27.3649 -0.2924 0.0000 -4.2789 0.0000
# 3 -1.9659 -0.2924 86.2743 0.0000 11.0171 0.0000
# 4 0.0000 0.0000 0.0000 19.8150 0.0000 0.3234
# 5 8.5570 -4.2789 11.0171 0.0000 18.8265 0.0000
# 6 0.0000 0.0000 0.0000 0.3234 0.0000 18.0472
#
#
#
# Elastic Compliance Matrix: (Units=1/GPa)
#
#
# Indices 1 2 3 4 5 6 
#
# 1 0.011119 -0.002911 0.001052 0.000000 -0.006331 0.000000
# 2 -0.002911 0.038740 -0.001328 0.000000 0.010905 0.000000
# 3 0.001052 -0.001328 0.012656 0.000000 -0.008186 0.000000
# 4 0.000000 0.000000 0.000000 0.050482 0.000000 -0.000905
# 5 -0.006331 0.010905 -0.008186 0.000000 0.063263 0.000000
# 6 0.000000 0.000000 0.000000 -0.000905 0.000000 0.055427
#
#
# Mechanical properties :
#
#
# Convention : Reuss Voigt Hill
#
# Bulk Modulus (GPa) = 17.81198 23.87462 20.84330
# Shear Modulus (GPa) = 19.47248 25.16316 22.31782
#
# Velocity S-wave (km/s) = 3.05607 3.47404 3.27173
# Velocity P-wave (km/s) = 4.58212 5.24813 4.92639
#
# Compressibility (1/GPa) = 0.05614200
#
# Stress axis : x y z
#
# Youngs Moduli (GPa) = 89.93618 25.81318 79.01549
#
# Poissons Ratio (x) = 0.07514 -0.08312
# Poissons Ratio (y) = 0.26178 0.10490
# Poissons Ratio (z) = -0.09461 0.03427
#
# Static dielectric constant tensor:
#      x y z
#    x 1.781810 0.000000 0.008670 
#    y 0.000000 1.806320 0.000000 
#    z 0.008670 0.000000 1.808920 
# 
# From -- ./inp_files/27015.got.cif
#   From: 2010.05.17/outbox.cif.g08.bks.cpg/sg14_14_cif.got.tgz:27015.got - 2010.06.03 17:49:19.
