data_PCOD9241567
_publ_section_title
;
Structure prediction by ZEFSAII (Michael W. Deem and Ramdas Pophale) SiO2 
 PCOD9241567
Probable space group: P 21/C
;
_chemical_formula_sum "Si O2"
_cell_formula_units_Z 28
_cell_length_a 20.765632
_cell_length_b 8.658774
_cell_length_c 19.474251
_cell_angle_alpha 90.000000
_cell_angle_beta 158.270040
_cell_angle_gamma 90.000000
_cell_volume 1296.393725
_symmetry_space_group_name_H-M "P 21/C"
_symmetry_group_IT_number 14
_symmetry_cell_setting 'monoclinic'
loop_
_space_group_symop_operation_xyz
x,y,z
-x,1/2+y,1/2-z
-x,-y,-z
x,1/2-y,1/2+z
loop_
_atom_site_type_symbol
_atom_site_label
_atom_site_fract_x
_atom_site_fract_y
_atom_site_fract_z
Si Si1 0.232557 0.678224 0.386486
Si Si2 0.152095 0.906208 0.612054
Si Si3 0.499097 0.545278 0.395762
Si Si4 0.692572 0.656899 0.058463
Si Si5 0.865066 0.100566 0.821916
Si Si6 0.348626 0.921427 0.593260
Si Si7 0.019357 0.390359 0.206883
O O1 0.348855 0.579309 0.448727
O O2 0.104841 0.790201 0.216263
O O3 0.373021 0.769077 0.571500
O O4 0.127823 0.547843 0.323356
O O5 0.335739 0.990147 0.781789
O O6 0.187873 0.735763 0.677590
O O7 0.074329 0.889774 0.459204
O O8 0.000000 0.000000 0.500000
O O9 0.581509 0.713806 0.486918
O O10 0.436276 0.557956 0.253549
O O11 0.748514 0.531108 0.170498
O O12 0.602532 0.561375 0.908416
O O13 0.847137 0.748126 0.170515
O O14 0.000000 0.000000 0.000000
O O15 0.139478 0.898683 0.397530
#
# Coordination Sequence:
#
# PCOD9241567 Si02
#       7
#     4   4   4   4   4   4   4
#     4  10  21  38  61  93 122 161 203 247 307 364
#     4  11  22  41  64  86 121 162 207 252 299 362
#     4  10  23  40  62  90 124 162 201 250 313 362
#     4  10  21  38  60  91 123 159 201 253 307 359
#     4  11  22  39  63  87 124 158 203 256 295 357
#     4  10  20  36  63  89 127 155 200 250 305 364
#     4  10  19  36  61  91 120 163 202 245 302 363
#
# _framework density 21.598379000000001
#
# number of rings (size 3 to 8) (size 9 to 14) (size 15 to 20)
#    0.000    1.714    2.857    1.714    0.000    1.143 
#    0.000    2.857    6.286    0.000    0.000    0.000 
#    0.000    0.000    0.000    0.000    0.000    0.000 
#
# Total GULP energy -155909.540169 kJ/mol
# GULP energy per Si atom -5568.197863 kJ/mol
# Density = 2.154922 g / cm^3
# Si number density = 21.598379 Si / 1000 Ang^3
#
#
#
# Elastic Constant Matrix: (Units=GPa)
#
#
# Indices 1 2 3 4 5 6 
#
# 1 59.2213 19.4284 2.9369 0.0000 -1.0731 0.0000
# 2 19.4284 114.8571 28.6820 0.0000 3.3666 0.0000
# 3 2.9369 28.6820 46.3824 0.0000 -8.8346 0.0000
# 4 0.0000 0.0000 0.0000 34.5731 0.0000 -9.3564
# 5 -1.0731 3.3666 -8.8346 0.0000 43.1239 0.0000
# 6 0.0000 0.0000 0.0000 -9.3564 0.0000 15.3021
#
#
#
# Elastic Compliance Matrix: (Units=1/GPa)
#
#
# Indices 1 2 3 4 5 6 
#
# 1 0.017943 -0.003339 0.001106 0.000000 0.000934 0.000000
# 2 -0.003339 0.011121 -0.007125 0.000000 -0.002411 0.000000
# 3 0.001106 -0.007125 0.027063 0.000000 0.006128 0.000000
# 4 0.000000 0.000000 0.000000 0.034659 0.000000 0.021192
# 5 0.000934 -0.002411 0.006128 0.000000 0.024656 0.000000
# 6 0.000000 0.000000 0.000000 0.021192 0.000000 0.078308
#
#
# Mechanical properties :
#
#
# Convention : Reuss Voigt Hill
#
# Bulk Modulus (GPa) = 26.72895 35.83948 31.28421
# Shear Modulus (GPa) = 22.22849 29.89406 26.06128
#
# Velocity S-wave (km/s) = 3.21155 3.72437 3.47743
# Velocity P-wave (km/s) = 5.11414 5.92657 5.53528
#
# Compressibility (1/GPa) = 0.03741262
#
# Stress axis : x y z
#
# Youngs Moduli (GPa) = 55.73145 89.91899 36.95089
#
# Poissons Ratio (x) = 0.30022 -0.04088
# Poissons Ratio (y) = 0.18608 0.26327
# Poissons Ratio (z) = -0.06166 0.64066
#
# Static dielectric constant tensor:
#      x y z
#    x 1.841910 0.000000 0.024610 
#    y 0.000000 1.825050 0.000000 
#    z 0.024610 0.000000 1.831740 
# 
# From -- ./inp_files/70239.got.cif
#   From: 2010.05.17/outbox.cif.g08.bks.cpg/sg14_36_cif.got.tgz:70239.got - 2010.06.03 17:49:19.
