data_PCOD9241912
_publ_section_title
;
Structure prediction by ZEFSAII (Michael W. Deem and Ramdas Pophale) SiO2 
 PCOD9241912
Probable space group: P 21/C
;
_chemical_formula_sum "Si O2"
_cell_formula_units_Z 32
_cell_length_a 21.558647
_cell_length_b 13.919350
_cell_length_c 9.478894
_cell_angle_alpha 90.000000
_cell_angle_beta 149.748618
_cell_angle_gamma 90.000000
_cell_volume 1433.018560
_symmetry_space_group_name_H-M "P 21/C"
_symmetry_group_IT_number 14
_symmetry_cell_setting 'monoclinic'
loop_
_space_group_symop_operation_xyz
x,y,z
-x,1/2+y,1/2-z
-x,-y,-z
x,1/2-y,1/2+z
loop_
_atom_site_type_symbol
_atom_site_label
_atom_site_fract_x
_atom_site_fract_y
_atom_site_fract_z
Si Si1 0.569755 0.475820 0.413739
Si Si2 0.064143 0.327066 0.051549
Si Si3 0.985579 0.339968 0.218005
Si Si4 0.161542 0.016177 0.566416
Si Si5 0.666922 0.737438 0.971080
Si Si6 0.367308 0.606364 0.151953
Si Si7 0.188605 0.446366 0.802473
Si Si8 0.502355 0.704917 0.903898
O O1 0.695079 0.529925 0.619642
O O2 0.463507 0.550800 0.240874
O O3 0.598978 0.420597 0.619264
O O4 0.534980 0.398704 0.226945
O O5 0.029337 0.322427 0.145460
O O6 0.072922 0.432688 0.003414
O O7 0.201914 0.286255 0.296706
O O8 0.978190 0.257869 0.790556
O O9 0.087476 0.406550 0.497097
O O10 0.863544 0.403014 0.980857
O O11 0.139686 0.056875 0.366415
O O12 0.618444 0.736327 0.034511
O O13 0.559298 0.785863 0.670026
O O14 0.694611 0.626438 0.979724
O O15 0.391134 0.718580 0.175224
O O16 0.236847 0.554116 0.869920
#
# Coordination Sequence:
#
# PCOD9241912 Si02
#       8
#     4   4   4   4   4   4   4   4
#     4  10  21  39  60  89 125 166 202 244 315 373
#     4  11  23  42  66  96 123 164 212 265 304 360
#     4  11  24  43  66  96 121 162 214 260 313 371
#     4  11  23  44  65  91 126 166 208 263 311 369
#     4  11  20  35  64  90 125 159 211 254 293 373
#     4  10  19  38  60  86 127 163 199 254 306 373
#     4  10  20  40  67  89 120 166 214 252 312 371
#     4  12  20  36  58  94 124 163 203 250 310 371
#
# _framework density 22.330484999999999
#
# number of rings (size 3 to 8) (size 9 to 14) (size 15 to 20)
#    0.000    1.250    2.500    6.750    0.000    0.000 
#    9.000    1.250    0.000    0.000    0.000    0.000 
#    0.000    0.000    0.000    0.000    0.000    0.000 
#
# Total GULP energy -178971.538198 kJ/mol
# GULP energy per Si atom -5592.860569 kJ/mol
# Density = 2.227966 g / cm^3
# Si number density = 22.330485 Si / 1000 Ang^3
#
#
#
# Elastic Constant Matrix: (Units=GPa)
#
#
# Indices 1 2 3 4 5 6 
#
# 1 43.7698 -10.4302 6.0439 0.0000 -7.7338 0.0000
# 2 -10.4302 53.9193 4.3631 0.0000 -4.4720 0.0000
# 3 6.0439 4.3631 25.6779 0.0000 -6.1123 0.0000
# 4 0.0000 0.0000 0.0000 38.8374 0.0000 2.9222
# 5 -7.7338 -4.4720 -6.1123 0.0000 17.5499 0.0000
# 6 0.0000 0.0000 0.0000 2.9222 0.0000 28.9358
#
#
#
# Elastic Compliance Matrix: (Units=1/GPa)
#
#
# Indices 1 2 3 4 5 6 
#
# 1 0.027203 0.006639 -0.004661 0.000000 0.012056 0.000000
# 2 0.006639 0.020688 -0.003409 0.000000 0.007010 0.000000
# 3 -0.004661 -0.003409 0.043534 0.000000 0.012239 0.000000
# 4 0.000000 0.000000 0.000000 0.025946 0.000000 -0.002620
# 5 0.012056 0.007010 0.012239 0.000000 0.068342 0.000000
# 6 0.000000 0.000000 0.000000 -0.002620 0.000000 0.034824
#
#
# Mechanical properties :
#
#
# Convention : Reuss Voigt Hill
#
# Bulk Modulus (GPa) = 11.29152 13.70227 12.49689
# Shear Modulus (GPa) = 19.76919 25.29062 22.52990
#
# Velocity S-wave (km/s) = 2.97863 3.36900 3.17981
# Velocity P-wave (km/s) = 4.11062 4.61335 4.36922
#
# Compressibility (1/GPa) = 0.08856207
#
# Stress axis : x y z
#
# Youngs Moduli (GPa) = 36.76102 48.33772 22.97071
#
# Poissons Ratio (x) = -0.32092 0.10707
# Poissons Ratio (y) = -0.24406 0.07831
# Poissons Ratio (z) = 0.17135 0.16479
#
# Static dielectric constant tensor:
#      x y z
#    x 1.775320 0.000000 0.017480 
#    y 0.000000 1.883370 0.000000 
#    z 0.017480 0.000000 1.819810 
# 
# From -- ./inp_files/19035.got.cif
#   From: 2010.05.17/outbox.cif.g08.bks.cpg/sg14_10_cif.got.tgz:19035.got - 2010.06.03 17:49:19.
