data_PCOD9241973
_publ_section_title
;
Structure prediction by ZEFSAII (Michael W. Deem and Ramdas Pophale) SiO2 
 PCOD9241973
Probable space group: P 21/C
;
_chemical_formula_sum "Si O2"
_cell_formula_units_Z 32
_cell_length_a 8.867105
_cell_length_b 11.333725
_cell_length_c 14.003752
_cell_angle_alpha 90.000000
_cell_angle_beta 105.244422
_cell_angle_gamma 90.000000
_cell_volume 1357.819516
_symmetry_space_group_name_H-M "P 21/C"
_symmetry_group_IT_number 14
_symmetry_cell_setting 'monoclinic'
loop_
_space_group_symop_operation_xyz
x,y,z
-x,1/2+y,1/2-z
-x,-y,-z
x,1/2-y,1/2+z
loop_
_atom_site_type_symbol
_atom_site_label
_atom_site_fract_x
_atom_site_fract_y
_atom_site_fract_z
Si Si1 0.630091 0.422389 0.747696
Si Si2 0.619931 0.711550 0.091436
Si Si3 0.721180 0.826765 0.812170
Si Si4 0.382244 0.398563 0.098419
Si Si5 0.716290 0.544301 0.575451
Si Si6 0.739616 0.188935 0.671955
Si Si7 0.711470 0.306935 0.469412
Si Si8 0.085813 0.556282 0.645255
O O1 0.450069 0.385481 0.706834
O O2 0.658233 0.481395 0.854604
O O3 0.661977 0.523253 0.674707
O O4 0.731503 0.310718 0.731241
O O5 0.731179 0.698061 0.200180
O O6 0.661073 0.827200 0.036447
O O7 0.632411 0.605595 0.018422
O O8 0.443524 0.742581 0.095757
O O9 0.719144 0.704631 0.868649
O O10 0.842364 0.927010 0.861975
O O11 0.565040 0.366665 0.148697
O O12 0.658668 0.432619 0.506101
O O13 0.902640 0.545836 0.604244
O O14 0.770405 0.228766 0.568343
O O15 0.859629 0.100387 0.741210
O O16 0.837552 0.348060 0.413570
#
# Coordination Sequence:
#
# PCOD9241973 Si02
#       8
#     4   4   4   4   4   4   4   4
#     4  10  19  39  61  85 121 158 207 253 309 358
#     4  11  22  38  63  98 120 157 212 268 310 369
#     4  11  22  38  67  91 125 162 208 262 316 366
#     4  10  19  38  63  92 119 158 207 265 310 363
#     4  11  23  39  63  93 126 165 208 259 306 380
#     4   9  21  38  62  93 120 167 208 260 311 368
#     4  10  21  41  65  90 123 166 219 258 307 362
#     4  12  23  41  61  93 132 168 206 256 318 383
#
# _framework density 23.567197
#
# number of rings (size 3 to 8) (size 9 to 14) (size 15 to 20)
#    0.000    1.500    2.500    4.500    0.000    2.500 
#    4.500    0.000    0.000    1.500    0.000    0.000 
#    0.000    0.000    0.000    0.000    0.000    0.000 
#
# Total GULP energy -179161.025174 kJ/mol
# GULP energy per Si atom -5598.782037 kJ/mol
# Density = 2.351356 g / cm^3
# Si number density = 23.567197 Si / 1000 Ang^3
#
#
#
# Elastic Constant Matrix: (Units=GPa)
#
#
# Indices 1 2 3 4 5 6 
#
# 1 47.1871 12.3484 8.6981 0.0000 4.0522 0.0000
# 2 12.3484 81.2611 16.5165 0.0000 2.9614 0.0000
# 3 8.6981 16.5165 73.2059 0.0000 -9.8328 0.0000
# 4 0.0000 0.0000 0.0000 49.5128 0.0000 -6.6331
# 5 4.0522 2.9614 -9.8328 0.0000 21.0411 0.0000
# 6 0.0000 0.0000 0.0000 -6.6331 0.0000 6.1308
#
#
#
# Elastic Compliance Matrix: (Units=1/GPa)
#
#
# Indices 1 2 3 4 5 6 
#
# 1 0.022881 -0.002708 -0.002826 0.000000 -0.005346 0.000000
# 2 -0.002708 0.013448 -0.003091 0.000000 -0.002816 0.000000
# 3 -0.002826 -0.003091 0.015818 0.000000 0.008371 0.000000
# 4 0.000000 0.000000 0.000000 0.023620 0.000000 0.025556
# 5 -0.005346 -0.002816 0.008371 0.000000 0.052864 0.000000
# 6 0.000000 0.000000 0.000000 0.025556 0.000000 0.190759
#
#
# Mechanical properties :
#
#
# Convention : Reuss Voigt Hill
#
# Bulk Modulus (GPa) = 28.65472 30.75335 29.70403
# Shear Modulus (GPa) = 14.35665 26.27635 20.31650
#
# Velocity S-wave (km/s) = 2.47083 3.34272 2.93928
# Velocity P-wave (km/s) = 4.50834 5.28922 4.91432
#
# Compressibility (1/GPa) = 0.03489826
#
# Stress axis : x y z
#
# Youngs Moduli (GPa) = 43.70478 74.35896 63.22109
#
# Poissons Ratio (x) = 0.20135 0.17865
# Poissons Ratio (y) = 0.11834 0.19539
# Poissons Ratio (z) = 0.12350 0.22981
#
# Static dielectric constant tensor:
#      x y z
#    x 1.851790 0.000000 -0.060490 
#    y 0.000000 1.897860 0.000000 
#    z -0.060490 0.000000 1.941520 
# 
# From -- ./inp_files/40375.got.cif
#   From: 2010.05.17/outbox.cif.g08.bks.cpg/sg14_21_cif.got.tgz:40375.got - 2010.06.03 17:49:19.
