data_PCOD9241847
_publ_section_title
;
Structure prediction by ZEFSAII (Michael W. Deem and Ramdas Pophale) SiO2 
 PCOD9241847
Probable space group: P 21/C
;
_chemical_formula_sum "Si O2"
_cell_formula_units_Z 32
_cell_length_a 14.888630
_cell_length_b 13.120050
_cell_length_c 14.524994
_cell_angle_alpha 90.000000
_cell_angle_beta 149.390813
_cell_angle_gamma 90.000000
_cell_volume 1444.697875
_symmetry_space_group_name_H-M "P 21/C"
_symmetry_group_IT_number 14
_symmetry_cell_setting 'monoclinic'
loop_
_space_group_symop_operation_xyz
x,y,z
-x,1/2+y,1/2-z
-x,-y,-z
x,1/2-y,1/2+z
loop_
_atom_site_type_symbol
_atom_site_label
_atom_site_fract_x
_atom_site_fract_y
_atom_site_fract_z
Si Si1 0.441175 0.896396 0.496692
Si Si2 0.471782 0.589766 0.601888
Si Si3 0.640898 0.739991 0.543119
Si Si4 0.345158 0.037747 0.156327
Si Si5 0.949033 0.689553 0.936640
Si Si6 0.258642 0.233003 0.568392
Si Si7 0.875288 0.403746 0.402470
Si Si8 0.320016 0.599895 0.274319
O O1 0.570220 0.815389 0.560733
O O2 0.479530 0.920975 0.636721
O O3 0.241848 0.876106 0.290317
O O4 0.500000 0.000000 0.500000
O O5 0.373926 0.516262 0.585945
O O6 0.560264 0.685694 0.730109
O O7 0.349957 0.619267 0.409287
O O8 0.624030 0.514779 0.698033
O O9 0.727031 0.790127 0.528185
O O10 0.467219 0.675799 0.360042
O O11 0.787845 0.672369 0.724207
O O12 0.239473 0.144000 0.057138
O O13 0.260280 0.947637 0.142056
O O14 0.014832 0.805027 0.974070
O O15 0.120268 0.621354 0.071945
O O16 0.885015 0.688779 0.986795
O O17 0.000000 0.500000 0.500000
#
# Coordination Sequence:
#
# PCOD9241847 Si02
#       8
#     4   4   4   4   4   4   4   4
#     4  10  19  37  65  95 133 181 220 283 355 407
#     4  11  25  46  73 101 139 194 242 280 359 431
#     4  12  23  47  70  99 144 189 230 295 358 415
#     4  11  22  41  70 100 134 182 234 286 352 424
#     4  12  25  45  71 106 142 184 240 292 354 421
#     4  12  24  44  70 101 145 182 237 299 345 421
#     4  11  21  37  65 103 143 177 223 294 358 410
#     4  11  25  48  72  97 144 196 231 293 353 427
#
# _framework density 22.14996
#
# number of rings (size 3 to 8) (size 9 to 14) (size 15 to 20)
#    0.000    0.750    6.250    2.250    0.000    1.500 
#    2.250    1.250    0.000    0.000    0.000    0.000 
#    0.000    0.000    0.000    0.000    0.000    0.000 
#
# Total GULP energy -178627.145182 kJ/mol
# GULP energy per Si atom -5582.098287 kJ/mol
# Density = 2.209955 g / cm^3
# Si number density = 22.149960 Si / 1000 Ang^3
#
#
#
# Elastic Constant Matrix: (Units=GPa)
#
#
# Indices 1 2 3 4 5 6 
#
# 1 77.5538 -4.6986 29.0398 0.0000 -12.0627 0.0000
# 2 -4.6986 53.6368 -6.3986 0.0000 1.4944 0.0000
# 3 29.0398 -6.3986 78.4941 0.0000 13.4780 0.0000
# 4 0.0000 0.0000 0.0000 32.4908 0.0000 1.4695
# 5 -12.0627 1.4944 13.4780 0.0000 25.5103 0.0000
# 6 0.0000 0.0000 0.0000 1.4695 0.0000 31.1337
#
#
#
# Elastic Compliance Matrix: (Units=1/GPa)
#
#
# Indices 1 2 3 4 5 6 
#
# 1 0.018424 0.000148 -0.009127 0.000000 0.013525 0.000000
# 2 0.000148 0.018932 0.001833 0.000000 -0.002007 0.000000
# 3 -0.009127 0.001833 0.018724 0.000000 -0.014315 0.000000
# 4 0.000000 0.000000 0.000000 0.030844 0.000000 -0.001456
# 5 0.013525 -0.002007 -0.014315 0.000000 0.053276 0.000000
# 6 0.000000 0.000000 0.000000 -0.001456 0.000000 0.032188
#
#
# Mechanical properties :
#
#
# Convention : Reuss Voigt Hill
#
# Bulk Modulus (GPa) = 23.92956 27.28551 25.60753
# Shear Modulus (GPa) = 24.92417 30.60976 27.76697
#
# Velocity S-wave (km/s) = 3.35811 3.72147 3.54445
# Velocity P-wave (km/s) = 5.08554 5.55077 5.32324
#
# Compressibility (1/GPa) = 0.04178932
#
# Stress axis : x y z
#
# Youngs Moduli (GPa) = 54.27566 52.82194 53.40795
#
# Poissons Ratio (x) = -0.00784 0.48744
# Poissons Ratio (y) = -0.00805 -0.09790
# Poissons Ratio (z) = 0.49535 -0.09682
#
# Static dielectric constant tensor:
#      x y z
#    x 1.861220 0.000000 -0.026900 
#    y 0.000000 1.848310 0.000000 
#    z -0.026900 0.000000 1.913570 
# 
# From -- ./inp_files/47428.got.cif
#   From: 2010.05.17/outbox.cif.g08.bks.cpg/sg14_24_cif.got.tgz:47428.got - 2010.06.03 17:49:19.
