data_PCOD9241849
_publ_section_title
;
Structure prediction by ZEFSAII (Michael W. Deem and Ramdas Pophale) SiO2 
 PCOD9241849
Probable space group: P 21/C
;
_chemical_formula_sum "Si O2"
_cell_formula_units_Z 32
_cell_length_a 6.103226
_cell_length_b 17.686316
_cell_length_c 12.624891
_cell_angle_alpha 90.000000
_cell_angle_beta 76.972400
_cell_angle_gamma 90.000000
_cell_volume 1327.700291
_symmetry_space_group_name_H-M "P 21/C"
_symmetry_group_IT_number 14
_symmetry_cell_setting 'monoclinic'
loop_
_space_group_symop_operation_xyz
x,y,z
-x,1/2+y,1/2-z
-x,-y,-z
x,1/2-y,1/2+z
loop_
_atom_site_type_symbol
_atom_site_label
_atom_site_fract_x
_atom_site_fract_y
_atom_site_fract_z
Si Si1 0.267718 0.393535 0.250638
Si Si2 0.357699 0.344965 0.648145
Si Si3 0.770303 0.099469 0.739618
Si Si4 0.992992 0.182344 0.339680
Si Si5 0.809089 0.541962 0.086529
Si Si6 0.087793 0.415456 0.501414
Si Si7 0.274162 0.678513 0.538444
Si Si8 0.369215 0.933440 0.701969
O O1 0.535293 0.369191 0.207985
O O2 0.205436 0.383975 0.381719
O O3 0.278210 0.484518 0.239338
O O4 0.036534 0.372213 0.209543
O O5 0.237362 0.406768 0.587815
O O6 0.500470 0.299430 0.546501
O O7 0.497686 0.391213 0.719261
O O8 0.182308 0.295518 0.733943
O O9 0.708533 0.116091 0.869487
O O10 0.788071 0.014170 0.691968
O O11 0.852206 0.250682 0.399289
O O12 0.826630 0.122457 0.306090
O O13 0.111492 0.128406 0.411670
O O14 0.547443 0.552825 0.087275
O O15 0.000000 0.500000 0.000000
O O16 0.000000 0.500000 0.500000
O O17 0.876743 0.360115 0.534868
#
# Coordination Sequence:
#
# PCOD9241849 Si02
#       8
#     4   4   4   4   4   4   4   4
#     4  10  19  37  65  97 138 170 226 284 354 412
#     4  11  23  42  67  96 136 181 233 287 369 426
#     4  10  21  42  66 101 135 180 235 298 342 432
#     4  11  24  47  65  97 143 184 237 296 364 436
#     4  10  23  45  71  98 135 188 245 295 356 425
#     4  11  23  37  67 102 135 176 230 289 359 426
#     4  11  25  43  66 101 139 182 234 295 367 436
#     4  10  22  41  67  97 136 179 229 295 355 420
#
# _framework density 24.101824000000001
#
# number of rings (size 3 to 8) (size 9 to 14) (size 15 to 20)
#    0.000    1.500    2.500    2.250    8.750    3.500 
#    6.750    1.250    0.000    0.000    0.000    0.000 
#    0.000    0.000    0.000    0.000    0.000    0.000 
#
# Total GULP energy -178296.190478 kJ/mol
# GULP energy per Si atom -5571.755952 kJ/mol
# Density = 2.404697 g / cm^3
# Si number density = 24.101824 Si / 1000 Ang^3
#
#
#
# Elastic Constant Matrix: (Units=GPa)
#
#
# Indices 1 2 3 4 5 6 
#
# 1 119.4489 -7.0000 23.0878 0.0000 -25.2941 0.0000
# 2 -7.0000 46.7086 41.0945 0.0000 -25.0668 0.0000
# 3 23.0878 41.0945 100.4345 0.0000 -48.7801 0.0000
# 4 0.0000 0.0000 0.0000 27.2908 0.0000 -5.8827
# 5 -25.2941 -25.0668 -48.7801 0.0000 46.6054 0.0000
# 6 0.0000 0.0000 0.0000 -5.8827 0.0000 10.3706
#
#
#
# Elastic Compliance Matrix: (Units=1/GPa)
#
#
# Indices 1 2 3 4 5 6 
#
# 1 0.010852 0.007391 -0.001480 0.000000 0.008316 0.000000
# 2 0.007391 0.039810 -0.011472 0.000000 0.013416 0.000000
# 3 -0.001480 -0.011472 0.023602 0.000000 0.017730 0.000000
# 4 0.000000 0.000000 0.000000 0.041747 0.000000 0.023681
# 5 0.008316 0.013416 0.017730 0.000000 0.051744 0.000000
# 6 0.000000 0.000000 0.000000 0.023681 0.000000 0.109859
#
#
# Mechanical properties :
#
#
# Convention : Reuss Voigt Hill
#
# Bulk Modulus (GPa) = 15.83700 42.32851 29.08276
# Shear Modulus (GPa) = 16.14034 30.81401 23.47718
#
# Velocity S-wave (km/s) = 2.59061 3.57948 3.12442
# Velocity P-wave (km/s) = 3.94126 5.88932 5.01087
#
# Compressibility (1/GPa) = 0.06314327
#
# Stress axis : x y z
#
# Youngs Moduli (GPa) = 92.14912 25.11924 42.36870
#
# Poissons Ratio (x) = -0.18566 0.06270
# Poissons Ratio (y) = -0.68110 0.48606
# Poissons Ratio (z) = 0.13636 0.28817
#
# Static dielectric constant tensor:
#      x y z
#    x 2.135410 0.000000 -0.097850 
#    y 0.000000 1.835800 0.000000 
#    z -0.097850 0.000000 2.028110 
# 
# From -- ./inp_files/38083.got.cif
#   From: 2010.05.17/outbox.cif.g08.bks.cpg/sg14_20_cif.got.tgz:38083.got - 2010.06.03 17:49:19.
