data_PCOD9241448
_publ_section_title
;
Structure prediction by ZEFSAII (Michael W. Deem and Ramdas Pophale) SiO2 
 PCOD9241448
Probable space group: P 21/C
;
_chemical_formula_sum "Si O2"
_cell_formula_units_Z 32
_cell_length_a 18.654704
_cell_length_b 5.197482
_cell_length_c 28.010696
_cell_angle_alpha 90.000000
_cell_angle_beta 143.179128
_cell_angle_gamma 90.000000
_cell_volume 1627.648370
_symmetry_space_group_name_H-M "P 21/C"
_symmetry_group_IT_number 14
_symmetry_cell_setting 'monoclinic'
loop_
_space_group_symop_operation_xyz
x,y,z
-x,1/2+y,1/2-z
-x,-y,-z
x,1/2-y,1/2+z
loop_
_atom_site_type_symbol
_atom_site_label
_atom_site_fract_x
_atom_site_fract_y
_atom_site_fract_z
Si Si1 0.957253 0.055930 0.794709
Si Si2 0.917476 0.738790 0.010735
Si Si3 0.212755 0.614733 0.873701
Si Si4 0.604947 0.475213 0.493822
Si Si5 0.916286 0.737705 0.402502
Si Si6 0.173828 0.059114 0.739120
Si Si7 0.388793 0.241418 0.411559
Si Si8 0.212548 0.232592 0.961968
O O1 0.885961 0.279863 0.786077
O O2 0.095442 0.080287 0.880772
O O3 0.917033 0.114501 0.718998
O O4 0.913798 0.770261 0.783790
O O5 0.820953 0.717163 0.001256
O O6 0.987977 0.469852 0.047638
O O7 0.868994 0.784563 0.931334
O O8 0.010898 0.974762 0.069665
O O9 0.273672 0.885425 0.915213
O O10 0.299346 0.483961 0.879982
O O11 0.217791 0.467361 0.926838
O O12 0.508355 0.248307 0.442879
O O13 0.559387 0.682265 0.508098
O O14 0.659617 0.591359 0.475352
O O15 0.821626 0.831175 0.312444
O O16 0.300065 0.077229 0.833308
#
# Coordination Sequence:
#
# PCOD9241448 Si02
#       8
#     4   4   4   4   4   4   4   4
#     4  11  23  34  53  82 117 141 182 216 282 331
#     4  10  21  35  55  83 112 144 178 229 276 348
#     4  10  22  33  52  76 111 153 183 231 272 327
#     4  10  20  36  52  75 107 155 185 227 272 321
#     4  10  19  36  57  81 111 141 183 227 286 323
#     4  11  19  37  58  82 105 147 180 237 268 324
#     4   9  20  36  53  76 107 143 203 224 265 324
#     4  11  23  33  51  81 113 148 180 225 282 347
#
# _framework density 19.660264999999999
#
# number of rings (size 3 to 8) (size 9 to 14) (size 15 to 20)
#    0.000    1.750    3.750    0.375    5.250    0.000 
#    0.000    0.000    0.000    0.000    3.250    0.000 
#    0.000    0.000    0.000    0.000    0.000    0.000 
#
# Total GULP energy -178191.010909 kJ/mol
# GULP energy per Si atom -5568.469091 kJ/mol
# Density = 1.961552 g / cm^3
# Si number density = 19.660265 Si / 1000 Ang^3
#
#
#
# Elastic Constant Matrix: (Units=GPa)
#
#
# Indices 1 2 3 4 5 6 
#
# 1 155.3176 21.6608 40.7704 0.0000 -8.3953 0.0000
# 2 21.6608 65.9777 6.5180 0.0000 -2.9635 0.0000
# 3 40.7704 6.5180 52.9998 0.0000 -1.1505 0.0000
# 4 0.0000 0.0000 0.0000 19.7476 0.0000 -2.1970
# 5 -8.3953 -2.9635 -1.1505 0.0000 28.4700 0.0000
# 6 0.0000 0.0000 0.0000 -2.1970 0.0000 24.1856
#
#
#
# Elastic Compliance Matrix: (Units=1/GPa)
#
#
# Indices 1 2 3 4 5 6 
#
# 1 0.008469 -0.002075 -0.006216 0.000000 0.002030 0.000000
# 2 -0.002075 0.015918 -0.000339 0.000000 0.001031 0.000000
# 3 -0.006216 -0.000339 0.023671 0.000000 -0.000912 0.000000
# 4 0.000000 0.000000 0.000000 0.051156 0.000000 0.004647
# 5 0.002030 0.001031 -0.000912 0.000000 0.035794 0.000000
# 6 0.000000 0.000000 0.000000 0.004647 0.000000 0.041769
#
#
# Mechanical properties :
#
#
# Convention : Reuss Voigt Hill
#
# Bulk Modulus (GPa) = 32.46881 45.79928 39.13404
# Shear Modulus (GPa) = 24.47346 28.17036 26.32191
#
# Velocity S-wave (km/s) = 3.53203 3.78942 3.66298
# Velocity P-wave (km/s) = 5.76059 6.51860 6.15128
#
# Compressibility (1/GPa) = 0.03079879
#
# Stress axis : x y z
#
# Youngs Moduli (GPa) = 118.07532 62.82300 42.24518
#
# Poissons Ratio (x) = 0.13037 0.26258
# Poissons Ratio (y) = 0.24503 0.01431
# Poissons Ratio (z) = 0.73392 0.02129
#
# Static dielectric constant tensor:
#      x y z
#    x 1.803120 0.000000 -0.007620 
#    y 0.000000 1.789830 0.000000 
#    z -0.007620 0.000000 1.715340 
# 
# From -- ./inp_files/73501.got.cif
#   From: 2010.05.17/outbox.cif.g08.bks.cpg/sg14_37_cif.got.tgz:73501.got - 2010.06.03 17:49:19.
