data_PCOD9241735
_publ_section_title
;
Structure prediction by ZEFSAII (Michael W. Deem and Ramdas Pophale) SiO2 
 PCOD9241735
Probable space group: P 21/C
;
_chemical_formula_sum "Si O2"
_cell_formula_units_Z 24
_cell_length_a 15.003332
_cell_length_b 9.820375
_cell_length_c 7.602838
_cell_angle_alpha 90.000000
_cell_angle_beta 123.402471
_cell_angle_gamma 90.000000
_cell_volume 935.161282
_symmetry_space_group_name_H-M "P 21/C"
_symmetry_group_IT_number 14
_symmetry_cell_setting 'monoclinic'
loop_
_space_group_symop_operation_xyz
x,y,z
-x,1/2+y,1/2-z
-x,-y,-z
x,1/2-y,1/2+z
loop_
_atom_site_type_symbol
_atom_site_label
_atom_site_fract_x
_atom_site_fract_y
_atom_site_fract_z
Si Si1 0.100429 0.054166 0.715328
Si Si2 0.647863 0.417045 0.000634
Si Si3 0.406247 0.145993 0.274391
Si Si4 0.377455 0.053712 0.865682
Si Si5 0.078170 0.185968 0.054746
Si Si6 0.848475 0.102905 0.908198
O O1 0.065915 0.152985 0.836811
O O2 0.145561 0.175256 0.643023
O O3 0.000000 0.000000 0.500000
O O4 0.154832 0.934847 0.887730
O O5 0.620500 0.552061 0.087379
O O6 0.740910 0.341591 0.207721
O O7 0.533484 0.343678 0.878009
O O8 0.679706 0.453930 0.835321
O O9 0.371806 0.298121 0.272809
O O10 0.353357 0.076705 0.045451
O O11 0.500000 0.000000 0.000000
O O12 0.956851 0.183252 0.992013
O O13 0.134879 0.044822 0.174311
#
# Coordination Sequence:
#
# PCOD9241735 Si02
#       6
#     4   4   4   4   4   4
#     4  10  19  37  61  81 116 155 184 234 295 341
#     4  10  21  39  60  86 117 149 199 239 280 347
#     4  10  20  38  60  80 120 156 188 240 290 336
#     4  10  20  37  60  84 116 157 189 233 297 338
#     4   9  20  37  58  81 119 145 189 233 289 339
#     4   9  21  38  59  85 114 147 193 235 285 338
#
# _framework density 25.664021999999999
#
# number of rings (size 3 to 8) (size 9 to 14) (size 15 to 20)
#    1.000    1.333    1.667    1.000    0.000    1.333 
#    3.000    6.667    0.000    0.000    0.000    0.000 
#    0.000    0.000    0.000    0.000    0.000    0.000 
#
# Total GULP energy -133856.208838 kJ/mol
# GULP energy per Si atom -5577.342035 kJ/mol
# Density = 2.560561 g / cm^3
# Si number density = 25.664022 Si / 1000 Ang^3
#
#
#
# Elastic Constant Matrix: (Units=GPa)
#
#
# Indices 1 2 3 4 5 6 
#
# 1 74.3121 22.6957 44.9871 0.0000 15.3720 0.0000
# 2 22.6957 57.3621 11.8716 0.0000 -6.2104 0.0000
# 3 44.9871 11.8716 164.2825 0.0000 -3.0032 0.0000
# 4 0.0000 0.0000 0.0000 24.4394 0.0000 -10.2052
# 5 15.3720 -6.2104 -3.0032 0.0000 40.0339 0.0000
# 6 0.0000 0.0000 0.0000 -10.2052 0.0000 7.6525
#
#
#
# Elastic Compliance Matrix: (Units=1/GPa)
#
#
# Indices 1 2 3 4 5 6 
#
# 1 0.021354 -0.008400 -0.005422 0.000000 -0.009909 0.000000
# 2 -0.008400 0.021288 0.000882 0.000000 0.006594 0.000000
# 3 -0.005422 0.000882 0.007559 0.000000 0.002786 0.000000
# 4 0.000000 0.000000 0.000000 0.092338 0.000000 0.123141
# 5 -0.009909 0.006594 0.002786 0.000000 0.030016 0.000000
# 6 0.000000 0.000000 0.000000 0.123141 0.000000 0.294896
#
#
# Mechanical properties :
#
#
# Convention : Reuss Voigt Hill
#
# Bulk Modulus (GPa) = 41.11383 50.56285 45.83834
# Shear Modulus (GPa) = 9.97135 28.85196 19.41166
#
# Velocity S-wave (km/s) = 1.97327 3.35657 2.75321
# Velocity P-wave (km/s) = 4.60939 5.89633 5.29213
#
# Compressibility (1/GPa) = 0.02432272
#
# Stress axis : x y z
#
# Youngs Moduli (GPa) = 46.82931 46.97537 132.29377
#
# Poissons Ratio (x) = 0.39458 0.71727
# Poissons Ratio (y) = 0.39335 -0.11673
# Poissons Ratio (z) = 0.25390 -0.04145
#
# Static dielectric constant tensor:
#      x y z
#    x 2.182400 0.000000 -0.012450 
#    y 0.000000 2.129750 0.000000 
#    z -0.012450 0.000000 2.088290 
# 
# From -- ./inp_files/18904.got.cif
#   From: 2010.05.17/outbox.cif.g08.bks.cpg/sg14_10_cif.got.tgz:18904.got - 2010.06.03 17:49:19.
