data_PCOD9241511
_publ_section_title
;
Structure prediction by ZEFSAII (Michael W. Deem and Ramdas Pophale) SiO2 
 PCOD9241511
Probable space group: P 21/C
;
_chemical_formula_sum "Si O2"
_cell_formula_units_Z 28
_cell_length_a 16.587616
_cell_length_b 4.896038
_cell_length_c 14.629820
_cell_angle_alpha 90.000000
_cell_angle_beta 117.836760
_cell_angle_gamma 90.000000
_cell_volume 1050.650588
_symmetry_space_group_name_H-M "P 21/C"
_symmetry_group_IT_number 14
_symmetry_cell_setting 'monoclinic'
loop_
_space_group_symop_operation_xyz
x,y,z
-x,1/2+y,1/2-z
-x,-y,-z
x,1/2-y,1/2+z
loop_
_atom_site_type_symbol
_atom_site_label
_atom_site_fract_x
_atom_site_fract_y
_atom_site_fract_z
Si Si1 0.534448 0.365727 0.322145
Si Si2 0.617053 0.742350 0.134090
Si Si3 0.770000 0.778512 0.082164
Si Si4 0.683049 0.259396 0.776348
Si Si5 0.109912 0.711788 0.794250
Si Si6 0.014718 0.325636 0.614263
Si Si7 0.842887 0.585364 0.427660
O O1 0.477263 0.172595 0.220670
O O2 0.486873 0.320965 0.394586
O O3 0.635066 0.266145 0.350497
O O4 0.665998 0.797528 0.063447
O O5 0.629500 0.431890 0.174789
O O6 0.675646 0.936473 0.234501
O O7 0.809037 0.495840 0.139072
O O8 0.786498 0.793583 0.982554
O O9 0.838423 0.001950 0.164066
O O10 0.778072 0.113049 0.837333
O O11 0.059852 0.601984 0.678313
O O12 0.029011 0.664482 0.825522
O O13 0.098290 0.201699 0.601332
O O14 0.925133 0.408331 0.512439
#
# Coordination Sequence:
#
# PCOD9241511 Si02
#       7
#     4   4   4   4   4   4   4
#     4   8  16  31  55  83 107 139 183 224 264 323
#     4  10  19  36  60  82 110 147 186 222 268 334
#     4  11  23  38  57  84 112 145 186 229 276 329
#     4  10  20  36  58  84 112 144 183 229 277 324
#     4  11  23  40  60  78 107 149 194 229 267 329
#     4  10  21  39  58  80 108 146 187 230 276 324
#     4  10  22  36  55  83 115 142 179 232 283 324
#
# _framework density 26.650157
#
# number of rings (size 3 to 8) (size 9 to 14) (size 15 to 20)
#    0.000    2.000    0.000    4.286    0.000    2.857 
#    0.000    7.857    0.000    0.000    0.000   17.000 
#    0.000    0.000    0.000    0.000    0.000    0.000 
#
# Total GULP energy -156593.978761 kJ/mol
# GULP energy per Si atom -5592.642099 kJ/mol
# Density = 2.658950 g / cm^3
# Si number density = 26.650157 Si / 1000 Ang^3
#
#
#
# Elastic Constant Matrix: (Units=GPa)
#
#
# Indices 1 2 3 4 5 6 
#
# 1 227.9854 18.5280 8.3096 0.0000 -45.1060 0.0000
# 2 18.5280 70.9141 0.5761 0.0000 -7.6425 0.0000
# 3 8.3096 0.5761 36.2488 0.0000 -18.2184 0.0000
# 4 0.0000 0.0000 0.0000 3.0165 0.0000 -7.8624
# 5 -45.1060 -7.6425 -18.2184 0.0000 43.6382 0.0000
# 6 0.0000 0.0000 0.0000 -7.8624 0.0000 27.1007
#
#
#
# Elastic Compliance Matrix: (Units=1/GPa)
#
#
# Indices 1 2 3 4 5 6 
#
# 1 0.005677 -0.000792 0.002013 0.000000 0.006570 0.000000
# 2 -0.000792 0.014533 0.001036 0.000000 0.002159 0.000000
# 3 0.002013 0.001036 0.035747 0.000000 0.017186 0.000000
# 4 0.000000 0.000000 0.000000 1.359691 0.000000 0.394468
# 5 0.006570 0.002159 0.017186 0.000000 0.037260 0.000000
# 6 0.000000 0.000000 0.000000 0.394468 0.000000 0.151341
#
#
# Mechanical properties :
#
#
# Convention : Reuss Voigt Hill
#
# Bulk Modulus (GPa) = 16.53681 43.33064 29.93372
# Shear Modulus (GPa) = 3.08663 35.26672 19.17667
#
# Velocity S-wave (km/s) = 1.07737 3.64169 2.68539
# Velocity P-wave (km/s) = 2.78680 5.82897 4.56854
#
# Compressibility (1/GPa) = 0.06047115
#
# Stress axis : x y z
#
# Youngs Moduli (GPa) = 176.14916 68.81042 27.97454
#
# Poissons Ratio (x) = 0.05447 -0.05632
# Poissons Ratio (y) = 0.13943 -0.02898
# Poissons Ratio (z) = -0.35461 -0.07127
#
# Static dielectric constant tensor:
#      x y z
#    x 2.166960 0.000000 -0.134690 
#    y 0.000000 2.032740 0.000000 
#    z -0.134690 0.000000 2.144400 
# 
# From -- ./inp_files/58476.got.cif
#   From: 2010.05.17/outbox.cif.g08.bks.cpg/sg14_30_cif.got.tgz:58476.got - 2010.06.03 17:49:19.
