data_PCOD9241990
_publ_section_title
;
Structure prediction by ZEFSAII (Michael W. Deem and Ramdas Pophale) SiO2 
 PCOD9241990
Probable space group: P 21/C
;
_chemical_formula_sum "Si O2"
_cell_formula_units_Z 32
_cell_length_a 17.726441
_cell_length_b 13.430657
_cell_length_c 18.658796
_cell_angle_alpha 90.000000
_cell_angle_beta 157.927881
_cell_angle_gamma 90.000000
_cell_volume 1669.276990
_symmetry_space_group_name_H-M "P 21/C"
_symmetry_group_IT_number 14
_symmetry_cell_setting 'monoclinic'
loop_
_space_group_symop_operation_xyz
x,y,z
-x,1/2+y,1/2-z
-x,-y,-z
x,1/2-y,1/2+z
loop_
_atom_site_type_symbol
_atom_site_label
_atom_site_fract_x
_atom_site_fract_y
_atom_site_fract_z
Si Si1 0.518785 0.881605 0.024726
Si Si2 0.479722 0.116173 0.259195
Si Si3 0.636800 0.402474 0.328073
Si Si4 0.972497 0.829474 0.107890
Si Si5 0.893992 0.757118 0.875593
Si Si6 0.343909 0.707938 0.226316
Si Si7 0.057357 0.466055 0.630501
Si Si8 0.694162 0.212141 0.027008
O O1 0.737382 0.832232 0.228453
O O2 0.391837 0.845289 0.980881
O O3 0.429688 0.834677 0.874427
O O4 0.500000 0.000000 0.000000
O O5 0.595800 0.140151 0.288009
O O6 0.566192 0.189393 0.395470
O O7 0.498715 0.999803 0.291897
O O8 0.241535 0.140360 0.046549
O O9 0.561568 0.314703 0.210797
O O10 0.671480 0.356693 0.437222
O O11 0.852981 0.433821 0.488975
O O12 0.086720 0.752149 0.259167
O O13 0.932148 0.782635 0.993326
O O14 0.109019 0.929457 0.215088
O O15 0.823256 0.862180 0.776141
O O16 0.106030 0.725070 0.027184
O O17 0.000000 0.500000 0.500000
#
# Coordination Sequence:
#
# PCOD9241990 Si02
#       8
#     4   4   4   4   4   4   4   4
#     4  12  25  40  62  88 121 167 214 255 308 380
#     4  10  21  40  63  90 125 164 202 260 321 371
#     4   9  20  39  61  88 128 157 201 261 308 373
#     4  10  19  38  64  91 126 161 203 259 324 378
#     4  10  20  40  61  90 126 164 206 266 316 362
#     4  10  22  40  61  90 125 159 212 259 308 381
#     4   8  17  34  63  91 118 154 198 257 317 365
#     4  11  22  39  61  89 123 164 207 251 309 385
#
# _framework density 19.169976999999999
#
# number of rings (size 3 to 8) (size 9 to 14) (size 15 to 20)
#    0.000    2.000    2.500    0.750    0.000    4.500 
#    0.000    5.000    0.000    0.000    0.000    0.000 
#    0.000    0.000    0.000    0.000    0.000    0.000 
#
# Total GULP energy -178349.975888 kJ/mol
# GULP energy per Si atom -5573.436747 kJ/mol
# Density = 1.912635 g / cm^3
# Si number density = 19.169977 Si / 1000 Ang^3
#
#
#
# Elastic Constant Matrix: (Units=GPa)
#
#
# Indices 1 2 3 4 5 6 
#
# 1 83.8847 52.8428 12.2048 0.0000 -7.3525 0.0000
# 2 52.8428 155.0742 40.2401 0.0000 -12.8015 0.0000
# 3 12.2048 40.2401 48.7026 0.0000 -1.3908 0.0000
# 4 0.0000 0.0000 0.0000 24.2199 0.0000 3.5755
# 5 -7.3525 -12.8015 -1.3908 0.0000 23.6521 0.0000
# 6 0.0000 0.0000 0.0000 3.5755 0.0000 12.9243
#
#
#
# Elastic Compliance Matrix: (Units=1/GPa)
#
#
# Indices 1 2 3 4 5 6 
#
# 1 0.015281 -0.005174 0.000502 0.000000 0.001979 0.000000
# 2 -0.005174 0.010367 -0.007167 0.000000 0.003581 0.000000
# 3 0.000502 -0.007167 0.026266 0.000000 -0.002178 0.000000
# 4 0.000000 0.000000 0.000000 0.043046 0.000000 -0.011909
# 5 0.001979 0.003581 -0.002178 0.000000 0.044705 0.000000
# 6 0.000000 0.000000 0.000000 -0.011909 0.000000 0.080668
#
#
# Mechanical properties :
#
#
# Convention : Reuss Voigt Hill
#
# Bulk Modulus (GPa) = 35.41475 55.35965 45.38720
# Shear Modulus (GPa) = 19.72987 24.31751 22.02369
#
# Velocity S-wave (km/s) = 3.21161 3.56549 3.39317
# Velocity P-wave (km/s) = 5.68038 6.77431 6.25132
#
# Compressibility (1/GPa) = 0.02823682
#
# Stress axis : x y z
#
# Youngs Moduli (GPa) = 65.44120 96.46065 38.07173
#
# Poissons Ratio (x) = 0.49909 -0.01912
# Poissons Ratio (y) = 0.33859 0.27285
# Poissons Ratio (z) = -0.03286 0.69131
#
# Static dielectric constant tensor:
#      x y z
#    x 1.647940 0.000000 0.010160 
#    y 0.000000 1.717220 0.000000 
#    z 0.010160 0.000000 1.651550 
# 
# From -- ./inp_files/69932.got.cif
#   From: 2010.05.17/outbox.cif.g08.bks.cpg/sg14_35_cif.got.tgz:69932.got - 2010.06.03 17:49:19.
