data_PCOD9241943
_publ_section_title
;
Structure prediction by ZEFSAII (Michael W. Deem and Ramdas Pophale) SiO2 
 PCOD9241943
Probable space group: P 21/C
;
_chemical_formula_sum "Si O2"
_cell_formula_units_Z 24
_cell_length_a 16.319258
_cell_length_b 8.224716
_cell_length_c 19.160120
_cell_angle_alpha 90.000000
_cell_angle_beta 26.256085
_cell_angle_gamma 90.000000
_cell_volume 1137.676781
_symmetry_space_group_name_H-M "P 21/C"
_symmetry_group_IT_number 14
_symmetry_cell_setting 'monoclinic'
loop_
_space_group_symop_operation_xyz
x,y,z
-x,1/2+y,1/2-z
-x,-y,-z
x,1/2-y,1/2+z
loop_
_atom_site_type_symbol
_atom_site_label
_atom_site_fract_x
_atom_site_fract_y
_atom_site_fract_z
Si Si1 0.428857 0.869033 0.107482
Si Si2 0.026366 0.627953 0.882605
Si Si3 0.712336 0.958461 0.522868
Si Si4 0.038503 0.251744 0.421617
Si Si5 0.683592 0.579145 0.890887
Si Si6 0.365637 0.717429 0.802145
O O1 0.385183 0.908623 0.221603
O O2 0.235868 0.803768 0.221852
O O3 0.600897 0.749442 0.980511
O O4 0.500000 0.000000 0.000000
O O5 0.052012 0.434885 0.881955
O O6 0.895038 0.625679 0.916142
O O7 0.930749 0.724266 0.019632
O O8 0.745972 0.000163 0.415936
O O9 0.537019 0.839566 0.669858
O O10 0.664842 0.118937 0.603902
O O11 0.170554 0.374959 0.280077
O O12 0.827171 0.305663 0.569297
O O13 0.500000 0.500000 0.000000
#
# Coordination Sequence:
#
# PCOD9241943 Si02
#       6
#     4   4   4   4   4   4
#     4  10  19  38  62  87 113 161 212 245 294 372
#     4   9  18  37  65  84 107 158 211 241 286 357
#     4  10  22  40  57  90 118 155 205 249 303 364
#     4   9  18  38  62  84 115 156 198 246 298 363
#     4  11  24  39  55  91 132 151 191 257 320 368
#     4   9  21  39  60  85 122 158 202 255 301 365
#
# _framework density 21.095623
#
# number of rings (size 3 to 8) (size 9 to 14) (size 15 to 20)
#    0.000    2.333    1.667    1.000    2.333    0.000 
#   12.000    2.500    0.000    0.000    0.000    0.000 
#    0.000    0.000    0.000    0.000    0.000    0.000 
#
# Total GULP energy -133718.648360 kJ/mol
# GULP energy per Si atom -5571.610348 kJ/mol
# Density = 2.104761 g / cm^3
# Si number density = 21.095623 Si / 1000 Ang^3
#
#
#
# Elastic Constant Matrix: (Units=GPa)
#
#
# Indices 1 2 3 4 5 6 
#
# 1 129.8678 6.3752 38.1933 0.0000 15.2266 0.0000
# 2 6.3752 13.8395 5.3503 0.0000 13.7699 0.0000
# 3 38.1933 5.3503 104.2960 0.0000 10.6333 0.0000
# 4 0.0000 0.0000 0.0000 30.8549 0.0000 1.5321
# 5 15.2266 13.7699 10.6333 0.0000 39.0538 0.0000
# 6 0.0000 0.0000 0.0000 1.5321 0.0000 16.6680
#
#
#
# Elastic Compliance Matrix: (Units=1/GPa)
#
#
# Indices 1 2 3 4 5 6 
#
# 1 0.008891 -0.000465 -0.002978 0.000000 -0.002492 0.000000
# 2 -0.000465 0.111643 -0.001607 0.000000 -0.038745 0.000000
# 3 -0.002978 -0.001607 0.010887 0.000000 -0.001237 0.000000
# 4 0.000000 0.000000 0.000000 0.032558 0.000000 -0.002993
# 5 -0.002492 -0.038745 -0.001237 0.000000 0.040575 0.000000
# 6 0.000000 0.000000 0.000000 -0.002993 0.000000 0.060270
#
#
# Mechanical properties :
#
#
# Convention : Reuss Voigt Hill
#
# Bulk Modulus (GPa) = 8.24260 38.64898 23.44579
# Shear Modulus (GPa) = 15.85467 30.52095 23.18781
#
# Velocity S-wave (km/s) = 2.74444 3.80780 3.31898
# Velocity P-wave (km/s) = 3.73608 6.13947 5.08190
#
# Compressibility (1/GPa) = 0.12132095
#
# Stress axis : x y z
#
# Youngs Moduli (GPa) = 112.47442 8.95715 91.85150
#
# Poissons Ratio (x) = 0.00417 0.27353
# Poissons Ratio (y) = 0.05234 0.14757
# Poissons Ratio (z) = 0.33494 0.01439
#
# Static dielectric constant tensor:
#      x y z
#    x 1.857200 0.000000 0.025670 
#    y 0.000000 1.815330 0.000000 
#    z 0.025670 0.000000 1.798340 
# 
# From -- ./inp_files/58979.got.cif
#   From: 2010.05.17/outbox.cif.g08.bks.cpg/sg14_30_cif.got.tgz:58979.got - 2010.06.03 17:49:19.
