data_PCOD9241528
_publ_section_title
;
Structure prediction by ZEFSAII (Michael W. Deem and Ramdas Pophale) SiO2 
 PCOD9241528
Probable space group: P 21/C
;
_chemical_formula_sum "Si O2"
_cell_formula_units_Z 28
_cell_length_a 8.311043
_cell_length_b 12.679288
_cell_length_c 13.205984
_cell_angle_alpha 90.000000
_cell_angle_beta 67.308402
_cell_angle_gamma 90.000000
_cell_volume 1283.902675
_symmetry_space_group_name_H-M "P 21/C"
_symmetry_group_IT_number 14
_symmetry_cell_setting 'monoclinic'
loop_
_space_group_symop_operation_xyz
x,y,z
-x,1/2+y,1/2-z
-x,-y,-z
x,1/2-y,1/2+z
loop_
_atom_site_type_symbol
_atom_site_label
_atom_site_fract_x
_atom_site_fract_y
_atom_site_fract_z
Si Si1 0.045523 0.077580 0.673618
Si Si2 0.964891 0.794086 0.526498
Si Si3 0.725207 0.957033 0.698320
Si Si4 0.208499 0.110546 0.840606
Si Si5 0.280899 0.620008 0.083881
Si Si6 0.434376 0.662015 0.857348
Si Si7 0.348230 0.882016 0.804807
O O1 0.011800 0.159549 0.591700
O O2 0.093715 0.127442 0.767985
O O3 0.876707 0.003538 0.731607
O O4 0.202696 0.998703 0.603674
O O5 0.886811 0.676782 0.549725
O O6 0.126081 0.814842 0.565091
O O7 0.813320 0.866998 0.611161
O O8 0.671549 0.057032 0.644238
O O9 0.545457 0.915315 0.786090
O O10 0.396394 0.154774 0.755807
O O11 0.233609 0.985883 0.856032
O O12 0.323821 0.639267 0.190710
O O13 0.450334 0.646556 0.974378
O O14 0.330150 0.769362 0.861243
#
# Coordination Sequence:
#
# PCOD9241528 Si02
#       7
#     4   4   4   4   4   4   4
#     4  10  20  38  61  90 116 152 205 248 284 353
#     4  11  19  38  58  92 117 152 195 256 286 350
#     4  10  19  36  60  86 114 149 194 248 291 335
#     4  10  24  35  61  88 121 156 197 239 310 343
#     4  10  21  35  62  87 115 157 205 237 297 342
#     4  11  20  37  59  87 118 157 194 250 287 353
#     4  10  23  38  59  90 123 154 199 245 296 358
#
# _framework density 21.808506999999999
#
# number of rings (size 3 to 8) (size 9 to 14) (size 15 to 20)
#    0.000    1.714    4.286    0.857    4.000    1.714 
#    0.000    0.714    3.143    2.571    0.000    0.000 
#    0.000    0.000    0.000    0.000    0.000    0.000 
#
# Total GULP energy -156110.694125 kJ/mol
# GULP energy per Si atom -5575.381933 kJ/mol
# Density = 2.175887 g / cm^3
# Si number density = 21.808507 Si / 1000 Ang^3
#
#
#
# Elastic Constant Matrix: (Units=GPa)
#
#
# Indices 1 2 3 4 5 6 
#
# 1 62.7928 9.3843 11.3458 0.0000 -0.7278 0.0000
# 2 9.3843 107.1859 30.0452 0.0000 -1.5269 0.0000
# 3 11.3458 30.0452 35.3950 0.0000 0.0104 0.0000
# 4 0.0000 0.0000 0.0000 33.1991 0.0000 -7.3087
# 5 -0.7278 -1.5269 0.0104 0.0000 15.4500 0.0000
# 6 0.0000 0.0000 0.0000 -7.3087 0.0000 28.6724
#
#
#
# Elastic Compliance Matrix: (Units=1/GPa)
#
#
# Indices 1 2 3 4 5 6 
#
# 1 0.016915 0.000066 -0.005478 0.000000 0.000807 0.000000
# 2 0.000066 0.012266 -0.010433 0.000000 0.001222 0.000000
# 3 -0.005478 -0.010433 0.038866 0.000000 -0.001315 0.000000
# 4 0.000000 0.000000 0.000000 0.031912 0.000000 0.008134
# 5 0.000807 0.001222 -0.001315 0.000000 0.064884 0.000000
# 6 0.000000 0.000000 0.000000 0.008134 0.000000 0.036950
#
#
# Mechanical properties :
#
#
# Convention : Reuss Voigt Hill
#
# Bulk Modulus (GPa) = 27.50672 34.10268 30.80470
# Shear Modulus (GPa) = 20.35809 25.77086 23.06447
#
# Velocity S-wave (km/s) = 3.05863 3.44130 3.25559
# Velocity P-wave (km/s) = 5.01137 5.60904 5.31861
#
# Compressibility (1/GPa) = 0.03635476
#
# Stress axis : x y z
#
# Youngs Moduli (GPa) = 59.12002 81.52756 25.72969
#
# Poissons Ratio (x) = -0.00540 0.14096
# Poissons Ratio (y) = -0.00392 0.26845
# Poissons Ratio (z) = 0.32389 0.85061
#
# Static dielectric constant tensor:
#      x y z
#    x 1.840940 0.000000 -0.061180 
#    y 0.000000 1.796800 0.000000 
#    z -0.061180 0.000000 1.816880 
# 
# From -- ./inp_files/25588.got.cif
#   From: 2010.05.17/outbox.cif.g08.bks.cpg/sg14_13_cif.got.tgz:25588.got - 2010.06.03 17:49:19.
