data_PCOD9241295
_publ_section_title
;
Structure prediction by ZEFSAII (Michael W. Deem and Ramdas Pophale) SiO2 
 PCOD9241295
Probable space group: P 21/C
;
_chemical_formula_sum "Si O2"
_cell_formula_units_Z 28
_cell_length_a 10.554923
_cell_length_b 9.570074
_cell_length_c 18.716179
_cell_angle_alpha 90.000000
_cell_angle_beta 39.735929
_cell_angle_gamma 90.000000
_cell_volume 1208.532698
_symmetry_space_group_name_H-M "P 21/C"
_symmetry_group_IT_number 14
_symmetry_cell_setting 'monoclinic'
loop_
_space_group_symop_operation_xyz
x,y,z
-x,1/2+y,1/2-z
-x,-y,-z
x,1/2-y,1/2+z
loop_
_atom_site_type_symbol
_atom_site_label
_atom_site_fract_x
_atom_site_fract_y
_atom_site_fract_z
Si Si1 0.375211 0.143999 0.058701
Si Si2 0.857824 0.305396 0.530215
Si Si3 0.189907 0.392134 0.489932
Si Si4 0.978695 0.495386 0.232497
Si Si5 0.405788 0.660745 0.747226
Si Si6 0.737229 0.276818 0.844551
Si Si7 0.080759 0.051561 0.389100
O O1 0.207378 0.106165 0.188991
O O2 0.245342 0.162964 0.043292
O O3 0.546299 0.260843 0.979875
O O4 0.500000 0.000000 0.000000
O O5 0.799703 0.440800 0.511776
O O6 0.671257 0.228196 0.646245
O O7 0.982257 0.350451 0.546623
O O8 0.005385 0.209309 0.420849
O O9 0.360251 0.345354 0.361407
O O10 0.891096 0.349010 0.297516
O O11 0.032530 0.475586 0.126477
O O12 0.153767 0.574908 0.196939
O O13 0.333242 0.738759 0.705660
O O14 0.303987 0.507068 0.788900
O O15 0.000000 0.000000 0.500000
#
# Coordination Sequence:
#
# PCOD9241295 Si02
#       7
#     4   4   4   4   4   4   4
#     4   9  19  35  57  82 114 152 192 233 294 351
#     4  10  21  35  57  85 115 148 201 240 284 351
#     4  10  21  35  57  89 112 149 197 249 281 348
#     4  10  19  35  59  84 115 153 195 239 289 347
#     4   9  19  38  56  79 119 157 187 237 308 342
#     4   9  19  35  58  85 114 157 194 239 293 349
#     4   9  20  37  55  81 114 156 189 232 296 349
#
# _framework density 23.168589999999998
#
# number of rings (size 3 to 8) (size 9 to 14) (size 15 to 20)
#    0.000    2.571    0.000    1.714    6.000    0.000 
#    0.000    0.714    0.000    0.000    0.000    0.000 
#    0.000    0.000    0.000    0.000    0.000    0.000 
#
# Total GULP energy -156169.274009 kJ/mol
# GULP energy per Si atom -5577.474072 kJ/mol
# Density = 2.311586 g / cm^3
# Si number density = 23.168590 Si / 1000 Ang^3
#
#
#
# Elastic Constant Matrix: (Units=GPa)
#
#
# Indices 1 2 3 4 5 6 
#
# 1 41.3562 7.4425 12.0324 0.0000 2.4664 0.0000
# 2 7.4425 49.7557 0.3924 0.0000 -6.6115 0.0000
# 3 12.0324 0.3924 63.1357 0.0000 4.7187 0.0000
# 4 0.0000 0.0000 0.0000 27.7950 0.0000 -7.8986
# 5 2.4664 -6.6115 4.7187 0.0000 24.6879 0.0000
# 6 0.0000 0.0000 0.0000 -7.8986 0.0000 15.0139
#
#
#
# Elastic Compliance Matrix: (Units=1/GPa)
#
#
# Indices 1 2 3 4 5 6 
#
# 1 0.026529 -0.004314 -0.004813 0.000000 -0.002886 0.000000
# 2 -0.004314 0.021560 0.000228 0.000000 0.006161 0.000000
# 3 -0.004813 0.000228 0.016957 0.000000 -0.002699 0.000000
# 4 0.000000 0.000000 0.000000 0.042302 0.000000 0.022254
# 5 -0.002886 0.006161 -0.002699 0.000000 0.042960 0.000000
# 6 0.000000 0.000000 0.000000 0.022254 0.000000 0.078313
#
#
# Mechanical properties :
#
#
# Convention : Reuss Voigt Hill
#
# Bulk Modulus (GPa) = 21.16539 21.55356 21.35948
# Shear Modulus (GPa) = 19.07170 22.45804 20.76487
#
# Velocity S-wave (km/s) = 2.87221 3.11679 2.99699
# Velocity P-wave (km/s) = 4.48939 4.71970 4.60599
#
# Compressibility (1/GPa) = 0.04724694
#
# Stress axis : x y z
#
# Youngs Moduli (GPa) = 37.69460 46.38136 58.97419
#
# Poissons Ratio (x) = 0.20007 0.28387
# Poissons Ratio (y) = 0.16260 -0.01342
# Poissons Ratio (z) = 0.18144 -0.01056
#
# Static dielectric constant tensor:
#      x y z
#    x 1.917940 0.000000 0.047890 
#    y 0.000000 1.939800 0.000000 
#    z 0.047890 0.000000 1.917150 
# 
# From -- ./inp_files/73238.got.cif
#   From: 2010.05.17/outbox.cif.g08.bks.cpg/sg14_37_cif.got.tgz:73238.got - 2010.06.03 17:49:19.
