data_PCOD9241844
_publ_section_title
;
Structure prediction by ZEFSAII (Michael W. Deem and Ramdas Pophale) SiO2 
 PCOD9241844
Probable space group: P 21/C
;
_chemical_formula_sum "Si O2"
_cell_formula_units_Z 28
_cell_length_a 13.446557
_cell_length_b 8.501764
_cell_length_c 20.248651
_cell_angle_alpha 90.000000
_cell_angle_beta 35.802843
_cell_angle_gamma 90.000000
_cell_volume 1354.161801
_symmetry_space_group_name_H-M "P 21/C"
_symmetry_group_IT_number 14
_symmetry_cell_setting 'monoclinic'
loop_
_space_group_symop_operation_xyz
x,y,z
-x,1/2+y,1/2-z
-x,-y,-z
x,1/2-y,1/2+z
loop_
_atom_site_type_symbol
_atom_site_label
_atom_site_fract_x
_atom_site_fract_y
_atom_site_fract_z
Si Si1 0.889162 0.803963 0.575125
Si Si2 0.082917 0.564558 0.847498
Si Si3 0.182080 0.592858 0.255678
Si Si4 0.138828 0.620646 0.533018
Si Si5 0.403409 0.394313 0.330560
Si Si6 0.523624 0.564842 0.145181
Si Si7 0.819175 0.083377 0.400032
O O1 0.750576 0.678681 0.629314
O O2 0.942912 0.891202 0.478898
O O3 0.055387 0.721398 0.517844
O O4 0.819307 0.924870 0.667780
O O5 0.172393 0.724992 0.781387
O O6 0.993151 0.497094 0.831054
O O7 0.345439 0.527795 0.205700
O O8 0.201020 0.579714 0.167036
O O9 0.007998 0.505245 0.370014
O O10 0.311624 0.533295 0.420191
O O11 0.172993 0.741513 0.573917
O O12 0.534549 0.466854 0.207613
O O13 0.467671 0.249029 0.339801
O O14 0.670762 0.512382 0.016547
#
# Coordination Sequence:
#
# PCOD9241844 Si02
#       7
#     4   4   4   4   4   4   4
#     4  10  19  37  65  93 119 147 206 268 306 355
#     4  10  21  38  66  91 118 158 210 259 307 353
#     4  12  23  41  64  90 126 167 210 247 299 371
#     4  11  22  41  67  93 118 163 212 257 305 361
#     4  12  23  41  64  92 125 156 203 261 320 361
#     4  12  26  40  62  93 130 162 199 258 321 363
#     4  11  24  43  60  89 129 170 205 246 300 376
#
# _framework density 20.676995999999999
#
# number of rings (size 3 to 8) (size 9 to 14) (size 15 to 20)
#    0.000    0.857    4.286    3.429    2.000    0.000 
#    0.000    0.714    0.000    0.000    0.000    0.000 
#    0.000    0.000    0.000    0.000    0.000    0.000 
#
# Total GULP energy -156563.479064 kJ/mol
# GULP energy per Si atom -5591.552824 kJ/mol
# Density = 2.062993 g / cm^3
# Si number density = 20.676996 Si / 1000 Ang^3
#
#
#
# Elastic Constant Matrix: (Units=GPa)
#
#
# Indices 1 2 3 4 5 6 
#
# 1 93.8044 9.9264 22.9966 0.0000 15.5863 0.0000
# 2 9.9264 69.6935 6.4866 0.0000 13.3683 0.0000
# 3 22.9966 6.4866 53.0329 0.0000 17.7827 0.0000
# 4 0.0000 0.0000 0.0000 23.4791 0.0000 0.0862
# 5 15.5863 13.3683 17.7827 0.0000 14.9732 0.0000
# 6 0.0000 0.0000 0.0000 0.0862 0.0000 20.8210
#
#
#
# Elastic Compliance Matrix: (Units=1/GPa)
#
#
# Indices 1 2 3 4 5 6 
#
# 1 0.013017 0.000632 -0.001644 0.000000 -0.012162 0.000000
# 2 0.000632 0.018214 0.005270 0.000000 -0.023179 0.000000
# 3 -0.001644 0.005270 0.033116 0.000000 -0.042325 0.000000
# 4 0.000000 0.000000 0.000000 0.042592 0.000000 -0.000176
# 5 -0.012162 -0.023179 -0.042325 0.000000 0.150407 0.000000
# 6 0.000000 0.000000 0.000000 -0.000176 0.000000 0.048029
#
#
# Mechanical properties :
#
#
# Convention : Reuss Voigt Hill
#
# Bulk Modulus (GPa) = 13.72402 32.81665 23.27033
# Shear Modulus (GPa) = 15.56920 23.66275 19.61597
#
# Velocity S-wave (km/s) = 2.74701 3.38657 3.08342
# Velocity P-wave (km/s) = 4.08817 5.58546 4.89441
#
# Compressibility (1/GPa) = 0.07286493
#
# Stress axis : x y z
#
# Youngs Moduli (GPa) = 76.81978 54.90265 30.19645
#
# Poissons Ratio (x) = -0.03469 0.04964
# Poissons Ratio (y) = -0.04854 -0.15915
# Poissons Ratio (z) = 0.12628 -0.28936
#
# Static dielectric constant tensor:
#      x y z
#    x 1.717020 0.000000 -0.026110 
#    y 0.000000 1.768230 0.000000 
#    z -0.026110 0.000000 1.715450 
# 
# From -- ./inp_files/68175.got.cif
#   From: 2010.05.17/outbox.cif.g08.bks.cpg/sg14_35_cif.got.tgz:68175.got - 2010.06.03 17:49:19.
