data_PCOD9241801
_publ_section_title
;
Structure prediction by ZEFSAII (Michael W. Deem and Ramdas Pophale) SiO2 
 PCOD9241801
Probable space group: P 21/C
;
_chemical_formula_sum "Si O2"
_cell_formula_units_Z 32
_cell_length_a 8.782732
_cell_length_b 13.080798
_cell_length_c 25.252890
_cell_angle_alpha 90.000000
_cell_angle_beta 33.967788
_cell_angle_gamma 90.000000
_cell_volume 1620.967854
_symmetry_space_group_name_H-M "P 21/C"
_symmetry_group_IT_number 14
_symmetry_cell_setting 'monoclinic'
loop_
_space_group_symop_operation_xyz
x,y,z
-x,1/2+y,1/2-z
-x,-y,-z
x,1/2-y,1/2+z
loop_
_atom_site_type_symbol
_atom_site_label
_atom_site_fract_x
_atom_site_fract_y
_atom_site_fract_z
Si Si1 0.790503 0.000381 0.637009
Si Si2 0.221115 0.547320 0.101211
Si Si3 0.150771 0.651795 0.483861
Si Si4 0.871786 0.842154 0.523781
Si Si5 0.362315 0.007548 0.848569
Si Si6 0.602818 0.600721 0.439838
Si Si7 0.847924 0.457242 0.292814
Si Si8 0.427772 0.762673 0.081097
O O1 0.943423 0.102947 0.573890
O O2 0.757135 0.929842 0.595229
O O3 0.511339 0.013709 0.749519
O O4 0.997473 0.950322 0.619446
O O5 0.276146 0.661571 0.105155
O O6 0.105074 0.474073 0.181067
O O7 0.500000 0.500000 0.000000
O O8 0.253608 0.603296 0.398552
O O9 0.379231 0.638084 0.462256
O O10 0.062951 0.767246 0.501827
O O11 0.890282 0.584161 0.575427
O O12 0.631220 0.774673 0.568290
O O13 0.585276 0.033552 0.829541
O O14 0.500000 0.500000 0.500000
O O15 0.844215 0.552718 0.334968
O O16 0.617166 0.687186 0.480407
O O17 0.789057 0.349750 0.338679
#
# Coordination Sequence:
#
# PCOD9241801 Si02
#       8
#     4   4   4   4   4   4   4   4
#     4  10  23  42  57  88 126 160 202 259 299 371
#     4  11  22  40  62  87 126 168 201 253 315 367
#     4  10  19  37  63  91 117 161 201 253 304 359
#     4  11  22  39  63  88 123 160 209 252 303 371
#     4   9  19  37  63  87 121 155 203 253 299 354
#     4   9  20  38  61  92 124 154 201 257 307 363
#     4   9  20  40  61  91 127 153 212 262 292 372
#     4  11  21  40  63  93 120 169 203 252 323 360
#
# _framework density 19.741292000000001
#
# number of rings (size 3 to 8) (size 9 to 14) (size 15 to 20)
#    0.000    2.000    2.500    0.750    1.750    2.000 
#    4.500    2.500    0.000    0.000    0.000    0.000 
#    0.000    0.000    0.000    0.000    0.000    0.000 
#
# Total GULP energy -178530.281431 kJ/mol
# GULP energy per Si atom -5579.071295 kJ/mol
# Density = 1.969636 g / cm^3
# Si number density = 19.741292 Si / 1000 Ang^3
#
#
#
# Elastic Constant Matrix: (Units=GPa)
#
#
# Indices 1 2 3 4 5 6 
#
# 1 41.2999 18.8452 11.7981 0.0000 8.0160 0.0000
# 2 18.8452 97.6299 28.2641 0.0000 2.7457 0.0000
# 3 11.7981 28.2641 127.5290 0.0000 8.8297 0.0000
# 4 0.0000 0.0000 0.0000 14.2564 0.0000 12.3132
# 5 8.0160 2.7457 8.8297 0.0000 21.8835 0.0000
# 6 0.0000 0.0000 0.0000 12.3132 0.0000 19.0924
#
#
#
# Elastic Compliance Matrix: (Units=1/GPa)
#
#
# Indices 1 2 3 4 5 6 
#
# 1 0.028586 -0.004996 -0.000880 0.000000 -0.009489 0.000000
# 2 -0.004996 0.011822 -0.002245 0.000000 0.001253 0.000000
# 3 -0.000880 -0.002245 0.008619 0.000000 -0.002874 0.000000
# 4 0.000000 0.000000 0.000000 0.158347 0.000000 -0.102122
# 5 -0.009489 0.001253 -0.002874 0.000000 0.050175 0.000000
# 6 0.000000 0.000000 0.000000 -0.102122 0.000000 0.118238
#
#
# Mechanical properties :
#
#
# Convention : Reuss Voigt Hill
#
# Bulk Modulus (GPa) = 30.50173 42.69709 36.59941
# Shear Modulus (GPa) = 12.40826 24.88321 18.64573
#
# Velocity S-wave (km/s) = 2.50980 3.55415 3.07661
# Velocity P-wave (km/s) = 4.88703 6.20628 5.58574
#
# Compressibility (1/GPa) = 0.03278503
#
# Stress axis : x y z
#
# Youngs Moduli (GPa) = 34.98202 84.58995 116.01987
#
# Poissons Ratio (x) = 0.42263 0.10213
# Poissons Ratio (y) = 0.17478 0.26041
# Poissons Ratio (z) = 0.03079 0.18987
#
# Static dielectric constant tensor:
#      x y z
#    x 1.696730 0.000000 0.020320 
#    y 0.000000 1.681230 0.000000 
#    z 0.020320 0.000000 1.700250 
# 
# From -- ./inp_files/72344.got.cif
#   From: 2010.05.17/outbox.cif.g08.bks.cpg/sg14_37_cif.got.tgz:72344.got - 2010.06.03 17:49:19.
