data_PCOD9241601
_publ_section_title
;
Structure prediction by ZEFSAII (Michael W. Deem and Ramdas Pophale) SiO2 
 PCOD9241601
Probable space group: P 21/C
;
_chemical_formula_sum "Si O2"
_cell_formula_units_Z 16
_cell_length_a 7.701347
_cell_length_b 5.128373
_cell_length_c 21.624254
_cell_angle_alpha 90.000000
_cell_angle_beta 132.123126
_cell_angle_gamma 90.000000
_cell_volume 633.459338
_symmetry_space_group_name_H-M "P 21/C"
_symmetry_group_IT_number 14
_symmetry_cell_setting 'monoclinic'
loop_
_space_group_symop_operation_xyz
x,y,z
-x,1/2+y,1/2-z
-x,-y,-z
x,1/2-y,1/2+z
loop_
_atom_site_type_symbol
_atom_site_label
_atom_site_fract_x
_atom_site_fract_y
_atom_site_fract_z
Si Si1 0.622181 0.179635 0.299907
Si Si2 0.862693 0.975029 0.623580
Si Si3 0.731568 0.945806 0.452110
Si Si4 0.608665 0.029358 0.094555
O O1 0.566278 0.478232 0.272817
O O2 0.617614 0.119898 0.371692
O O3 0.870916 0.095893 0.329418
O O4 0.744224 0.742359 0.633822
O O5 0.733743 0.004363 0.525623
O O6 0.808114 0.246936 0.643311
O O7 0.606731 0.662407 0.419110
O O8 0.000000 0.000000 0.500000
O O9 0.500000 0.000000 0.000000
#
# Coordination Sequence:
#
# PCOD9241601 Si02
#       4
#     4   4   4   4
#     4  11  24  41  60  88 126 166 207 256 310 372
#     4  10  21  39  63  90 119 157 205 259 310 366
#     4   9  20  38  63  90 119 159 206 253 306 366
#     4  10  19  36  62  92 119 152 203 262 310 362
#
# _framework density 25.258130000000001
#
# number of rings (size 3 to 8) (size 9 to 14) (size 15 to 20)
#    0.000    2.000    0.000    4.500    0.000    6.000 
#    0.000   26.250    0.000    0.000    0.000    0.000 
#    0.000    0.000    0.000    0.000    0.000    0.000 
#
# Total GULP energy -89330.788338 kJ/mol
# GULP energy per Si atom -5583.174271 kJ/mol
# Density = 2.520064 g / cm^3
# Si number density = 25.258130 Si / 1000 Ang^3
#
#
#
# Elastic Constant Matrix: (Units=GPa)
#
#
# Indices 1 2 3 4 5 6 
#
# 1 184.9904 58.4450 27.9843 0.0000 45.7538 0.0000
# 2 58.4450 109.2978 -13.1442 0.0000 10.1431 0.0000
# 3 27.9843 -13.1442 53.1931 0.0000 5.9536 0.0000
# 4 0.0000 0.0000 0.0000 19.3062 0.0000 -3.5162
# 5 45.7538 10.1431 5.9536 0.0000 31.4883 0.0000
# 6 0.0000 0.0000 0.0000 -3.5162 0.0000 43.8074
#
#
#
# Elastic Compliance Matrix: (Units=1/GPa)
#
#
# Indices 1 2 3 4 5 6 
#
# 1 0.011438 -0.005546 -0.005852 0.000000 -0.013727 0.000000
# 2 -0.005546 0.012525 0.005683 0.000000 0.002950 0.000000
# 3 -0.005852 0.005683 0.023023 0.000000 0.002319 0.000000
# 4 0.000000 0.000000 0.000000 0.052565 0.000000 0.004219
# 5 -0.013727 0.002950 0.002319 0.000000 0.050316 0.000000
# 6 0.000000 0.000000 0.000000 0.004219 0.000000 0.023166
#
#
# Mechanical properties :
#
#
# Convention : Reuss Voigt Hill
#
# Bulk Modulus (GPa) = 28.12557 54.89461 41.51009
# Shear Modulus (GPa) = 25.46933 37.20013 31.33473
#
# Velocity S-wave (km/s) = 3.17892 3.84187 3.52601
# Velocity P-wave (km/s) = 4.96321 6.43899 5.74865
#
# Compressibility (1/GPa) = 0.03555483
#
# Stress axis : x y z
#
# Youngs Moduli (GPa) = 87.42512 79.84243 43.43576
#
# Poissons Ratio (x) = 0.44282 0.25417
# Poissons Ratio (y) = 0.48488 -0.24682
# Poissons Ratio (z) = 0.51158 -0.45371
#
# Static dielectric constant tensor:
#      x y z
#    x 1.871020 0.000000 -0.365370 
#    y 0.000000 1.794590 0.000000 
#    z -0.365370 0.000000 1.267220 
# 
# From -- ./inp_files/75915.got.cif
#   From: 2010.05.17/outbox.cif.g08.bks.cpg/sg14_38_cif.got.tgz:75915.got - 2010.06.03 17:49:19.
