data_PCOD9241290
_publ_section_title
;
Structure prediction by ZEFSAII (Michael W. Deem and Ramdas Pophale) SiO2 
 PCOD9241290
Probable space group: P 21/C
;
_chemical_formula_sum "Si O2"
_cell_formula_units_Z 20
_cell_length_a 6.985177
_cell_length_b 8.483837
_cell_length_c 19.781530
_cell_angle_alpha 90.000000
_cell_angle_beta 53.395163
_cell_angle_gamma 90.000000
_cell_volume 941.064078
_symmetry_space_group_name_H-M "P 21/C"
_symmetry_group_IT_number 14
_symmetry_cell_setting 'monoclinic'
loop_
_space_group_symop_operation_xyz
x,y,z
-x,1/2+y,1/2-z
-x,-y,-z
x,1/2-y,1/2+z
loop_
_atom_site_type_symbol
_atom_site_label
_atom_site_fract_x
_atom_site_fract_y
_atom_site_fract_z
Si Si1 0.495900 0.125677 0.060979
Si Si2 0.743963 0.436370 0.985185
Si Si3 0.421155 0.594513 0.700314
Si Si4 0.457836 0.051669 0.340351
Si Si5 0.884199 0.604711 0.832777
O O1 0.706545 0.250634 0.001904
O O2 0.255548 0.233987 0.117652
O O3 0.516148 0.032787 0.126935
O O4 0.500000 0.000000 0.000000
O O5 0.735428 0.506370 0.061876
O O6 0.500000 0.500000 0.000000
O O7 0.926160 0.500347 0.891716
O O8 0.547615 0.761588 0.666307
O O9 0.445007 0.531077 0.770977
O O10 0.140620 0.627227 0.745700
O O11 0.705926 0.989939 0.321374
#
# Coordination Sequence:
#
# PCOD9241290 Si02
#       5
#     4   4   4   4   4
#     4  10  19  35  59  83 113 150 184 228 285 334
#     4   8  17  36  56  78 112 148 180 225 279 328
#     4  12  22  36  60  85 113 149 189 234 278 332
#     4  10  21  37  56  83 116 146 185 232 282 330
#     4  10  21  38  61  84 111 149 190 231 278 333
#
# _framework density 21.252538000000001
#
# number of rings (size 3 to 8) (size 9 to 14) (size 15 to 20)
#    0.000    2.400    0.000    7.200    0.000    0.800 
#    0.000    2.000    0.000   19.200    0.000    0.000 
#    0.000    0.000    0.000    0.000    0.000    0.000 
#
# Total GULP energy -111641.384546 kJ/mol
# GULP energy per Si atom -5582.069227 kJ/mol
# Density = 2.120417 g / cm^3
# Si number density = 21.252538 Si / 1000 Ang^3
#
#
#
# Elastic Constant Matrix: (Units=GPa)
#
#
# Indices 1 2 3 4 5 6 
#
# 1 48.9606 20.4819 32.1379 0.0000 26.2474 0.0000
# 2 20.4819 179.9684 69.7578 0.0000 17.1801 0.0000
# 3 32.1379 69.7578 114.5716 0.0000 39.4150 0.0000
# 4 0.0000 0.0000 0.0000 49.8397 0.0000 15.8768
# 5 26.2474 17.1801 39.4150 0.0000 34.6694 0.0000
# 6 0.0000 0.0000 0.0000 15.8768 0.0000 14.0913
#
#
#
# Elastic Compliance Matrix: (Units=1/GPa)
#
#
# Indices 1 2 3 4 5 6 
#
# 1 0.034767 -0.001496 -0.000068 0.000000 -0.025502 0.000000
# 2 -0.001496 0.007456 -0.005319 0.000000 0.003484 0.000000
# 3 -0.000068 -0.005319 0.018166 0.000000 -0.017966 0.000000
# 4 0.000000 0.000000 0.000000 0.031298 0.000000 -0.035264
# 5 -0.025502 0.003484 -0.017966 0.000000 0.066849 0.000000
# 6 0.000000 0.000000 0.000000 -0.035264 0.000000 0.110698
#
#
# Mechanical properties :
#
#
# Convention : Reuss Voigt Hill
#
# Bulk Modulus (GPa) = 21.44854 65.36175 43.40515
# Shear Modulus (GPa) = 16.74821 34.46160 25.60490
#
# Velocity S-wave (km/s) = 2.81028 4.03119 3.47478
# Velocity P-wave (km/s) = 4.54361 7.24492 6.04703
#
# Compressibility (1/GPa) = 0.04662322
#
# Stress axis : x y z
#
# Youngs Moduli (GPa) = 28.76322 134.12588 55.04768
#
# Poissons Ratio (x) = 0.20063 0.00375
# Poissons Ratio (y) = 0.04303 0.29278
# Poissons Ratio (z) = 0.00196 0.71336
#
# Static dielectric constant tensor:
#      x y z
#    x 1.822500 0.000000 -0.039410 
#    y 0.000000 1.741650 0.000000 
#    z -0.039410 0.000000 1.784020 
# 
# From -- ./inp_files/54442.got.cif
#   From: 2010.05.17/outbox.cif.g08.bks.cpg/sg14_28_cif.got.tgz:54442.got - 2010.06.03 17:49:19.
