data_PCOD9241145
_publ_section_title
;
Structure prediction by ZEFSAII (Michael W. Deem and Ramdas Pophale) SiO2 
 PCOD9241145
Probable space group: P 21/C
;
_chemical_formula_sum "Si O2"
_cell_formula_units_Z 32
_cell_length_a 30.177467
_cell_length_b 5.245328
_cell_length_c 18.033065
_cell_angle_alpha 90.000000
_cell_angle_beta 32.065043
_cell_angle_gamma 90.000000
_cell_volume 1515.383965
_symmetry_space_group_name_H-M "P 21/C"
_symmetry_group_IT_number 14
_symmetry_cell_setting 'monoclinic'
loop_
_space_group_symop_operation_xyz
x,y,z
-x,1/2+y,1/2-z
-x,-y,-z
x,1/2-y,1/2+z
loop_
_atom_site_type_symbol
_atom_site_label
_atom_site_fract_x
_atom_site_fract_y
_atom_site_fract_z
Si Si1 0.293608 0.952487 0.642116
Si Si2 0.817742 0.950172 0.945366
Si Si3 0.159539 0.732308 0.941137
Si Si4 0.391533 0.051327 0.053477
Si Si5 0.288999 0.729476 0.988416
Si Si6 0.294952 0.080734 0.327343
Si Si7 0.988251 0.790472 0.220276
Si Si8 0.524296 0.254008 0.258099
O O1 0.212398 0.889981 0.806784
O O2 0.359071 0.723586 0.570802
O O3 0.275340 0.936318 0.580932
O O4 0.330809 0.225592 0.609522
O O5 0.787875 0.079387 0.912600
O O6 0.893079 0.752198 0.828231
O O7 0.847668 0.133888 0.968298
O O8 0.731225 0.851601 0.104302
O O9 0.218636 0.495854 0.879940
O O10 0.062297 0.706717 0.059012
O O11 0.377705 0.057557 0.161474
O O12 0.479966 0.137708 0.894863
O O13 0.293746 0.583028 0.903621
O O14 0.381467 0.843214 0.866483
O O15 0.000833 0.582003 0.268810
O O16 0.523419 0.508519 0.207689
#
# Coordination Sequence:
#
# PCOD9241145 Si02
#       8
#     4   4   4   4   4   4   4   4
#     4  11  22  39  64  90 121 166 209 249 304 374
#     4  10  20  37  58  92 125 160 200 259 312 359
#     4   9  19  37  61  91 118 164 211 248 296 369
#     4  11  22  42  64  89 120 163 213 253 298 371
#     4  11  25  38  62  91 126 167 198 264 318 363
#     4  10  21  38  62  90 128 155 205 257 314 358
#     4  10  19  34  61  91 120 159 207 253 296 363
#     4  12  24  43  64  91 121 163 214 254 302 375
#
# _framework density 21.116761
#
# number of rings (size 3 to 8) (size 9 to 14) (size 15 to 20)
#    0.000    1.500    5.000    0.000    3.500    0.500 
#    0.000    1.250    0.000    0.750    0.000    0.000 
#    0.000    0.000    0.000    0.000    0.000    0.000 
#
# Total GULP energy -178254.898159 kJ/mol
# GULP energy per Si atom -5570.465567 kJ/mol
# Density = 2.106870 g / cm^3
# Si number density = 21.116761 Si / 1000 Ang^3
#
#
#
# Elastic Constant Matrix: (Units=GPa)
#
#
# Indices 1 2 3 4 5 6 
#
# 1 58.5303 8.4832 18.1056 0.0000 6.9127 0.0000
# 2 8.4832 66.7258 -13.0045 0.0000 1.6734 0.0000
# 3 18.1056 -13.0045 82.6821 0.0000 -3.6389 0.0000
# 4 0.0000 0.0000 0.0000 34.6208 0.0000 0.0456
# 5 6.9127 1.6734 -3.6389 0.0000 21.0825 0.0000
# 6 0.0000 0.0000 0.0000 0.0456 0.0000 11.9820
#
#
#
# Elastic Compliance Matrix: (Units=1/GPa)
#
#
# Indices 1 2 3 4 5 6 
#
# 1 0.020049 -0.003390 -0.005241 0.000000 -0.007209 0.000000
# 2 -0.003390 0.016048 0.003284 0.000000 0.000404 0.000000
# 3 -0.005241 0.003284 0.013929 0.000000 0.003862 0.000000
# 4 0.000000 0.000000 0.000000 0.028885 0.000000 -0.000110
# 5 -0.007209 0.000404 0.003862 0.000000 0.050431 0.000000
# 6 0.000000 0.000000 0.000000 -0.000110 0.000000 0.083459
#
#
# Mechanical properties :
#
#
# Convention : Reuss Voigt Hill
#
# Bulk Modulus (GPa) = 25.42409 26.12298 25.77353
# Shear Modulus (GPa) = 21.13247 26.49399 23.81323
#
# Velocity S-wave (km/s) = 3.16689 3.54594 3.36176
# Velocity P-wave (km/s) = 5.04362 5.40023 5.22497
#
# Compressibility (1/GPa) = 0.03933278
#
# Stress axis : x y z
#
# Youngs Moduli (GPa) = 49.87763 62.31487 71.79463
#
# Poissons Ratio (x) = 0.21122 0.37626
# Poissons Ratio (y) = 0.16906 -0.23578
# Poissons Ratio (z) = 0.26140 -0.20465
#
# Static dielectric constant tensor:
#      x y z
#    x 1.836770 0.000000 -0.058090 
#    y 0.000000 1.815290 0.000000 
#    z -0.058090 0.000000 1.865950 
# 
# From -- ./inp_files/62452.got.cif
#   From: 2010.05.17/outbox.cif.g08.bks.cpg/sg14_32_cif.got.tgz:62452.got - 2010.06.03 17:49:19.
