data_PCOD9241345
_publ_section_title
;
Structure prediction by ZEFSAII (Michael W. Deem and Ramdas Pophale) SiO2 
 PCOD9241345
Probable space group: P 21/C
;
_chemical_formula_sum "Si O2"
_cell_formula_units_Z 20
_cell_length_a 7.915790
_cell_length_b 14.008929
_cell_length_c 11.891025
_cell_angle_alpha 90.000000
_cell_angle_beta 37.572527
_cell_angle_gamma 90.000000
_cell_volume 804.046420
_symmetry_space_group_name_H-M "P 21/C"
_symmetry_group_IT_number 14
_symmetry_cell_setting 'monoclinic'
loop_
_space_group_symop_operation_xyz
x,y,z
-x,1/2+y,1/2-z
-x,-y,-z
x,1/2-y,1/2+z
loop_
_atom_site_type_symbol
_atom_site_label
_atom_site_fract_x
_atom_site_fract_y
_atom_site_fract_z
Si Si1 0.809522 0.591055 0.602127
Si Si2 0.543461 0.776758 0.088482
Si Si3 0.699377 0.052512 0.484038
Si Si4 0.988878 0.866889 0.353800
Si Si5 0.128793 0.730744 0.003004
O O1 0.765490 0.642810 0.506536
O O2 0.506275 0.558623 0.800804
O O3 0.000000 0.500000 0.500000
O O4 0.952555 0.672640 0.603811
O O5 0.398726 0.743943 0.283568
O O6 0.288637 0.826677 0.158820
O O7 0.722494 0.690359 0.946650
O O8 0.804387 0.161961 0.427440
O O9 0.500000 0.000000 0.500000
O O10 0.950261 0.978614 0.360082
O O11 0.977846 0.839258 0.492337
#
# Coordination Sequence:
#
# PCOD9241345 Si02
#       5
#     4   4   4   4   4
#     4  10  19  35  61  86 111 149 201 246 286 348
#     4   8  17  31  58  86 104 143 199 244 280 331
#     4  11  22  36  54  86 122 158 184 240 310 354
#     4   9  17  35  56  82 111 148 201 238 287 343
#     4   8  18  35  53  84 109 149 196 239 284 341
#
# _framework density 24.874184
#
# number of rings (size 3 to 8) (size 9 to 14) (size 15 to 20)
#    1.200    1.600    0.000    1.800    0.000    0.000 
#    3.600    0.000    0.000    1.200    0.000    0.000 
#    0.000    0.000    0.000    0.000    0.000    0.000 
#
# Total GULP energy -111460.638683 kJ/mol
# GULP energy per Si atom -5573.031934 kJ/mol
# Density = 2.481757 g / cm^3
# Si number density = 24.874184 Si / 1000 Ang^3
#
#
#
# Elastic Constant Matrix: (Units=GPa)
#
#
# Indices 1 2 3 4 5 6 
#
# 1 74.8357 57.9451 27.9275 0.0000 -24.7602 0.0000
# 2 57.9451 195.3629 49.2874 0.0000 -26.5731 0.0000
# 3 27.9275 49.2874 91.1005 0.0000 -20.2243 0.0000
# 4 0.0000 0.0000 0.0000 40.0793 0.0000 -17.1004
# 5 -24.7602 -26.5731 -20.2243 0.0000 41.1042 0.0000
# 6 0.0000 0.0000 0.0000 -17.1004 0.0000 40.8482
#
#
#
# Elastic Compliance Matrix: (Units=1/GPa)
#
#
# Indices 1 2 3 4 5 6 
#
# 1 0.020266 -0.004367 -0.001983 0.000000 0.008409 0.000000
# 2 -0.004367 0.007113 -0.002327 0.000000 0.000823 0.000000
# 3 -0.001983 -0.002327 0.013746 0.000000 0.004064 0.000000
# 4 0.000000 0.000000 0.000000 0.030376 0.000000 0.012716
# 5 0.008409 0.000823 0.004064 0.000000 0.031926 0.000000
# 6 0.000000 0.000000 0.000000 0.012716 0.000000 0.029804
#
#
# Mechanical properties :
#
#
# Convention : Reuss Voigt Hill
#
# Bulk Modulus (GPa) = 42.06816 70.17993 56.12405
# Shear Modulus (GPa) = 31.54394 39.48229 35.51311
#
# Velocity S-wave (km/s) = 3.56496 3.98839 3.78260
# Velocity P-wave (km/s) = 5.82188 7.03455 6.45675
#
# Compressibility (1/GPa) = 0.02377095
#
# Stress axis : x y z
#
# Youngs Moduli (GPa) = 49.34327 140.59027 72.74804
#
# Poissons Ratio (x) = 0.61394 0.14429
# Poissons Ratio (y) = 0.21547 0.16927
# Poissons Ratio (z) = 0.09787 0.32713
#
# Static dielectric constant tensor:
#      x y z
#    x 2.181210 0.000000 0.019700 
#    y 0.000000 2.250860 0.000000 
#    z 0.019700 0.000000 1.987670 
# 
# From -- ./inp_files/55307.got.cif
#   From: 2010.05.17/outbox.cif.g08.bks.cpg/sg14_28_cif.got.tgz:55307.got - 2010.06.03 17:49:19.
