data_PCOD9241390
_publ_section_title
;
Structure prediction by ZEFSAII (Michael W. Deem and Ramdas Pophale) SiO2 
 PCOD9241390
Probable space group: P 21/C
;
_chemical_formula_sum "Si O2"
_cell_formula_units_Z 24
_cell_length_a 6.688643
_cell_length_b 25.003171
_cell_length_c 5.680380
_cell_angle_alpha 90.000000
_cell_angle_beta 74.677298
_cell_angle_gamma 90.000000
_cell_volume 916.202497
_symmetry_space_group_name_H-M "P 21/C"
_symmetry_group_IT_number 14
_symmetry_cell_setting 'monoclinic'
loop_
_space_group_symop_operation_xyz
x,y,z
-x,1/2+y,1/2-z
-x,-y,-z
x,1/2-y,1/2+z
loop_
_atom_site_type_symbol
_atom_site_label
_atom_site_fract_x
_atom_site_fract_y
_atom_site_fract_z
Si Si1 0.568219 0.380434 0.341327
Si Si2 0.956446 0.378587 0.895810
Si Si3 0.855590 0.761965 0.658695
Si Si4 0.682841 0.223541 0.000843
Si Si5 0.695074 0.452898 0.678702
Si Si6 0.281459 0.433490 0.123400
O O1 0.745852 0.365092 0.102053
O O2 0.583038 0.335277 0.533691
O O3 0.629812 0.437527 0.435381
O O4 0.349365 0.387205 0.284035
O O5 0.075724 0.323326 0.828597
O O6 0.096694 0.416461 0.013955
O O7 0.876708 0.412075 0.698153
O O8 0.752962 0.744140 0.934433
O O9 0.065016 0.725628 0.580469
O O10 0.631763 0.251436 0.262373
O O11 0.762684 0.512615 0.718823
O O12 0.488663 0.442613 0.900974
#
# Coordination Sequence:
#
# PCOD9241390 Si02
#       6
#     4   4   4   4   4   4
#     4  11  22  38  66  88 124 169 211 266 326 389
#     4  11  22  38  66  91 123 169 216 263 328 392
#     4  10  19  36  62  92 127 167 215 266 323 390
#     4  10  19  35  63  92 123 169 217 261 325 394
#     4  10  22  42  64  88 131 168 209 274 329 388
#     4  10  24  41  59  97 127 162 218 272 327 387
#
# _framework density 26.195084000000001
#
# number of rings (size 3 to 8) (size 9 to 14) (size 15 to 20)
#    0.000    1.667    3.333    3.000    2.333    2.000 
#    0.000    1.667    0.000    0.000    0.000    0.000 
#    0.000    0.000    0.000    0.000    0.000    0.000 
#
# Total GULP energy -134516.069387 kJ/mol
# GULP energy per Si atom -5604.836224 kJ/mol
# Density = 2.613546 g / cm^3
# Si number density = 26.195084 Si / 1000 Ang^3
#
#
#
# Elastic Constant Matrix: (Units=GPa)
#
#
# Indices 1 2 3 4 5 6 
#
# 1 79.7594 8.1859 42.0234 0.0000 2.5368 0.0000
# 2 8.1859 77.8773 16.4574 0.0000 5.2841 0.0000
# 3 42.0234 16.4574 133.9186 0.0000 24.2478 0.0000
# 4 0.0000 0.0000 0.0000 43.8549 0.0000 16.2140
# 5 2.5368 5.2841 24.2478 0.0000 46.0280 0.0000
# 6 0.0000 0.0000 0.0000 16.2140 0.0000 5.4533
#
#
#
# Elastic Compliance Matrix: (Units=1/GPa)
#
#
# Indices 1 2 3 4 5 6 
#
# 1 0.015195 -0.000663 -0.005029 0.000000 0.001888 0.000000
# 2 -0.000663 0.013234 -0.001271 0.000000 -0.000813 0.000000
# 3 -0.005029 -0.001271 0.010087 0.000000 -0.004891 0.000000
# 4 0.000000 0.000000 0.000000 -0.229717 0.000000 0.683001
# 5 0.001888 -0.000813 -0.004891 0.000000 0.024292 0.000000
# 6 0.000000 0.000000 0.000000 0.683001 0.000000 -1.847344
#
#
# Mechanical properties :
#
#
# Convention : Reuss Voigt Hill
#
# Bulk Modulus (GPa) = 40.66456 47.20986 43.93721
# Shear Modulus (GPa) = -2.50987 34.05982 15.77497
#
# Velocity S-wave (km/s) = -0.97991 3.60979 2.45666
# Velocity P-wave (km/s) = 3.77851 5.95279 4.98562
#
# Compressibility (1/GPa) = 0.02459144
#
# Stress axis : x y z
#
# Youngs Moduli (GPa) = 65.81064 75.56196 99.13806
#
# Poissons Ratio (x) = 0.05007 0.49852
# Poissons Ratio (y) = 0.04361 0.12603
# Poissons Ratio (z) = 0.33093 0.09606
#
# Static dielectric constant tensor:
#      x y z
#    x 2.010680 0.000000 -0.010260 
#    y 0.000000 2.111210 0.000000 
#    z -0.010260 0.000000 2.020390 
# 
# From -- ./inp_files/1648.got.cif
#   From: 2010.05.17/outbox.cif.g08.bks.cpg/sg14_1_cif.got.tgz:1648.got - 2010.06.03 17:49:19.
