data_PCOD9241001
_publ_section_title
;
Structure prediction by ZEFSAII (Michael W. Deem and Ramdas Pophale) SiO2 
 PCOD9241001
Probable space group: P 21/C
;
_chemical_formula_sum "Si O2"
_cell_formula_units_Z 28
_cell_length_a 12.119531
_cell_length_b 20.390891
_cell_length_c 5.157280
_cell_angle_alpha 90.000000
_cell_angle_beta 71.088841
_cell_angle_gamma 90.000000
_cell_volume 1205.713381
_symmetry_space_group_name_H-M "P 21/C"
_symmetry_group_IT_number 14
_symmetry_cell_setting 'monoclinic'
loop_
_space_group_symop_operation_xyz
x,y,z
-x,1/2+y,1/2-z
-x,-y,-z
x,1/2-y,1/2+z
loop_
_atom_site_type_symbol
_atom_site_label
_atom_site_fract_x
_atom_site_fract_y
_atom_site_fract_z
Si Si1 0.870708 0.980025 0.672506
Si Si2 0.518814 0.555907 0.769409
Si Si3 0.778446 0.581394 0.713984
Si Si4 0.700417 0.713635 0.049693
Si Si5 0.560287 0.179773 0.381061
Si Si6 0.306532 0.588652 0.621756
Si Si7 0.771273 0.224257 0.702767
O O1 0.808683 0.962392 0.444712
O O2 0.800609 0.041321 0.847818
O O3 0.868136 0.926321 0.906802
O O4 0.000000 0.000000 0.500000
O O5 0.657763 0.562160 0.659588
O O6 0.415653 0.545365 0.640149
O O7 0.500000 0.500000 0.000000
O O8 0.485276 0.632201 0.858755
O O9 0.757364 0.650897 0.869994
O O10 0.729935 0.771880 0.824932
O O11 0.559449 0.703856 0.157192
O O12 0.648529 0.238761 0.373465
O O13 0.636375 0.129102 0.154536
O O14 0.253044 0.648324 0.834650
O O15 0.833909 0.263688 0.428364
#
# Coordination Sequence:
#
# PCOD9241001 Si02
#       7
#     4   4   4   4   4   4   4
#     4  12  27  49  69  93 130 186 243 293 339 399
#     4  11  21  36  60  98 140 169 210 274 351 424
#     4  11  26  43  70 100 133 176 227 282 343 411
#     4  11  23  39  65 100 142 181 210 262 342 428
#     4  10  22  33  57  94 140 173 216 258 338 428
#     4  11  23  37  64  95 138 180 219 278 349 408
#     4  10  19  34  54  86 130 165 211 254 319 408
#
# _framework density 23.222767999999999
#
# number of rings (size 3 to 8) (size 9 to 14) (size 15 to 20)
#    0.000    1.143    2.857    3.857   10.000    1.143 
#    0.000    0.000    0.000   10.286    0.000    0.000 
#    0.000    0.000    0.000    0.000    0.000    0.000 
#
# Total GULP energy -156118.593870 kJ/mol
# GULP energy per Si atom -5575.664067 kJ/mol
# Density = 2.316991 g / cm^3
# Si number density = 23.222768 Si / 1000 Ang^3
#
#
#
# Elastic Constant Matrix: (Units=GPa)
#
#
# Indices 1 2 3 4 5 6 
#
# 1 37.0518 25.1307 27.0167 0.0000 -6.7451 0.0000
# 2 25.1307 87.4546 9.4433 0.0000 -10.3944 0.0000
# 3 27.0167 9.4433 110.9241 0.0000 -1.6216 0.0000
# 4 0.0000 0.0000 0.0000 46.5034 0.0000 7.0324
# 5 -6.7451 -10.3944 -1.6216 0.0000 29.5906 0.0000
# 6 0.0000 0.0000 0.0000 7.0324 0.0000 15.7907
#
#
#
# Elastic Compliance Matrix: (Units=1/GPa)
#
#
# Indices 1 2 3 4 5 6 
#
# 1 0.041689 -0.010349 -0.009194 0.000000 0.005364 0.000000
# 2 -0.010349 0.014604 0.001319 0.000000 0.002843 0.000000
# 3 -0.009194 0.001319 0.011127 0.000000 -0.001023 0.000000
# 4 0.000000 0.000000 0.000000 0.023057 0.000000 -0.010268
# 5 0.005364 0.002843 -0.001023 0.000000 0.035960 0.000000
# 6 0.000000 0.000000 0.000000 -0.010268 0.000000 0.067902
#
#
# Mechanical properties :
#
#
# Convention : Reuss Voigt Hill
#
# Bulk Modulus (GPa) = 32.28821 39.84577 36.06699
# Shear Modulus (GPa) = 20.73723 29.96624 25.35173
#
# Velocity S-wave (km/s) = 2.99150 3.59609 3.30764
# Velocity P-wave (km/s) = 5.08586 5.86837 5.49107
#
# Compressibility (1/GPa) = 0.03097106
#
# Stress axis : x y z
#
# Youngs Moduli (GPa) = 23.98688 68.47448 89.86882
#
# Poissons Ratio (x) = 0.70867 0.82629
# Poissons Ratio (y) = 0.24825 -0.11854
# Poissons Ratio (z) = 0.22055 -0.09032
#
# Static dielectric constant tensor:
#      x y z
#    x 1.932840 0.000000 0.107660 
#    y 0.000000 1.984870 0.000000 
#    z 0.107660 0.000000 2.022190 
# 
# From -- ./inp_files/2938.got.cif
#   From: 2010.05.17/outbox.cif.g08.bks.cpg/sg14_2_cif.got.tgz:2938.got - 2010.06.03 17:49:19.
