data_PCOD9241344
_publ_section_title
;
Structure prediction by ZEFSAII (Michael W. Deem and Ramdas Pophale) SiO2 
 PCOD9241344
Probable space group: P 21/C
;
_chemical_formula_sum "Si O2"
_cell_formula_units_Z 28
_cell_length_a 7.893713
_cell_length_b 19.883964
_cell_length_c 8.170787
_cell_angle_alpha 90.000000
_cell_angle_beta 100.716000
_cell_angle_gamma 90.000000
_cell_volume 1260.107719
_symmetry_space_group_name_H-M "P 21/C"
_symmetry_group_IT_number 14
_symmetry_cell_setting 'monoclinic'
loop_
_space_group_symop_operation_xyz
x,y,z
-x,1/2+y,1/2-z
-x,-y,-z
x,1/2-y,1/2+z
loop_
_atom_site_type_symbol
_atom_site_label
_atom_site_fract_x
_atom_site_fract_y
_atom_site_fract_z
Si Si1 0.870787 0.939341 0.426855
Si Si2 0.811920 0.346889 0.108515
Si Si3 0.690154 0.926031 0.737024
Si Si4 0.811229 0.433944 0.385915
Si Si5 0.916103 0.834141 0.944135
Si Si6 0.367272 0.973398 0.840299
Si Si7 0.902162 0.220257 0.330123
O O1 0.753763 0.920320 0.562173
O O2 0.998857 0.879470 0.397301
O O3 0.752870 0.970283 0.262340
O O4 0.000000 0.000000 0.500000
O O5 0.718949 0.399983 0.210785
O O6 0.810864 0.279122 0.213442
O O7 0.770396 0.320901 0.919819
O O8 0.730488 0.862265 0.860794
O O9 0.489833 0.944027 0.721635
O O10 0.804510 0.987959 0.835230
O O11 0.738761 0.425966 0.556322
O O12 0.986137 0.391296 0.433723
O O13 0.004790 0.826276 0.783173
O O14 0.955457 0.763167 0.039278
O O15 0.500000 0.000000 0.000000
#
# Coordination Sequence:
#
# PCOD9241344 Si02
#       7
#     4   4   4   4   4   4   4
#     4  12  22  37  64  94 123 160 207 256 312 370
#     4  10  20  35  59  90 117 151 208 262 298 355
#     4  11  21  37  57  91 127 160 197 252 322 374
#     4  10  21  34  58  88 120 157 196 251 311 368
#     4  10  19  35  61  85 120 156 215 254 303 355
#     4  10  25  38  55  91 132 162 191 241 326 378
#     4   9  20  34  54  92 114 156 206 271 292 347
#
# _framework density 22.220323
#
# number of rings (size 3 to 8) (size 9 to 14) (size 15 to 20)
#    0.000    1.714    2.857    1.714    8.000    0.000 
#    0.000    0.000    0.000    6.857    0.000    0.000 
#    0.000    0.000    0.000    0.000    0.000    0.000 
#
# Total GULP energy -155868.793205 kJ/mol
# GULP energy per Si atom -5566.742614 kJ/mol
# Density = 2.216975 g / cm^3
# Si number density = 22.220323 Si / 1000 Ang^3
#
#
#
# Elastic Constant Matrix: (Units=GPa)
#
#
# Indices 1 2 3 4 5 6 
#
# 1 33.1882 15.7160 21.3436 0.0000 -4.1101 0.0000
# 2 15.7160 64.8792 24.0558 0.0000 3.7980 0.0000
# 3 21.3436 24.0558 125.5383 0.0000 -23.3059 0.0000
# 4 0.0000 0.0000 0.0000 55.4645 0.0000 -3.1281
# 5 -4.1101 3.7980 -23.3059 0.0000 41.0407 0.0000
# 6 0.0000 0.0000 0.0000 -3.1281 0.0000 10.1736
#
#
#
# Elastic Compliance Matrix: (Units=1/GPa)
#
#
# Indices 1 2 3 4 5 6 
#
# 1 0.036722 -0.007330 -0.004505 0.000000 0.001798 0.000000
# 2 -0.007330 0.018584 -0.003097 0.000000 -0.004212 0.000000
# 3 -0.004505 -0.003097 0.010390 0.000000 0.005736 0.000000
# 4 0.000000 0.000000 0.000000 0.018348 0.000000 0.005641
# 5 0.001798 -0.004212 0.005736 0.000000 0.028193 0.000000
# 6 0.000000 0.000000 0.000000 0.005641 0.000000 0.100028
#
#
# Mechanical properties :
#
#
# Convention : Reuss Voigt Hill
#
# Bulk Modulus (GPa) = 27.90835 38.42630 33.16732
# Shear Modulus (GPa) = 19.67944 32.16845 25.92395
#
# Velocity S-wave (km/s) = 2.97922 3.80900 3.41937
# Velocity P-wave (km/s) = 4.94180 6.05603 5.52706
#
# Compressibility (1/GPa) = 0.03583157
#
# Stress axis : x y z
#
# Youngs Moduli (GPa) = 27.23150 53.81050 96.24807
#
# Poissons Ratio (x) = 0.39445 0.43360
# Poissons Ratio (y) = 0.19961 0.29806
# Poissons Ratio (z) = 0.12268 0.16664
#
# Static dielectric constant tensor:
#      x y z
#    x 1.885850 0.000000 -0.005510 
#    y 0.000000 1.790530 0.000000 
#    z -0.005510 0.000000 1.936440 
# 
# From -- ./inp_files/9931.got.cif
#   From: 2010.05.17/outbox.cif.g08.bks.cpg/sg14_5_cif.got.tgz:9931.got - 2010.06.03 17:49:19.
