data_PCOD9241696
_publ_section_title
;
Structure prediction by ZEFSAII (Michael W. Deem and Ramdas Pophale) SiO2 
 PCOD9241696
Probable space group: P 21/C
;
_chemical_formula_sum "Si O2"
_cell_formula_units_Z 28
_cell_length_a 11.143729
_cell_length_b 7.746053
_cell_length_c 25.811290
_cell_angle_alpha 90.000000
_cell_angle_beta 33.428857
_cell_angle_gamma 90.000000
_cell_volume 1227.423372
_symmetry_space_group_name_H-M "P 21/C"
_symmetry_group_IT_number 14
_symmetry_cell_setting 'monoclinic'
loop_
_space_group_symop_operation_xyz
x,y,z
-x,1/2+y,1/2-z
-x,-y,-z
x,1/2-y,1/2+z
loop_
_atom_site_type_symbol
_atom_site_label
_atom_site_fract_x
_atom_site_fract_y
_atom_site_fract_z
Si Si1 0.731069 0.728125 0.316989
Si Si2 0.206916 0.605213 0.237833
Si Si3 0.764646 0.249200 0.030426
Si Si4 0.306066 0.619190 0.615221
Si Si5 0.477231 0.557830 0.799162
Si Si6 0.200969 0.034775 0.053070
Si Si7 0.805144 0.853094 0.675505
O O1 0.473947 0.767284 0.408757
O O2 0.755964 0.580318 0.350042
O O3 0.802699 0.632855 0.238122
O O4 0.827005 0.919992 0.279305
O O5 0.216803 0.749182 0.189926
O O6 0.429198 0.579030 0.191838
O O7 0.012705 0.631034 0.349388
O O8 0.701964 0.315677 0.109902
O O9 0.961353 0.358474 0.935590
O O10 0.821625 0.050847 0.995458
O O11 0.569179 0.632297 0.525363
O O12 0.232774 0.628639 0.581898
O O13 0.692304 0.666108 0.708147
O O14 0.363382 0.479465 0.790792
#
# Coordination Sequence:
#
# PCOD9241696 Si02
#       7
#     4   4   4   4   4   4   4
#     4   9  21  39  60  88 123 162 199 257 296 360
#     4  10  21  41  59  89 125 156 204 251 301 365
#     4   9  17  39  60  80 122 158 193 250 310 350
#     4  10  23  39  62  93 122 157 213 247 296 374
#     4  10  22  36  59  90 116 158 206 252 304 368
#     4  10  20  41  63  88 125 162 197 258 310 345
#     4  10  19  37  59  83 122 160 198 255 307 355
#
# _framework density 22.812014999999999
#
# number of rings (size 3 to 8) (size 9 to 14) (size 15 to 20)
#    0.000    2.571    2.857    0.429    4.000    0.000 
#    5.143   17.143    0.000    0.000    0.000    0.000 
#    0.000    0.000    0.000    0.000    0.000    0.000 
#
# Total GULP energy -156016.808532 kJ/mol
# GULP energy per Si atom -5572.028876 kJ/mol
# Density = 2.276009 g / cm^3
# Si number density = 22.812015 Si / 1000 Ang^3
#
#
#
# Elastic Constant Matrix: (Units=GPa)
#
#
# Indices 1 2 3 4 5 6 
#
# 1 19.5405 14.2684 4.0950 0.0000 19.4171 0.0000
# 2 14.2684 34.3423 1.1223 0.0000 0.8406 0.0000
# 3 4.0950 1.1223 135.0703 0.0000 -27.5805 0.0000
# 4 0.0000 0.0000 0.0000 33.4792 0.0000 6.6822
# 5 19.4171 0.8406 -27.5805 0.0000 -11.7266 0.0000
# 6 0.0000 0.0000 0.0000 6.6822 0.0000 44.2138
#
#
#
# Elastic Compliance Matrix: (Units=1/GPa)
#
#
# Indices 1 2 3 4 5 6 
#
# 1 0.027717 -0.012475 0.005710 0.000000 0.031571 0.000000
# 2 -0.012475 0.034686 -0.002446 0.000000 -0.012418 0.000000
# 3 0.005710 -0.002446 0.006178 0.000000 -0.005252 0.000000
# 4 0.000000 0.000000 0.000000 0.030798 0.000000 -0.004655
# 5 0.031571 -0.012418 -0.005252 0.000000 -0.021539 0.000000
# 6 0.000000 0.000000 0.000000 -0.004655 0.000000 0.023321
#
#
# Mechanical properties :
#
#
# Convention : Reuss Voigt Hill
#
# Bulk Modulus (GPa) = 19.93651 25.32494 22.63073
# Shear Modulus (GPa) = 36.68292 24.49113 30.58702
#
# Velocity S-wave (km/s) = 4.01440 3.28015 3.66571
# Velocity P-wave (km/s) = 5.49961 5.04693 5.27813
#
# Compressibility (1/GPa) = 0.05015922
#
# Stress axis : x y z
#
# Youngs Moduli (GPa) = 36.07878 28.83041 161.85592
#
# Poissons Ratio (x) = 0.35966 -0.92418
# Poissons Ratio (y) = 0.45009 0.39585
# Poissons Ratio (z) = -0.20601 0.07051
#
# Static dielectric constant tensor:
#      x y z
#    x 1.890220 0.000000 -0.004650 
#    y 0.000000 1.891840 0.000000 
#    z -0.004650 0.000000 1.910050 
# 
# From -- ./inp_files/77105.got.cif
#   From: 2010.05.17/outbox.cif.g08.bks.cpg/sg14_39_cif.got.tgz:77105.got - 2010.06.03 17:49:19.
