data_PCOD9241157
_publ_section_title
;
Structure prediction by ZEFSAII (Michael W. Deem and Ramdas Pophale) SiO2 
 PCOD9241157
Probable space group: P 21/C
;
_chemical_formula_sum "Si O2"
_cell_formula_units_Z 32
_cell_length_a 23.964778
_cell_length_b 5.326234
_cell_length_c 13.334034
_cell_angle_alpha 90.000000
_cell_angle_beta 131.501763
_cell_angle_gamma 90.000000
_cell_volume 1274.675182
_symmetry_space_group_name_H-M "P 21/C"
_symmetry_group_IT_number 14
_symmetry_cell_setting 'monoclinic'
loop_
_space_group_symop_operation_xyz
x,y,z
-x,1/2+y,1/2-z
-x,-y,-z
x,1/2-y,1/2+z
loop_
_atom_site_type_symbol
_atom_site_label
_atom_site_fract_x
_atom_site_fract_y
_atom_site_fract_z
Si Si1 0.617249 0.354546 0.615976
Si Si2 0.164397 0.957059 0.068227
Si Si3 0.703125 0.205055 0.888801
Si Si4 0.742463 0.681833 0.693873
Si Si5 0.475962 0.295316 0.883127
Si Si6 0.021346 0.304295 0.437104
Si Si7 0.353120 0.282046 0.083742
Si Si8 0.882280 0.078166 0.318556
O O1 0.640049 0.152460 0.727613
O O2 0.698060 0.441003 0.678489
O O3 0.572570 0.583911 0.616241
O O4 0.561298 0.285979 0.461019
O O5 0.211650 0.798916 0.045774
O O6 0.151745 0.803184 0.156123
O O7 0.220678 0.178749 0.167755
O O8 0.082783 0.060172 0.941176
O O9 0.680067 0.477064 0.899861
O O10 0.691063 0.975572 0.948268
O O11 0.674563 0.834687 0.562402
O O12 0.814382 0.606326 0.712475
O O13 0.433917 0.288841 0.724901
O O14 0.500000 0.500000 0.000000
O O15 0.000000 0.500000 0.500000
O O16 0.941575 0.190369 0.310248
O O17 0.068218 0.081387 0.543967
#
# Coordination Sequence:
#
# PCOD9241157 Si02
#       8
#     4   4   4   4   4   4   4   4
#     4  10  21  38  63  85 117 162 222 258 318 382
#     4  10  19  34  63  91 119 161 220 261 309 374
#     4  11  22  41  63  92 123 170 217 266 308 391
#     4  11  23  38  59  98 127 169 208 277 328 383
#     4  10  20  41  61  84 119 171 208 269 315 383
#     4   8  16  30  53  96 119 153 201 267 304 374
#     4  11  26  41  61  94 136 165 214 267 339 381
#     4   9  17  32  58  90 124 155 202 264 317 365
#
# _framework density 25.104434999999999
#
# number of rings (size 3 to 8) (size 9 to 14) (size 15 to 20)
#    0.000    2.000    2.500    1.500    3.500    0.000 
#    2.250    0.000    0.000    0.000   19.500    0.000 
#    0.000    0.000    0.000    0.000    0.000    0.000 
#
# Total GULP energy -178177.913224 kJ/mol
# GULP energy per Si atom -5568.059788 kJ/mol
# Density = 2.504730 g / cm^3
# Si number density = 25.104435 Si / 1000 Ang^3
#
#
#
# Elastic Constant Matrix: (Units=GPa)
#
#
# Indices 1 2 3 4 5 6 
#
# 1 55.0389 14.2969 20.9788 0.0000 29.2308 0.0000
# 2 14.2969 67.4026 3.3954 0.0000 10.4682 0.0000
# 3 20.9788 3.3954 61.2436 0.0000 17.4054 0.0000
# 4 0.0000 0.0000 0.0000 12.0521 0.0000 15.6722
# 5 29.2308 10.4682 17.4054 0.0000 30.6336 0.0000
# 6 0.0000 0.0000 0.0000 15.6722 0.0000 35.5716
#
#
#
# Elastic Compliance Matrix: (Units=1/GPa)
#
#
# Indices 1 2 3 4 5 6 
#
# 1 0.037803 -0.002686 -0.003351 0.000000 -0.033250 0.000000
# 2 -0.002686 0.015890 0.001018 0.000000 -0.003446 0.000000
# 3 -0.003351 0.001018 0.019808 0.000000 -0.008405 0.000000
# 4 0.000000 0.000000 0.000000 0.194281 0.000000 -0.085597
# 5 -0.033250 -0.003446 -0.008405 0.000000 0.070324 0.000000
# 6 0.000000 0.000000 0.000000 -0.085597 0.000000 0.065825
#
#
# Mechanical properties :
#
#
# Convention : Reuss Voigt Hill
#
# Bulk Modulus (GPa) = 15.75677 29.00304 22.37990
# Shear Modulus (GPa) = 11.49103 25.31906 18.40504
#
# Velocity S-wave (km/s) = 2.14178 3.17921 2.71059
# Velocity P-wave (km/s) = 3.52227 5.00545 4.32787
#
# Compressibility (1/GPa) = 0.06346480
#
# Stress axis : x y z
#
# Youngs Moduli (GPa) = 26.45327 62.93363 50.48377
#
# Poissons Ratio (x) = 0.16901 0.16915
# Poissons Ratio (y) = 0.07104 -0.05141
# Poissons Ratio (z) = 0.08864 -0.06409
#
# Static dielectric constant tensor:
#      x y z
#    x 2.108760 0.000000 -0.021310 
#    y 0.000000 2.315990 0.000000 
#    z -0.021310 0.000000 2.108510 
# 
# From -- ./inp_files/51002.got.cif
#   From: 2010.05.17/outbox.cif.g08.bks.cpg/sg14_26_cif.got.tgz:51002.got - 2010.06.03 17:49:19.
