data_PCOD9241794
_publ_section_title
;
Structure prediction by ZEFSAII (Michael W. Deem and Ramdas Pophale) SiO2 
 PCOD9241794
Probable space group: P 21/C
;
_chemical_formula_sum "Si O2"
_cell_formula_units_Z 28
_cell_length_a 8.830863
_cell_length_b 15.863565
_cell_length_c 9.653654
_cell_angle_alpha 90.000000
_cell_angle_beta 126.402101
_cell_angle_gamma 90.000000
_cell_volume 1088.485149
_symmetry_space_group_name_H-M "P 21/C"
_symmetry_group_IT_number 14
_symmetry_cell_setting 'monoclinic'
loop_
_space_group_symop_operation_xyz
x,y,z
-x,1/2+y,1/2-z
-x,-y,-z
x,1/2-y,1/2+z
loop_
_atom_site_type_symbol
_atom_site_label
_atom_site_fract_x
_atom_site_fract_y
_atom_site_fract_z
Si Si1 0.881363 0.418352 0.026943
Si Si2 0.767066 0.723497 0.484317
Si Si3 0.066386 0.904879 0.027522
Si Si4 0.688263 0.857761 0.220467
Si Si5 0.876698 0.158740 0.244092
Si Si6 0.613296 0.556686 0.948665
Si Si7 0.350969 0.678055 0.892955
O O1 0.906477 0.610952 0.829934
O O2 0.854317 0.411230 0.848988
O O3 0.811117 0.506944 0.051219
O O4 0.738882 0.348616 0.010629
O O5 0.668407 0.774241 0.305607
O O6 0.657800 0.673233 0.546845
O O7 0.891774 0.652549 0.476276
O O8 0.928663 0.788729 0.629228
O O9 0.234764 0.881436 0.222890
O O10 0.129312 0.880377 0.909235
O O11 0.000000 0.000000 0.000000
O O12 0.585238 0.926510 0.265987
O O13 0.716082 0.228837 0.173040
O O14 0.564480 0.647973 0.988244
O O15 0.500000 0.500000 0.000000
#
# Coordination Sequence:
#
# PCOD9241794 Si02
#       7
#     4   4   4   4   4   4   4
#     4  10  20  37  68  88 115 157 217 251 298 362
#     4  10  20  38  61  95 118 154 206 256 305 358
#     4  11  22  36  62  96 126 154 202 267 313 355
#     4  11  20  40  65  91 123 157 211 260 297 376
#     4  10  19  37  63  87 118 162 201 245 318 370
#     4  10  24  40  58  92 123 163 207 250 308 363
#     4  10  20  42  59  85 126 162 204 246 310 377
#
# _framework density 25.723821999999998
#
# number of rings (size 3 to 8) (size 9 to 14) (size 15 to 20)
#    0.000    1.714    4.286    2.143    2.000    4.571 
#    7.714    0.714    0.000    0.000    0.000    0.000 
#    0.000    0.000    0.000    0.000    0.000    0.000 
#
# Total GULP energy -156372.139527 kJ/mol
# GULP energy per Si atom -5584.719269 kJ/mol
# Density = 2.566527 g / cm^3
# Si number density = 25.723822 Si / 1000 Ang^3
#
#
#
# Elastic Constant Matrix: (Units=GPa)
#
#
# Indices 1 2 3 4 5 6 
#
# 1 164.0892 58.8745 49.2842 0.0000 -30.8794 0.0000
# 2 58.8745 108.7199 27.2700 0.0000 2.7535 0.0000
# 3 49.2842 27.2700 108.0413 0.0000 -39.2805 0.0000
# 4 0.0000 0.0000 0.0000 40.8203 0.0000 -22.7372
# 5 -30.8794 2.7535 -39.2805 0.0000 35.8429 0.0000
# 6 0.0000 0.0000 0.0000 -22.7372 0.0000 46.0970
#
#
#
# Elastic Compliance Matrix: (Units=1/GPa)
#
#
# Indices 1 2 3 4 5 6 
#
# 1 0.009721 -0.005566 0.000284 0.000000 0.009114 0.000000
# 2 -0.005566 0.013781 -0.005100 0.000000 -0.011443 0.000000
# 3 0.000284 -0.005100 0.017695 0.000000 0.020029 0.000000
# 4 0.000000 0.000000 0.000000 0.033778 0.000000 0.016661
# 5 0.009114 -0.011443 0.020029 0.000000 0.058580 0.000000
# 6 0.000000 0.000000 0.000000 0.016661 0.000000 0.029911
#
#
# Mechanical properties :
#
#
# Convention : Reuss Voigt Hill
#
# Bulk Modulus (GPa) = 48.93830 72.41197 60.67514
# Shear Modulus (GPa) = 26.17234 40.91350 33.54292
#
# Velocity S-wave (km/s) = 3.19319 3.99242 3.61496
# Velocity P-wave (km/s) = 5.71499 7.03303 6.40798
#
# Compressibility (1/GPa) = 0.02043389
#
# Stress axis : x y z
#
# Youngs Moduli (GPa) = 102.86735 72.56260 56.51297
#
# Poissons Ratio (x) = 0.40391 -0.01606
# Poissons Ratio (y) = 0.57260 0.28819
# Poissons Ratio (z) = -0.02923 0.37003
#
# Static dielectric constant tensor:
#      x y z
#    x 2.077320 0.000000 0.030020 
#    y 0.000000 2.328830 0.000000 
#    z 0.030020 0.000000 2.060220 
# 
# From -- ./inp_files/13127.got.cif
#   From: 2010.05.17/outbox.cif.g08.bks.cpg/sg14_7_cif.got.tgz:13127.got - 2010.06.03 17:49:19.
