data_PCOD9241289
_publ_section_title
;
Structure prediction by ZEFSAII (Michael W. Deem and Ramdas Pophale) SiO2 
 PCOD9241289
Probable space group: P 21/C
;
_chemical_formula_sum "Si O2"
_cell_formula_units_Z 28
_cell_length_a 7.552918
_cell_length_b 26.697693
_cell_length_c 7.443729
_cell_angle_alpha 90.000000
_cell_angle_beta 127.812185
_cell_angle_gamma 90.000000
_cell_volume 1185.822535
_symmetry_space_group_name_H-M "P 21/C"
_symmetry_group_IT_number 14
_symmetry_cell_setting 'monoclinic'
loop_
_space_group_symop_operation_xyz
x,y,z
-x,1/2+y,1/2-z
-x,-y,-z
x,1/2-y,1/2+z
loop_
_atom_site_type_symbol
_atom_site_label
_atom_site_fract_x
_atom_site_fract_y
_atom_site_fract_z
Si Si1 0.837196 0.450760 0.191818
Si Si2 0.602653 0.817235 0.527423
Si Si3 0.505057 0.706585 0.554218
Si Si4 0.932826 0.350399 0.799389
Si Si5 0.158959 0.368861 0.318584
Si Si6 0.937438 0.453811 0.637669
Si Si7 0.411268 0.417585 0.766896
O O1 0.017796 0.492648 0.242628
O O2 0.944335 0.395137 0.274298
O O3 0.788338 0.463173 0.368895
O O4 0.624854 0.451615 0.932943
O O5 0.519876 0.766070 0.564590
O O6 0.530068 0.865903 0.592548
O O7 0.874521 0.822476 0.696022
O O8 0.517784 0.814390 0.267125
O O9 0.280385 0.685642 0.322505
O O10 0.725029 0.685165 0.586846
O O11 0.852080 0.404279 0.679016
O O12 0.070555 0.366190 0.061800
O O13 0.349775 0.404537 0.523716
O O14 0.188746 0.437599 0.728074
#
# Coordination Sequence:
#
# PCOD9241289 Si02
#       7
#     4   4   4   4   4   4   4
#     4  10  19  35  59  83 112 149 190 238 277 329
#     4  10  23  37  58  84 106 140 187 224 273 338
#     4  11  22  39  58  81 110 146 181 226 283 330
#     4  10  22  40  56  79 117 146 179 235 279 331
#     4  10  22  36  55  84 113 146 189 226 275 338
#     4   9  20  36  56  84 113 149 192 229 285 339
#     4  10  19  37  59  83 113 147 188 235 278 329
#
# _framework density 23.612303000000001
#
# number of rings (size 3 to 8) (size 9 to 14) (size 15 to 20)
#    0.000    2.000    0.000    3.000    0.000    4.000 
#    0.000    1.429    0.000    0.000    0.000    0.000 
#    0.000    0.000    0.000    0.000    0.000    0.000 
#
# Total GULP energy -156021.337223 kJ/mol
# GULP energy per Si atom -5572.190615 kJ/mol
# Density = 2.355856 g / cm^3
# Si number density = 23.612303 Si / 1000 Ang^3
#
#
#
# Elastic Constant Matrix: (Units=GPa)
#
#
# Indices 1 2 3 4 5 6 
#
# 1 39.6050 26.5879 21.7937 0.0000 12.8430 0.0000
# 2 26.5879 114.3506 44.8447 0.0000 3.0574 0.0000
# 3 21.7937 44.8447 131.9126 0.0000 0.3987 0.0000
# 4 0.0000 0.0000 0.0000 31.7116 0.0000 5.0969
# 5 12.8430 3.0574 0.3987 0.0000 24.6031 0.0000
# 6 0.0000 0.0000 0.0000 5.0969 0.0000 14.6488
#
#
#
# Elastic Compliance Matrix: (Units=1/GPa)
#
#
# Indices 1 2 3 4 5 6 
#
# 1 0.038153 -0.006823 -0.003926 0.000000 -0.019005 0.000000
# 2 -0.006823 0.011346 -0.002737 0.000000 0.002196 0.000000
# 3 -0.003926 -0.002737 0.009153 0.000000 0.002241 0.000000
# 4 0.000000 0.000000 0.000000 0.033402 0.000000 -0.011622
# 5 -0.019005 0.002196 0.002241 0.000000 0.050257 0.000000
# 6 0.000000 0.000000 0.000000 -0.011622 0.000000 0.072309
#
#
# Mechanical properties :
#
#
# Convention : Reuss Voigt Hill
#
# Bulk Modulus (GPa) = 31.56552 52.48008 42.02280
# Shear Modulus (GPa) = 19.82932 27.03550 23.43241
#
# Velocity S-wave (km/s) = 2.90105 3.38742 3.15363
# Velocity P-wave (km/s) = 4.96173 6.12972 5.57639
#
# Compressibility (1/GPa) = 0.03168014
#
# Stress axis : x y z
#
# Youngs Moduli (GPa) = 26.21003 88.13714 109.25387
#
# Poissons Ratio (x) = 0.60137 0.42897
# Poissons Ratio (y) = 0.17884 0.29897
# Poissons Ratio (z) = 0.10291 0.24119
#
# Static dielectric constant tensor:
#      x y z
#    x 1.976600 0.000000 -0.037650 
#    y 0.000000 1.920660 0.000000 
#    z -0.037650 0.000000 1.921960 
# 
# From -- ./inp_files/11105.got.cif
#   From: 2010.05.17/outbox.cif.g08.bks.cpg/sg14_6_cif.got.tgz:11105.got - 2010.06.03 17:49:19.
