data_PCOD9241188
_publ_section_title
;
Structure prediction by ZEFSAII (Michael W. Deem and Ramdas Pophale) SiO2 
 PCOD9241188
Probable space group: P 21/C
;
_chemical_formula_sum "Si O2"
_cell_formula_units_Z 28
_cell_length_a 20.770689
_cell_length_b 7.324473
_cell_length_c 17.683094
_cell_angle_alpha 90.000000
_cell_angle_beta 157.986623
_cell_angle_gamma 90.000000
_cell_volume 1008.351242
_symmetry_space_group_name_H-M "P 21/C"
_symmetry_group_IT_number 14
_symmetry_cell_setting 'monoclinic'
loop_
_space_group_symop_operation_xyz
x,y,z
-x,1/2+y,1/2-z
-x,-y,-z
x,1/2-y,1/2+z
loop_
_atom_site_type_symbol
_atom_site_label
_atom_site_fract_x
_atom_site_fract_y
_atom_site_fract_z
Si Si1 0.496677 0.698886 0.744520
Si Si2 0.707451 0.762093 0.234813
Si Si3 0.329827 0.473460 0.669260
Si Si4 0.984984 0.584147 0.780758
Si Si5 0.098748 0.795743 0.679442
Si Si6 0.851149 0.565556 0.176168
Si Si7 0.445402 0.996392 0.041091
O O1 0.359687 0.667737 0.662058
O O2 0.516264 0.850874 0.700058
O O3 0.459787 0.527094 0.646438
O O4 0.675671 0.673403 0.981411
O O5 0.684116 0.575654 0.257627
O O6 0.596135 0.806527 0.039946
O O7 0.908958 0.791005 0.435660
O O8 0.618911 0.912672 0.194170
O O9 0.158041 0.397653 0.441917
O O10 0.933088 0.426905 0.782464
O O11 0.139649 0.523592 0.896939
O O12 0.994538 0.775519 0.834567
O O13 0.271568 0.877922 0.830389
O O14 0.133278 0.590066 0.745061
#
# Coordination Sequence:
#
# PCOD9241188 Si02
#       7
#     4   4   4   4   4   4   4
#     4  10  20  34  56  89 111 153 201 247 305 360
#     4  10  21  38  60  91 119 160 213 244 297 383
#     4  10  19  35  54  86 117 145 201 252 296 356
#     4  11  20  34  54  89 122 149 198 261 300 356
#     4  12  21  39  63  90 119 167 206 247 315 355
#     4  11  21  33  57  90 124 154 203 258 308 359
#     4  10  21  37  62  87 124 162 203 252 301 367
#
# _framework density 27.768101000000001
#
# number of rings (size 3 to 8) (size 9 to 14) (size 15 to 20)
#    0.000    1.429    4.286    3.857    0.000    0.000 
#    0.000    0.000    0.000    4.286    0.000    0.000 
#    0.000    0.000    0.000    0.000    0.000    0.000 
#
# Total GULP energy -156456.568752 kJ/mol
# GULP energy per Si atom -5587.734598 kJ/mol
# Density = 2.770490 g / cm^3
# Si number density = 27.768101 Si / 1000 Ang^3
#
#
#
# Elastic Constant Matrix: (Units=GPa)
#
#
# Indices 1 2 3 4 5 6 
#
# 1 92.2609 -4.9634 13.6590 0.0000 2.9542 0.0000
# 2 -4.9634 74.7919 -4.8046 0.0000 11.6123 0.0000
# 3 13.6590 -4.8046 74.2191 0.0000 17.3144 0.0000
# 4 0.0000 0.0000 0.0000 34.4807 0.0000 6.7322
# 5 2.9542 11.6123 17.3144 0.0000 43.8480 0.0000
# 6 0.0000 0.0000 0.0000 6.7322 0.0000 53.9114
#
#
#
# Elastic Compliance Matrix: (Units=1/GPa)
#
#
# Indices 1 2 3 4 5 6 
#
# 1 0.011171 0.000635 -0.001983 0.000000 -0.000138 0.000000
# 2 0.000635 0.014239 0.001866 0.000000 -0.004551 0.000000
# 3 -0.001983 0.001866 0.015468 0.000000 -0.006469 0.000000
# 4 0.000000 0.000000 0.000000 0.029726 0.000000 -0.003712
# 5 -0.000138 -0.004551 -0.006469 0.000000 0.026575 0.000000
# 6 0.000000 0.000000 0.000000 -0.003712 0.000000 0.019013
#
#
# Mechanical properties :
#
#
# Convention : Reuss Voigt Hill
#
# Bulk Modulus (GPa) = 23.85660 27.67266 25.76463
# Shear Modulus (GPa) = 38.72190 42.27342 40.49766
#
# Velocity S-wave (km/s) = 3.73832 3.90599 3.82307
# Velocity P-wave (km/s) = 5.21952 5.50724 5.36531
#
# Compressibility (1/GPa) = 0.04191712
#
# Stress axis : x y z
#
# Youngs Moduli (GPa) = 89.51803 70.22935 64.64796
#
# Poissons Ratio (x) = -0.04462 0.12817
# Poissons Ratio (y) = -0.05688 -0.12066
# Poissons Ratio (z) = 0.17747 -0.13108
#
# Static dielectric constant tensor:
#      x y z
#    x 2.161400 0.000000 0.044820 
#    y 0.000000 2.386630 0.000000 
#    z 0.044820 0.000000 2.171740 
# 
# From -- ./inp_files/70234.got.cif
#   From: 2010.05.17/outbox.cif.g08.bks.cpg/sg14_36_cif.got.tgz:70234.got - 2010.06.03 17:49:19.
