data_PCOD9241281
_publ_section_title
;
Structure prediction by ZEFSAII (Michael W. Deem and Ramdas Pophale) SiO2 
 PCOD9241281
Probable space group: P 21/C
;
_chemical_formula_sum "Si O2"
_cell_formula_units_Z 32
_cell_length_a 15.395528
_cell_length_b 5.326894
_cell_length_c 24.195516
_cell_angle_alpha 90.000000
_cell_angle_beta 48.745235
_cell_angle_gamma 90.000000
_cell_volume 1491.753860
_symmetry_space_group_name_H-M "P 21/C"
_symmetry_group_IT_number 14
_symmetry_cell_setting 'monoclinic'
loop_
_space_group_symop_operation_xyz
x,y,z
-x,1/2+y,1/2-z
-x,-y,-z
x,1/2-y,1/2+z
loop_
_atom_site_type_symbol
_atom_site_label
_atom_site_fract_x
_atom_site_fract_y
_atom_site_fract_z
Si Si1 0.267294 0.814112 0.769290
Si Si2 0.950683 0.927458 0.823847
Si Si3 0.804874 0.200507 0.324946
Si Si4 0.172401 0.331658 0.866865
Si Si5 0.216267 0.446958 0.058277
Si Si6 0.502646 0.584112 0.716195
Si Si7 0.265114 0.319719 0.436825
Si Si8 0.924701 0.183343 0.948402
O O1 0.256575 0.822745 0.707573
O O2 0.188914 0.582583 0.823862
O O3 0.395742 0.720209 0.730620
O O4 0.226125 0.076821 0.815325
O O5 0.903913 0.679422 0.872524
O O6 0.067056 0.911539 0.740868
O O7 0.844082 0.027217 0.831479
O O8 0.971637 0.101231 0.868148
O O9 0.740686 0.069771 0.403351
O O10 0.236283 0.371623 0.898748
O O11 0.035541 0.290728 0.931909
O O12 0.179377 0.639274 0.026633
O O13 0.288052 0.255854 0.991096
O O14 0.470202 0.304580 0.750264
O O15 0.618955 0.547737 0.632279
O O16 0.144260 0.470256 0.490346
#
# Coordination Sequence:
#
# PCOD9241281 Si02
#       8
#     4   4   4   4   4   4   4   4
#     4  12  26  43  71 106 133 181 234 300 331 406
#     4  10  19  35  58  91 132 184 220 274 331 419
#     4  11  21  35  65  93 140 174 237 273 340 406
#     4  12  25  42  68 103 144 173 228 288 359 412
#     4  10  23  39  61  95 135 187 224 271 346 411
#     4  12  25  50  74  98 131 183 241 288 345 404
#     4  11  25  43  69  95 139 179 235 283 352 421
#     4  10  23  39  61 101 138 184 215 284 355 423
#
# _framework density 21.451260999999999
#
# number of rings (size 3 to 8) (size 9 to 14) (size 15 to 20)
#    0.000    1.000    5.000    1.125    8.750    0.500 
#    0.000    0.625    0.000    6.750    0.000    0.000 
#    0.000    0.000    0.000    0.000    0.000    0.000 
#
# Total GULP energy -178299.927296 kJ/mol
# GULP energy per Si atom -5571.872728 kJ/mol
# Density = 2.140244 g / cm^3
# Si number density = 21.451261 Si / 1000 Ang^3
#
#
#
# Elastic Constant Matrix: (Units=GPa)
#
#
# Indices 1 2 3 4 5 6 
#
# 1 74.8317 7.6113 25.8657 0.0000 16.6427 0.0000
# 2 7.6113 66.8329 14.8744 0.0000 11.8364 0.0000
# 3 25.8657 14.8744 87.1060 0.0000 11.5156 0.0000
# 4 0.0000 0.0000 0.0000 26.9663 0.0000 13.4776
# 5 16.6427 11.8364 11.5156 0.0000 25.6787 0.0000
# 6 0.0000 0.0000 0.0000 13.4776 0.0000 -6.6931
#
#
#
# Elastic Compliance Matrix: (Units=1/GPa)
#
#
# Indices 1 2 3 4 5 6 
#
# 1 0.016714 0.000613 -0.003825 0.000000 -0.009399 0.000000
# 2 0.000613 0.016617 -0.002078 0.000000 -0.007125 0.000000
# 3 -0.003825 -0.002078 0.013305 0.000000 -0.002530 0.000000
# 4 0.000000 0.000000 0.000000 0.018482 0.000000 0.037217
# 5 -0.009399 -0.007125 -0.002530 0.000000 0.049453 0.000000
# 6 0.000000 0.000000 0.000000 0.037217 0.000000 -0.074465
#
#
# Mechanical properties :
#
#
# Convention : Reuss Voigt Hill
#
# Bulk Modulus (GPa) = 27.73463 36.16370 31.94917
# Shear Modulus (GPa) = 79.73779 21.21832 50.47806
#
# Velocity S-wave (km/s) = 6.10347 3.14847 4.85619
# Velocity P-wave (km/s) = 7.91372 5.48747 6.80953
#
# Compressibility (1/GPa) = 0.03605600
#
# Stress axis : x y z
#
# Youngs Moduli (GPa) = 59.83173 60.17871 75.15789
#
# Poissons Ratio (x) = -0.03686 0.28748
# Poissons Ratio (y) = -0.03665 0.15614
# Poissons Ratio (z) = 0.22886 0.12502
#
# Static dielectric constant tensor:
#      x y z
#    x 1.811360 0.000000 0.013220 
#    y 0.000000 1.988050 0.000000 
#    z 0.013220 0.000000 1.774700 
# 
# From -- ./inp_files/73558.got.cif
#   From: 2010.05.17/outbox.cif.g08.bks.cpg/sg14_37_cif.got.tgz:73558.got - 2010.06.03 17:49:19.
