data_PCOD9241921
_publ_section_title
;
Structure prediction by ZEFSAII (Michael W. Deem and Ramdas Pophale) SiO2 
 PCOD9241921
Probable space group: P 21/C
;
_chemical_formula_sum "Si O2"
_cell_formula_units_Z 32
_cell_length_a 8.709938
_cell_length_b 8.465508
_cell_length_c 23.596779
_cell_angle_alpha 90.000000
_cell_angle_beta 113.654614
_cell_angle_gamma 90.000000
_cell_volume 1593.702073
_symmetry_space_group_name_H-M "P 21/C"
_symmetry_group_IT_number 14
_symmetry_cell_setting 'monoclinic'
loop_
_space_group_symop_operation_xyz
x,y,z
-x,1/2+y,1/2-z
-x,-y,-z
x,1/2-y,1/2+z
loop_
_atom_site_type_symbol
_atom_site_label
_atom_site_fract_x
_atom_site_fract_y
_atom_site_fract_z
Si Si1 0.835771 0.107376 0.979668
Si Si2 0.839536 0.210823 0.370684
Si Si3 0.883287 0.864326 0.167701
Si Si4 0.590127 0.854905 0.886949
Si Si5 0.564207 0.431564 0.277391
Si Si6 0.857788 0.887666 0.760034
Si Si7 0.354769 0.577521 0.440022
Si Si8 0.221681 0.357680 0.162617
O O1 0.849890 0.253301 0.938947
O O2 0.694728 0.993678 0.931941
O O3 0.780505 0.144271 0.035580
O O4 0.000000 0.000000 0.000000
O O5 0.665928 0.286244 0.320917
O O6 0.985041 0.306206 0.360072
O O7 0.855283 0.028080 0.358274
O O8 0.836328 0.720343 0.201780
O O9 0.731170 0.945221 0.112163
O O10 0.983258 0.996095 0.219099
O O11 0.526247 0.937313 0.819812
O O12 0.444715 0.806365 0.908689
O O13 0.716617 0.718965 0.886859
O O14 0.693702 0.510020 0.251880
O O15 0.391962 0.381482 0.223960
O O16 0.883710 0.769646 0.817449
O O17 0.500000 0.500000 0.500000
#
# Coordination Sequence:
#
# PCOD9241921 Si02
#       8
#     4   4   4   4   4   4   4   4
#     4  10  19  38  61  78 105 152 205 242 285 348
#     4  10  20  34  57  85 110 159 195 239 290 352
#     4  11  21  38  59  88 123 149 202 242 300 354
#     4   9  20  35  56  86 112 147 198 241 285 342
#     4   9  19  35  56  82 118 160 194 226 286 354
#     4  10  22  34  57  88 120 157 189 244 296 358
#     4  10  21  36  62  84 109 154 207 249 284 344
#     4  11  20  35  56  85 124 150 191 235 299 355
#
# _framework density 20.079035000000001
#
# number of rings (size 3 to 8) (size 9 to 14) (size 15 to 20)
#    0.000    2.000    1.250    3.750    0.000    4.000 
#    0.000    1.250    0.000    0.000    0.000    0.000 
#    0.000    0.000    0.000    0.000    0.000    0.000 
#
# Total GULP energy -178634.033926 kJ/mol
# GULP energy per Si atom -5582.313560 kJ/mol
# Density = 2.003333 g / cm^3
# Si number density = 20.079035 Si / 1000 Ang^3
#
#
#
# Elastic Constant Matrix: (Units=GPa)
#
#
# Indices 1 2 3 4 5 6 
#
# 1 47.4163 -15.4005 15.8384 0.0000 -16.9257 0.0000
# 2 -15.4005 46.4943 -7.3501 0.0000 -3.3615 0.0000
# 3 15.8384 -7.3501 55.9390 0.0000 -12.9284 0.0000
# 4 0.0000 0.0000 0.0000 15.2908 0.0000 -9.2225
# 5 -16.9257 -3.3615 -12.9284 0.0000 32.2392 0.0000
# 6 0.0000 0.0000 0.0000 -9.2225 0.0000 22.7008
#
#
#
# Elastic Compliance Matrix: (Units=1/GPa)
#
#
# Indices 1 2 3 4 5 6 
#
# 1 0.031790 0.011116 -0.003764 0.000000 0.016340 0.000000
# 2 0.011116 0.026282 0.002522 0.000000 0.009588 0.000000
# 3 -0.003764 0.002522 0.020806 0.000000 0.006630 0.000000
# 4 0.000000 0.000000 0.000000 0.086625 0.000000 0.035192
# 5 0.016340 0.009588 0.006630 0.000000 0.043255 0.000000
# 6 0.000000 0.000000 0.000000 0.035192 0.000000 0.058349
#
#
# Mechanical properties :
#
#
# Convention : Reuss Voigt Hill
#
# Bulk Modulus (GPa) = 10.13929 15.11391 12.62660
# Shear Modulus (GPa) = 17.84224 24.49694 21.16959
#
# Velocity S-wave (km/s) = 2.98417 3.49668 3.25054
# Velocity P-wave (km/s) = 4.11514 4.88322 4.51554
#
# Compressibility (1/GPa) = 0.09862625
#
# Stress axis : x y z
#
# Youngs Moduli (GPa) = 31.45626 38.04893 48.06292
#
# Poissons Ratio (x) = -0.42296 0.18091
# Poissons Ratio (y) = -0.34968 -0.12120
# Poissons Ratio (z) = 0.11840 -0.09595
#
# Static dielectric constant tensor:
#      x y z
#    x 1.752910 0.000000 -0.036260 
#    y 0.000000 1.712220 0.000000 
#    z -0.036260 0.000000 1.713290 
# 
# From -- ./inp_files/71934.got.cif
#   From: 2010.05.17/outbox.cif.g08.bks.cpg/sg14_36_cif.got.tgz:71934.got - 2010.06.03 17:49:19.
