data_PCOD9241371
_publ_section_title
;
Structure prediction by ZEFSAII (Michael W. Deem and Ramdas Pophale) SiO2 
 PCOD9241371
Probable space group: P 21/C
;
_chemical_formula_sum "Si O2"
_cell_formula_units_Z 32
_cell_length_a 8.659218
_cell_length_b 21.643140
_cell_length_c 12.024920
_cell_angle_alpha 90.000000
_cell_angle_beta 49.632369
_cell_angle_gamma 90.000000
_cell_volume 1717.044633
_symmetry_space_group_name_H-M "P 21/C"
_symmetry_group_IT_number 14
_symmetry_cell_setting 'monoclinic'
loop_
_space_group_symop_operation_xyz
x,y,z
-x,1/2+y,1/2-z
-x,-y,-z
x,1/2-y,1/2+z
loop_
_atom_site_type_symbol
_atom_site_label
_atom_site_fract_x
_atom_site_fract_y
_atom_site_fract_z
Si Si1 0.927851 0.932300 0.807894
Si Si2 0.970419 0.770231 0.220618
Si Si3 0.215521 0.824718 0.744491
Si Si4 0.330212 0.350894 0.010221
Si Si5 0.746160 0.657745 0.217311
Si Si6 0.708238 0.350692 0.548340
Si Si7 0.701592 0.975331 0.348804
Si Si8 0.234739 0.995636 0.926879
O O1 0.848217 0.900151 0.733348
O O2 0.044592 0.877484 0.817866
O O3 0.755723 0.962303 0.967148
O O4 0.102882 0.983352 0.711480
O O5 0.786270 0.793290 0.382626
O O6 0.877394 0.719835 0.177930
O O7 0.129133 0.733222 0.221474
O O8 0.102306 0.827046 0.111376
O O9 0.426845 0.846573 0.593248
O O10 0.262358 0.813927 0.850427
O O11 0.262106 0.408491 0.116447
O O12 0.280425 0.355264 0.901770
O O13 0.522664 0.664530 0.377240
O O14 0.714927 0.424404 0.569751
O O15 0.662117 0.979884 0.234068
O O16 0.500000 0.000000 0.500000
O O17 0.000000 0.000000 0.000000
#
# Coordination Sequence:
#
# PCOD9241371 Si02
#       8
#     4   4   4   4   4   4   4   4
#     4  10  20  38  58  86 117 154 188 238 288 353
#     4  11  22  37  61  83 114 155 203 242 289 357
#     4  10  20  37  58  78 117 154 191 238 292 342
#     4  11  22  38  59  90 114 155 197 242 301 349
#     4  10  24  40  56  87 125 153 186 247 314 328
#     4  11  20  39  61  83 116 152 196 249 281 352
#     4  11  19  36  62  91 116 152 202 242 290 356
#     4  10  19  35  62  90 108 158 204 233 289 355
#
# _framework density 18.636672000000001
#
# number of rings (size 3 to 8) (size 9 to 14) (size 15 to 20)
#    0.000    1.500    3.750    3.750    0.000    1.000 
#    0.000    1.250    2.750    0.000    0.000    0.000 
#    0.000    0.000    0.000    0.000    0.000    0.000 
#
# Total GULP energy -178347.299945 kJ/mol
# GULP energy per Si atom -5573.353123 kJ/mol
# Density = 1.859425 g / cm^3
# Si number density = 18.636672 Si / 1000 Ang^3
#
#
#
# Elastic Constant Matrix: (Units=GPa)
#
#
# Indices 1 2 3 4 5 6 
#
# 1 62.4748 42.4308 17.9091 0.0000 0.1562 0.0000
# 2 42.4308 78.5743 42.7243 0.0000 15.6397 0.0000
# 3 17.9091 42.7243 108.8424 0.0000 0.9947 0.0000
# 4 0.0000 0.0000 0.0000 7.4614 0.0000 -5.0517
# 5 0.1562 15.6397 0.9947 0.0000 21.3462 0.0000
# 6 0.0000 0.0000 0.0000 -5.0517 0.0000 27.0059
#
#
#
# Elastic Compliance Matrix: (Units=1/GPa)
#
#
# Indices 1 2 3 4 5 6 
#
# 1 0.028652 -0.019928 0.002978 0.000000 0.014252 0.000000
# 2 -0.019928 0.033505 -0.009654 0.000000 -0.023952 0.000000
# 3 0.002978 -0.009654 0.012428 0.000000 0.006472 0.000000
# 4 0.000000 0.000000 0.000000 0.153459 0.000000 0.028706
# 5 0.014252 -0.023952 0.006472 0.000000 0.063990 0.000000
# 6 0.000000 0.000000 0.000000 0.028706 0.000000 0.042399
#
#
# Mechanical properties :
#
#
# Convention : Reuss Voigt Hill
#
# Bulk Modulus (GPa) = 46.78110 50.66886 48.72498
# Shear Modulus (GPa) = 12.66569 20.95117 16.80843
#
# Velocity S-wave (km/s) = 2.60976 3.35653 3.00642
# Velocity P-wave (km/s) = 5.85126 6.50142 6.18489
#
# Compressibility (1/GPa) = 0.02137615
#
# Stress axis : x y z
#
# Youngs Moduli (GPa) = 34.90174 29.84617 80.46370
#
# Poissons Ratio (x) = 0.59478 -0.23961
# Poissons Ratio (y) = 0.69553 0.77679
# Poissons Ratio (z) = -0.10393 0.28813
#
# Static dielectric constant tensor:
#      x y z
#    x 1.713630 0.000000 0.029530 
#    y 0.000000 1.732390 0.000000 
#    z 0.029530 0.000000 1.697670 
# 
# From -- ./inp_files/26790.got.cif
#   From: 2010.05.17/outbox.cif.g08.bks.cpg/sg14_14_cif.got.tgz:26790.got - 2010.06.03 17:49:19.
