data_PCOD9241140
_publ_section_title
;
Structure prediction by ZEFSAII (Michael W. Deem and Ramdas Pophale) SiO2 
 PCOD9241140
Probable space group: P 21/C
;
_chemical_formula_sum "Si O2"
_cell_formula_units_Z 28
_cell_length_a 27.398580
_cell_length_b 10.702441
_cell_length_c 27.097931
_cell_angle_alpha 90.000000
_cell_angle_beta 169.498434
_cell_angle_gamma 90.000000
_cell_volume 1448.251923
_symmetry_space_group_name_H-M "P 21/C"
_symmetry_group_IT_number 14
_symmetry_cell_setting 'monoclinic'
loop_
_space_group_symop_operation_xyz
x,y,z
-x,1/2+y,1/2-z
-x,-y,-z
x,1/2-y,1/2+z
loop_
_atom_site_type_symbol
_atom_site_label
_atom_site_fract_x
_atom_site_fract_y
_atom_site_fract_z
Si Si1 0.773086 0.653850 0.253028
Si Si2 0.012732 0.091696 0.648036
Si Si3 0.516476 0.357772 0.234468
Si Si4 0.242264 0.446335 0.271389
Si Si5 0.022508 0.381654 0.675228
Si Si6 0.503177 0.934238 0.802625
Si Si7 0.283053 0.969876 0.219569
O O1 0.698153 0.599258 0.232167
O O2 0.080996 0.616113 0.550778
O O3 0.733680 0.798749 0.210323
O O4 0.577820 0.589407 0.018164
O O5 0.015255 0.242431 0.644598
O O6 0.710945 0.061805 0.365131
O O7 0.151594 0.032018 0.738066
O O8 0.201524 0.056584 0.881333
O O9 0.502834 0.206267 0.227313
O O10 0.450482 0.450563 0.213671
O O11 0.820768 0.381280 0.520800
O O12 0.316794 0.395613 0.990919
O O13 0.500000 0.500000 0.500000
O O14 0.000000 0.500000 0.000000
O O15 0.874326 0.472074 0.488632
#
# Coordination Sequence:
#
# PCOD9241140 Si02
#       7
#     4   4   4   4   4   4   4
#     4  10  21  35  56  83 116 151 191 244 298 328
#     4  10  21  37  60  82 111 158 197 232 281 355
#     4  10  21  36  59  88 113 150 188 245 290 351
#     4  12  24  38  58  85 122 159 204 243 283 356
#     4  10  19  34  61  86 111 144 199 237 284 349
#     4  10  21  39  60  85 116 148 198 236 299 352
#     4  10  19  35  59  84 112 147 193 252 290 338
#
# _framework density 19.333653000000002
#
# number of rings (size 3 to 8) (size 9 to 14) (size 15 to 20)
#    0.000    1.714    1.429    3.429    4.000    0.000 
#    0.000    4.286    0.000    0.000    0.000    0.000 
#    0.000    0.000    0.000    0.000    0.000    0.000 
#
# Total GULP energy -155997.139693 kJ/mol
# GULP energy per Si atom -5571.326418 kJ/mol
# Density = 1.928965 g / cm^3
# Si number density = 19.333653 Si / 1000 Ang^3
#
#
#
# Elastic Constant Matrix: (Units=GPa)
#
#
# Indices 1 2 3 4 5 6 
#
# 1 82.7681 41.2315 6.6244 0.0000 1.1579 0.0000
# 2 41.2315 53.6364 4.1103 0.0000 6.9274 0.0000
# 3 6.6244 4.1103 97.6137 0.0000 7.5941 0.0000
# 4 0.0000 0.0000 0.0000 21.1742 0.0000 -0.5516
# 5 1.1579 6.9274 7.5941 0.0000 26.1369 0.0000
# 6 0.0000 0.0000 0.0000 -0.5516 0.0000 22.6152
#
#
#
# Elastic Compliance Matrix: (Units=1/GPa)
#
#
# Indices 1 2 3 4 5 6 
#
# 1 0.019936 -0.015711 -0.000969 0.000000 0.003562 0.000000
# 2 -0.015711 0.031704 0.000338 0.000000 -0.007805 0.000000
# 3 -0.000969 0.000338 0.010538 0.000000 -0.003109 0.000000
# 4 0.000000 0.000000 0.000000 0.047257 0.000000 0.001153
# 5 0.003562 -0.007805 -0.003109 0.000000 0.041074 0.000000
# 6 0.000000 0.000000 0.000000 0.001153 0.000000 0.044246
#
#
# Mechanical properties :
#
#
# Convention : Reuss Voigt Hill
#
# Bulk Modulus (GPa) = 33.90388 37.55005 35.72697
# Shear Modulus (GPa) = 21.07301 26.12206 23.59754
#
# Velocity S-wave (km/s) = 3.30504 3.67974 3.49742
# Velocity P-wave (km/s) = 5.66910 6.12522 5.90157
#
# Compressibility (1/GPa) = 0.02949515
#
# Stress axis : x y z
#
# Youngs Moduli (GPa) = 50.15959 31.54185 94.89674
#
# Poissons Ratio (x) = 0.49557 0.09191
# Poissons Ratio (y) = 0.78808 -0.03212
# Poissons Ratio (z) = 0.04858 -0.01068
#
# Static dielectric constant tensor:
#      x y z
#    x 1.791880 0.000000 0.058850 
#    y 0.000000 1.645660 0.000000 
#    z 0.058850 0.000000 1.702200 
# 
# From -- ./inp_files/80991.got.cif
#   From: 2010.05.17/outbox.cif.g08.bks.cpg/sg14_41_cif.got.tgz:80991.got - 2010.06.03 17:49:19.
