data_PCOD9241191
_publ_section_title
;
Structure prediction by ZEFSAII (Michael W. Deem and Ramdas Pophale) SiO2 
 PCOD9241191
Probable space group: P 21/C
;
_chemical_formula_sum "Si O2"
_cell_formula_units_Z 28
_cell_length_a 23.193841
_cell_length_b 8.011836
_cell_length_c 13.134212
_cell_angle_alpha 90.000000
_cell_angle_beta 150.458039
_cell_angle_gamma 90.000000
_cell_volume 1203.397928
_symmetry_space_group_name_H-M "P 21/C"
_symmetry_group_IT_number 14
_symmetry_cell_setting 'monoclinic'
loop_
_space_group_symop_operation_xyz
x,y,z
-x,1/2+y,1/2-z
-x,-y,-z
x,1/2-y,1/2+z
loop_
_atom_site_type_symbol
_atom_site_label
_atom_site_fract_x
_atom_site_fract_y
_atom_site_fract_z
Si Si1 0.136706 0.958318 0.204763
Si Si2 0.355375 0.456574 0.937274
Si Si3 0.618835 0.016147 0.121989
Si Si4 0.158637 0.082002 0.458977
Si Si5 0.928880 0.233562 0.571463
Si Si6 0.590790 0.314360 0.370790
Si Si7 0.722598 0.140492 0.869576
O O1 0.225401 0.080428 0.280912
O O2 0.176142 0.975931 0.381532
O O3 0.129762 0.791225 0.125221
O O4 0.000000 0.000000 0.000000
O O5 0.460848 0.332291 0.123423
O O6 0.386134 0.630747 0.046204
O O7 0.340485 0.500849 0.796020
O O8 0.714890 0.878415 0.300573
O O9 0.673596 0.187852 0.247637
O O10 0.600347 0.051778 0.975772
O O11 0.500000 0.000000 0.000000
O O12 0.097326 0.956495 0.443731
O O13 0.065868 0.224646 0.289537
O O14 0.858758 0.346895 0.547280
O O15 0.683089 0.361422 0.424840
#
# Coordination Sequence:
#
# PCOD9241191 Si02
#       7
#     4   4   4   4   4   4   4
#     4   9  18  36  58  74  99 144 182 207 254 320
#     4  10  20  34  56  80 105 138 178 218 260 312
#     4  10  20  34  55  80 106 140 178 215 256 312
#     4  10  19  35  55  77 106 136 174 218 260 309
#     4   9  19  35  55  78 101 137 176 215 259 309
#     4  11  20  35  54  78 109 142 172 212 266 314
#     4   9  19  35  54  75 107 141 174 213 264 314
#
# _framework density 23.267448999999999
#
# number of rings (size 3 to 8) (size 9 to 14) (size 15 to 20)
#    0.000    2.286    0.000    4.714    0.000    0.000 
#    0.000   17.143    0.000    0.000    0.000    0.000 
#    0.000    0.000    0.000    0.000    0.000    0.000 
#
# Total GULP energy -156304.717445 kJ/mol
# GULP energy per Si atom -5582.311337 kJ/mol
# Density = 2.321449 g / cm^3
# Si number density = 23.267449 Si / 1000 Ang^3
#
#
#
# Elastic Constant Matrix: (Units=GPa)
#
#
# Indices 1 2 3 4 5 6 
#
# 1 123.0191 9.3913 28.2971 0.0000 -5.1057 0.0000
# 2 9.3913 51.4867 5.1741 0.0000 3.5170 0.0000
# 3 28.2971 5.1741 93.6914 0.0000 29.6311 0.0000
# 4 0.0000 0.0000 0.0000 30.2140 0.0000 8.2616
# 5 -5.1057 3.5170 29.6311 0.0000 42.7046 0.0000
# 6 0.0000 0.0000 0.0000 8.2616 0.0000 15.9588
#
#
#
# Elastic Compliance Matrix: (Units=1/GPa)
#
#
# Indices 1 2 3 4 5 6 
#
# 1 0.009338 -0.001576 -0.004007 0.000000 0.004026 0.000000
# 2 -0.001576 0.019837 -0.000056 0.000000 -0.001784 0.000000
# 3 -0.004007 -0.000056 0.015420 0.000000 -0.011174 0.000000
# 4 0.000000 0.000000 0.000000 0.038555 0.000000 -0.019959
# 5 0.004026 -0.001784 -0.011174 0.000000 0.031798 0.000000
# 6 0.000000 0.000000 0.000000 -0.019959 0.000000 0.072994
#
#
# Mechanical properties :
#
#
# Convention : Reuss Voigt Hill
#
# Bulk Modulus (GPa) = 30.01195 39.32468 34.66832
# Shear Modulus (GPa) = 23.77281 32.79780 28.28531
#
# Velocity S-wave (km/s) = 3.19990 3.75854 3.49041
# Velocity P-wave (km/s) = 5.15550 5.98108 5.58357
#
# Compressibility (1/GPa) = 0.03332006
#
# Stress axis : x y z
#
# Youngs Moduli (GPa) = 107.09165 50.41010 64.84901
#
# Poissons Ratio (x) = 0.07943 0.25982
# Poissons Ratio (y) = 0.16874 0.00360
# Poissons Ratio (z) = 0.42907 0.00280
#
# Static dielectric constant tensor:
#      x y z
#    x 1.921960 0.000000 0.048400 
#    y 0.000000 1.942100 0.000000 
#    z 0.048400 0.000000 1.982080 
# 
# From -- ./inp_files/35198.got.cif
#   From: 2010.05.17/outbox.cif.g08.bks.cpg/sg14_18_cif.got.tgz:35198.got - 2010.06.03 17:49:19.
