data_PCOD9241420
_publ_section_title
;
Structure prediction by ZEFSAII (Michael W. Deem and Ramdas Pophale) SiO2 
 PCOD9241420
Probable space group: P 21/C
;
_chemical_formula_sum "Si O2"
_cell_formula_units_Z 28
_cell_length_a 11.671555
_cell_length_b 7.186908
_cell_length_c 20.087714
_cell_angle_alpha 90.000000
_cell_angle_beta 41.809565
_cell_angle_gamma 90.000000
_cell_volume 1123.320562
_symmetry_space_group_name_H-M "P 21/C"
_symmetry_group_IT_number 14
_symmetry_cell_setting 'monoclinic'
loop_
_space_group_symop_operation_xyz
x,y,z
-x,1/2+y,1/2-z
-x,-y,-z
x,1/2-y,1/2+z
loop_
_atom_site_type_symbol
_atom_site_label
_atom_site_fract_x
_atom_site_fract_y
_atom_site_fract_z
Si Si1 0.230802 0.696651 0.372414
Si Si2 0.848034 0.640412 0.516242
Si Si3 0.299972 0.847139 0.700369
Si Si4 0.527691 0.300632 0.113285
Si Si5 0.030620 0.924669 0.165592
Si Si6 0.647377 0.867547 0.498613
Si Si7 0.773303 0.638461 0.320060
O O1 0.234711 0.474332 0.387894
O O2 0.283695 0.763331 0.276128
O O3 0.354619 0.775356 0.374461
O O4 0.026011 0.729871 0.463434
O O5 0.887482 0.485938 0.440488
O O6 0.734323 0.790120 0.527748
O O7 0.452391 0.791170 0.585502
O O8 0.384735 0.042774 0.688383
O O9 0.111849 0.911927 0.760598
O O10 0.639063 0.409400 0.008850
O O11 0.409823 0.132125 0.138249
O O12 0.927777 0.730805 0.210688
O O13 0.162482 0.955330 0.169530
O O14 0.739824 0.787840 0.394280
#
# Coordination Sequence:
#
# PCOD9241420 Si02
#       7
#     4   4   4   4   4   4   4
#     4  10  19  36  55  76 110 132 176 216 251 310
#     4   9  20  36  53  76 107 142 165 213 266 303
#     4   8  19  34  55  74 104 139 169 211 258 301
#     4   9  20  33  54  81 100 134 178 210 254 305
#     4   9  19  36  54  76 103 141 174 205 265 307
#     4   9  19  35  57  75 105 139 172 208 266 304
#     4  10  19  38  54  77 106 135 174 217 255 309
#
# _framework density 24.926100999999999
#
# number of rings (size 3 to 8) (size 9 to 14) (size 15 to 20)
#    0.857    2.000    0.000    0.429    2.000    1.714 
#    2.571    2.857    0.000    0.000    0.000    0.000 
#    0.000    0.000    0.000    0.000    0.000    0.000 
#
# Total GULP energy -156128.194156 kJ/mol
# GULP energy per Si atom -5576.006934 kJ/mol
# Density = 2.486937 g / cm^3
# Si number density = 24.926101 Si / 1000 Ang^3
#
#
#
# Elastic Constant Matrix: (Units=GPa)
#
#
# Indices 1 2 3 4 5 6 
#
# 1 77.2059 12.0301 -4.6497 0.0000 -26.9330 0.0000
# 2 12.0301 38.3485 0.3246 0.0000 -2.0298 0.0000
# 3 -4.6497 0.3246 52.2934 0.0000 10.4310 0.0000
# 4 0.0000 0.0000 0.0000 17.2975 0.0000 -2.3818
# 5 -26.9330 -2.0298 10.4310 0.0000 23.5769 0.0000
# 6 0.0000 0.0000 0.0000 -2.3818 0.0000 32.3242
#
#
#
# Elastic Compliance Matrix: (Units=1/GPa)
#
#
# Indices 1 2 3 4 5 6 
#
# 1 0.023281 -0.005814 -0.003399 0.000000 0.027598 0.000000
# 2 -0.005814 0.027669 0.000177 0.000000 -0.004337 0.000000
# 3 -0.003399 0.000177 0.021487 0.000000 -0.013374 0.000000
# 4 0.000000 0.000000 0.000000 0.058405 0.000000 0.004304
# 5 0.027598 -0.004337 -0.013374 0.000000 0.079485 0.000000
# 6 0.000000 0.000000 0.000000 0.004304 0.000000 0.031254
#
#
# Mechanical properties :
#
#
# Convention : Reuss Voigt Hill
#
# Bulk Modulus (GPa) = 18.39406 20.36197 19.37801
# Shear Modulus (GPa) = 18.00015 25.31591 21.65803
#
# Velocity S-wave (km/s) = 2.69018 3.19037 2.95089
# Velocity P-wave (km/s) = 4.12855 4.66454 4.40470
#
# Compressibility (1/GPa) = 0.05436537
#
# Stress axis : x y z
#
# Youngs Moduli (GPa) = 42.95311 36.14099 46.53910
#
# Poissons Ratio (x) = 0.21012 0.15818
# Poissons Ratio (y) = 0.24972 -0.00821
# Poissons Ratio (z) = 0.14600 -0.00638
#
# Static dielectric constant tensor:
#      x y z
#    x 2.000840 0.000000 -0.014930 
#    y 0.000000 2.063950 0.000000 
#    z -0.014930 0.000000 2.014540 
# 
# From -- ./inp_files/72963.got.cif
#   From: 2010.05.17/outbox.cif.g08.bks.cpg/sg14_37_cif.got.tgz:72963.got - 2010.06.03 17:49:19.
