data_PCOD9241112
_publ_section_title
;
Structure prediction by ZEFSAII (Michael W. Deem and Ramdas Pophale) SiO2 
 PCOD9241112
Probable space group: P 21/C
;
_chemical_formula_sum "Si O2"
_cell_formula_units_Z 32
_cell_length_a 9.163373
_cell_length_b 15.230251
_cell_length_c 12.665684
_cell_angle_alpha 90.000000
_cell_angle_beta 83.861210
_cell_angle_gamma 90.000000
_cell_volume 1757.492839
_symmetry_space_group_name_H-M "P 21/C"
_symmetry_group_IT_number 14
_symmetry_cell_setting 'monoclinic'
loop_
_space_group_symop_operation_xyz
x,y,z
-x,1/2+y,1/2-z
-x,-y,-z
x,1/2-y,1/2+z
loop_
_atom_site_type_symbol
_atom_site_label
_atom_site_fract_x
_atom_site_fract_y
_atom_site_fract_z
Si Si1 0.701382 0.425755 0.687949
Si Si2 0.891300 0.789568 0.718828
Si Si3 0.904511 0.044786 0.361752
Si Si4 0.798426 0.996547 0.955187
Si Si5 0.812597 0.059097 0.602461
Si Si6 0.016990 0.146206 0.941620
Si Si7 0.642936 0.571286 0.263722
Si Si8 0.129437 0.747170 0.369884
O O1 0.802121 0.472038 0.768785
O O2 0.731154 0.467574 0.570073
O O3 0.531084 0.422731 0.728175
O O4 0.763101 0.327159 0.681246
O O5 0.886393 0.704908 0.643394
O O6 0.736234 0.838018 0.748797
O O7 0.997349 0.867313 0.664906
O O8 0.978865 0.756570 0.814937
O O9 0.811076 0.053818 0.475806
O O10 0.024066 0.969786 0.373891
O O11 0.910336 0.071027 0.902764
O O12 0.686697 0.971529 0.872733
O O13 0.890719 0.910124 0.980490
O O14 0.795543 0.159087 0.638046
O O15 0.702829 0.992731 0.667654
O O16 0.914645 0.215790 0.009965
#
# Coordination Sequence:
#
# PCOD9241112 Si02
#       8
#     4   4   4   4   4   4   4   4
#     4  10  23  39  56  81 122 155 188 233 287 348
#     4  10  19  34  59  84 116 142 189 244 284 332
#     4   9  20  37  57  86 110 147 192 240 283 337
#     4  10  21  37  60  86 115 152 196 236 287 340
#     4  10  20  36  62  84 111 148 196 237 291 339
#     4  10  19  34  60  88 106 144 196 246 282 321
#     4  11  22  39  56  86 121 155 188 233 289 353
#     4  10  19  36  58  83 109 145 192 242 282 335
#
# _framework density 18.207754999999999
#
# number of rings (size 3 to 8) (size 9 to 14) (size 15 to 20)
#    0.000    2.000    2.500    1.125    7.000    0.500 
#    2.250    1.250    0.000    0.000    0.000    0.000 
#    0.000    0.000    0.000    0.000    0.000    0.000 
#
# Total GULP energy -178487.266205 kJ/mol
# GULP energy per Si atom -5577.727069 kJ/mol
# Density = 1.816631 g / cm^3
# Si number density = 18.207755 Si / 1000 Ang^3
#
#
#
# Elastic Constant Matrix: (Units=GPa)
#
#
# Indices 1 2 3 4 5 6 
#
# 1 70.7234 1.2323 17.4656 0.0000 -12.2246 0.0000
# 2 1.2323 59.0852 12.8248 0.0000 -6.0206 0.0000
# 3 17.4656 12.8248 72.5445 0.0000 -2.8069 0.0000
# 4 0.0000 0.0000 0.0000 22.4678 0.0000 -6.0365
# 5 -12.2246 -6.0206 -2.8069 0.0000 19.6307 0.0000
# 6 0.0000 0.0000 0.0000 -6.0365 0.0000 9.7785
#
#
#
# Elastic Compliance Matrix: (Units=1/GPa)
#
#
# Indices 1 2 3 4 5 6 
#
# 1 0.016889 0.001566 -0.003939 0.000000 0.010434 0.000000
# 2 0.001566 0.018243 -0.003367 0.000000 0.006089 0.000000
# 3 -0.003939 -0.003367 0.015278 0.000000 -0.001301 0.000000
# 4 0.000000 0.000000 0.000000 0.053358 0.000000 0.032940
# 5 0.010434 0.006089 -0.001301 0.000000 0.059120 0.000000
# 6 0.000000 0.000000 0.000000 0.032940 0.000000 0.122600
#
#
# Mechanical properties :
#
#
# Convention : Reuss Voigt Hill
#
# Bulk Modulus (GPa) = 25.68699 29.48872 27.58786
# Shear Modulus (GPa) = 16.13197 21.76409 18.94803
#
# Velocity S-wave (km/s) = 2.97980 3.46109 3.22942
# Velocity P-wave (km/s) = 5.09679 5.67477 5.39353
#
# Compressibility (1/GPa) = 0.03893021
#
# Stress axis : x y z
#
# Youngs Moduli (GPa) = 59.21142 54.81484 65.45428
#
# Poissons Ratio (x) = -0.08584 0.25784
# Poissons Ratio (y) = -0.09272 0.22036
# Poissons Ratio (z) = 0.23324 0.18454
#
# Static dielectric constant tensor:
#      x y z
#    x 1.593760 0.000000 -0.001210 
#    y 0.000000 1.630720 0.000000 
#    z -0.001210 0.000000 1.666580 
# 
# From -- ./inp_files/25511.got.cif
#   From: 2010.05.17/outbox.cif.g08.bks.cpg/sg14_13_cif.got.tgz:25511.got - 2010.06.03 17:49:19.
