data_PCOD9241104
_publ_section_title
;
Structure prediction by ZEFSAII (Michael W. Deem and Ramdas Pophale) SiO2 
 PCOD9241104
Probable space group: P 21/C
;
_chemical_formula_sum "Si O2"
_cell_formula_units_Z 32
_cell_length_a 14.576395
_cell_length_b 17.539119
_cell_length_c 8.791909
_cell_angle_alpha 90.000000
_cell_angle_beta 45.705863
_cell_angle_gamma 90.000000
_cell_volume 1608.833345
_symmetry_space_group_name_H-M "P 21/C"
_symmetry_group_IT_number 14
_symmetry_cell_setting 'monoclinic'
loop_
_space_group_symop_operation_xyz
x,y,z
-x,1/2+y,1/2-z
-x,-y,-z
x,1/2-y,1/2+z
loop_
_atom_site_type_symbol
_atom_site_label
_atom_site_fract_x
_atom_site_fract_y
_atom_site_fract_z
Si Si1 0.281071 0.380906 0.759838
Si Si2 0.677974 0.035480 0.900729
Si Si3 0.849798 0.775405 0.134905
Si Si4 0.026610 0.775617 0.680765
Si Si5 0.799428 0.312449 0.278641
Si Si6 0.558255 0.297191 0.006763
Si Si7 0.489013 0.583686 0.695101
Si Si8 0.596233 0.682471 0.106534
O O1 0.236882 0.464224 0.756468
O O2 0.178498 0.313677 0.873012
O O3 0.397428 0.363665 0.507522
O O4 0.352007 0.383394 0.840682
O O5 0.746815 0.106603 0.894644
O O6 0.607535 0.067681 0.831125
O O7 0.568960 0.994184 0.129043
O O8 0.718346 0.803870 0.357093
O O9 0.954713 0.779216 0.145526
O O10 0.911936 0.812295 0.913148
O O11 0.115116 0.826798 0.471016
O O12 0.115771 0.729507 0.693326
O O13 0.683570 0.255936 0.366644
O O14 0.571589 0.372499 0.094740
O O15 0.448247 0.246207 0.218548
O O16 0.518383 0.320418 0.882567
#
# Coordination Sequence:
#
# PCOD9241104 Si02
#       8
#     4   4   4   4   4   4   4   4
#     4  10  19  34  58  89 116 151 190 245 308 352
#     4   9  19  37  61  82 129 160 195 229 311 385
#     4  11  19  36  58  86 115 143 202 259 295 330
#     4  10  23  37  57  83 113 156 211 249 277 340
#     4  11  22  39  60  85 119 167 195 245 294 366
#     4  12  21  33  61  95 120 148 204 244 310 364
#     4   9  19  35  56  91 123 155 183 249 298 378
#     4  12  19  31  59  93 115 144 186 266 311 341
#
# _framework density 19.890188999999999
#
# number of rings (size 3 to 8) (size 9 to 14) (size 15 to 20)
#    0.750    0.750    3.750    3.000    0.000    0.000 
#    0.000    3.125    5.500    0.750    0.000    0.000 
#    0.000    0.000    0.000    0.000    0.000    0.000 
#
# Total GULP energy -178183.183117 kJ/mol
# GULP energy per Si atom -5568.224472 kJ/mol
# Density = 1.984492 g / cm^3
# Si number density = 19.890189 Si / 1000 Ang^3
#
#
#
# Elastic Constant Matrix: (Units=GPa)
#
#
# Indices 1 2 3 4 5 6 
#
# 1 62.9560 16.9047 12.1117 0.0000 6.2613 0.0000
# 2 16.9047 58.6200 12.0276 0.0000 -4.4842 0.0000
# 3 12.1117 12.0276 91.3925 0.0000 -1.5005 0.0000
# 4 0.0000 0.0000 0.0000 16.6687 0.0000 6.8481
# 5 6.2613 -4.4842 -1.5005 0.0000 28.2454 0.0000
# 6 0.0000 0.0000 0.0000 6.8481 0.0000 19.8793
#
#
#
# Elastic Compliance Matrix: (Units=1/GPa)
#
#
# Indices 1 2 3 4 5 6 
#
# 1 0.018128 -0.005238 -0.001794 0.000000 -0.004945 0.000000
# 2 -0.005238 0.019248 -0.001771 0.000000 0.004123 0.000000
# 3 -0.001794 -0.001771 0.011425 0.000000 0.000723 0.000000
# 4 0.000000 0.000000 0.000000 0.069883 0.000000 -0.024073
# 5 -0.004945 0.004123 0.000723 0.000000 0.037193 0.000000
# 6 0.000000 0.000000 0.000000 -0.024073 0.000000 0.058596
#
#
# Mechanical properties :
#
#
# Convention : Reuss Voigt Hill
#
# Bulk Modulus (GPa) = 32.05763 32.78407 32.42085
# Shear Modulus (GPa) = 20.62046 24.42032 22.52039
#
# Velocity S-wave (km/s) = 3.22330 3.50774 3.36852
# Velocity P-wave (km/s) = 5.47770 5.73794 5.60933
#
# Compressibility (1/GPa) = 0.03119382
#
# Stress axis : x y z
#
# Youngs Moduli (GPa) = 55.16470 51.95268 87.53055
#
# Poissons Ratio (x) = 0.27211 0.15705
# Poissons Ratio (y) = 0.28894 0.15505
# Poissons Ratio (z) = 0.09898 0.09203
#
# Static dielectric constant tensor:
#      x y z
#    x 1.727790 0.000000 -0.014240 
#    y 0.000000 1.746370 0.000000 
#    z -0.014240 0.000000 1.753230 
# 
# From -- ./inp_files/16771.got.cif
#   From: 2010.05.17/outbox.cif.g08.bks.cpg/sg14_9_cif.got.tgz:16771.got - 2010.06.03 17:49:19.
