data_PCOD9241363
_publ_section_title
;
Structure prediction by ZEFSAII (Michael W. Deem and Ramdas Pophale) SiO2 
 PCOD9241363
Probable space group: P 21/C
;
_chemical_formula_sum "Si O2"
_cell_formula_units_Z 28
_cell_length_a 17.850900
_cell_length_b 5.156830
_cell_length_c 13.491297
_cell_angle_alpha 90.000000
_cell_angle_beta 121.513999
_cell_angle_gamma 90.000000
_cell_volume 1058.759643
_symmetry_space_group_name_H-M "P 21/C"
_symmetry_group_IT_number 14
_symmetry_cell_setting 'monoclinic'
loop_
_space_group_symop_operation_xyz
x,y,z
-x,1/2+y,1/2-z
-x,-y,-z
x,1/2-y,1/2+z
loop_
_atom_site_type_symbol
_atom_site_label
_atom_site_fract_x
_atom_site_fract_y
_atom_site_fract_z
Si Si1 0.199484 0.860349 0.271971
Si Si2 0.303713 0.291511 0.700492
Si Si3 0.221558 0.294624 0.959853
Si Si4 0.449850 0.589833 0.681303
Si Si5 0.927405 0.416317 0.597892
Si Si6 0.358011 0.481928 0.424088
Si Si7 0.974472 0.091514 0.360530
O O1 0.288576 0.711455 0.359742
O O2 0.127066 0.655751 0.184677
O O3 0.226437 0.068033 0.208173
O O4 0.168083 0.014546 0.350075
O O5 0.257562 0.102660 0.588758
O O6 0.361913 0.496800 0.678911
O O7 0.366648 0.147626 0.822521
O O8 0.171119 0.026317 0.950758
O O9 0.305903 0.231827 0.952037
O O10 0.479903 0.872966 0.736009
O O11 0.432799 0.573643 0.551097
O O12 0.965568 0.157198 0.574112
O O13 0.965902 0.415969 0.735375
O O14 0.970072 0.659039 0.572328
#
# Coordination Sequence:
#
# PCOD9241363 Si02
#       7
#     4   4   4   4   4   4   4
#     4  11  22  42  71 101 143 193 246 302 360 435
#     4  10  26  44  71 108 143 192 238 301 361 439
#     4  10  21  42  67 101 143 193 249 296 359 432
#     4  11  28  50  76 108 147 185 236 294 365 445
#     4  10  19  35  61  97 133 186 239 289 349 403
#     4  10  24  43  74 102 142 189 240 292 361 440
#     4  10  20  34  62  96 134 183 240 289 348 409
#
# _framework density 26.446038999999999
#
# number of rings (size 3 to 8) (size 9 to 14) (size 15 to 20)
#    0.000    1.714    1.429    2.571   10.000    2.286 
#    0.000    1.429    0.000    0.000    0.000    4.000 
#    0.000    0.000    0.000    0.000    0.000    0.000 
#
# Total GULP energy -156572.314408 kJ/mol
# GULP energy per Si atom -5591.868372 kJ/mol
# Density = 2.638585 g / cm^3
# Si number density = 26.446039 Si / 1000 Ang^3
#
#
#
# Elastic Constant Matrix: (Units=GPa)
#
#
# Indices 1 2 3 4 5 6 
#
# 1 87.3433 28.9422 32.5172 0.0000 -0.2488 0.0000
# 2 28.9422 114.6341 31.8965 0.0000 -1.9271 0.0000
# 3 32.5172 31.8965 166.4275 0.0000 -16.6123 0.0000
# 4 0.0000 0.0000 0.0000 19.0464 0.0000 13.5986
# 5 -0.2488 -1.9271 -16.6123 0.0000 37.9259 0.0000
# 6 0.0000 0.0000 0.0000 13.5986 0.0000 48.3852
#
#
#
# Elastic Compliance Matrix: (Units=1/GPa)
#
#
# Indices 1 2 3 4 5 6 
#
# 1 0.013152 -0.002741 -0.002143 0.000000 -0.000992 0.000000
# 2 -0.002741 0.009790 -0.001352 0.000000 -0.000113 0.000000
# 3 -0.002143 -0.001352 0.006984 0.000000 0.002976 0.000000
# 4 0.000000 0.000000 0.000000 0.065684 0.000000 -0.018460
# 5 -0.000992 -0.000113 0.002976 0.000000 0.027659 0.000000
# 6 0.000000 0.000000 0.000000 -0.018460 0.000000 0.025856
#
#
# Mechanical properties :
#
#
# Convention : Reuss Voigt Hill
#
# Bulk Modulus (GPa) = 57.29648 61.67963 59.48806
# Shear Modulus (GPa) = 29.86606 39.40810 34.63708
#
# Velocity S-wave (km/s) = 3.36418 3.86441 3.62294
# Velocity P-wave (km/s) = 6.06653 6.57914 6.32802
#
# Compressibility (1/GPa) = 0.01745308
#
# Stress axis : x y z
#
# Youngs Moduli (GPa) = 76.03119 102.14811 143.19249
#
# Poissons Ratio (x) = 0.27998 0.30693
# Poissons Ratio (y) = 0.20840 0.19359
# Poissons Ratio (z) = 0.16297 0.13810
#
# Static dielectric constant tensor:
#      x y z
#    x 2.127480 0.000000 -0.004020 
#    y 0.000000 2.094840 0.000000 
#    z -0.004020 0.000000 2.091490 
# 
# From -- ./inp_files/34772.got.cif
#   From: 2010.05.17/outbox.cif.g08.bks.cpg/sg14_18_cif.got.tgz:34772.got - 2010.06.03 17:49:19.
