data_PCOD9241970
_publ_section_title
;
Structure prediction by ZEFSAII (Michael W. Deem and Ramdas Pophale) SiO2 
 PCOD9241970
Probable space group: P 21/C
;
_chemical_formula_sum "Si O2"
_cell_formula_units_Z 28
_cell_length_a 8.317495
_cell_length_b 9.231399
_cell_length_c 25.206312
_cell_angle_alpha 90.000000
_cell_angle_beta 133.011187
_cell_angle_gamma 90.000000
_cell_volume 1415.199783
_symmetry_space_group_name_H-M "P 21/C"
_symmetry_group_IT_number 14
_symmetry_cell_setting 'monoclinic'
loop_
_space_group_symop_operation_xyz
x,y,z
-x,1/2+y,1/2-z
-x,-y,-z
x,1/2-y,1/2+z
loop_
_atom_site_type_symbol
_atom_site_label
_atom_site_fract_x
_atom_site_fract_y
_atom_site_fract_z
Si Si1 0.769319 0.820694 0.961617
Si Si2 0.112410 0.123375 0.183913
Si Si3 0.146253 0.104197 0.616116
Si Si4 0.218912 0.589302 0.612545
Si Si5 0.656457 0.418049 0.994116
Si Si6 0.516584 0.122502 0.342144
Si Si7 0.381382 0.861408 0.948463
O O1 0.819758 0.701679 0.928762
O O2 0.551958 0.789822 0.946109
O O3 0.735810 0.972997 0.923662
O O4 0.981046 0.841289 0.046295
O O5 0.145618 0.281689 0.164319
O O6 0.262095 0.111931 0.269354
O O7 0.851195 0.102551 0.130893
O O8 0.197721 0.003206 0.161325
O O9 0.908012 0.029186 0.556120
O O10 0.339047 0.987513 0.660867
O O11 0.395041 0.716762 0.650391
O O12 0.568667 0.417694 0.914644
O O13 0.500000 0.500000 0.000000
O O14 0.668310 0.250926 0.015719
O O15 0.500000 0.000000 0.000000
#
# Coordination Sequence:
#
# PCOD9241970 Si02
#       7
#     4   4   4   4   4   4   4
#     4  10  19  38  63  89 111 153 210 247 288 352
#     4  10  23  40  58  92 127 154 198 258 306 356
#     4  10  22  40  62  86 121 159 202 251 293 366
#     4  10  20  36  64  90 113 156 208 244 290 367
#     4  11  24  38  58  90 121 157 202 251 302 364
#     4  12  22  39  62  89 124 162 199 248 314 359
#     4  11  21  38  62  86 118 158 203 250 293 356
#
# _framework density 19.785191000000001
#
# number of rings (size 3 to 8) (size 9 to 14) (size 15 to 20)
#    0.000    1.429    2.857    3.000    2.000    0.000 
#    0.000   11.429    0.000    0.000    0.000    0.000 
#    0.000    0.000    0.000    0.000    0.000    0.000 
#
# Total GULP energy -156520.119060 kJ/mol
# GULP energy per Si atom -5590.004252 kJ/mol
# Density = 1.974016 g / cm^3
# Si number density = 19.785191 Si / 1000 Ang^3
#
#
#
# Elastic Constant Matrix: (Units=GPa)
#
#
# Indices 1 2 3 4 5 6 
#
# 1 74.7584 -2.1438 25.8218 0.0000 20.0645 0.0000
# 2 -2.1438 67.5471 15.1452 0.0000 12.7921 0.0000
# 3 25.8218 15.1452 120.7772 0.0000 30.2086 0.0000
# 4 0.0000 0.0000 0.0000 12.4156 0.0000 8.6785
# 5 20.0645 12.7921 30.2086 0.0000 27.3802 0.0000
# 6 0.0000 0.0000 0.0000 8.6785 0.0000 29.0106
#
#
#
# Elastic Compliance Matrix: (Units=1/GPa)
#
#
# Indices 1 2 3 4 5 6 
#
# 1 0.017323 0.003253 -0.000768 0.000000 -0.013367 0.000000
# 2 0.003253 0.016856 -0.000336 0.000000 -0.009889 0.000000
# 3 -0.000768 -0.000336 0.011472 0.000000 -0.011937 0.000000
# 4 0.000000 0.000000 0.000000 0.101838 0.000000 -0.030465
# 5 -0.013367 -0.009889 -0.011937 0.000000 0.064108 0.000000
# 6 0.000000 0.000000 0.000000 -0.030465 0.000000 0.043584
#
#
# Mechanical properties :
#
#
# Convention : Reuss Voigt Hill
#
# Bulk Modulus (GPa) = 20.02065 37.85878 28.93971
# Shear Modulus (GPa) = 18.68945 28.71193 23.70069
#
# Velocity S-wave (km/s) = 3.07680 3.81357 3.46482
# Velocity P-wave (km/s) = 4.77108 6.21028 5.53763
#
# Compressibility (1/GPa) = 0.04994843
#
# Stress axis : x y z
#
# Youngs Moduli (GPa) = 57.72829 59.32690 87.17097
#
# Poissons Ratio (x) = -0.19301 0.06697
# Poissons Ratio (y) = -0.18781 0.02928
# Poissons Ratio (z) = 0.04435 0.01993
#
# Static dielectric constant tensor:
#      x y z
#    x 1.688280 0.000000 0.009660 
#    y 0.000000 1.716580 0.000000 
#    z 0.009660 0.000000 1.675250 
# 
# From -- ./inp_files/54786.got.cif
#   From: 2010.05.17/outbox.cif.g08.bks.cpg/sg14_28_cif.got.tgz:54786.got - 2010.06.03 17:49:19.
