data_PCOD9241832
_publ_section_title
;
Structure prediction by ZEFSAII (Michael W. Deem and Ramdas Pophale) SiO2 
 PCOD9241832
Probable space group: P 21/C
;
_chemical_formula_sum "Si O2"
_cell_formula_units_Z 28
_cell_length_a 9.792742
_cell_length_b 10.906423
_cell_length_c 14.486500
_cell_angle_alpha 90.000000
_cell_angle_beta 126.180194
_cell_angle_gamma 90.000000
_cell_volume 1248.855334
_symmetry_space_group_name_H-M "P 21/C"
_symmetry_group_IT_number 14
_symmetry_cell_setting 'monoclinic'
loop_
_space_group_symop_operation_xyz
x,y,z
-x,1/2+y,1/2-z
-x,-y,-z
x,1/2-y,1/2+z
loop_
_atom_site_type_symbol
_atom_site_label
_atom_site_fract_x
_atom_site_fract_y
_atom_site_fract_z
Si Si1 0.928718 0.064322 0.820497
Si Si2 0.688113 0.420919 0.804568
Si Si3 0.055618 0.477122 0.874885
Si Si4 0.153107 0.370861 0.570949
Si Si5 0.673784 0.237458 0.139048
Si Si6 0.642242 0.650276 0.907517
Si Si7 0.811559 0.239451 0.503195
O O1 0.833379 0.188557 0.748791
O O2 0.962878 0.984272 0.742613
O O3 0.817347 0.985129 0.848960
O O4 0.099717 0.090619 0.946015
O O5 0.623943 0.380009 0.679714
O O6 0.611958 0.536147 0.827026
O O7 0.883428 0.453667 0.860310
O O8 0.691867 0.300565 0.871195
O O9 0.123784 0.609195 0.932407
O O10 0.195921 0.382551 0.964933
O O11 0.299032 0.270056 0.625912
O O12 0.977322 0.311174 0.537601
O O13 0.516439 0.328023 0.089857
O O14 0.715157 0.203746 0.051172
#
# Coordination Sequence:
#
# PCOD9241832 Si02
#       7
#     4   4   4   4   4   4   4
#     4  10  23  36  64  89 126 157 211 257 307 362
#     4  11  20  41  65  84 126 165 208 251 306 368
#     4  10  19  39  64  92 114 163 213 253 299 367
#     4  11  20  41  62  89 121 166 208 254 303 372
#     4  11  24  38  59  98 127 163 201 256 316 358
#     4  11  23  39  63  93 124 162 207 254 307 371
#     4  10  19  37  65  85 119 161 205 255 300 363
#
# _framework density 22.420532000000001
#
# number of rings (size 3 to 8) (size 9 to 14) (size 15 to 20)
#    0.000    1.429    4.286    1.714    2.000    6.286 
#    0.000    0.000    0.000    3.429    0.000    0.000 
#    0.000    0.000    0.000    0.000    0.000    0.000 
#
# Total GULP energy -156466.899665 kJ/mol
# GULP energy per Si atom -5588.103559 kJ/mol
# Density = 2.236950 g / cm^3
# Si number density = 22.420532 Si / 1000 Ang^3
#
#
#
# Elastic Constant Matrix: (Units=GPa)
#
#
# Indices 1 2 3 4 5 6 
#
# 1 84.6615 -5.7793 25.6882 0.0000 -14.0000 0.0000
# 2 -5.7793 32.8793 -0.5249 0.0000 -9.3120 0.0000
# 3 25.6882 -0.5249 44.9348 0.0000 -29.4013 0.0000
# 4 0.0000 0.0000 0.0000 19.1438 0.0000 -10.9456
# 5 -14.0000 -9.3120 -29.4013 0.0000 39.9379 0.0000
# 6 0.0000 0.0000 0.0000 -10.9456 0.0000 22.3488
#
#
#
# Elastic Compliance Matrix: (Units=1/GPa)
#
#
# Indices 1 2 3 4 5 6 
#
# 1 0.014496 0.002131 -0.008899 0.000000 -0.000973 0.000000
# 2 0.002131 0.035562 0.009862 0.000000 0.016299 0.000000
# 3 -0.008899 0.009862 0.051939 0.000000 0.037416 0.000000
# 4 0.000000 0.000000 0.000000 0.072553 0.000000 0.035533
# 5 -0.000973 0.016299 0.037416 0.000000 0.056043 0.000000
# 6 0.000000 0.000000 0.000000 0.035533 0.000000 0.062148
#
#
# Mechanical properties :
#
#
# Convention : Reuss Voigt Hill
#
# Bulk Modulus (GPa) = 9.24350 22.36040 15.80195
# Shear Modulus (GPa) = 15.49833 25.82554 20.66193
#
# Velocity S-wave (km/s) = 2.63203 3.39760 3.03902
# Velocity P-wave (km/s) = 3.65629 5.03850 4.40198
#
# Compressibility (1/GPa) = 0.10818415
#
# Stress axis : x y z
#
# Youngs Moduli (GPa) = 68.98251 28.11976 19.25347
#
# Poissons Ratio (x) = -0.05991 0.17133
# Poissons Ratio (y) = -0.14697 -0.18987
# Poissons Ratio (z) = 0.61387 -0.27731
#
# Static dielectric constant tensor:
#      x y z
#    x 1.805400 0.000000 -0.017880 
#    y 0.000000 1.884630 0.000000 
#    z -0.017880 0.000000 1.878800 
# 
# From -- ./inp_files/40184.got.cif
#   From: 2010.05.17/outbox.cif.g08.bks.cpg/sg14_21_cif.got.tgz:40184.got - 2010.06.03 17:49:19.
