data_PCOD9241355
_publ_section_title
;
Structure prediction by ZEFSAII (Michael W. Deem and Ramdas Pophale) SiO2 
 PCOD9241355
Probable space group: P 21/C
;
_chemical_formula_sum "Si O2"
_cell_formula_units_Z 20
_cell_length_a 11.999746
_cell_length_b 7.123598
_cell_length_c 13.860015
_cell_angle_alpha 90.000000
_cell_angle_beta 51.678403
_cell_angle_gamma 90.000000
_cell_volume 929.505022
_symmetry_space_group_name_H-M "P 21/C"
_symmetry_group_IT_number 14
_symmetry_cell_setting 'monoclinic'
loop_
_space_group_symop_operation_xyz
x,y,z
-x,1/2+y,1/2-z
-x,-y,-z
x,1/2-y,1/2+z
loop_
_atom_site_type_symbol
_atom_site_label
_atom_site_fract_x
_atom_site_fract_y
_atom_site_fract_z
Si Si1 0.628060 0.128778 0.238508
Si Si2 0.405941 0.314736 0.711750
Si Si3 0.935750 0.294886 0.548827
Si Si4 0.588154 0.821709 0.492302
Si Si5 0.184486 0.035027 0.487206
O O1 0.566950 0.159699 0.163570
O O2 0.785637 0.185440 0.182067
O O3 0.514245 0.239223 0.365373
O O4 0.626212 0.904957 0.252252
O O5 0.389982 0.325981 0.605009
O O6 0.298218 0.432527 0.837566
O O7 0.000000 0.500000 0.500000
O O8 0.054106 0.173890 0.538312
O O9 0.884259 0.172038 0.483540
O O10 0.730674 0.903535 0.463574
O O11 0.500000 0.000000 0.500000
#
# Coordination Sequence:
#
# PCOD9241355 Si02
#       5
#     4   4   4   4   4
#     4  10  19  35  61  90 122 163 206 258 313 384
#     4  10  19  38  63  90 126 163 212 266 317 369
#     4  11  21  39  65  88 128 168 203 258 325 378
#     4   9  19  37  64  91 126 159 212 262 312 372
#     4  10  22  40  64  93 124 167 212 257 317 390
#
# _framework density 21.516829000000001
#
# number of rings (size 3 to 8) (size 9 to 14) (size 15 to 20)
#    0.000    2.000    2.000    3.600    0.000    0.000 
#    0.000   19.000    8.800    0.000    0.000    0.000 
#    0.000    0.000    0.000    0.000    0.000    0.000 
#
# Total GULP energy -111488.139047 kJ/mol
# GULP energy per Si atom -5574.406952 kJ/mol
# Density = 2.146786 g / cm^3
# Si number density = 21.516829 Si / 1000 Ang^3
#
#
#
# Elastic Constant Matrix: (Units=GPa)
#
#
# Indices 1 2 3 4 5 6 
#
# 1 174.7868 32.1413 53.4491 0.0000 -17.5685 0.0000
# 2 32.1413 87.7667 21.6344 0.0000 -4.7245 0.0000
# 3 53.4491 21.6344 42.2814 0.0000 -0.7763 0.0000
# 4 0.0000 0.0000 0.0000 21.8064 0.0000 -6.6360
# 5 -17.5685 -4.7245 -0.7763 0.0000 44.7780 0.0000
# 6 0.0000 0.0000 0.0000 -6.6360 0.0000 34.9351
#
#
#
# Elastic Compliance Matrix: (Units=1/GPa)
#
#
# Indices 1 2 3 4 5 6 
#
# 1 0.009907 -0.000414 -0.012245 0.000000 0.003631 0.000000
# 2 -0.000414 0.013127 -0.006173 0.000000 0.001116 0.000000
# 3 -0.012245 -0.006173 0.042202 0.000000 -0.004724 0.000000
# 4 0.000000 0.000000 0.000000 0.048671 0.000000 0.009245
# 5 0.003631 0.001116 -0.004724 0.000000 0.023793 0.000000
# 6 0.000000 0.000000 0.000000 0.009245 0.000000 0.030381
#
#
# Mechanical properties :
#
#
# Convention : Reuss Voigt Hill
#
# Bulk Modulus (GPa) = 36.26852 57.69829 46.98340
# Shear Modulus (GPa) = 23.26283 33.47791 28.37037
#
# Velocity S-wave (km/s) = 3.29165 3.94876 3.63508
# Velocity P-wave (km/s) = 5.59813 6.90391 6.28502
#
# Compressibility (1/GPa) = 0.02757212
#
# Stress axis : x y z
#
# Youngs Moduli (GPa) = 100.94068 76.17790 23.69563
#
# Poissons Ratio (x) = 0.03155 0.29015
# Poissons Ratio (y) = 0.04181 0.14627
# Poissons Ratio (z) = 1.23601 0.47023
#
# Static dielectric constant tensor:
#      x y z
#    x 1.771930 0.000000 0.047030 
#    y 0.000000 1.955360 0.000000 
#    z 0.047030 0.000000 1.909530 
# 
# From -- ./inp_files/42730.got.cif
#   From: 2010.05.17/outbox.cif.g08.bks.cpg/sg14_22_cif.got.tgz:42730.got - 2010.06.03 17:49:19.
