data_PCOD9241652
_publ_section_title
;
Structure prediction by ZEFSAII (Michael W. Deem and Ramdas Pophale) SiO2 
 PCOD9241652
Probable space group: P 21/C
;
_chemical_formula_sum "Si O2"
_cell_formula_units_Z 32
_cell_length_a 14.335644
_cell_length_b 12.506523
_cell_length_c 13.825308
_cell_angle_alpha 90.000000
_cell_angle_beta 147.217984
_cell_angle_gamma 90.000000
_cell_volume 1342.092447
_symmetry_space_group_name_H-M "P 21/C"
_symmetry_group_IT_number 14
_symmetry_cell_setting 'monoclinic'
loop_
_space_group_symop_operation_xyz
x,y,z
-x,1/2+y,1/2-z
-x,-y,-z
x,1/2-y,1/2+z
loop_
_atom_site_type_symbol
_atom_site_label
_atom_site_fract_x
_atom_site_fract_y
_atom_site_fract_z
Si Si1 0.920966 0.618444 0.197400
Si Si2 0.077227 0.590605 0.696123
Si Si3 0.272932 0.023304 0.192384
Si Si4 0.209871 0.624409 0.170252
Si Si5 0.269352 0.805525 0.923570
Si Si6 0.404183 0.805391 0.234143
Si Si7 0.317864 0.287410 0.861502
Si Si8 0.811932 0.614847 0.894228
O O1 0.884640 0.495145 0.187704
O O2 0.860525 0.680261 0.240361
O O3 0.123050 0.628724 0.353615
O O4 0.822874 0.652255 0.014813
O O5 0.167399 0.547973 0.677787
O O6 0.166200 0.699703 0.802558
O O7 0.872431 0.586526 0.496155
O O8 0.378430 0.933028 0.227956
O O9 0.373432 0.111566 0.343189
O O10 0.312468 0.638006 0.360850
O O11 0.253398 0.724820 0.139993
O O12 0.246448 0.508402 0.158040
O O13 0.009419 0.622275 0.027132
O O14 0.416541 0.786236 0.130403
O O15 0.555912 0.773160 0.438698
O O16 0.291816 0.187738 0.769946
#
# Coordination Sequence:
#
# PCOD9241652 Si02
#       8
#     4   4   4   4   4   4   4   4
#     4  10  21  38  62  91 120 163 209 256 310 369
#     4  10  19  36  66  92 116 153 212 271 306 353
#     4  10  20  39  63  90 120 161 209 258 309 364
#     4  10  22  41  67  93 120 160 214 267 313 361
#     4  11  21  37  63  93 121 156 211 263 314 367
#     4  12  23  40  62  92 131 164 204 256 314 383
#     4  11  25  40  60  90 131 172 203 250 314 384
#     4  10  22  43  66  93 124 163 212 264 312 376
#
# _framework density 23.843364000000001
#
# number of rings (size 3 to 8) (size 9 to 14) (size 15 to 20)
#    0.000    1.500    2.500    3.375    1.750    3.500 
#    2.250    2.500    0.000    0.000    0.000    0.000 
#    0.000    0.000    0.000    0.000    0.000    0.000 
#
# Total GULP energy -178963.714506 kJ/mol
# GULP energy per Si atom -5592.616078 kJ/mol
# Density = 2.378910 g / cm^3
# Si number density = 23.843364 Si / 1000 Ang^3
#
#
#
# Elastic Constant Matrix: (Units=GPa)
#
#
# Indices 1 2 3 4 5 6 
#
# 1 59.3667 14.4799 10.1929 0.0000 -18.5677 0.0000
# 2 14.4799 92.8736 28.6320 0.0000 -16.4689 0.0000
# 3 10.1929 28.6320 137.1411 0.0000 -38.1367 0.0000
# 4 0.0000 0.0000 0.0000 23.5801 0.0000 -17.2684
# 5 -18.5677 -16.4689 -38.1367 0.0000 34.2556 0.0000
# 6 0.0000 0.0000 0.0000 -17.2684 0.0000 20.7492
#
#
#
# Elastic Compliance Matrix: (Units=1/GPa)
#
#
# Indices 1 2 3 4 5 6 
#
# 1 0.021005 -0.001677 0.002507 0.000000 0.013370 0.000000
# 2 -0.001677 0.012062 -0.001497 0.000000 0.003223 0.000000
# 3 0.002507 -0.001497 0.011002 0.000000 0.012887 0.000000
# 4 0.000000 0.000000 0.000000 0.108596 0.000000 0.090378
# 5 0.013370 0.003223 0.012887 0.000000 0.052336 0.000000
# 6 0.000000 0.000000 0.000000 0.090378 0.000000 0.123412
#
#
# Mechanical properties :
#
#
# Convention : Reuss Voigt Hill
#
# Bulk Modulus (GPa) = 23.40065 43.99898 33.69982
# Shear Modulus (GPa) = 14.53526 31.45542 22.99534
#
# Velocity S-wave (km/s) = 2.47172 3.63609 3.10890
# Velocity P-wave (km/s) = 4.24046 6.01013 5.20111
#
# Compressibility (1/GPa) = 0.04273385
#
# Stress axis : x y z
#
# Youngs Moduli (GPa) = 47.60842 82.90559 90.89445
#
# Poissons Ratio (x) = 0.13902 -0.22787
# Poissons Ratio (y) = 0.07983 0.13610
# Poissons Ratio (z) = -0.11935 0.12414
#
# Static dielectric constant tensor:
#      x y z
#    x 1.911570 0.000000 0.053160 
#    y 0.000000 1.890130 0.000000 
#    z 0.053160 0.000000 1.962430 
# 
# From -- ./inp_files/49038.got.cif
#   From: 2010.05.17/outbox.cif.g08.bks.cpg/sg14_25_cif.got.tgz:49038.got - 2010.06.03 17:49:19.
