data_PCOD9241821
_publ_section_title
;
Structure prediction by ZEFSAII (Michael W. Deem and Ramdas Pophale) SiO2 
 PCOD9241821
Probable space group: P 21/C
;
_chemical_formula_sum "Si O2"
_cell_formula_units_Z 32
_cell_length_a 30.028881
_cell_length_b 5.293890
_cell_length_c 17.995060
_cell_angle_alpha 90.000000
_cell_angle_beta 147.636905
_cell_angle_gamma 90.000000
_cell_volume 1531.266151
_symmetry_space_group_name_H-M "P 21/C"
_symmetry_group_IT_number 14
_symmetry_cell_setting 'monoclinic'
loop_
_space_group_symop_operation_xyz
x,y,z
-x,1/2+y,1/2-z
-x,-y,-z
x,1/2-y,1/2+z
loop_
_atom_site_type_symbol
_atom_site_label
_atom_site_fract_x
_atom_site_fract_y
_atom_site_fract_z
Si Si1 0.571806 0.707665 0.910260
Si Si2 0.190774 0.573216 0.707999
Si Si3 0.702013 0.662648 0.862100
Si Si4 0.287313 0.431254 0.292307
Si Si5 0.700231 0.361127 0.012173
Si Si6 0.108240 0.247923 0.393479
Si Si7 0.408464 0.482676 0.706652
Si Si8 0.939909 0.258381 0.582569
O O1 0.484275 0.669412 0.827708
O O2 0.550065 0.803158 0.796695
O O3 0.630222 0.879192 0.043895
O O4 0.632503 0.474560 0.974111
O O5 0.224064 0.304979 0.722172
O O6 0.211850 0.584918 0.825311
O O7 0.099879 0.660459 0.552144
O O8 0.246564 0.803579 0.755663
O O9 0.693233 0.557892 0.767378
O O10 0.630992 0.869465 0.775734
O O11 0.691902 0.485945 0.919620
O O12 0.797419 0.750920 0.000068
O O13 0.671802 0.079724 0.953245
O O14 0.092233 0.514146 0.410700
O O15 0.039339 0.232660 0.231381
O O16 0.091643 0.008730 0.426257
#
# Coordination Sequence:
#
# PCOD9241821 Si02
#       8
#     4   4   4   4   4   4   4   4
#     4  10  21  40  61  86 114 169 218 245 297 379
#     4  11  20  40  63  92 118 167 214 242 300 376
#     4  11  24  38  58  96 125 160 197 269 322 347
#     4  11  23  38  65  90 126 157 208 263 297 365
#     4  10  23  37  62  85 121 167 203 255 306 375
#     4  10  21  36  61  93 126 156 203 254 307 366
#     4  11  21  38  62  84 122 163 211 251 313 363
#     4  10  19  37  64  90 119 166 206 246 297 373
#
# _framework density 20.897736999999999
#
# number of rings (size 3 to 8) (size 9 to 14) (size 15 to 20)
#    0.000    1.500    5.000    0.000    3.500    0.500 
#    0.000    1.250    0.000    0.750    0.000    0.000 
#    0.000    0.000    0.000    0.000    0.000    0.000 
#
# Total GULP energy -178268.993350 kJ/mol
# GULP energy per Si atom -5570.906042 kJ/mol
# Density = 2.085017 g / cm^3
# Si number density = 20.897737 Si / 1000 Ang^3
#
#
#
# Elastic Constant Matrix: (Units=GPa)
#
#
# Indices 1 2 3 4 5 6 
#
# 1 57.3318 11.0283 -0.7328 0.0000 -1.5239 0.0000
# 2 11.0283 78.1834 -8.6917 0.0000 -1.1285 0.0000
# 3 -0.7328 -8.6917 64.3324 0.0000 -3.7732 0.0000
# 4 0.0000 0.0000 0.0000 24.9554 0.0000 0.9244
# 5 -1.5239 -1.1285 -3.7732 0.0000 38.1211 0.0000
# 6 0.0000 0.0000 0.0000 0.9244 0.0000 11.6195
#
#
#
# Elastic Compliance Matrix: (Units=1/GPa)
#
#
# Indices 1 2 3 4 5 6 
#
# 1 0.017945 -0.002533 -0.000101 0.000000 0.000632 0.000000
# 2 -0.002533 0.013355 0.001803 0.000000 0.000473 0.000000
# 3 -0.000101 0.001803 0.015882 0.000000 0.001621 0.000000
# 4 0.000000 0.000000 0.000000 0.040190 0.000000 -0.003197
# 5 0.000632 0.000473 0.001621 0.000000 0.026432 0.000000
# 6 0.000000 0.000000 0.000000 -0.003197 0.000000 0.086316
#
#
# Mechanical properties :
#
#
# Convention : Reuss Voigt Hill
#
# Bulk Modulus (GPa) = 21.96825 22.56168 22.26497
# Shear Modulus (GPa) = 23.04618 28.15545 25.60082
#
# Velocity S-wave (km/s) = 3.32446 3.67454 3.50387
# Velocity P-wave (km/s) = 5.02704 5.36867 5.20066
#
# Compressibility (1/GPa) = 0.04552025
#
# Stress axis : x y z
#
# Youngs Moduli (GPa) = 55.72533 74.87795 62.96497
#
# Poissons Ratio (x) = 0.18969 0.00634
# Poissons Ratio (y) = 0.14117 -0.11354
# Poissons Ratio (z) = 0.00561 -0.13502
#
# Static dielectric constant tensor:
#      x y z
#    x 1.724350 0.000000 0.001400 
#    y 0.000000 1.873750 0.000000 
#    z 0.001400 0.000000 1.841070 
# 
# From -- ./inp_files/59978.got.cif
#   From: 2010.05.17/outbox.cif.g08.bks.cpg/sg14_30_cif.got.tgz:59978.got - 2010.06.03 17:49:19.
