data_PCOD9241663
_publ_section_title
;
Structure prediction by ZEFSAII (Michael W. Deem and Ramdas Pophale) SiO2 
 PCOD9241663
Probable space group: P 21/C
;
_chemical_formula_sum "Si O2"
_cell_formula_units_Z 28
_cell_length_a 5.487240
_cell_length_b 19.607276
_cell_length_c 9.679394
_cell_angle_alpha 90.000000
_cell_angle_beta 82.382277
_cell_angle_gamma 90.000000
_cell_volume 1032.213519
_symmetry_space_group_name_H-M "P 21/C"
_symmetry_group_IT_number 14
_symmetry_cell_setting 'monoclinic'
loop_
_space_group_symop_operation_xyz
x,y,z
-x,1/2+y,1/2-z
-x,-y,-z
x,1/2-y,1/2+z
loop_
_atom_site_type_symbol
_atom_site_label
_atom_site_fract_x
_atom_site_fract_y
_atom_site_fract_z
Si Si1 0.082896 0.694891 0.769613
Si Si2 0.140287 0.572545 0.396149
Si Si3 0.926275 0.547368 0.807767
Si Si4 0.805320 0.327152 0.855663
Si Si5 0.615014 0.610329 0.420637
Si Si6 0.553125 0.770396 0.429124
Si Si7 0.780776 0.572412 0.098285
O O1 0.826496 0.712863 0.862429
O O2 0.042907 0.616193 0.740498
O O3 0.091156 0.750392 0.646524
O O4 0.335006 0.711008 0.835587
O O5 0.167432 0.508231 0.293585
O O6 0.862385 0.580161 0.465889
O O7 0.172152 0.641260 0.298790
O O8 0.366226 0.573027 0.481881
O O9 0.140388 0.504122 0.866092
O O10 0.719537 0.564482 0.940106
O O11 0.974229 0.379246 0.927077
O O12 0.532381 0.315827 0.933943
O O13 0.571412 0.689654 0.456101
O O14 0.652649 0.597320 0.251261
#
# Coordination Sequence:
#
# PCOD9241663 Si02
#       7
#     4   4   4   4   4   4   4
#     4  12  24  38  59  91 122 152 200 248 295 351
#     4  10  21  37  59  81 120 152 188 239 297 351
#     4   9  20  35  58  91 117 152 190 251 301 350
#     4  10  21  38  60  86 121 157 198 241 293 355
#     4  10  19  37  55  81 113 156 196 226 286 362
#     4  12  23  37  61  86 118 161 198 241 296 351
#     4   9  18  38  59  85 122 155 191 241 305 357
#
# _framework density 27.126173000000001
#
# number of rings (size 3 to 8) (size 9 to 14) (size 15 to 20)
#    0.000    2.000    5.714    0.000    2.000    4.000 
#    0.000    0.000    0.000    4.286    0.000    0.000 
#    0.000    0.000    0.000    0.000    0.000    0.000 
#
# Total GULP energy -156507.624614 kJ/mol
# GULP energy per Si atom -5589.558022 kJ/mol
# Density = 2.706443 g / cm^3
# Si number density = 27.126173 Si / 1000 Ang^3
#
#
#
# Elastic Constant Matrix: (Units=GPa)
#
#
# Indices 1 2 3 4 5 6 
#
# 1 133.0520 2.3822 44.2420 0.0000 -25.4334 0.0000
# 2 2.3822 153.6822 41.4129 0.0000 -2.6815 0.0000
# 3 44.2420 41.4129 94.9827 0.0000 -15.3496 0.0000
# 4 0.0000 0.0000 0.0000 46.8713 0.0000 -15.1934
# 5 -25.4334 -2.6815 -15.3496 0.0000 37.3274 0.0000
# 6 0.0000 0.0000 0.0000 -15.1934 0.0000 23.2054
#
#
#
# Elastic Compliance Matrix: (Units=1/GPa)
#
#
# Indices 1 2 3 4 5 6 
#
# 1 0.009878 0.001082 -0.004256 0.000000 0.005059 0.000000
# 2 0.001082 0.007517 -0.003829 0.000000 -0.000298 0.000000
# 3 -0.004256 -0.003829 0.014640 0.000000 0.002846 0.000000
# 4 0.000000 0.000000 0.000000 0.027083 0.000000 0.017732
# 5 0.005059 -0.000298 0.002846 0.000000 0.031385 0.000000
# 6 0.000000 0.000000 0.000000 0.017732 0.000000 0.054703
#
#
# Mechanical properties :
#
#
# Convention : Reuss Voigt Hill
#
# Bulk Modulus (GPa) = 55.46564 61.97679 58.72122
# Shear Modulus (GPa) = 30.26217 41.05947 35.66082
#
# Velocity S-wave (km/s) = 3.34369 3.89478 3.62971
# Velocity P-wave (km/s) = 5.94968 6.56681 6.26585
#
# Compressibility (1/GPa) = 0.01802918
#
# Stress axis : x y z
#
# Youngs Moduli (GPa) = 101.23006 133.03381 68.30652
#
# Poissons Ratio (x) = -0.14393 0.29068
# Poissons Ratio (y) = -0.10952 0.26157
# Poissons Ratio (z) = 0.43079 0.50944
#
# Static dielectric constant tensor:
#      x y z
#    x 2.200800 0.000000 -0.014450 
#    y 0.000000 2.095600 0.000000 
#    z -0.014450 0.000000 2.208430 
# 
# From -- ./inp_files/21681.got.cif
#   From: 2010.05.17/outbox.cif.g08.bks.cpg/sg14_11_cif.got.tgz:21681.got - 2010.06.03 17:49:19.
