data_PCOD9241727
_publ_section_title
;
Structure prediction by ZEFSAII (Michael W. Deem and Ramdas Pophale) SiO2 
 PCOD9241727
Probable space group: P 21/C
;
_chemical_formula_sum "Si O2"
_cell_formula_units_Z 32
_cell_length_a 7.579030
_cell_length_b 17.108459
_cell_length_c 11.230653
_cell_angle_alpha 90.000000
_cell_angle_beta 98.747963
_cell_angle_gamma 90.000000
_cell_volume 1439.288081
_symmetry_space_group_name_H-M "P 21/C"
_symmetry_group_IT_number 14
_symmetry_cell_setting 'monoclinic'
loop_
_space_group_symop_operation_xyz
x,y,z
-x,1/2+y,1/2-z
-x,-y,-z
x,1/2-y,1/2+z
loop_
_atom_site_type_symbol
_atom_site_label
_atom_site_fract_x
_atom_site_fract_y
_atom_site_fract_z
Si Si1 0.413797 0.643817 0.174174
Si Si2 0.238929 0.703896 0.729855
Si Si3 0.966077 0.905072 0.906427
Si Si4 0.366054 0.022793 0.754201
Si Si5 0.741417 0.723598 0.298507
Si Si6 0.547248 0.844051 0.424061
Si Si7 0.859564 0.848416 0.158201
Si Si8 0.282558 0.549761 0.579905
O O1 0.274957 0.714806 0.168120
O O2 0.328346 0.562268 0.200886
O O3 0.572835 0.665623 0.281596
O O4 0.511951 0.638844 0.057231
O O5 0.369100 0.697471 0.855109
O O6 0.287743 0.632471 0.647687
O O7 0.035990 0.685007 0.738262
O O8 0.910138 0.834747 0.814423
O O9 0.849697 0.983806 0.877304
O O10 0.898582 0.867715 0.025802
O O11 0.173184 0.928271 0.947970
O O12 0.432173 0.076532 0.650261
O O13 0.203702 0.071739 0.789976
O O14 0.518174 0.019649 0.873227
O O15 0.709449 0.785721 0.402672
O O16 0.721565 0.780271 0.180583
#
# Coordination Sequence:
#
# PCOD9241727 Si02
#       8
#     4   4   4   4   4   4   4   4
#     4  11  20  38  60  89 116 161 209 244 305 374
#     4   9  21  39  54  85 123 158 204 256 301 355
#     4  10  19  37  60  87 118 161 197 244 313 352
#     4  10  20  39  60  90 121 158 206 253 300 369
#     4  10  20  36  59  90 118 155 205 250 300 360
#     4   9  20  37  61  82 122 161 195 257 307 352
#     4  10  22  39  56  85 125 152 197 260 299 362
#     4   9  19  37  58  84 121 154 200 250 295 358
#
# _framework density 22.233212999999999
#
# number of rings (size 3 to 8) (size 9 to 14) (size 15 to 20)
#    0.000    2.250    1.250    1.875    0.000    2.500 
#   11.250    0.625    0.000    0.000    0.000    0.000 
#    0.000    0.000    0.000    0.000    0.000    0.000 
#
# Total GULP energy -178420.769313 kJ/mol
# GULP energy per Si atom -5575.649041 kJ/mol
# Density = 2.218261 g / cm^3
# Si number density = 22.233213 Si / 1000 Ang^3
#
#
#
# Elastic Constant Matrix: (Units=GPa)
#
#
# Indices 1 2 3 4 5 6 
#
# 1 67.9496 35.6612 1.3592 0.0000 5.1580 0.0000
# 2 35.6612 164.9899 41.0956 0.0000 6.5316 0.0000
# 3 1.3592 41.0956 59.9280 0.0000 -10.4258 0.0000
# 4 0.0000 0.0000 0.0000 31.7296 0.0000 1.9028
# 5 5.1580 6.5316 -10.4258 0.0000 19.7033 0.0000
# 6 0.0000 0.0000 0.0000 1.9028 0.0000 27.3428
#
#
#
# Elastic Compliance Matrix: (Units=1/GPa)
#
#
# Indices 1 2 3 4 5 6 
#
# 1 0.016984 -0.004114 0.002092 0.000000 -0.001975 0.000000
# 2 -0.004114 0.008911 -0.006987 0.000000 -0.005574 0.000000
# 3 0.002092 -0.006987 0.023943 0.000000 0.014438 0.000000
# 4 0.000000 0.000000 0.000000 0.031648 0.000000 -0.002202
# 5 -0.001975 -0.005574 0.014438 0.000000 0.060757 0.000000
# 6 0.000000 0.000000 0.000000 -0.002202 0.000000 0.036726
#
#
# Mechanical properties :
#
#
# Convention : Reuss Voigt Hill
#
# Bulk Modulus (GPa) = 31.42705 49.89994 40.66350
# Shear Modulus (GPa) = 24.08548 30.07191 27.07869
#
# Velocity S-wave (km/s) = 3.29494 3.68172 3.49368
# Velocity P-wave (km/s) = 5.35176 6.36914 5.88249
#
# Compressibility (1/GPa) = 0.03181972
#
# Stress axis : x y z
#
# Youngs Moduli (GPa) = 58.87919 112.21780 41.76665
#
# Poissons Ratio (x) = 0.46165 -0.08739
# Poissons Ratio (y) = 0.24222 0.29184
# Poissons Ratio (z) = -0.12319 0.78411
#
# Static dielectric constant tensor:
#      x y z
#    x 1.908630 0.000000 -0.020100 
#    y 0.000000 1.815240 0.000000 
#    z -0.020100 0.000000 1.850130 
# 
# From -- ./inp_files/25510.got.cif
#   From: 2010.05.17/outbox.cif.g08.bks.cpg/sg14_13_cif.got.tgz:25510.got - 2010.06.03 17:49:19.
