data_PCOD9241210
_publ_section_title
;
Structure prediction by ZEFSAII (Michael W. Deem and Ramdas Pophale) SiO2 
 PCOD9241210
Probable space group: P 21/C
;
_chemical_formula_sum "Si O2"
_cell_formula_units_Z 28
_cell_length_a 16.354877
_cell_length_b 5.085875
_cell_length_c 20.364173
_cell_angle_alpha 90.000000
_cell_angle_beta 131.204301
_cell_angle_gamma 90.000000
_cell_volume 1274.408303
_symmetry_space_group_name_H-M "P 21/C"
_symmetry_group_IT_number 14
_symmetry_cell_setting 'monoclinic'
loop_
_space_group_symop_operation_xyz
x,y,z
-x,1/2+y,1/2-z
-x,-y,-z
x,1/2-y,1/2+z
loop_
_atom_site_type_symbol
_atom_site_label
_atom_site_fract_x
_atom_site_fract_y
_atom_site_fract_z
Si Si1 0.140123 0.005641 0.385578
Si Si2 0.490074 0.965740 0.789095
Si Si3 0.098123 0.858990 0.751108
Si Si4 0.108446 0.703183 0.498672
Si Si5 0.259335 0.488613 0.159493
Si Si6 0.126043 0.131186 0.175424
Si Si7 0.290768 0.202184 0.043782
O O1 0.248920 0.172212 0.453827
O O2 0.032559 0.161973 0.306582
O O3 0.149976 0.745642 0.346405
O O4 0.109989 0.927593 0.443765
O O5 0.492216 0.260298 0.761403
O O6 0.368563 0.904455 0.750550
O O7 0.590851 0.928980 0.891767
O O8 0.135878 0.638475 0.719387
O O9 0.119890 0.138418 0.728240
O O10 0.196011 0.492821 0.519125
O O11 0.984173 0.616021 0.426303
O O12 0.155612 0.825630 0.590642
O O13 0.219459 0.232595 0.176684
O O14 0.296580 0.418117 0.105122
#
# Coordination Sequence:
#
# PCOD9241210 Si02
#       7
#     4   4   4   4   4   4   4
#     4  10  21  37  57  85 114 147 196 246 284 327
#     4  10  20  36  57  83 113 151 197 237 281 332
#     4  11  23  37  58  83 114 152 191 234 282 344
#     4  10  19  35  55  86 114 150 186 237 287 346
#     4  10  22  36  55  83 122 153 184 233 288 357
#     4  11  24  36  55  86 120 157 182 224 296 355
#     4  10  20  35  60  85 114 149 197 243 288 326
#
# _framework density 21.970983
#
# number of rings (size 3 to 8) (size 9 to 14) (size 15 to 20)
#    0.000    1.714    2.857    2.143    4.000    0.571 
#    0.000    0.000    0.000    1.714    0.000    0.000 
#    0.000    0.000    0.000    0.000    0.000    0.000 
#
# Total GULP energy -156243.247921 kJ/mol
# GULP energy per Si atom -5580.115997 kJ/mol
# Density = 2.192098 g / cm^3
# Si number density = 21.970983 Si / 1000 Ang^3
#
#
#
# Elastic Constant Matrix: (Units=GPa)
#
#
# Indices 1 2 3 4 5 6 
#
# 1 43.9613 3.2386 31.2698 0.0000 2.7313 0.0000
# 2 3.2386 71.0254 23.0378 0.0000 -7.7371 0.0000
# 3 31.2698 23.0378 99.9151 0.0000 17.6056 0.0000
# 4 0.0000 0.0000 0.0000 38.4602 0.0000 -2.8087
# 5 2.7313 -7.7371 17.6056 0.0000 37.8437 0.0000
# 6 0.0000 0.0000 0.0000 -2.8087 0.0000 29.6649
#
#
#
# Elastic Compliance Matrix: (Units=1/GPa)
#
#
# Indices 1 2 3 4 5 6 
#
# 1 0.029796 0.002373 -0.010434 0.000000 0.003189 0.000000
# 2 0.002373 0.016394 -0.005537 0.000000 0.005757 0.000000
# 3 -0.010434 -0.005537 0.015923 0.000000 -0.007787 0.000000
# 4 0.000000 0.000000 0.000000 0.026182 0.000000 0.002479
# 5 0.003189 0.005757 -0.007787 0.000000 0.030994 0.000000
# 6 0.000000 0.000000 0.000000 0.002479 0.000000 0.033945
#
#
# Mechanical properties :
#
#
# Convention : Reuss Voigt Hill
#
# Bulk Modulus (GPa) = 28.63936 36.66603 32.65270
# Shear Modulus (GPa) = 26.03232 31.68414 28.85823
#
# Velocity S-wave (km/s) = 3.44590 3.80161 3.62811
# Velocity P-wave (km/s) = 5.37547 5.99952 5.69605
#
# Compressibility (1/GPa) = 0.03491698
#
# Stress axis : x y z
#
# Youngs Moduli (GPa) = 33.56133 60.99647 62.80307
#
# Poissons Ratio (x) = -0.14476 0.65530
# Poissons Ratio (y) = -0.07965 0.34775
# Poissons Ratio (z) = 0.35019 0.33775
#
# Static dielectric constant tensor:
#      x y z
#    x 1.823990 0.000000 0.025970 
#    y 0.000000 1.926210 0.000000 
#    z 0.025970 0.000000 1.904260 
# 
# From -- ./inp_files/67694.got.cif
#   From: 2010.05.17/outbox.cif.g08.bks.cpg/sg14_34_cif.got.tgz:67694.got - 2010.06.03 17:49:19.
