data_PCOD9241332
_publ_section_title
;
Structure prediction by ZEFSAII (Michael W. Deem and Ramdas Pophale) SiO2 
 PCOD9241332
Probable space group: P 21/C
;
_chemical_formula_sum "Si O2"
_cell_formula_units_Z 28
_cell_length_a 12.404225
_cell_length_b 8.816672
_cell_length_c 18.448645
_cell_angle_alpha 90.000000
_cell_angle_beta 37.820041
_cell_angle_gamma 90.000000
_cell_volume 1237.169433
_symmetry_space_group_name_H-M "P 21/C"
_symmetry_group_IT_number 14
_symmetry_cell_setting 'monoclinic'
loop_
_space_group_symop_operation_xyz
x,y,z
-x,1/2+y,1/2-z
-x,-y,-z
x,1/2-y,1/2+z
loop_
_atom_site_type_symbol
_atom_site_label
_atom_site_fract_x
_atom_site_fract_y
_atom_site_fract_z
Si Si1 0.027127 0.436950 0.904439
Si Si2 0.384819 0.914010 0.408718
Si Si3 0.166081 0.760480 0.307228
Si Si4 0.582517 0.360484 0.705516
Si Si5 0.117772 0.041191 0.008540
Si Si6 0.766936 0.415772 0.866055
Si Si7 0.039674 0.309446 0.298713
O O1 0.140944 0.564859 0.803998
O O2 0.114623 0.281457 0.829336
O O3 0.000000 0.500000 0.000000
O O4 0.825685 0.413990 0.989028
O O5 0.466273 0.761862 0.329746
O O6 0.391637 0.911745 0.492260
O O7 0.447908 0.062549 0.332111
O O8 0.274612 0.731493 0.322586
O O9 0.263806 0.661004 0.195316
O O10 0.966221 0.700092 0.424425
O O11 0.683572 0.505925 0.617775
O O12 0.081919 0.931948 0.095724
O O13 0.000000 0.000000 0.000000
O O14 0.830763 0.587453 0.817471
O O15 0.929979 0.308640 0.808136
#
# Coordination Sequence:
#
# PCOD9241332 Si02
#       7
#     4   4   4   4   4   4   4
#     4  11  19  38  64  92 120 155 211 260 307 359
#     4  11  24  39  61  86 127 165 203 254 311 376
#     4  10  21  36  66  90 121 155 206 263 306 366
#     4  11  22  42  56  90 127 162 206 253 309 367
#     4   9  17  35  60  90 116 154 204 252 298 359
#     4  10  20  38  59  92 121 165 199 256 314 370
#     4  10  19  35  60  90 126 153 202 262 309 356
#
# _framework density 22.632307000000001
#
# number of rings (size 3 to 8) (size 9 to 14) (size 15 to 20)
#    0.000    1.714    4.286    2.571    2.000    0.571 
#    0.000    0.000    0.000    1.714    0.000    0.000 
#    0.000    0.000    0.000    0.000    0.000    0.000 
#
# Total GULP energy -155980.341043 kJ/mol
# GULP energy per Si atom -5570.726466 kJ/mol
# Density = 2.258080 g / cm^3
# Si number density = 22.632307 Si / 1000 Ang^3
#
#
#
# Elastic Constant Matrix: (Units=GPa)
#
#
# Indices 1 2 3 4 5 6 
#
# 1 43.6090 6.9501 9.8159 0.0000 14.5781 0.0000
# 2 6.9501 104.8815 48.3692 0.0000 10.5469 0.0000
# 3 9.8159 48.3692 102.5908 0.0000 21.6029 0.0000
# 4 0.0000 0.0000 0.0000 37.9192 0.0000 20.7817
# 5 14.5781 10.5469 21.6029 0.0000 28.9079 0.0000
# 6 0.0000 0.0000 0.0000 20.7817 0.0000 29.6798
#
#
#
# Elastic Compliance Matrix: (Units=1/GPa)
#
#
# Indices 1 2 3 4 5 6 
#
# 1 0.027633 -0.000719 0.000682 0.000000 -0.014182 0.000000
# 2 -0.000719 0.012203 -0.005724 0.000000 0.000188 0.000000
# 3 0.000682 -0.005724 0.014257 0.000000 -0.008910 0.000000
# 4 0.000000 0.000000 0.000000 0.042794 0.000000 -0.029964
# 5 -0.014182 0.000188 -0.008910 0.000000 0.048334 0.000000
# 6 0.000000 0.000000 0.000000 -0.029964 0.000000 0.054674
#
#
# Mechanical properties :
#
#
# Convention : Reuss Voigt Hill
#
# Bulk Modulus (GPa) = 23.49092 42.37239 32.93165
# Shear Modulus (GPa) = 22.16215 31.69779 26.92997
#
# Velocity S-wave (km/s) = 3.13265 3.74646 3.45322
# Velocity P-wave (km/s) = 4.84630 6.12187 5.52105
#
# Compressibility (1/GPa) = 0.04256964
#
# Stress axis : x y z
#
# Youngs Moduli (GPa) = 36.18826 81.94531 70.13951
#
# Poissons Ratio (x) = 0.05894 -0.04781
# Poissons Ratio (y) = 0.02603 0.40150
# Poissons Ratio (z) = -0.02467 0.46909
#
# Static dielectric constant tensor:
#      x y z
#    x 1.948450 0.000000 0.063440 
#    y 0.000000 1.875590 0.000000 
#    z 0.063440 0.000000 1.887540 
# 
# From -- ./inp_files/68153.got.cif
#   From: 2010.05.17/outbox.cif.g08.bks.cpg/sg14_35_cif.got.tgz:68153.got - 2010.06.03 17:49:19.
