data_PCOD9241116
_publ_section_title
;
Structure prediction by ZEFSAII (Michael W. Deem and Ramdas Pophale) SiO2 
 PCOD9241116
Probable space group: P 21/C
;
_chemical_formula_sum "Si O2"
_cell_formula_units_Z 32
_cell_length_a 9.958864
_cell_length_b 16.200470
_cell_length_c 10.513158
_cell_angle_alpha 90.000000
_cell_angle_beta 78.472411
_cell_angle_gamma 90.000000
_cell_volume 1661.960568
_symmetry_space_group_name_H-M "P 21/C"
_symmetry_group_IT_number 14
_symmetry_cell_setting 'monoclinic'
loop_
_space_group_symop_operation_xyz
x,y,z
-x,1/2+y,1/2-z
-x,-y,-z
x,1/2-y,1/2+z
loop_
_atom_site_type_symbol
_atom_site_label
_atom_site_fract_x
_atom_site_fract_y
_atom_site_fract_z
Si Si1 0.126322 0.285484 0.642590
Si Si2 0.901303 0.328095 0.498090
Si Si3 0.189227 0.012693 0.378721
Si Si4 0.655626 0.585528 0.396674
Si Si5 0.965148 0.153527 0.407090
Si Si6 0.764721 0.023113 0.351663
Si Si7 0.991439 0.887411 0.293253
Si Si8 0.346882 0.552428 0.389404
O O1 0.275645 0.324541 0.598691
O O2 0.093815 0.188945 0.628699
O O3 0.028644 0.339357 0.569628
O O4 0.072059 0.299955 0.794668
O O5 0.890464 0.228419 0.495266
O O6 0.770182 0.379081 0.567195
O O7 0.941297 0.358923 0.350849
O O8 0.273555 0.045337 0.242008
O O9 0.065155 0.077273 0.428711
O O10 0.270780 0.001366 0.495578
O O11 0.116021 0.927135 0.350857
O O12 0.494081 0.587206 0.402477
O O13 0.681736 0.525939 0.512843
O O14 0.843925 0.109490 0.352395
O O15 0.656383 0.027441 0.258860
O O16 0.881380 0.958368 0.287188
#
# Coordination Sequence:
#
# PCOD9241116 Si02
#       8
#     4   4   4   4   4   4   4   4
#     4  10  19  34  59  87 119 149 195 250 293 341
#     4  11  19  34  61  90 116 150 202 246 290 352
#     4  10  19  36  60  90 123 150 189 249 302 348
#     4  10  23  41  59  85 124 162 195 240 296 344
#     4   9  19  32  56  91 118 149 187 249 300 340
#     4  11  20  35  60  89 118 150 200 243 292 356
#     4  10  20  33  62  93 116 149 196 251 302 345
#     4  11  23  39  62  86 119 164 203 238 288 356
#
# _framework density 19.254367999999999
#
# number of rings (size 3 to 8) (size 9 to 14) (size 15 to 20)
#    0.000    1.750    2.500    3.750    0.000    1.500 
#    0.000    0.000   22.000    0.000    0.000    0.000 
#    0.000    0.000    0.000    0.000    0.000    0.000 
#
# Total GULP energy -178223.590307 kJ/mol
# GULP energy per Si atom -5569.487197 kJ/mol
# Density = 1.921054 g / cm^3
# Si number density = 19.254368 Si / 1000 Ang^3
#
#
#
# Elastic Constant Matrix: (Units=GPa)
#
#
# Indices 1 2 3 4 5 6 
#
# 1 63.5614 21.2669 18.7377 0.0000 13.9328 0.0000
# 2 21.2669 84.0301 14.1853 0.0000 9.8030 0.0000
# 3 18.7377 14.1853 79.6924 0.0000 16.2654 0.0000
# 4 0.0000 0.0000 0.0000 26.2928 0.0000 -3.6373
# 5 13.9328 9.8030 16.2654 0.0000 28.1428 0.0000
# 6 0.0000 0.0000 0.0000 -3.6373 0.0000 20.9002
#
#
#
# Elastic Compliance Matrix: (Units=1/GPa)
#
#
# Indices 1 2 3 4 5 6 
#
# 1 0.019169 -0.003642 -0.002473 0.000000 -0.006793 0.000000
# 2 -0.003642 0.013257 -0.001053 0.000000 -0.002206 0.000000
# 3 -0.002473 -0.001053 0.014730 0.000000 -0.006922 0.000000
# 4 0.000000 0.000000 0.000000 0.038971 0.000000 0.006782
# 5 -0.006793 -0.002206 -0.006922 0.000000 0.043665 0.000000
# 6 0.000000 0.000000 0.000000 0.006782 0.000000 0.049027
#
#
# Mechanical properties :
#
#
# Convention : Reuss Voigt Hill
#
# Bulk Modulus (GPa) = 30.46778 37.29598 33.88188
# Shear Modulus (GPa) = 24.49835 26.60676 25.55256
#
# Velocity S-wave (km/s) = 3.57088 3.72136 3.64690
# Velocity P-wave (km/s) = 5.73234 6.15442 5.94713
#
# Compressibility (1/GPa) = 0.03282156
#
# Stress axis : x y z
#
# Youngs Moduli (GPa) = 52.16725 75.42987 67.88885
#
# Poissons Ratio (x) = 0.27469 0.16786
# Poissons Ratio (y) = 0.18997 0.07150
# Poissons Ratio (z) = 0.12899 0.07945
#
# Static dielectric constant tensor:
#      x y z
#    x 1.634760 0.000000 0.028160 
#    y 0.000000 1.706190 0.000000 
#    z 0.028160 0.000000 1.797030 
# 
# From -- ./inp_files/25504.got.cif
#   From: 2010.05.17/outbox.cif.g08.bks.cpg/sg14_13_cif.got.tgz:25504.got - 2010.06.03 17:49:19.
