data_PCOD9241880
_publ_section_title
;
Structure prediction by ZEFSAII (Michael W. Deem and Ramdas Pophale) SiO2 
 PCOD9241880
Probable space group: P 21/C
;
_chemical_formula_sum "Si O2"
_cell_formula_units_Z 24
_cell_length_a 15.436012
_cell_length_b 8.175888
_cell_length_c 13.193880
_cell_angle_alpha 90.000000
_cell_angle_beta 32.018873
_cell_angle_gamma 90.000000
_cell_volume 882.838228
_symmetry_space_group_name_H-M "P 21/C"
_symmetry_group_IT_number 14
_symmetry_cell_setting 'monoclinic'
loop_
_space_group_symop_operation_xyz
x,y,z
-x,1/2+y,1/2-z
-x,-y,-z
x,1/2-y,1/2+z
loop_
_atom_site_type_symbol
_atom_site_label
_atom_site_fract_x
_atom_site_fract_y
_atom_site_fract_z
Si Si1 0.249309 0.386046 0.127534
Si Si2 0.390251 0.476441 0.473103
Si Si3 0.064801 0.082330 0.058103
Si Si4 0.275187 0.634517 0.772861
Si Si5 0.052690 0.060785 0.626640
Si Si6 0.398243 0.517635 0.225644
O O1 0.412240 0.488851 0.994127
O O2 0.303608 0.197866 0.084676
O O3 0.205793 0.406941 0.051157
O O4 0.078001 0.459098 0.341205
O O5 0.296136 0.610294 0.632717
O O6 0.574861 0.470396 0.331221
O O7 0.407177 0.509034 0.338075
O O8 0.003321 0.266547 0.129043
O O9 0.072411 0.015689 0.168132
O O10 0.253608 0.104036 0.836024
O O11 0.314447 0.813194 0.774955
O O12 0.109509 0.567272 0.986061
#
# Coordination Sequence:
#
# PCOD9241880 Si02
#       6
#     4   4   4   4   4   4
#     4   9  21  36  61  91 120 170 215 251 322 372
#     4  10  19  40  63  94 131 168 213 264 318 382
#     4  10  20  35  62  89 123 169 213 257 310 379
#     4  10  22  35  66  97 125 167 220 259 315 392
#     4  10  19  38  57  91 124 160 215 259 307 371
#     4  11  19  38  67  87 124 171 207 260 321 374
#
# _framework density 27.185048999999999
#
# number of rings (size 3 to 8) (size 9 to 14) (size 15 to 20)
#    1.000    1.000    3.333    1.000    0.000    0.000 
#    0.000    4.167    3.667    7.000    0.000    1.167 
#    0.000    0.000    0.000    0.000    0.000    0.000 
#
# Total GULP energy -134203.673729 kJ/mol
# GULP energy per Si atom -5591.819739 kJ/mol
# Density = 2.712317 g / cm^3
# Si number density = 27.185049 Si / 1000 Ang^3
#
#
#
# Elastic Constant Matrix: (Units=GPa)
#
#
# Indices 1 2 3 4 5 6 
#
# 1 97.8787 9.4549 29.4822 0.0000 -19.8751 0.0000
# 2 9.4549 84.9598 33.4164 0.0000 -6.3454 0.0000
# 3 29.4822 33.4164 166.5016 0.0000 -22.1706 0.0000
# 4 0.0000 0.0000 0.0000 44.3717 0.0000 -6.1039
# 5 -19.8751 -6.3454 -22.1706 0.0000 45.2593 0.0000
# 6 0.0000 0.0000 0.0000 -6.1039 0.0000 35.4837
#
#
#
# Elastic Compliance Matrix: (Units=1/GPa)
#
#
# Indices 1 2 3 4 5 6 
#
# 1 0.011555 -0.000417 -0.001385 0.000000 0.004337 0.000000
# 2 -0.000417 0.012808 -0.002441 0.000000 0.000417 0.000000
# 3 -0.001385 -0.002441 0.007076 0.000000 0.002516 0.000000
# 4 0.000000 0.000000 0.000000 0.023083 0.000000 0.003971
# 5 0.004337 0.000417 0.002516 0.000000 0.025290 0.000000
# 6 0.000000 0.000000 0.000000 0.003971 0.000000 0.028865
#
#
# Mechanical properties :
#
#
# Convention : Reuss Voigt Hill
#
# Bulk Modulus (GPa) = 43.56812 54.89411 49.23111
# Shear Modulus (GPa) = 40.05936 43.48871 41.77404
#
# Velocity S-wave (km/s) = 3.84289 4.00400 3.92427
# Velocity P-wave (km/s) = 5.97927 6.45078 6.21950
#
# Compressibility (1/GPa) = 0.02295256
#
# Stress axis : x y z
#
# Youngs Moduli (GPa) = 86.54362 78.07624 141.32114
#
# Poissons Ratio (x) = 0.03258 0.19569
# Poissons Ratio (y) = 0.03612 0.34499
# Poissons Ratio (z) = 0.11984 0.19060
#
# Static dielectric constant tensor:
#      x y z
#    x 2.203700 0.000000 0.046990 
#    y 0.000000 2.054060 0.000000 
#    z 0.046990 0.000000 2.263270 
# 
# From -- ./inp_files/48492.got.cif
#   From: 2010.05.17/outbox.cif.g08.bks.cpg/sg14_25_cif.got.tgz:48492.got - 2010.06.03 17:49:19.
