data_PCOD9241501
_publ_section_title
;
Structure prediction by ZEFSAII (Michael W. Deem and Ramdas Pophale) SiO2 
 PCOD9241501
Probable space group: P 21/C
;
_chemical_formula_sum "Si O2"
_cell_formula_units_Z 32
_cell_length_a 13.922137
_cell_length_b 14.889070
_cell_length_c 15.186237
_cell_angle_alpha 90.000000
_cell_angle_beta 150.743557
_cell_angle_gamma 90.000000
_cell_volume 1538.449285
_symmetry_space_group_name_H-M "P 21/C"
_symmetry_group_IT_number 14
_symmetry_cell_setting 'monoclinic'
loop_
_space_group_symop_operation_xyz
x,y,z
-x,1/2+y,1/2-z
-x,-y,-z
x,1/2-y,1/2+z
loop_
_atom_site_type_symbol
_atom_site_label
_atom_site_fract_x
_atom_site_fract_y
_atom_site_fract_z
Si Si1 0.058831 0.763072 0.042851
Si Si2 0.498740 0.452745 0.274350
Si Si3 0.793172 0.675426 0.178712
Si Si4 0.386647 0.991616 0.501009
Si Si5 0.769994 0.108912 0.135431
Si Si6 0.627409 0.303554 0.070331
Si Si7 0.803332 0.440563 0.848579
Si Si8 0.817451 0.805917 0.507788
O O1 0.974523 0.806828 0.887784
O O2 0.892293 0.754946 0.986909
O O3 0.239881 0.811567 0.235377
O O4 0.130793 0.661679 0.080092
O O5 0.519828 0.486267 0.191753
O O6 0.692340 0.439424 0.487003
O O7 0.349286 0.519940 0.204196
O O8 0.379641 0.358506 0.174446
O O9 0.796107 0.731826 0.089860
O O10 0.772152 0.571141 0.133096
O O11 0.597323 0.697494 0.077692
O O12 0.323374 0.888178 0.451899
O O13 0.500000 0.000000 0.500000
O O14 0.684171 0.209874 0.071159
O O15 0.705579 0.060203 0.173564
O O16 0.001821 0.123882 0.334531
O O17 0.000000 0.500000 0.000000
#
# Coordination Sequence:
#
# PCOD9241501 Si02
#       8
#     4   4   4   4   4   4   4   4
#     4  10  21  37  59  84 116 150 189 243 293 345
#     4  11  19  37  62  81 118 158 185 238 304 345
#     4  10  20  37  61  80 112 158 195 233 302 337
#     4   9  21  39  57  80 116 154 198 245 275 334
#     4  10  21  36  63  87 116 151 192 234 301 358
#     4   9  20  39  57  83 116 149 195 247 282 342
#     4  10  19  36  59  87 121 141 182 243 293 351
#     4   9  20  36  55  85 112 151 188 240 284 344
#
# _framework density 20.800166000000001
#
# number of rings (size 3 to 8) (size 9 to 14) (size 15 to 20)
#    0.000    2.500    2.500    1.125    0.000    5.500 
#    0.000   12.500    0.000    0.000    0.000    0.000 
#    0.000    0.000    0.000    0.000    0.000    0.000 
#
# Total GULP energy -178439.827342 kJ/mol
# GULP energy per Si atom -5576.244604 kJ/mol
# Density = 2.075282 g / cm^3
# Si number density = 20.800166 Si / 1000 Ang^3
#
#
#
# Elastic Constant Matrix: (Units=GPa)
#
#
# Indices 1 2 3 4 5 6 
#
# 1 66.4711 6.7881 8.3546 0.0000 -24.0637 0.0000
# 2 6.7881 52.9464 23.9005 0.0000 -20.0937 0.0000
# 3 8.3546 23.9005 98.0499 0.0000 -37.2356 0.0000
# 4 0.0000 0.0000 0.0000 18.9874 0.0000 -8.7324
# 5 -24.0637 -20.0937 -37.2356 0.0000 38.7397 0.0000
# 6 0.0000 0.0000 0.0000 -8.7324 0.0000 15.3473
#
#
#
# Elastic Compliance Matrix: (Units=1/GPa)
#
#
# Indices 1 2 3 4 5 6 
#
# 1 0.021046 0.002297 0.004825 0.000000 0.018902 0.000000
# 2 0.002297 0.023955 -0.001220 0.000000 0.012680 0.000000
# 3 0.004825 -0.001220 0.017297 0.000000 0.018990 0.000000
# 4 0.000000 0.000000 0.000000 0.071333 0.000000 0.040587
# 5 0.018902 0.012680 0.018990 0.000000 0.062384 0.000000
# 6 0.000000 0.000000 0.000000 0.040587 0.000000 0.088251
#
#
# Mechanical properties :
#
#
# Convention : Reuss Voigt Hill
#
# Bulk Modulus (GPa) = 13.49464 32.83930 23.16697
# Shear Modulus (GPa) = 16.82586 26.50984 21.66785
#
# Velocity S-wave (km/s) = 2.84725 3.57389 3.23106
# Velocity P-wave (km/s) = 4.16065 5.73171 5.00817
#
# Compressibility (1/GPa) = 0.07410349
#
# Stress axis : x y z
#
# Youngs Moduli (GPa) = 47.51478 41.74453 57.81487
#
# Poissons Ratio (x) = -0.09590 -0.27897
# Poissons Ratio (y) = -0.10916 0.07052
# Poissons Ratio (z) = -0.22927 0.05092
#
# Static dielectric constant tensor:
#      x y z
#    x 1.814920 0.000000 -0.010600 
#    y 0.000000 1.773650 0.000000 
#    z -0.010600 0.000000 1.733110 
# 
# From -- ./inp_files/47425.got.cif
#   From: 2010.05.17/outbox.cif.g08.bks.cpg/sg14_24_cif.got.tgz:47425.got - 2010.06.03 17:49:19.
