data_PCOD9241242
_publ_section_title
;
Structure prediction by ZEFSAII (Michael W. Deem and Ramdas Pophale) SiO2 
 PCOD9241242
Probable space group: P 21/C
;
_chemical_formula_sum "Si O2"
_cell_formula_units_Z 28
_cell_length_a 19.782482
_cell_length_b 12.878306
_cell_length_c 17.237588
_cell_angle_alpha 90.000000
_cell_angle_beta 159.140217
_cell_angle_gamma 90.000000
_cell_volume 1563.746139
_symmetry_space_group_name_H-M "P 21/C"
_symmetry_group_IT_number 14
_symmetry_cell_setting 'monoclinic'
loop_
_space_group_symop_operation_xyz
x,y,z
-x,1/2+y,1/2-z
-x,-y,-z
x,1/2-y,1/2+z
loop_
_atom_site_type_symbol
_atom_site_label
_atom_site_fract_x
_atom_site_fract_y
_atom_site_fract_z
Si Si1 0.761598 0.108334 0.538590
Si Si2 0.335860 0.706684 0.458174
Si Si3 0.159064 0.078737 0.893403
Si Si4 0.991468 0.556552 0.073897
Si Si5 0.558350 0.707058 0.403824
Si Si6 0.587894 0.884778 0.103045
Si Si7 0.506503 0.422262 0.227213
O O1 0.700086 0.180767 0.544568
O O2 0.640777 0.155189 0.336711
O O3 0.985867 0.111213 0.762844
O O4 0.677833 0.993821 0.460877
O O5 0.453971 0.692747 0.506784
O O6 0.441978 0.637599 0.637689
O O7 0.136293 0.651313 0.229987
O O8 0.285536 0.171286 0.992579
O O9 0.057241 0.020284 0.712299
O O10 0.313437 0.998228 0.094507
O O11 0.780506 0.598541 0.856620
O O12 0.000000 0.500000 0.000000
O O13 0.619433 0.660146 0.551239
O O14 0.528736 0.830160 0.371085
O O15 0.500000 0.000000 0.000000
#
# Coordination Sequence:
#
# PCOD9241242 Si02
#       7
#     4   4   4   4   4   4   4
#     4  10  21  37  56  77 111 149 187 226 270 335
#     4  10  22  35  54  85 110 144 182 224 284 328
#     4  10  19  35  57  82 111 144 183 230 276 326
#     4  11  19  32  54  87 112 135 177 227 288 333
#     4  10  21  34  56  85 107 143 184 229 280 329
#     4  12  20  34  57  82 114 140 172 233 286 329
#     4   9  20  38  54  78 110 145 189 223 271 333
#
# _framework density 17.905719999999999
#
# number of rings (size 3 to 8) (size 9 to 14) (size 15 to 20)
#    0.000    1.714    2.857    3.429    0.000    6.857 
#    0.000    0.714    0.000    1.714    0.000    0.000 
#    0.000    0.000    0.000    0.000    0.000    0.000 
#
# Total GULP energy -156235.504234 kJ/mol
# GULP energy per Si atom -5579.839437 kJ/mol
# Density = 1.786497 g / cm^3
# Si number density = 17.905720 Si / 1000 Ang^3
#
#
#
# Elastic Constant Matrix: (Units=GPa)
#
#
# Indices 1 2 3 4 5 6 
#
# 1 58.9051 34.6310 25.0630 0.0000 21.3820 0.0000
# 2 34.6310 87.3017 27.7961 0.0000 8.4163 0.0000
# 3 25.0630 27.7961 85.5848 0.0000 19.7574 0.0000
# 4 0.0000 0.0000 0.0000 22.3573 0.0000 -1.6174
# 5 21.3820 8.4163 19.7574 0.0000 32.7806 0.0000
# 6 0.0000 0.0000 0.0000 -1.6174 0.0000 17.2992
#
#
#
# Elastic Compliance Matrix: (Units=1/GPa)
#
#
# Indices 1 2 3 4 5 6 
#
# 1 0.028820 -0.009364 -0.001875 0.000000 -0.015265 0.000000
# 2 -0.009364 0.015841 -0.003338 0.000000 0.004053 0.000000
# 3 -0.001875 -0.003338 0.014912 0.000000 -0.006908 0.000000
# 4 0.000000 0.000000 0.000000 0.045033 0.000000 0.004210
# 5 -0.015265 0.004053 -0.006908 0.000000 0.043586 0.000000
# 6 0.000000 0.000000 0.000000 0.004210 0.000000 0.058200
#
#
# Mechanical properties :
#
#
# Convention : Reuss Voigt Hill
#
# Bulk Modulus (GPa) = 32.87347 45.19688 39.03518
# Shear Modulus (GPa) = 20.35120 24.10751 22.22936
#
# Velocity S-wave (km/s) = 3.37497 3.67326 3.52727
# Velocity P-wave (km/s) = 5.79537 6.57927 6.19972
#
# Compressibility (1/GPa) = 0.03041967
#
# Stress axis : x y z
#
# Youngs Moduli (GPa) = 34.69782 63.12643 67.05899
#
# Poissons Ratio (x) = 0.59112 0.12572
# Poissons Ratio (y) = 0.32491 0.22386
# Poissons Ratio (z) = 0.06505 0.21073
#
# Static dielectric constant tensor:
#      x y z
#    x 1.663320 0.000000 0.014000 
#    y 0.000000 1.606960 0.000000 
#    z 0.014000 0.000000 1.627420 
# 
# From -- ./inp_files/61246.got.cif
#   From: 2010.05.17/outbox.cif.g08.bks.cpg/sg14_31_cif.got.tgz:61246.got - 2010.06.03 17:49:19.
