data_PCOD9241427
_publ_section_title
;
Structure prediction by ZEFSAII (Michael W. Deem and Ramdas Pophale) SiO2 
 PCOD9241427
Probable space group: P 21/C
;
_chemical_formula_sum "Si O2"
_cell_formula_units_Z 32
_cell_length_a 5.257250
_cell_length_b 10.091819
_cell_length_c 23.418728
_cell_angle_alpha 90.000000
_cell_angle_beta 77.836681
_cell_angle_gamma 90.000000
_cell_volume 1214.593080
_symmetry_space_group_name_H-M "P 21/C"
_symmetry_group_IT_number 14
_symmetry_cell_setting 'monoclinic'
loop_
_space_group_symop_operation_xyz
x,y,z
-x,1/2+y,1/2-z
-x,-y,-z
x,1/2-y,1/2+z
loop_
_atom_site_type_symbol
_atom_site_label
_atom_site_fract_x
_atom_site_fract_y
_atom_site_fract_z
Si Si1 0.943786 0.180089 0.338131
Si Si2 0.836702 0.759334 0.785868
Si Si3 0.916824 0.603162 0.589588
Si Si4 0.374515 0.015571 0.127925
Si Si5 0.997046 0.833605 0.495253
Si Si6 0.357691 0.605721 0.754828
Si Si7 0.461668 0.381302 0.049090
Si Si8 0.578213 0.941502 0.646379
O O1 0.113215 0.083939 0.370739
O O2 0.636270 0.166316 0.362209
O O3 0.006145 0.155120 0.269354
O O4 0.073897 0.318075 0.350188
O O5 0.578314 0.707724 0.765693
O O6 0.066939 0.652887 0.787614
O O7 0.736039 0.845619 0.843310
O O8 0.675888 0.504211 0.597508
O O9 0.895181 0.724965 0.545887
O O10 0.193970 0.531055 0.583691
O O11 0.353754 0.927924 0.188178
O O12 0.811194 0.817415 0.450453
O O13 0.292574 0.791166 0.474125
O O14 0.000000 0.000000 0.500000
O O15 0.453232 0.479506 0.786678
O O16 0.499325 0.439168 0.109639
O O17 0.500000 0.500000 0.000000
#
# Coordination Sequence:
#
# PCOD9241427 Si02
#       8
#     4   4   4   4   4   4   4   4
#     4  12  21  35  58  89 124 166 213 246 316 370
#     4  12  25  41  59  85 131 172 214 274 297 371
#     4  12  23  38  62  92 126 174 203 254 329 393
#     4  12  24  40  60  90 124 170 223 255 312 387
#     4  10  20  36  56  85 127 152 196 253 317 387
#     4  12  24  42  58  91 126 173 220 263 313 390
#     4  10  19  36  55  87 125 154 195 255 317 389
#     4  12  24  36  63  91 128 174 204 254 332 394
#
# _framework density 26.346271999999999
#
# number of rings (size 3 to 8) (size 9 to 14) (size 15 to 20)
#    0.000    0.500    3.750    7.500    1.750    0.000 
#    0.000    0.000    0.000    0.000    0.000   17.500 
#    0.000    0.000    0.000    0.000    0.000    0.000 
#
# Total GULP energy -178524.689312 kJ/mol
# GULP energy per Si atom -5578.896541 kJ/mol
# Density = 2.628631 g / cm^3
# Si number density = 26.346272 Si / 1000 Ang^3
#
#
#
# Elastic Constant Matrix: (Units=GPa)
#
#
# Indices 1 2 3 4 5 6 
#
# 1 221.6690 40.3619 12.0961 0.0000 11.5466 0.0000
# 2 40.3619 75.9447 12.9965 0.0000 3.6747 0.0000
# 3 12.0961 12.9965 36.5591 0.0000 13.1487 0.0000
# 4 0.0000 0.0000 0.0000 32.1509 0.0000 9.2031
# 5 11.5466 3.6747 13.1487 0.0000 32.7396 0.0000
# 6 0.0000 0.0000 0.0000 9.2031 0.0000 16.1424
#
#
#
# Elastic Compliance Matrix: (Units=1/GPa)
#
#
# Indices 1 2 3 4 5 6 
#
# 1 0.005068 -0.002582 -0.000258 0.000000 -0.001394 0.000000
# 2 -0.002582 0.015343 -0.005035 0.000000 0.001211 0.000000
# 3 -0.000258 -0.005035 0.033887 0.000000 -0.012953 0.000000
# 4 0.000000 0.000000 0.000000 0.037169 0.000000 -0.021191
# 5 -0.001394 0.001211 -0.012953 0.000000 0.036102 0.000000
# 6 0.000000 0.000000 0.000000 -0.021191 0.000000 0.074030
#
#
# Mechanical properties :
#
#
# Convention : Reuss Voigt Hill
#
# Bulk Modulus (GPa) = 25.94174 51.67577 38.80876
# Shear Modulus (GPa) = 21.72040 34.12114 27.92077
#
# Velocity S-wave (km/s) = 2.87439 3.60266 3.25893
# Velocity P-wave (km/s) = 4.56990 6.07965 5.37802
#
# Compressibility (1/GPa) = 0.03854792
#
# Stress axis : x y z
#
# Youngs Moduli (GPa) = 197.31527 65.17705 29.50980
#
# Poissons Ratio (x) = 0.16828 0.00760
# Poissons Ratio (y) = 0.50946 0.14860
# Poissons Ratio (z) = 0.05082 0.32820
#
# Static dielectric constant tensor:
#      x y z
#    x 1.875920 0.000000 -0.085430 
#    y 0.000000 2.125890 0.000000 
#    z -0.085430 0.000000 2.129250 
# 
# From -- ./inp_files/71296.got.cif
#   From: 2010.05.17/outbox.cif.g08.bks.cpg/sg14_36_cif.got.tgz:71296.got - 2010.06.03 17:49:19.
