data_PCOD9241888
_publ_section_title
;
Structure prediction by ZEFSAII (Michael W. Deem and Ramdas Pophale) SiO2 
 PCOD9241888
Probable space group: P 21/C
;
_chemical_formula_sum "Si O2"
_cell_formula_units_Z 32
_cell_length_a 10.222880
_cell_length_b 10.052523
_cell_length_c 21.813820
_cell_angle_alpha 90.000000
_cell_angle_beta 38.139882
_cell_angle_gamma 90.000000
_cell_volume 1384.445106
_symmetry_space_group_name_H-M "P 21/C"
_symmetry_group_IT_number 14
_symmetry_cell_setting 'monoclinic'
loop_
_space_group_symop_operation_xyz
x,y,z
-x,1/2+y,1/2-z
-x,-y,-z
x,1/2-y,1/2+z
loop_
_atom_site_type_symbol
_atom_site_label
_atom_site_fract_x
_atom_site_fract_y
_atom_site_fract_z
Si Si1 0.020551 0.699287 0.715319
Si Si2 0.771377 0.460526 0.666326
Si Si3 0.517817 0.456400 0.643625
Si Si4 0.369828 0.315135 0.001169
Si Si5 0.682971 0.268998 0.283659
Si Si6 0.426365 0.163647 0.667938
Si Si7 0.218608 0.020575 0.065180
Si Si8 0.244638 0.900569 0.552578
O O1 0.123673 0.751343 0.739853
O O2 0.160323 0.570873 0.644161
O O3 0.057590 0.809362 0.648012
O O4 0.775492 0.656993 0.804308
O O5 0.713157 0.480627 0.617667
O O6 0.722534 0.312173 0.707842
O O7 0.625157 0.558059 0.760855
O O8 0.009645 0.486246 0.600013
O O9 0.356471 0.576363 0.712208
O O10 0.429562 0.312647 0.691162
O O11 0.595382 0.458376 0.544627
O O12 0.281714 0.172528 0.054023
O O13 0.568978 0.362469 0.968112
O O14 0.474097 0.287582 0.895857
O O15 0.211930 0.440694 0.061620
O O16 0.646767 0.137898 0.551855
#
# Coordination Sequence:
#
# PCOD9241888 Si02
#       8
#     4   4   4   4   4   4   4   4
#     4  10  23  38  61  98 124 151 208 256 324 370
#     4  11  23  41  60  89 123 167 215 251 302 371
#     4  11  23  41  63  86 123 171 212 252 305 362
#     4   9  20  35  59  85 118 162 192 249 318 365
#     4  10  22  38  59  91 122 157 203 259 304 372
#     4  11  23  38  64  88 123 165 197 266 312 365
#     4  10  22  39  64  90 121 162 210 261 305 368
#     4  10  19  38  58  87 128 158 194 248 318 377
#
# _framework density 23.113955000000001
#
# number of rings (size 3 to 8) (size 9 to 14) (size 15 to 20)
#    0.000    1.750    2.500    1.125    3.500    3.500 
#    0.000    0.000    0.000    1.500    0.000    0.000 
#    0.000    0.000    0.000    0.000    0.000    0.000 
#
# Total GULP energy -179003.262934 kJ/mol
# GULP energy per Si atom -5593.851967 kJ/mol
# Density = 2.306135 g / cm^3
# Si number density = 23.113955 Si / 1000 Ang^3
#
#
#
# Elastic Constant Matrix: (Units=GPa)
#
#
# Indices 1 2 3 4 5 6 
#
# 1 58.0043 4.3060 10.5268 0.0000 -0.0449 0.0000
# 2 4.3060 111.0444 6.8624 0.0000 8.3242 0.0000
# 3 10.5268 6.8624 55.6350 0.0000 5.2535 0.0000
# 4 0.0000 0.0000 0.0000 13.9889 0.0000 -3.9411
# 5 -0.0449 8.3242 5.2535 0.0000 21.9960 0.0000
# 6 0.0000 0.0000 0.0000 -3.9411 0.0000 21.5414
#
#
#
# Elastic Compliance Matrix: (Units=1/GPa)
#
#
# Indices 1 2 3 4 5 6 
#
# 1 0.017903 -0.000563 -0.003419 0.000000 0.001066 0.000000
# 2 -0.000563 0.009324 -0.000727 0.000000 -0.003356 0.000000
# 3 -0.003419 -0.000727 0.019117 0.000000 -0.004298 0.000000
# 4 0.000000 0.000000 0.000000 0.075370 0.000000 0.013789
# 5 0.001066 -0.003356 -0.004298 0.000000 0.047762 0.000000
# 6 0.000000 0.000000 0.000000 0.013789 0.000000 0.048945
#
#
# Mechanical properties :
#
#
# Convention : Reuss Voigt Hill
#
# Bulk Modulus (GPa) = 27.08048 29.78604 28.43326
# Shear Modulus (GPa) = 20.82070 25.03782 22.92926
#
# Velocity S-wave (km/s) = 3.00456 3.29482 3.15303
# Velocity P-wave (km/s) = 4.87627 5.23346 5.05802
#
# Compressibility (1/GPa) = 0.03692696
#
# Stress axis : x y z
#
# Youngs Moduli (GPa) = 55.85609 107.25332 52.31053
#
# Poissons Ratio (x) = 0.06037 0.17884
# Poissons Ratio (y) = 0.03144 0.03801
# Poissons Ratio (z) = 0.19096 0.07793
#
# Static dielectric constant tensor:
#      x y z
#    x 1.847710 0.000000 -0.022080 
#    y 0.000000 1.868590 0.000000 
#    z -0.022080 0.000000 1.900960 
# 
# From -- ./inp_files/73108.got.cif
#   From: 2010.05.17/outbox.cif.g08.bks.cpg/sg14_37_cif.got.tgz:73108.got - 2010.06.03 17:49:19.
