data_PCOD9241697
_publ_section_title
;
Structure prediction by ZEFSAII (Michael W. Deem and Ramdas Pophale) SiO2 
 PCOD9241697
Probable space group: P 21/C
;
_chemical_formula_sum "Si O2"
_cell_formula_units_Z 28
_cell_length_a 9.547278
_cell_length_b 8.772878
_cell_length_c 14.453742
_cell_angle_alpha 90.000000
_cell_angle_beta 71.329095
_cell_angle_gamma 90.000000
_cell_volume 1146.893110
_symmetry_space_group_name_H-M "P 21/C"
_symmetry_group_IT_number 14
_symmetry_cell_setting 'monoclinic'
loop_
_space_group_symop_operation_xyz
x,y,z
-x,1/2+y,1/2-z
-x,-y,-z
x,1/2-y,1/2+z
loop_
_atom_site_type_symbol
_atom_site_label
_atom_site_fract_x
_atom_site_fract_y
_atom_site_fract_z
Si Si1 0.390554 0.861645 0.000632
Si Si2 0.157957 0.652678 0.357701
Si Si3 0.934432 0.137006 0.454895
Si Si4 0.684657 0.107338 0.356569
Si Si5 0.186074 0.114360 0.097587
Si Si6 0.591306 0.728473 0.815819
Si Si7 0.769482 0.804531 0.111423
O O1 0.415923 0.718838 0.061975
O O2 0.236248 0.940727 0.064937
O O3 0.443902 0.803531 0.888422
O O4 0.500000 0.000000 0.000000
O O5 0.147464 0.763186 0.448325
O O6 0.255128 0.692172 0.247844
O O7 0.207976 0.484334 0.377517
O O8 0.988448 0.632445 0.359440
O O9 0.824607 0.084246 0.397005
O O10 0.078596 0.226173 0.387778
O O11 0.000000 0.000000 0.500000
O O12 0.611178 0.947624 0.342560
O O13 0.274858 0.179197 0.164618
O O14 0.236198 0.212368 0.997239
O O15 0.626640 0.742690 0.699937
#
# Coordination Sequence:
#
# PCOD9241697 Si02
#       7
#     4   4   4   4   4   4   4
#     4  10  22  39  59  82 113 157 199 233 276 340
#     4  10  21  36  60  88 114 150 191 236 298 350
#     4  11  22  35  58  93 120 145 189 242 296 351
#     4  11  21  38  61  85 119 153 187 242 291 334
#     4  10  19  37  59  84 116 149 188 240 292 338
#     4  10  22  38  57  82 114 155 197 234 280 339
#     4  10  20  37  57  82 117 151 191 239 289 348
#
# _framework density 24.413785000000001
#
# number of rings (size 3 to 8) (size 9 to 14) (size 15 to 20)
#    0.000    1.714    0.000    6.429    0.000    5.714 
#    0.000   11.429    0.000    0.000    0.000    0.000 
#    0.000    0.000    0.000    0.000    0.000    0.000 
#
# Total GULP energy -156598.000935 kJ/mol
# GULP energy per Si atom -5592.785748 kJ/mol
# Density = 2.435822 g / cm^3
# Si number density = 24.413785 Si / 1000 Ang^3
#
#
#
# Elastic Constant Matrix: (Units=GPa)
#
#
# Indices 1 2 3 4 5 6 
#
# 1 61.0249 -2.8743 9.9375 0.0000 -9.6042 0.0000
# 2 -2.8743 76.1190 29.6700 0.0000 -9.7640 0.0000
# 3 9.9375 29.6700 138.1134 0.0000 -19.8337 0.0000
# 4 0.0000 0.0000 0.0000 25.7250 0.0000 -5.8158
# 5 -9.6042 -9.7640 -19.8337 0.0000 45.0352 0.0000
# 6 0.0000 0.0000 0.0000 -5.8158 0.0000 26.0397
#
#
#
# Elastic Compliance Matrix: (Units=1/GPa)
#
#
# Indices 1 2 3 4 5 6 
#
# 1 0.017185 0.001513 -0.001055 0.000000 0.003528 0.000000
# 2 0.001513 0.014620 -0.002934 0.000000 0.002200 0.000000
# 3 -0.001055 -0.002934 0.008351 0.000000 0.002817 0.000000
# 4 0.000000 0.000000 0.000000 0.040940 0.000000 0.009144
# 5 0.003528 0.002200 0.002817 0.000000 0.024675 0.000000
# 6 0.000000 0.000000 0.000000 0.009144 0.000000 0.040445
#
#
# Mechanical properties :
#
#
# Convention : Reuss Voigt Hill
#
# Bulk Modulus (GPa) = 28.40522 38.74708 33.57615
# Shear Modulus (GPa) = 30.69321 35.26158 32.97739
#
# Velocity S-wave (km/s) = 3.54956 3.80456 3.67927
# Velocity P-wave (km/s) = 5.33473 5.93338 5.64200
#
# Compressibility (1/GPa) = 0.03520479
#
# Stress axis : x y z
#
# Youngs Moduli (GPa) = 58.19007 68.39863 119.74554
#
# Poissons Ratio (x) = -0.10346 0.12630
# Poissons Ratio (y) = -0.08802 0.35129
# Poissons Ratio (z) = 0.06138 0.20065
#
# Static dielectric constant tensor:
#      x y z
#    x 2.051830 0.000000 0.021830 
#    y 0.000000 1.917770 0.000000 
#    z 0.021830 0.000000 1.942920 
# 
# From -- ./inp_files/43324.got.cif
#   From: 2010.05.17/outbox.cif.g08.bks.cpg/sg14_22_cif.got.tgz:43324.got - 2010.06.03 17:49:19.
