data_PCOD9241653
_publ_section_title
;
Structure prediction by ZEFSAII (Michael W. Deem and Ramdas Pophale) SiO2 
 PCOD9241653
Probable space group: P 21/C
;
_chemical_formula_sum "Si O2"
_cell_formula_units_Z 28
_cell_length_a 7.502419
_cell_length_b 28.019463
_cell_length_c 5.300980
_cell_angle_alpha 90.000000
_cell_angle_beta 90.638154
_cell_angle_gamma 90.000000
_cell_volume 1114.269775
_symmetry_space_group_name_H-M "P 21/C"
_symmetry_group_IT_number 14
_symmetry_cell_setting 'monoclinic'
loop_
_space_group_symop_operation_xyz
x,y,z
-x,1/2+y,1/2-z
-x,-y,-z
x,1/2-y,1/2+z
loop_
_atom_site_type_symbol
_atom_site_label
_atom_site_fract_x
_atom_site_fract_y
_atom_site_fract_z
Si Si1 0.134887 0.227236 0.639225
Si Si2 0.066758 0.054262 0.482364
Si Si3 0.126279 0.866912 0.820410
Si Si4 0.535158 0.951128 0.649299
Si Si5 0.432532 0.597023 0.640112
Si Si6 0.265969 0.733583 0.261386
Si Si7 0.191013 0.131723 0.851050
O O1 0.212847 0.251933 0.396801
O O2 0.160466 0.170717 0.634010
O O3 0.924604 0.240605 0.673885
O O4 0.251454 0.054742 0.328804
O O5 0.125077 0.080314 0.743739
O O6 0.918375 0.087457 0.350485
O O7 0.000000 0.000000 0.500000
O O8 0.245174 0.880762 0.064713
O O9 0.225603 0.821729 0.704686
O O10 0.936175 0.851386 0.927925
O O11 0.452908 0.944925 0.926332
O O12 0.500000 0.000000 0.500000
O O13 0.459585 0.914753 0.434981
O O14 0.603352 0.629094 0.575919
O O15 0.358213 0.740187 0.532288
#
# Coordination Sequence:
#
# PCOD9241653 Si02
#       7
#     4   4   4   4   4   4   4
#     4  10  19  36  66  94 126 173 215 265 335 388
#     4  11  25  42  70 100 132 182 230 271 338 404
#     4  12  24  42  72  94 136 180 222 279 333 400
#     4  11  24  47  64  94 138 171 224 289 325 392
#     4  11  27  43  65  99 131 177 221 273 340 390
#     4  10  20  36  64  97 127 168 218 269 329 387
#     4  11  24  44  67  96 138 175 222 278 334 398
#
# _framework density 25.128564000000001
#
# number of rings (size 3 to 8) (size 9 to 14) (size 15 to 20)
#    0.000    1.143    4.286    3.000    4.000    1.714 
#    0.000    1.429    0.000    0.000    0.000    0.000 
#    0.000    0.000    0.000    0.000    0.000    0.000 
#
# Total GULP energy -156583.712851 kJ/mol
# GULP energy per Si atom -5592.275459 kJ/mol
# Density = 2.507137 g / cm^3
# Si number density = 25.128564 Si / 1000 Ang^3
#
#
#
# Elastic Constant Matrix: (Units=GPa)
#
#
# Indices 1 2 3 4 5 6 
#
# 1 95.7876 6.2688 14.3769 0.0000 17.2748 0.0000
# 2 6.2688 128.1925 33.0019 0.0000 13.1917 0.0000
# 3 14.3769 33.0019 130.5707 0.0000 7.3824 0.0000
# 4 0.0000 0.0000 0.0000 34.2001 0.0000 2.6145
# 5 17.2748 13.1917 7.3824 0.0000 27.3261 0.0000
# 6 0.0000 0.0000 0.0000 2.6145 0.0000 7.4285
#
#
#
# Elastic Compliance Matrix: (Units=1/GPa)
#
#
# Indices 1 2 3 4 5 6 
#
# 1 0.011909 0.000444 -0.001001 0.000000 -0.007472 0.000000
# 2 0.000444 0.008706 -0.002027 0.000000 -0.003936 0.000000
# 3 -0.001001 -0.002027 0.008317 0.000000 -0.000636 0.000000
# 4 0.000000 0.000000 0.000000 0.030048 0.000000 -0.010576
# 5 -0.007472 -0.003936 -0.000636 0.000000 0.043391 0.000000
# 6 0.000000 0.000000 0.000000 -0.010576 0.000000 0.138339
#
#
# Mechanical properties :
#
#
# Convention : Reuss Voigt Hill
#
# Bulk Modulus (GPa) = 42.07971 51.31624 46.69798
# Shear Modulus (GPa) = 19.70070 33.85115 26.77593
#
# Velocity S-wave (km/s) = 2.80303 3.67429 3.26783
# Velocity P-wave (km/s) = 5.22093 6.20213 5.73256
#
# Compressibility (1/GPa) = 0.02376442
#
# Stress axis : x y z
#
# Youngs Moduli (GPa) = 83.97349 114.86518 120.23387
#
# Poissons Ratio (x) = -0.05103 0.12036
# Poissons Ratio (y) = -0.03731 0.24369
# Poissons Ratio (z) = 0.08406 0.23281
#
# Static dielectric constant tensor:
#      x y z
#    x 1.969920 0.000000 0.043540 
#    y 0.000000 2.096230 0.000000 
#    z 0.043540 0.000000 2.113110 
# 
# From -- ./inp_files/1936.got.cif
#   From: 2010.05.17/outbox.cif.g08.bks.cpg/sg14_1_cif.got.tgz:1936.got - 2010.06.03 17:49:19.
