data_PCOD9241517
_publ_section_title
;
Structure prediction by ZEFSAII (Michael W. Deem and Ramdas Pophale) SiO2 
 PCOD9241517
Probable space group: P 21/C
;
_chemical_formula_sum "Si O2"
_cell_formula_units_Z 20
_cell_length_a 7.700103
_cell_length_b 5.399321
_cell_length_c 20.929809
_cell_angle_alpha 90.000000
_cell_angle_beta 63.623612
_cell_angle_gamma 90.000000
_cell_volume 779.575213
_symmetry_space_group_name_H-M "P 21/C"
_symmetry_group_IT_number 14
_symmetry_cell_setting 'monoclinic'
loop_
_space_group_symop_operation_xyz
x,y,z
-x,1/2+y,1/2-z
-x,-y,-z
x,1/2-y,1/2+z
loop_
_atom_site_type_symbol
_atom_site_label
_atom_site_fract_x
_atom_site_fract_y
_atom_site_fract_z
Si Si1 0.186678 0.810998 0.432511
Si Si2 0.798826 0.132248 0.930458
Si Si3 0.747683 0.628136 0.970149
Si Si4 0.935916 0.647217 0.731745
Si Si5 0.515084 0.847848 0.785445
O O1 0.145023 0.657754 0.504142
O O2 0.345927 0.680936 0.364314
O O3 0.986651 0.859698 0.427941
O O4 0.272465 0.062477 0.451461
O O5 0.682553 0.387579 0.941073
O O6 0.979368 0.132070 0.853666
O O7 0.683432 0.877429 0.946909
O O8 0.724786 0.762869 0.774676
O O9 0.937514 0.365781 0.756448
O O10 0.472279 0.629131 0.741004
#
# Coordination Sequence:
#
# PCOD9241517 Si02
#       5
#     4   4   4   4   4
#     4   9  21  33  61  92 125 159 213 268 314 380
#     4  10  19  36  60  84 118 173 211 249 313 393
#     4   9  18  31  61  89 125 152 211 258 333 365
#     4  12  26  46  65  93 138 182 213 262 341 400
#     4  12  26  42  69 103 133 165 223 281 322 374
#
# _framework density 25.654999
#
# number of rings (size 3 to 8) (size 9 to 14) (size 15 to 20)
#    1.200    0.400    0.000    5.400    2.800    0.000 
#    0.000    2.000    0.000    0.000    0.000    0.000 
#    0.000    0.000    0.000    0.000    0.000    0.000 
#
# Total GULP energy -111692.836648 kJ/mol
# GULP energy per Si atom -5584.641832 kJ/mol
# Density = 2.559661 g / cm^3
# Si number density = 25.654999 Si / 1000 Ang^3
#
#
#
# Elastic Constant Matrix: (Units=GPa)
#
#
# Indices 1 2 3 4 5 6 
#
# 1 64.4204 0.8192 2.5198 0.0000 -10.1647 0.0000
# 2 0.8192 157.3661 18.3409 0.0000 12.5928 0.0000
# 3 2.5198 18.3409 162.0987 0.0000 -1.2989 0.0000
# 4 0.0000 0.0000 0.0000 -52.9652 0.0000 67.3182
# 5 -10.1647 12.5928 -1.2989 0.0000 11.4008 0.0000
# 6 0.0000 0.0000 0.0000 67.3182 0.0000 -8.0959
#
#
#
# Elastic Compliance Matrix: (Units=1/GPa)
#
#
# Indices 1 2 3 4 5 6 
#
# 1 0.018401 -0.001550 0.000035 0.000000 0.018122 0.000000
# 2 -0.001550 0.007221 -0.000869 0.000000 -0.009456 0.000000
# 3 0.000035 -0.000869 0.006281 0.000000 0.001706 0.000000
# 4 0.000000 0.000000 0.000000 0.001973 0.000000 0.016407
# 5 0.018122 -0.009456 0.001706 0.000000 0.114509 0.000000
# 6 0.000000 0.000000 0.000000 0.016407 0.000000 0.012909
#
#
# Mechanical properties :
#
#
# Convention : Reuss Voigt Hill
#
# Bulk Modulus (GPa) = 36.85449 47.47167 42.16308
# Shear Modulus (GPa) = 28.55408 14.21494 21.38451
#
# Velocity S-wave (km/s) = 3.33979 2.35645 2.89024
# Velocity P-wave (km/s) = 5.41007 5.09390 5.25436
#
# Compressibility (1/GPa) = 0.02713373
#
# Stress axis : x y z
#
# Youngs Moduli (GPa) = 54.34570 138.49180 159.22291
#
# Poissons Ratio (x) = 0.21465 -0.00550
# Poissons Ratio (y) = 0.08423 0.13831
# Poissons Ratio (z) = -0.00188 0.12030
#
# Static dielectric constant tensor:
#      x y z
#    x 2.051540 0.000000 0.015420 
#    y 0.000000 2.253720 0.000000 
#    z 0.015420 0.000000 1.979380 
# 
# From -- ./inp_files/71526.got.cif
#   From: 2010.05.17/outbox.cif.g08.bks.cpg/sg14_36_cif.got.tgz:71526.got - 2010.06.03 17:49:19.
