data_PCOD9241762
_publ_section_title
;
Structure prediction by ZEFSAII (Michael W. Deem and Ramdas Pophale) SiO2 
 PCOD9241762
Probable space group: P 21/C
;
_chemical_formula_sum "Si O2"
_cell_formula_units_Z 28
_cell_length_a 16.920925
_cell_length_b 8.711322
_cell_length_c 17.478977
_cell_angle_alpha 90.000000
_cell_angle_beta 26.429961
_cell_angle_gamma 90.000000
_cell_volume 1146.793413
_symmetry_space_group_name_H-M "P 21/C"
_symmetry_group_IT_number 14
_symmetry_cell_setting 'monoclinic'
loop_
_space_group_symop_operation_xyz
x,y,z
-x,1/2+y,1/2-z
-x,-y,-z
x,1/2-y,1/2+z
loop_
_atom_site_type_symbol
_atom_site_label
_atom_site_fract_x
_atom_site_fract_y
_atom_site_fract_z
Si Si1 0.621474 0.489428 0.469852
Si Si2 0.542907 0.829379 0.346903
Si Si3 0.092266 0.353493 0.379956
Si Si4 0.752340 0.013670 0.543205
Si Si5 0.150113 0.552784 0.199542
Si Si6 0.432226 0.295094 0.342894
Si Si7 0.027880 0.649191 0.896479
O O1 0.500000 0.500000 0.500000
O O2 0.539770 0.342076 0.584599
O O3 0.630524 0.624131 0.524652
O O4 0.811079 0.454894 0.269048
O O5 0.704970 0.841833 0.265241
O O6 0.618375 0.866864 0.196715
O O7 0.364513 0.923081 0.523836
O O8 0.093726 0.396941 0.290236
O O9 0.000000 0.500000 0.500000
O O10 0.986438 0.208476 0.504548
O O11 0.886282 0.052535 0.358691
O O12 0.630705 0.878745 0.610986
O O13 0.847809 0.934115 0.530415
O O14 0.641386 0.163502 0.661110
O O15 0.055306 0.697212 0.321454
#
# Coordination Sequence:
#
# PCOD9241762 Si02
#       7
#     4   4   4   4   4   4   4
#     4  11  25  43  66  95 135 179 221 283 352 406
#     4  10  20  42  63  92 132 168 225 278 327 409
#     4  10  19  37  61  91 126 162 208 272 330 384
#     4  11  23  42  69  97 130 174 228 276 336 403
#     4   9  22  37  66  96 123 175 218 271 338 399
#     4  11  22  44  67  93 133 181 222 275 338 407
#     4  10  22  43  64  95 133 168 223 286 328 400
#
# _framework density 24.415907000000001
#
# number of rings (size 3 to 8) (size 9 to 14) (size 15 to 20)
#    0.000    1.714    2.857    0.429    4.000    0.000 
#    5.143    7.143    0.000    0.000    0.000    0.000 
#    0.000    0.000    0.000    0.000    0.000    0.000 
#
# Total GULP energy -156438.913883 kJ/mol
# GULP energy per Si atom -5587.104067 kJ/mol
# Density = 2.436034 g / cm^3
# Si number density = 24.415907 Si / 1000 Ang^3
#
#
#
# Elastic Constant Matrix: (Units=GPa)
#
#
# Indices 1 2 3 4 5 6 
#
# 1 39.4319 34.4559 18.9422 0.0000 5.3637 0.0000
# 2 34.4559 71.6705 31.1222 0.0000 8.1241 0.0000
# 3 18.9422 31.1222 89.6009 0.0000 9.0790 0.0000
# 4 0.0000 0.0000 0.0000 41.5914 0.0000 8.0041
# 5 5.3637 8.1241 9.0790 0.0000 45.3458 0.0000
# 6 0.0000 0.0000 0.0000 8.0041 0.0000 34.6015
#
#
#
# Elastic Compliance Matrix: (Units=1/GPa)
#
#
# Indices 1 2 3 4 5 6 
#
# 1 0.044193 -0.020147 -0.002226 0.000000 -0.001172 0.000000
# 2 -0.020147 0.025767 -0.004557 0.000000 -0.001321 0.000000
# 3 -0.002226 -0.004557 0.013376 0.000000 -0.001598 0.000000
# 4 0.000000 0.000000 0.000000 0.025164 0.000000 -0.005821
# 5 -0.001172 -0.001321 -0.001598 0.000000 0.022748 0.000000
# 6 0.000000 0.000000 0.000000 -0.005821 0.000000 0.030247
#
#
# Mechanical properties :
#
#
# Convention : Reuss Voigt Hill
#
# Bulk Modulus (GPa) = 33.92509 41.08268 37.50389
# Shear Modulus (GPa) = 22.20446 32.05327 27.12887
#
# Velocity S-wave (km/s) = 3.01894 3.62719 3.33695
# Velocity P-wave (km/s) = 5.10655 5.86556 5.49916
#
# Compressibility (1/GPa) = 0.02947671
#
# Stress axis : x y z
#
# Youngs Moduli (GPa) = 22.62784 38.80958 74.76065
#
# Poissons Ratio (x) = 0.78188 0.16643
# Poissons Ratio (y) = 0.45587 0.34068
# Poissons Ratio (z) = 0.05037 0.17685
#
# Static dielectric constant tensor:
#      x y z
#    x 1.933270 0.000000 0.008230 
#    y 0.000000 1.954160 0.000000 
#    z 0.008230 0.000000 1.977680 
# 
# From -- ./inp_files/60302.got.cif
#   From: 2010.05.17/outbox.cif.g08.bks.cpg/sg14_31_cif.got.tgz:60302.got - 2010.06.03 17:49:19.
