data_PCOD9241414
_publ_section_title
;
Structure prediction by ZEFSAII (Michael W. Deem and Ramdas Pophale) SiO2 
 PCOD9241414
Probable space group: P 21/C
;
_chemical_formula_sum "Si O2"
_cell_formula_units_Z 24
_cell_length_a 11.646756
_cell_length_b 9.212272
_cell_length_c 23.013154
_cell_angle_alpha 90.000000
_cell_angle_beta 27.830907
_cell_angle_gamma 90.000000
_cell_volume 1152.757666
_symmetry_space_group_name_H-M "P 21/C"
_symmetry_group_IT_number 14
_symmetry_cell_setting 'monoclinic'
loop_
_space_group_symop_operation_xyz
x,y,z
-x,1/2+y,1/2-z
-x,-y,-z
x,1/2-y,1/2+z
loop_
_atom_site_type_symbol
_atom_site_label
_atom_site_fract_x
_atom_site_fract_y
_atom_site_fract_z
Si Si1 0.323308 0.949867 0.409208
Si Si2 0.778951 0.445335 0.175524
Si Si3 0.870757 0.007234 0.310512
Si Si4 0.532210 0.207192 0.542996
Si Si5 0.334768 0.804149 0.696173
Si Si6 0.587719 0.487260 0.380344
O O1 0.348034 0.922903 0.329633
O O2 0.430107 0.833288 0.406302
O O3 0.467297 0.096251 0.361140
O O4 0.034502 0.972886 0.551350
O O5 0.817105 0.289688 0.189482
O O6 0.619677 0.522573 0.297021
O O7 0.722824 0.105020 0.423447
O O8 0.838591 0.097366 0.265723
O O9 0.141201 0.988918 0.213328
O O10 0.730741 0.854914 0.361407
O O11 0.557889 0.380438 0.525660
O O12 0.478150 0.683237 0.592616
#
# Coordination Sequence:
#
# PCOD9241414 Si02
#       6
#     4   4   4   4   4   4
#     4  10  19  39  59  76 109 152 182 224 275 333
#     4   9  21  36  58  78 108 147 188 219 277 326
#     4  10  19  36  53  82 112 150 180 217 277 335
#     4  10  20  33  59  78 111 147 185 219 274 332
#     4   9  21  34  57  83 109 146 182 231 270 322
#     4  10  20  34  53  85 108 140 184 229 263 324
#
# _framework density 20.819638999999999
#
# number of rings (size 3 to 8) (size 9 to 14) (size 15 to 20)
#    1.000    1.333    1.667    1.000    2.333    0.667 
#    0.000    3.333    0.000    3.000    0.000    0.000 
#    0.000    0.000    0.000    0.000    0.000    0.000 
#
# Total GULP energy -133787.990263 kJ/mol
# GULP energy per Si atom -5574.499594 kJ/mol
# Density = 2.077225 g / cm^3
# Si number density = 20.819639 Si / 1000 Ang^3
#
#
#
# Elastic Constant Matrix: (Units=GPa)
#
#
# Indices 1 2 3 4 5 6 
#
# 1 118.8805 11.6670 9.5867 0.0000 19.1449 0.0000
# 2 11.6670 72.6993 -7.6950 0.0000 3.3358 0.0000
# 3 9.5867 -7.6950 19.2361 0.0000 13.0843 0.0000
# 4 0.0000 0.0000 0.0000 16.1727 0.0000 4.5310
# 5 19.1449 3.3358 13.0843 0.0000 21.4146 0.0000
# 6 0.0000 0.0000 0.0000 4.5310 0.0000 21.7916
#
#
#
# Elastic Compliance Matrix: (Units=1/GPa)
#
#
# Indices 1 2 3 4 5 6 
#
# 1 0.009937 -0.001069 0.000941 0.000000 -0.009292 0.000000
# 2 -0.001069 0.015801 0.013480 0.000000 -0.009742 0.000000
# 3 0.000941 0.013480 0.100803 0.000000 -0.064531 0.000000
# 4 0.000000 0.000000 0.000000 0.065657 0.000000 -0.013652
# 5 -0.009292 -0.009742 -0.064531 0.000000 0.095951 0.000000
# 6 0.000000 0.000000 0.000000 -0.013652 0.000000 0.048728
#
#
# Mechanical properties :
#
#
# Convention : Reuss Voigt Hill
#
# Bulk Modulus (GPa) = 6.52554 26.43702 16.48128
# Shear Modulus (GPa) = 13.84063 25.02624 19.43344
#
# Velocity S-wave (km/s) = 2.58114 3.47082 3.05850
# Velocity P-wave (km/s) = 3.46759 5.36543 4.51730
#
# Compressibility (1/GPa) = 0.15324391
#
# Stress axis : x y z
#
# Youngs Moduli (GPa) = 100.63070 63.28858 9.92034
#
# Poissons Ratio (x) = 0.06765 -0.00933
# Poissons Ratio (y) = 0.10756 -0.13372
# Poissons Ratio (z) = -0.09465 -0.85312
#
# Static dielectric constant tensor:
#      x y z
#    x 1.744990 0.000000 0.055710 
#    y 0.000000 1.782700 0.000000 
#    z 0.055710 0.000000 1.776460 
# 
# From -- ./inp_files/42849.got.cif
#   From: 2010.05.17/outbox.cif.g08.bks.cpg/sg14_22_cif.got.tgz:42849.got - 2010.06.03 17:49:19.
