data_PCOD9241914
_publ_section_title
;
Structure prediction by ZEFSAII (Michael W. Deem and Ramdas Pophale) SiO2 
 PCOD9241914
Probable space group: P 21/C
;
_chemical_formula_sum "Si O2"
_cell_formula_units_Z 32
_cell_length_a 14.004091
_cell_length_b 12.549959
_cell_length_c 8.588314
_cell_angle_alpha 90.000000
_cell_angle_beta 127.732634
_cell_angle_gamma 90.000000
_cell_volume 1193.749070
_symmetry_space_group_name_H-M "P 21/C"
_symmetry_group_IT_number 14
_symmetry_cell_setting 'monoclinic'
loop_
_space_group_symop_operation_xyz
x,y,z
-x,1/2+y,1/2-z
-x,-y,-z
x,1/2-y,1/2+z
loop_
_atom_site_type_symbol
_atom_site_label
_atom_site_fract_x
_atom_site_fract_y
_atom_site_fract_z
Si Si1 0.225663 0.421254 0.051046
Si Si2 0.602313 0.700076 0.998691
Si Si3 0.986571 0.888985 0.082597
Si Si4 0.117394 0.496780 0.235314
Si Si5 0.411480 0.407470 0.692183
Si Si6 0.699008 0.128073 0.540104
Si Si7 0.668891 0.354702 0.349553
Si Si8 0.983070 0.195851 0.215957
O O1 0.334310 0.357386 0.083362
O O2 0.220233 0.464088 0.219551
O O3 0.222018 0.530699 0.949491
O O4 0.109816 0.344924 0.914713
O O5 0.612902 0.825053 0.972460
O O6 0.462052 0.677176 0.850217
O O7 0.642251 0.646947 0.201841
O O8 0.059466 0.810592 0.272027
O O9 0.890913 0.920420 0.122735
O O10 0.982687 0.809804 0.931061
O O11 0.000000 0.000000 0.000000
O O12 0.114342 0.611319 0.315798
O O13 0.000000 0.500000 0.000000
O O14 0.558297 0.411555 0.867273
O O15 0.359101 0.526054 0.616841
O O16 0.696310 0.248616 0.474276
O O17 0.741941 0.134011 0.762038
#
# Coordination Sequence:
#
# PCOD9241914 Si02
#       8
#     4   4   4   4   4   4   4   4
#     4  11  20  38  61  88 131 164 218 261 330 373
#     4  10  20  35  61  87 116 170 204 272 311 383
#     4  10  21  42  69  97 128 169 219 258 326 392
#     4   9  20  38  63  97 125 164 205 254 312 385
#     4  10  19  38  60  88 121 159 218 260 335 377
#     4  10  20  38  61  86 122 169 205 272 318 392
#     4  10  19  40  59  83 125 162 217 259 328 381
#     4  10  21  38  65  91 128 171 208 268 316 385
#
# _framework density 26.806303
#
# number of rings (size 3 to 8) (size 9 to 14) (size 15 to 20)
#    0.000    2.000    2.500    2.250    0.000    2.000 
#    2.250   10.000    0.000    0.000    0.000    0.000 
#    0.000    0.000    0.000    0.000    0.000    0.000 
#
# Total GULP energy -178591.687637 kJ/mol
# GULP energy per Si atom -5580.990239 kJ/mol
# Density = 2.674529 g / cm^3
# Si number density = 26.806303 Si / 1000 Ang^3
#
#
#
# Elastic Constant Matrix: (Units=GPa)
#
#
# Indices 1 2 3 4 5 6 
#
# 1 78.8691 40.6420 26.3007 0.0000 -26.1374 0.0000
# 2 40.6420 194.2645 38.7341 0.0000 17.1834 0.0000
# 3 26.3007 38.7341 89.9962 0.0000 2.0525 0.0000
# 4 0.0000 0.0000 0.0000 45.6585 0.0000 14.7134
# 5 -26.1374 17.1834 2.0525 0.0000 -15.4037 0.0000
# 6 0.0000 0.0000 0.0000 14.7134 0.0000 41.7019
#
#
#
# Elastic Compliance Matrix: (Units=1/GPa)
#
#
# Indices 1 2 3 4 5 6 
#
# 1 0.008515 -0.000049 -0.002130 0.000000 -0.014786 0.000000
# 2 -0.000049 0.005134 -0.002321 0.000000 0.005501 0.000000
# 3 -0.002130 -0.002321 0.012671 0.000000 0.002714 0.000000
# 4 0.000000 0.000000 0.000000 0.024711 0.000000 -0.008719
# 5 -0.014786 0.005501 0.002714 0.000000 -0.033333 0.000000
# 6 0.000000 0.000000 0.000000 -0.008719 0.000000 0.027056
#
#
# Mechanical properties :
#
#
# Convention : Reuss Voigt Hill
#
# Bulk Modulus (GPa) = 57.73599 63.83150 60.78375
# Shear Modulus (GPa) = 83.99513 31.55489 57.77501
#
# Velocity S-wave (km/s) = 5.60376 3.43468 4.64753
# Velocity P-wave (km/s) = 7.96583 6.29231 7.17801
#
# Compressibility (1/GPa) = 0.01732022
#
# Stress axis : x y z
#
# Youngs Moduli (GPa) = 117.44547 194.77906 78.91966
#
# Poissons Ratio (x) = 0.00949 0.16811
# Poissons Ratio (y) = 0.00572 0.18316
# Poissons Ratio (z) = 0.25018 0.45206
#
# Static dielectric constant tensor:
#      x y z
#    x 2.263030 0.000000 0.170610 
#    y 0.000000 2.170540 0.000000 
#    z 0.170610 0.000000 2.227600 
# 
# From -- ./inp_files/15827.got.cif
#   From: 2010.05.17/outbox.cif.g08.bks.cpg/sg14_8_cif.got.tgz:15827.got - 2010.06.03 17:49:19.
