data_PCOD9241298
_publ_section_title
;
Structure prediction by ZEFSAII (Michael W. Deem and Ramdas Pophale) SiO2 
 PCOD9241298
Probable space group: P 21/C
;
_chemical_formula_sum "Si O2"
_cell_formula_units_Z 28
_cell_length_a 8.009489
_cell_length_b 8.612103
_cell_length_c 22.387687
_cell_angle_alpha 90.000000
_cell_angle_beta 136.503328
_cell_angle_gamma 90.000000
_cell_volume 1062.940294
_symmetry_space_group_name_H-M "P 21/C"
_symmetry_group_IT_number 14
_symmetry_cell_setting 'monoclinic'
loop_
_space_group_symop_operation_xyz
x,y,z
-x,1/2+y,1/2-z
-x,-y,-z
x,1/2-y,1/2+z
loop_
_atom_site_type_symbol
_atom_site_label
_atom_site_fract_x
_atom_site_fract_y
_atom_site_fract_z
Si Si1 0.696535 0.518748 0.106178
Si Si2 0.284423 0.537540 0.574103
Si Si3 0.147936 0.129139 0.659311
Si Si4 0.927404 0.701829 0.624470
Si Si5 0.613019 0.309788 0.807766
Si Si6 0.563113 0.738387 0.923857
Si Si7 0.215479 0.864619 0.935304
O O1 0.769806 0.698903 0.130445
O O2 0.545883 0.431326 0.118493
O O3 0.964294 0.447384 0.160609
O O4 0.500000 0.500000 0.000000
O O5 0.325568 0.688242 0.623441
O O6 0.407550 0.370066 0.618745
O O7 0.373858 0.570161 0.530242
O O8 0.000000 0.500000 0.500000
O O9 0.333971 0.262905 0.727378
O O10 0.946413 0.233320 0.573805
O O11 0.296471 0.989053 0.667505
O O12 0.807584 0.759920 0.528991
O O13 0.914834 0.517659 0.622674
O O14 0.206928 0.746385 0.697198
O O15 0.360546 0.791966 0.919026
#
# Coordination Sequence:
#
# PCOD9241298 Si02
#       7
#     4   4   4   4   4   4   4
#     4   8  16  31  56  84 108 156 215 254 297 380
#     4  11  20  33  59  90 122 154 209 264 330 380
#     4  10  22  36  58  85 124 169 216 264 340 411
#     4   9  15  29  52  81 112 146 198 245 301 373
#     4  11  21  35  56  87 126 162 205 272 334 399
#     4   9  17  32  55  83 114 154 200 251 308 386
#     4  10  19  35  59  85 113 161 209 255 317 394
#
# _framework density 26.342023999999999
#
# number of rings (size 3 to 8) (size 9 to 14) (size 15 to 20)
#    0.000    2.286    2.857    2.571    0.000    0.571 
#    0.000    0.000    3.143   20.571    3.714    0.000 
#    0.000    0.000    0.000    0.000    0.000    0.000 
#
# Total GULP energy -155971.588822 kJ/mol
# GULP energy per Si atom -5570.413886 kJ/mol
# Density = 2.628207 g / cm^3
# Si number density = 26.342024 Si / 1000 Ang^3
#
#
#
# Elastic Constant Matrix: (Units=GPa)
#
#
# Indices 1 2 3 4 5 6 
#
# 1 97.5254 55.6251 26.4398 0.0000 23.6785 0.0000
# 2 55.6251 177.5526 31.5938 0.0000 19.4801 0.0000
# 3 26.4398 31.5938 62.1350 0.0000 26.9941 0.0000
# 4 0.0000 0.0000 0.0000 39.2139 0.0000 33.0845
# 5 23.6785 19.4801 26.9941 0.0000 29.1950 0.0000
# 6 0.0000 0.0000 0.0000 33.0845 0.0000 67.8887
#
#
#
# Elastic Compliance Matrix: (Units=1/GPa)
#
#
# Indices 1 2 3 4 5 6 
#
# 1 0.014569 -0.003484 -0.000509 0.000000 -0.009021 0.000000
# 2 -0.003484 0.007099 -0.002168 0.000000 0.000093 0.000000
# 3 -0.000509 -0.002168 0.027753 0.000000 -0.023802 0.000000
# 4 0.000000 0.000000 0.000000 0.043307 0.000000 -0.021105
# 5 -0.009021 0.000093 -0.023802 0.000000 0.063515 0.000000
# 6 0.000000 0.000000 0.000000 -0.021105 0.000000 0.025015
#
#
# Mechanical properties :
#
#
# Convention : Reuss Voigt Hill
#
# Bulk Modulus (GPa) = 26.95371 62.72559 44.83965
# Shear Modulus (GPa) = 24.27814 42.16315 33.22065
#
# Velocity S-wave (km/s) = 3.03916 4.00510 3.55509
# Velocity P-wave (km/s) = 4.75077 6.72692 5.82328
#
# Compressibility (1/GPa) = 0.03710064
#
# Stress axis : x y z
#
# Youngs Moduli (GPa) = 68.63831 140.86217 36.03182
#
# Poissons Ratio (x) = 0.49077 0.01833
# Poissons Ratio (y) = 0.23914 0.07810
# Poissons Ratio (z) = 0.03492 0.30533
#
# Static dielectric constant tensor:
#      x y z
#    x 2.128910 0.000000 -0.035340 
#    y 0.000000 2.281760 0.000000 
#    z -0.035340 0.000000 2.088060 
# 
# From -- ./inp_files/76492.got.cif
#   From: 2010.05.17/outbox.cif.g08.bks.cpg/sg14_39_cif.got.tgz:76492.got - 2010.06.03 17:49:19.
