data_PCOD9241595
_publ_section_title
;
Structure prediction by ZEFSAII (Michael W. Deem and Ramdas Pophale) SiO2 
 PCOD9241595
Probable space group: P 21/C
;
_chemical_formula_sum "Si O2"
_cell_formula_units_Z 32
_cell_length_a 22.551247
_cell_length_b 12.866696
_cell_length_c 9.481409
_cell_angle_alpha 90.000000
_cell_angle_beta 146.018157
_cell_angle_gamma 90.000000
_cell_volume 1537.687284
_symmetry_space_group_name_H-M "P 21/C"
_symmetry_group_IT_number 14
_symmetry_cell_setting 'monoclinic'
loop_
_space_group_symop_operation_xyz
x,y,z
-x,1/2+y,1/2-z
-x,-y,-z
x,1/2-y,1/2+z
loop_
_atom_site_type_symbol
_atom_site_label
_atom_site_fract_x
_atom_site_fract_y
_atom_site_fract_z
Si Si1 0.411887 0.556392 0.918512
Si Si2 0.088349 0.943856 0.082084
Si Si3 0.374967 0.138500 0.513635
Si Si4 0.994401 0.734417 0.002069
Si Si5 0.288079 0.650291 0.988508
Si Si6 0.787635 0.348829 0.486222
Si Si7 0.506029 0.734218 0.499126
Si Si8 0.124738 0.361544 0.485358
O O1 0.401197 0.482572 0.033381
O O2 0.291464 0.559586 0.618312
O O3 0.500000 0.500000 0.000000
O O4 0.453220 0.674975 0.993497
O O5 0.208780 0.941479 0.382423
O O6 0.047321 0.825174 0.007949
O O7 0.098718 0.017392 0.966281
O O8 0.000000 0.000000 0.000000
O O9 0.413940 0.172759 0.743445
O O10 0.436754 0.207141 0.517540
O O11 0.249875 0.153850 0.249266
O O12 0.914614 0.672748 0.745011
O O13 0.936859 0.792977 0.017913
O O14 0.087267 0.658626 0.241635
O O15 0.413256 0.658115 0.260159
O O16 0.250208 0.749223 0.001822
O O17 0.250188 0.661943 0.751129
#
# Coordination Sequence:
#
# PCOD9241595 Si02
#       8
#     4   4   4   4   4   4   4   4
#     4   9  20  38  59  86 119 152 195 247 294 350
#     4   9  20  38  59  86 119 152 195 247 294 350
#     4  11  22  39  60  86 122 159 197 249 303 354
#     4  10  21  39  62  87 116 156 201 244 297 360
#     4  10  19  36  62  89 116 151 196 246 294 348
#     4  10  19  36  62  89 116 151 196 246 294 348
#     4  10  21  39  62  87 116 156 201 244 297 360
#     4  11  22  39  60  86 122 159 197 249 303 354
#
# _framework density 20.810473999999999
#
# number of rings (size 3 to 8) (size 9 to 14) (size 15 to 20)
#    0.000    2.000    0.000    4.500    0.000    0.000 
#    0.000   16.250    0.000    7.500    0.000    0.000 
#    0.000    0.000    0.000    0.000    0.000    0.000 
#
# Total GULP energy -178185.843547 kJ/mol
# GULP energy per Si atom -5568.307611 kJ/mol
# Density = 2.076311 g / cm^3
# Si number density = 20.810474 Si / 1000 Ang^3
#
#
#
# Elastic Constant Matrix: (Units=GPa)
#
#
# Indices 1 2 3 4 5 6 
#
# 1 89.7655 22.4248 55.4703 0.0000 19.0813 0.0000
# 2 22.4248 93.5594 63.0114 0.0000 4.1624 0.0000
# 3 55.4703 63.0114 174.8060 0.0000 11.8663 0.0000
# 4 0.0000 0.0000 0.0000 40.2988 0.0000 6.8466
# 5 19.0813 4.1624 11.8663 0.0000 38.6658 0.0000
# 6 0.0000 0.0000 0.0000 6.8466 0.0000 32.8155
#
#
#
# Elastic Compliance Matrix: (Units=1/GPa)
#
#
# Indices 1 2 3 4 5 6 
#
# 1 0.015179 -0.000531 -0.004208 0.000000 -0.006142 0.000000
# 2 -0.000531 0.014134 -0.004944 0.000000 0.000258 0.000000
# 3 -0.004208 -0.004944 0.008845 0.000000 -0.000106 0.000000
# 4 0.000000 0.000000 0.000000 0.025727 0.000000 -0.005368
# 5 -0.006142 0.000258 -0.000106 0.000000 0.028898 0.000000
# 6 0.000000 0.000000 0.000000 -0.005368 0.000000 0.031593
#
#
# Mechanical properties :
#
#
# Convention : Reuss Voigt Hill
#
# Bulk Modulus (GPa) = 53.21347 71.10488 62.15917
# Shear Modulus (GPa) = 33.33203 36.83765 35.08484
#
# Velocity S-wave (km/s) = 4.00646 4.21188 4.11045
# Velocity P-wave (km/s) = 6.85772 7.60889 7.24305
#
# Compressibility (1/GPa) = 0.01879224
#
# Stress axis : x y z
#
# Youngs Moduli (GPa) = 65.88109 70.75276 113.05426
#
# Poissons Ratio (x) = 0.03754 0.47578
# Poissons Ratio (y) = 0.03495 0.55892
# Poissons Ratio (z) = 0.27726 0.34979
#
# Static dielectric constant tensor:
#      x y z
#    x 1.833280 0.000000 0.056790 
#    y 0.000000 1.788200 0.000000 
#    z 0.056790 0.000000 1.794840 
# 
# From -- ./inp_files/19534.got.cif
#   From: 2010.05.17/outbox.cif.g08.bks.cpg/sg14_10_cif.got.tgz:19534.got - 2010.06.03 17:49:19.
