data_PCOD9241167
_publ_section_title
;
Structure prediction by ZEFSAII (Michael W. Deem and Ramdas Pophale) SiO2 
 PCOD9241167
Probable space group: P 21/C
;
_chemical_formula_sum "Si O2"
_cell_formula_units_Z 20
_cell_length_a 17.957337
_cell_length_b 5.955197
_cell_length_c 12.300027
_cell_angle_alpha 90.000000
_cell_angle_beta 139.060107
_cell_angle_gamma 90.000000
_cell_volume 861.910914
_symmetry_space_group_name_H-M "P 21/C"
_symmetry_group_IT_number 14
_symmetry_cell_setting 'monoclinic'
loop_
_space_group_symop_operation_xyz
x,y,z
-x,1/2+y,1/2-z
-x,-y,-z
x,1/2-y,1/2+z
loop_
_atom_site_type_symbol
_atom_site_label
_atom_site_fract_x
_atom_site_fract_y
_atom_site_fract_z
Si Si1 0.479749 0.326630 0.573535
Si Si2 0.279169 0.480523 0.839682
Si Si3 0.922608 0.300420 0.464434
Si Si4 0.878894 0.586788 0.736984
Si Si5 0.668654 0.368376 0.428399
O O1 0.500000 0.500000 0.500000
O O2 0.395086 0.137542 0.435197
O O3 0.413076 0.455279 0.597662
O O4 0.594999 0.225076 0.748276
O O5 0.203604 0.603518 0.666146
O O6 0.197513 0.283158 0.794532
O O7 0.308664 0.657906 0.966275
O O8 0.000000 0.500000 0.500000
O O9 0.996477 0.195926 0.644897
O O10 0.904549 0.107264 0.353416
O O11 0.792885 0.483624 0.554659
#
# Coordination Sequence:
#
# PCOD9241167 Si02
#       5
#     4   4   4   4   4
#     4  11  22  35  54  80 118 161 201 239 294 353
#     4   9  17  31  49  75 118 147 185 240 287 348
#     4   8  13  25  47  79 112 133 186 237 297 357
#     4   8  15  26  49  77 112 138 186 235 295 353
#     4  10  19  35  52  77 121 151 193 247 288 353
#
# _framework density 23.204253999999999
#
# number of rings (size 3 to 8) (size 9 to 14) (size 15 to 20)
#    0.000    2.800    2.000    0.000    0.000    0.800 
#    0.000    0.000    0.000    0.000    0.000    0.000 
#  942.000    0.000    0.000    0.400    0.000    0.200 
#
# Total GULP energy -111552.916236 kJ/mol
# GULP energy per Si atom -5577.645812 kJ/mol
# Density = 2.315144 g / cm^3
# Si number density = 23.204254 Si / 1000 Ang^3
#
#
#
# Elastic Constant Matrix: (Units=GPa)
#
#
# Indices 1 2 3 4 5 6 
#
# 1 42.2136 31.2135 76.1190 0.0000 7.9117 0.0000
# 2 31.2135 113.9530 87.8035 0.0000 20.6534 0.0000
# 3 76.1190 87.8035 277.9566 0.0000 41.3430 0.0000
# 4 0.0000 0.0000 0.0000 76.9621 0.0000 19.4098
# 5 7.9117 20.6534 41.3430 0.0000 30.0612 0.0000
# 6 0.0000 0.0000 0.0000 19.4098 0.0000 23.9214
#
#
#
# Elastic Compliance Matrix: (Units=1/GPa)
#
#
# Indices 1 2 3 4 5 6 
#
# 1 0.049827 -0.004906 -0.013384 0.000000 0.008664 0.000000
# 2 -0.004906 0.012415 -0.001888 0.000000 -0.004642 0.000000
# 3 -0.013384 -0.001888 0.008979 0.000000 -0.007530 0.000000
# 4 0.000000 0.000000 0.000000 0.016336 0.000000 -0.013255
# 5 0.008664 -0.004642 -0.007530 0.000000 0.044530 0.000000
# 6 0.000000 0.000000 0.000000 -0.013255 0.000000 0.052559
#
#
# Mechanical properties :
#
#
# Convention : Reuss Voigt Hill
#
# Bulk Modulus (GPa) = 32.39842 91.59948 61.99895
# Shear Modulus (GPa) = 21.25024 42.12141 31.68582
#
# Velocity S-wave (km/s) = 3.02949 4.26519 3.69930
# Velocity P-wave (km/s) = 5.12149 7.98854 6.70993
#
# Compressibility (1/GPa) = 0.03086571
#
# Stress axis : x y z
#
# Youngs Moduli (GPa) = 20.06953 80.54497 111.36762
#
# Poissons Ratio (x) = 0.39514 1.49056
# Poissons Ratio (y) = 0.09846 0.21025
# Poissons Ratio (z) = 0.26861 0.15206
#
# Static dielectric constant tensor:
#      x y z
#    x 1.858390 0.000000 0.030650 
#    y 0.000000 1.875720 0.000000 
#    z 0.030650 0.000000 1.864890 
# 
# From -- ./inp_files/34540.got.cif
#   From: 2010.05.17/outbox.cif.g08.bks.cpg/sg14_18_cif.got.tgz:34540.got - 2010.06.03 17:49:19.
