data_PCOD9241530
_publ_section_title
;
Structure prediction by ZEFSAII (Michael W. Deem and Ramdas Pophale) SiO2 
 PCOD9241530
Probable space group: P 21/C
;
_chemical_formula_sum "Si O2"
_cell_formula_units_Z 20
_cell_length_a 5.037831
_cell_length_b 21.954963
_cell_length_c 9.838016
_cell_angle_alpha 90.000000
_cell_angle_beta 46.422478
_cell_angle_gamma 90.000000
_cell_volume 788.292985
_symmetry_space_group_name_H-M "P 21/C"
_symmetry_group_IT_number 14
_symmetry_cell_setting 'monoclinic'
loop_
_space_group_symop_operation_xyz
x,y,z
-x,1/2+y,1/2-z
-x,-y,-z
x,1/2-y,1/2+z
loop_
_atom_site_type_symbol
_atom_site_label
_atom_site_fract_x
_atom_site_fract_y
_atom_site_fract_z
Si Si1 0.589747 0.180652 0.618825
Si Si2 0.712338 0.060802 0.457444
Si Si3 0.608900 0.774276 0.607853
Si Si4 0.480643 0.437954 0.590461
Si Si5 0.947728 0.368342 0.617219
O O1 0.550556 0.107840 0.622619
O O2 0.395574 0.207450 0.821075
O O3 0.438718 0.216200 0.537553
O O4 0.026427 0.191760 0.471386
O O5 0.699997 0.101283 0.325892
O O6 0.149758 0.050345 0.315217
O O7 0.500000 0.000000 0.500000
O O8 0.247351 0.803007 0.809027
O O9 0.500000 0.500000 0.500000
O O10 0.842556 0.411889 0.530321
O O11 0.661341 0.616361 0.456884
#
# Coordination Sequence:
#
# PCOD9241530 Si02
#       5
#     4   4   4   4   4
#     4  11  23  42  67  94 129 174 213 275 321 391
#     4   9  21  39  61  89 126 161 206 263 323 377
#     4  11  21  43  65  92 128 169 218 266 330 377
#     4  10  19  36  60  86 119 162 199 250 320 375
#     4   9  19  37  59  81 124 158 198 257 316 363
#
# _framework density 25.371278
#
# number of rings (size 3 to 8) (size 9 to 14) (size 15 to 20)
#    1.200    0.800    2.000    1.800    0.000    0.800 
#    3.600    2.000    0.000    0.000    0.000    0.000 
#    0.000    0.000    0.000    0.000    0.000    0.000 
#
# Total GULP energy -111626.342339 kJ/mol
# GULP energy per Si atom -5581.317117 kJ/mol
# Density = 2.531353 g / cm^3
# Si number density = 25.371278 Si / 1000 Ang^3
#
#
#
# Elastic Constant Matrix: (Units=GPa)
#
#
# Indices 1 2 3 4 5 6 
#
# 1 86.0475 -37.6544 2.1803 0.0000 1.9058 0.0000
# 2 -37.6544 51.1602 -7.5047 0.0000 1.1379 0.0000
# 3 2.1803 -7.5047 78.3184 0.0000 -10.6685 0.0000
# 4 0.0000 0.0000 0.0000 29.1998 0.0000 10.6100
# 5 1.9058 1.1379 -10.6685 0.0000 25.0024 0.0000
# 6 0.0000 0.0000 0.0000 10.6100 0.0000 27.9402
#
#
#
# Elastic Compliance Matrix: (Units=1/GPa)
#
#
# Indices 1 2 3 4 5 6 
#
# 1 0.017251 0.012811 0.000519 0.000000 -0.001677 0.000000
# 2 0.012811 0.029338 0.002272 0.000000 -0.001342 0.000000
# 3 0.000519 0.002272 0.013751 0.000000 0.005725 0.000000
# 4 0.000000 0.000000 0.000000 0.039729 0.000000 -0.015087
# 5 -0.001677 -0.001342 0.005725 0.000000 0.042628 0.000000
# 6 0.000000 0.000000 0.000000 -0.015087 0.000000 0.041520
#
#
# Mechanical properties :
#
#
# Convention : Reuss Voigt Hill
#
# Bulk Modulus (GPa) = 10.92374 14.39650 12.66012
# Shear Modulus (GPa) = 27.24361 33.66214 30.45287
#
# Velocity S-wave (km/s) = 3.28044 3.64645 3.46828
# Velocity P-wave (km/s) = 4.32010 4.83895 4.58687
#
# Compressibility (1/GPa) = 0.09154375
#
# Stress axis : x y z
#
# Youngs Moduli (GPa) = 57.96633 34.08515 72.71950
#
# Poissons Ratio (x) = -0.43665 -0.03773
# Poissons Ratio (y) = -0.74258 -0.16520
# Poissons Ratio (z) = -0.03008 -0.07743
#
# Static dielectric constant tensor:
#      x y z
#    x 1.909050 0.000000 0.132450 
#    y 0.000000 2.291900 0.000000 
#    z 0.132450 0.000000 1.770940 
# 
# From -- ./inp_files/21033.got.cif
#   From: 2010.05.17/outbox.cif.g08.bks.cpg/sg14_11_cif.got.tgz:21033.got - 2010.06.03 17:49:19.
