data_PCOD9241669
_publ_section_title
;
Structure prediction by ZEFSAII (Michael W. Deem and Ramdas Pophale) SiO2 
 PCOD9241669
Probable space group: P 21/C
;
_chemical_formula_sum "Si O2"
_cell_formula_units_Z 24
_cell_length_a 15.563837
_cell_length_b 10.840956
_cell_length_c 13.601708
_cell_angle_alpha 90.000000
_cell_angle_beta 154.900094
_cell_angle_gamma 90.000000
_cell_volume 973.523086
_symmetry_space_group_name_H-M "P 21/C"
_symmetry_group_IT_number 14
_symmetry_cell_setting 'monoclinic'
loop_
_space_group_symop_operation_xyz
x,y,z
-x,1/2+y,1/2-z
-x,-y,-z
x,1/2-y,1/2+z
loop_
_atom_site_type_symbol
_atom_site_label
_atom_site_fract_x
_atom_site_fract_y
_atom_site_fract_z
Si Si1 0.072216 0.078604 0.361720
Si Si2 0.684303 0.515923 0.561589
Si Si3 0.751876 0.024983 0.640367
Si Si4 0.682405 0.342205 0.891553
Si Si5 0.619088 0.373010 0.188554
Si Si6 0.648589 0.675490 0.704076
O O1 0.189546 0.954598 0.520729
O O2 0.849537 0.051630 0.167687
O O3 0.115027 0.066534 0.289295
O O4 0.192453 0.187896 0.541584
O O5 0.548275 0.613747 0.360043
O O6 0.758355 0.598646 0.730349
O O7 0.535602 0.410486 0.449457
O O8 0.526426 0.966623 0.405341
O O9 0.746629 0.150855 0.571154
O O10 0.775611 0.059508 0.778251
O O11 0.715466 0.220959 0.864510
O O12 0.459182 0.294245 0.955331
#
# Coordination Sequence:
#
# PCOD9241669 Si02
#       6
#     4   4   4   4   4   4
#     4   9  18  33  57  84 107 143 190 226 272 328
#     4   9  16  33  55  84 114 135 189 237 260 330
#     4   9  21  35  59  82 111 155 180 232 283 326
#     4   8  19  34  60  79 106 156 185 220 285 325
#     4  10  19  37  57  81 118 145 189 229 279 337
#     4   9  18  30  56  82 108 150 178 225 283 318
#
# _framework density 24.652729000000001
#
# number of rings (size 3 to 8) (size 9 to 14) (size 15 to 20)
#    1.000    2.000    0.000    1.500    2.333    0.000 
#    0.000    3.333   11.000    2.000    0.000    0.000 
#    0.000    0.000    0.000    0.000    0.000    0.000 
#
# Total GULP energy -133863.135425 kJ/mol
# GULP energy per Si atom -5577.630643 kJ/mol
# Density = 2.459662 g / cm^3
# Si number density = 24.652729 Si / 1000 Ang^3
#
#
#
# Elastic Constant Matrix: (Units=GPa)
#
#
# Indices 1 2 3 4 5 6 
#
# 1 136.6392 15.2345 40.4182 0.0000 17.4714 0.0000
# 2 15.2345 55.2032 14.0001 0.0000 2.7904 0.0000
# 3 40.4182 14.0001 55.1081 0.0000 2.6821 0.0000
# 4 0.0000 0.0000 0.0000 27.1126 0.0000 -13.2526
# 5 17.4714 2.7904 2.6821 0.0000 27.8231 0.0000
# 6 0.0000 0.0000 0.0000 -13.2526 0.0000 40.3254
#
#
#
# Elastic Compliance Matrix: (Units=1/GPa)
#
#
# Indices 1 2 3 4 5 6 
#
# 1 0.010200 -0.000750 -0.007016 0.000000 -0.005654 0.000000
# 2 -0.000750 0.019478 -0.004347 0.000000 -0.001063 0.000000
# 3 -0.007016 -0.004347 0.024274 0.000000 0.002501 0.000000
# 4 0.000000 0.000000 0.000000 0.043942 0.000000 0.014441
# 5 -0.005654 -0.001063 0.002501 0.000000 0.039357 0.000000
# 6 0.000000 0.000000 0.000000 0.014441 0.000000 0.029544
#
#
# Mechanical properties :
#
#
# Convention : Reuss Voigt Hill
#
# Bulk Modulus (GPa) = 33.63809 42.91737 38.27773
# Shear Modulus (GPa) = 24.88438 30.87206 27.87822
#
# Velocity S-wave (km/s) = 3.18055 3.54259 3.36644
# Velocity P-wave (km/s) = 5.21174 5.84635 5.53814
#
# Compressibility (1/GPa) = 0.02972821
#
# Stress axis : x y z
#
# Youngs Moduli (GPa) = 98.03625 51.34015 41.19615
#
# Poissons Ratio (x) = 0.03851 0.28901
# Poissons Ratio (y) = 0.07353 0.17906
# Poissons Ratio (z) = 0.68778 0.22315
#
# Static dielectric constant tensor:
#      x y z
#    x 1.965270 0.000000 -0.065370 
#    y 0.000000 1.930720 0.000000 
#    z -0.065370 0.000000 2.009500 
# 
# From -- ./inp_files/47013.got.cif
#   From: 2010.05.17/outbox.cif.g08.bks.cpg/sg14_24_cif.got.tgz:47013.got - 2010.06.03 17:49:19.
