data_PCOD9241994
_publ_section_title
;
Structure prediction by ZEFSAII (Michael W. Deem and Ramdas Pophale) SiO2 
 PCOD9241994
Probable space group: P 21/C
;
_chemical_formula_sum "Si O2"
_cell_formula_units_Z 20
_cell_length_a 21.402703
_cell_length_b 5.590144
_cell_length_c 14.003854
_cell_angle_alpha 90.000000
_cell_angle_beta 27.709433
_cell_angle_gamma 90.000000
_cell_volume 779.077676
_symmetry_space_group_name_H-M "P 21/C"
_symmetry_group_IT_number 14
_symmetry_cell_setting 'monoclinic'
loop_
_space_group_symop_operation_xyz
x,y,z
-x,1/2+y,1/2-z
-x,-y,-z
x,1/2-y,1/2+z
loop_
_atom_site_type_symbol
_atom_site_label
_atom_site_fract_x
_atom_site_fract_y
_atom_site_fract_z
Si Si1 0.012603 0.466276 0.867790
Si Si2 0.289950 0.026833 0.238369
Si Si3 0.464645 0.211229 0.642221
Si Si4 0.107167 0.534889 0.269051
Si Si5 0.375007 0.131280 0.469400
O O1 0.094263 0.224042 0.735072
O O2 0.859570 0.442377 0.040505
O O3 0.073175 0.724674 0.757327
O O4 0.000000 0.500000 0.000000
O O5 0.337984 0.227941 0.248705
O O6 0.301002 0.146668 0.118796
O O7 0.403747 0.825168 0.084757
O O8 0.509532 0.948492 0.613414
O O9 0.438292 0.328352 0.781054
O O10 0.254985 0.557230 0.114738
O O11 0.000000 0.500000 0.500000
#
# Coordination Sequence:
#
# PCOD9241994 Si02
#       5
#     4   4   4   4   4
#     4  10  19  38  64  93 121 177 211 268 332 388
#     4  11  23  42  65  91 134 166 223 268 329 397
#     4  11  25  40  63  99 125 176 216 270 333 392
#     4  10  20  35  67  90 123 174 217 259 337 383
#     4  12  22  41  66  92 132 171 217 274 326 400
#
# _framework density 25.671381
#
# number of rings (size 3 to 8) (size 9 to 14) (size 15 to 20)
#    0.000    1.200    6.000    3.000    0.000    0.000 
#    0.000    2.000    0.000    0.000    0.000    0.000 
#    0.000    0.000    0.000    0.000    0.000    0.000 
#
# Total GULP energy -111868.965155 kJ/mol
# GULP energy per Si atom -5593.448258 kJ/mol
# Density = 2.561295 g / cm^3
# Si number density = 25.671381 Si / 1000 Ang^3
#
#
#
# Elastic Constant Matrix: (Units=GPa)
#
#
# Indices 1 2 3 4 5 6 
#
# 1 104.9299 25.8730 53.1882 0.0000 -13.8155 0.0000
# 2 25.8730 122.5980 27.6978 0.0000 1.5278 0.0000
# 3 53.1882 27.6978 76.4562 0.0000 -11.4635 0.0000
# 4 0.0000 0.0000 0.0000 31.8908 0.0000 -8.1041
# 5 -13.8155 1.5278 -11.4635 0.0000 41.4518 0.0000
# 6 0.0000 0.0000 0.0000 -8.1041 0.0000 38.1293
#
#
#
# Elastic Compliance Matrix: (Units=1/GPa)
#
#
# Indices 1 2 3 4 5 6 
#
# 1 0.015021 -0.001000 -0.009735 0.000000 0.002351 0.000000
# 2 -0.001000 0.009015 -0.002786 0.000000 -0.001436 0.000000
# 3 -0.009735 -0.002786 0.021272 0.000000 0.002741 0.000000
# 4 0.000000 0.000000 0.000000 0.033147 0.000000 0.007045
# 5 0.002351 -0.001436 0.002741 0.000000 0.025719 0.000000
# 6 0.000000 0.000000 0.000000 0.007045 0.000000 0.027724
#
#
# Mechanical properties :
#
#
# Convention : Reuss Voigt Hill
#
# Bulk Modulus (GPa) = 54.74372 57.50025 56.12198
# Shear Modulus (GPa) = 30.29812 35.44272 32.87042
#
# Velocity S-wave (km/s) = 3.43917 3.71972 3.58219
# Velocity P-wave (km/s) = 6.09440 6.39497 6.24649
#
# Compressibility (1/GPa) = 0.01826694
#
# Stress axis : x y z
#
# Youngs Moduli (GPa) = 66.57470 110.92645 47.01111
#
# Poissons Ratio (x) = 0.11092 0.45764
# Poissons Ratio (y) = 0.06657 0.13095
# Poissons Ratio (z) = 0.64808 0.30899
#
# Static dielectric constant tensor:
#      x y z
#    x 2.038190 0.000000 0.011120 
#    y 0.000000 2.148010 0.000000 
#    z 0.011120 0.000000 1.943730 
# 
# From -- ./inp_files/49581.got.cif
#   From: 2010.05.17/outbox.cif.g08.bks.cpg/sg14_25_cif.got.tgz:49581.got - 2010.06.03 17:49:19.
