data_PCOD9241029
_publ_section_title
;
Structure prediction by ZEFSAII (Michael W. Deem and Ramdas Pophale) SiO2 
 PCOD9241029
Probable space group: P 21/C
;
_chemical_formula_sum "Si O2"
_cell_formula_units_Z 32
_cell_length_a 7.475108
_cell_length_b 22.452355
_cell_length_c 14.180049
_cell_angle_alpha 90.000000
_cell_angle_beta 145.350421
_cell_angle_gamma 90.000000
_cell_volume 1353.100961
_symmetry_space_group_name_H-M "P 21/C"
_symmetry_group_IT_number 14
_symmetry_cell_setting 'monoclinic'
loop_
_space_group_symop_operation_xyz
x,y,z
-x,1/2+y,1/2-z
-x,-y,-z
x,1/2-y,1/2+z
loop_
_atom_site_type_symbol
_atom_site_label
_atom_site_fract_x
_atom_site_fract_y
_atom_site_fract_z
Si Si1 0.066361 0.800018 0.926577
Si Si2 0.246231 0.489009 0.811710
Si Si3 0.397576 0.149271 0.112166
Si Si4 0.164615 0.670457 0.049918
Si Si5 0.518883 0.612294 0.709184
Si Si6 0.373160 0.486519 0.658125
Si Si7 0.341110 0.361904 0.882707
Si Si8 0.127139 0.618049 0.732060
O O1 0.163114 0.734359 0.998554
O O2 0.359100 0.844638 0.064026
O O3 0.822811 0.820204 0.903257
O O4 0.889809 0.808767 0.750239
O O5 0.438994 0.487220 0.797608
O O6 0.130389 0.422401 0.785344
O O7 0.043918 0.549612 0.723929
O O8 0.500000 0.500000 0.000000
O O9 0.735246 0.173489 0.296287
O O10 0.429112 0.077921 0.139538
O O11 0.192648 0.155287 0.927112
O O12 0.418600 0.633454 0.100847
O O13 0.837677 0.639001 0.887352
O O14 0.537223 0.543911 0.684130
O O15 0.286113 0.612989 0.698226
O O16 0.000000 0.500000 0.500000
O O17 0.588362 0.358904 0.076892
#
# Coordination Sequence:
#
# PCOD9241029 Si02
#       8
#     4   4   4   4   4   4   4   4
#     4  10  19  36  57  75 106 153 191 217 260 341
#     4   9  15  27  52  80 102 132 173 219 261 321
#     4  10  19  34  56  78 110 143 181 226 276 327
#     4  11  22  35  53  81 112 145 183 229 274 317
#     4  10  20  33  56  85 109 138 191 229 267 327
#     4  11  15  31  55  81 104 140 186 224 267 328
#     4  10  19  36  56  78 109 143 183 223 272 325
#     4   9  19  34  58  82 106 142 183 218 276 337
#
# _framework density 23.649381000000002
#
# number of rings (size 3 to 8) (size 9 to 14) (size 15 to 20)
#    0.000    2.000    6.250    1.500    0.000    0.500 
#    0.000    6.250    0.000    0.750    0.000    0.000 
#    0.000    0.000    0.000    0.000    0.000    0.000 
#
# Total GULP energy -178157.449075 kJ/mol
# GULP energy per Si atom -5567.420284 kJ/mol
# Density = 2.359555 g / cm^3
# Si number density = 23.649381 Si / 1000 Ang^3
#
#
#
# Elastic Constant Matrix: (Units=GPa)
#
#
# Indices 1 2 3 4 5 6 
#
# 1 35.1506 -0.2293 7.7696 0.0000 -5.3241 0.0000
# 2 -0.2293 94.3986 46.9550 0.0000 -23.0030 0.0000
# 3 7.7696 46.9550 177.6108 0.0000 -28.5989 0.0000
# 4 0.0000 0.0000 0.0000 38.3414 0.0000 -3.3524
# 5 -5.3241 -23.0030 -28.5989 0.0000 17.2130 0.0000
# 6 0.0000 0.0000 0.0000 -3.3524 0.0000 -27.9782
#
#
#
# Elastic Compliance Matrix: (Units=1/GPa)
#
#
# Indices 1 2 3 4 5 6 
#
# 1 0.030622 0.003531 0.000016 0.000000 0.014217 0.000000
# 2 0.003531 0.016262 -0.001063 0.000000 0.021058 0.000000
# 3 0.000016 -0.001063 0.007758 0.000000 0.011475 0.000000
# 4 0.000000 0.000000 0.000000 0.025811 0.000000 -0.003093
# 5 0.014217 0.021058 0.011475 0.000000 0.109700 0.000000
# 6 0.000000 0.000000 0.000000 -0.003093 0.000000 -0.035372
#
#
# Mechanical properties :
#
#
# Convention : Reuss Voigt Hill
#
# Bulk Modulus (GPa) = 16.77562 46.23897 31.50729
# Shear Modulus (GPa) = 29.46656 22.35955 25.91306
#
# Velocity S-wave (km/s) = 3.53367 3.07817 3.31375
# Velocity P-wave (km/s) = 4.87421 5.67696 5.29083
#
# Compressibility (1/GPa) = 0.05961032
#
# Stress axis : x y z
#
# Youngs Moduli (GPa) = 32.65642 61.49258 128.89532
#
# Poissons Ratio (x) = -0.21711 -0.00209
# Poissons Ratio (y) = -0.11530 0.13699
# Poissons Ratio (z) = -0.00053 0.06536
#
# Static dielectric constant tensor:
#      x y z
#    x 2.022850 0.000000 0.025980 
#    y 0.000000 2.047240 0.000000 
#    z 0.025980 0.000000 2.026510 
# 
# From -- ./inp_files/67572.got.cif
#   From: 2010.05.17/outbox.cif.g08.bks.cpg/sg14_34_cif.got.tgz:67572.got - 2010.06.03 17:49:19.
