data_PCOD9241996
_publ_section_title
;
Structure prediction by ZEFSAII (Michael W. Deem and Ramdas Pophale) SiO2 
 PCOD9241996
Probable space group: P 21/C
;
_chemical_formula_sum "Si O2"
_cell_formula_units_Z 32
_cell_length_a 21.922145
_cell_length_b 11.244659
_cell_length_c 16.950296
_cell_angle_alpha 90.000000
_cell_angle_beta 157.447109
_cell_angle_gamma 90.000000
_cell_volume 1602.554825
_symmetry_space_group_name_H-M "P 21/C"
_symmetry_group_IT_number 14
_symmetry_cell_setting 'monoclinic'
loop_
_space_group_symop_operation_xyz
x,y,z
-x,1/2+y,1/2-z
-x,-y,-z
x,1/2-y,1/2+z
loop_
_atom_site_type_symbol
_atom_site_label
_atom_site_fract_x
_atom_site_fract_y
_atom_site_fract_z
Si Si1 0.291912 0.305111 0.875616
Si Si2 0.650939 0.503277 0.735078
Si Si3 0.942222 0.308021 0.725154
Si Si4 0.658151 0.229734 0.770245
Si Si5 0.081047 0.917996 0.213523
Si Si6 0.252141 0.108396 0.499674
Si Si7 0.065895 0.391578 0.028012
Si Si8 0.201202 0.562618 0.694177
O O1 0.287208 0.311539 0.965536
O O2 0.149178 0.218438 0.675022
O O3 0.268801 0.436406 0.808095
O O4 0.470596 0.269158 0.065165
O O5 0.500000 0.500000 0.500000
O O6 0.702838 0.367675 0.812297
O O7 0.787871 0.564204 0.849324
O O8 0.626835 0.583486 0.784652
O O9 0.776328 0.314943 0.480699
O O10 0.987863 0.174403 0.806867
O O11 0.085862 0.355377 0.842723
O O12 0.936370 0.365568 0.804996
O O13 0.694029 0.145492 0.737226
O O14 0.143366 0.869984 0.204019
O O15 0.227154 0.979505 0.431079
O O16 0.954093 0.019382 0.039295
O O17 0.000000 0.500000 0.000000
#
# Coordination Sequence:
#
# PCOD9241996 Si02
#       8
#     4   4   4   4   4   4   4   4
#     4  11  24  46  63  96 137 166 228 277 331 400
#     4  11  24  44  65  94 138 174 213 273 350 392
#     4  11  23  39  64  95 129 165 222 263 330 399
#     4  12  24  42  67  97 131 175 216 276 334 414
#     4  10  19  38  64  94 119 160 214 271 311 387
#     4  10  23  41  64  92 127 174 209 275 322 386
#     4  11  26  42  68 100 131 178 224 279 329 404
#     4  10  22  39  69  92 126 165 217 271 334 380
#
# _framework density 19.968115999999998
#
# number of rings (size 3 to 8) (size 9 to 14) (size 15 to 20)
#    0.000    1.250    5.000    0.375    3.500    1.000 
#    0.000    0.000    0.000    0.000    0.000    0.000 
#    0.000    0.000    0.000    0.000    0.000    0.000 
#
# Total GULP energy -178244.238397 kJ/mol
# GULP energy per Si atom -5570.132450 kJ/mol
# Density = 1.992267 g / cm^3
# Si number density = 19.968116 Si / 1000 Ang^3
#
#
#
# Elastic Constant Matrix: (Units=GPa)
#
#
# Indices 1 2 3 4 5 6 
#
# 1 127.7534 48.9600 37.8378 0.0000 -27.1592 0.0000
# 2 48.9600 71.9484 14.8859 0.0000 -15.8622 0.0000
# 3 37.8378 14.8859 93.1777 0.0000 -30.0442 0.0000
# 4 0.0000 0.0000 0.0000 19.2193 0.0000 -0.9488
# 5 -27.1592 -15.8622 -30.0442 0.0000 24.0970 0.0000
# 6 0.0000 0.0000 0.0000 -0.9488 0.0000 34.2062
#
#
#
# Elastic Compliance Matrix: (Units=1/GPa)
#
#
# Indices 1 2 3 4 5 6 
#
# 1 0.012394 -0.006378 -0.001444 0.000000 0.007970 0.000000
# 2 -0.006378 0.019655 0.002180 0.000000 0.008468 0.000000
# 3 -0.001444 0.002180 0.018242 0.000000 0.022551 0.000000
# 4 0.000000 0.000000 0.000000 0.052102 0.000000 0.001445
# 5 0.007970 0.008468 0.022551 0.000000 0.084173 0.000000
# 6 0.000000 0.000000 0.000000 0.001445 0.000000 0.029275
#
#
# Mechanical properties :
#
#
# Convention : Reuss Voigt Hill
#
# Bulk Modulus (GPa) = 25.63649 55.13855 40.38752
# Shear Modulus (GPa) = 20.82238 28.25090 24.53664
#
# Velocity S-wave (km/s) = 3.23272 3.76546 3.50921
# Velocity P-wave (km/s) = 5.17692 6.82482 6.05717
#
# Compressibility (1/GPa) = 0.03900691
#
# Stress axis : x y z
#
# Youngs Moduli (GPa) = 80.68447 50.87803 54.81919
#
# Poissons Ratio (x) = 0.32450 0.07917
# Poissons Ratio (y) = 0.51461 -0.11953
# Poissons Ratio (z) = 0.11653 -0.11094
#
# Static dielectric constant tensor:
#      x y z
#    x 1.730650 0.000000 -0.021700 
#    y 0.000000 1.781990 0.000000 
#    z -0.021700 0.000000 1.782580 
# 
# From -- ./inp_files/62003.got.cif
#   From: 2010.05.17/outbox.cif.g08.bks.cpg/sg14_32_cif.got.tgz:62003.got - 2010.06.03 17:49:19.
