data_PCOD9241380
_publ_section_title
;
Structure prediction by ZEFSAII (Michael W. Deem and Ramdas Pophale) SiO2 
 PCOD9241380
Probable space group: P 21/C
;
_chemical_formula_sum "Si O2"
_cell_formula_units_Z 32
_cell_length_a 5.312865
_cell_length_b 29.428087
_cell_length_c 9.555121
_cell_angle_alpha 90.000000
_cell_angle_beta 100.454714
_cell_angle_gamma 90.000000
_cell_volume 1469.117748
_symmetry_space_group_name_H-M "P 21/C"
_symmetry_group_IT_number 14
_symmetry_cell_setting 'monoclinic'
loop_
_space_group_symop_operation_xyz
x,y,z
-x,1/2+y,1/2-z
-x,-y,-z
x,1/2-y,1/2+z
loop_
_atom_site_type_symbol
_atom_site_label
_atom_site_fract_x
_atom_site_fract_y
_atom_site_fract_z
Si Si1 0.029705 0.312284 0.696808
Si Si2 0.145102 0.644739 0.582245
Si Si3 0.743309 0.050628 0.406847
Si Si4 0.235104 0.283080 0.187735
Si Si5 0.701571 0.552552 0.906908
Si Si6 0.332138 0.377971 0.350983
Si Si7 0.707006 0.184300 0.600119
Si Si8 0.559272 0.358661 0.803289
O O1 0.147514 0.263613 0.748210
O O2 0.270482 0.346249 0.734425
O O3 0.940661 0.314244 0.525492
O O4 0.777819 0.327580 0.754219
O O5 0.396471 0.621377 0.546844
O O6 0.226259 0.658956 0.747731
O O7 0.906801 0.611633 0.575699
O O8 0.548761 0.052008 0.519970
O O9 0.638489 0.089179 0.293961
O O10 0.034486 0.062077 0.482097
O O11 0.735917 0.998832 0.353391
O O12 0.290332 0.325020 0.298502
O O13 0.490986 0.279010 0.120903
O O14 0.981264 0.297710 0.077253
O O15 0.673695 0.589701 0.783371
O O16 0.586060 0.152476 0.471721
#
# Coordination Sequence:
#
# PCOD9241380 Si02
#       8
#     4   4   4   4   4   4   4   4
#     4  12  26  40  58  86 127 167 200 245 309 359
#     4  10  22  39  58  82 117 163 204 239 289 359
#     4  10  20  35  60  93 128 152 190 252 319 366
#     4  10  21  37  58  87 118 155 202 249 295 351
#     4  10  19  35  62  96 121 152 196 254 311 360
#     4  10  19  36  60  84 114 153 206 249 289 352
#     4  10  21  37  62  84 112 153 205 252 289 347
#     4  12  24  41  62  92 125 158 199 255 311 356
#
# _framework density 21.781780000000001
#
# number of rings (size 3 to 8) (size 9 to 14) (size 15 to 20)
#    0.000    1.500    0.000    6.750    0.000    6.000 
#    0.000    0.000    0.000    4.500    0.000    0.000 
#    0.000    0.000    0.000    0.000    0.000    0.000 
#
# Total GULP energy -178608.774195 kJ/mol
# GULP energy per Si atom -5581.524194 kJ/mol
# Density = 2.173220 g / cm^3
# Si number density = 21.781780 Si / 1000 Ang^3
#
#
#
# Elastic Constant Matrix: (Units=GPa)
#
#
# Indices 1 2 3 4 5 6 
#
# 1 125.5041 -19.5609 2.0591 0.0000 15.9678 0.0000
# 2 -19.5609 73.2427 14.6342 0.0000 2.5506 0.0000
# 3 2.0591 14.6342 73.8109 0.0000 6.7439 0.0000
# 4 0.0000 0.0000 0.0000 18.6252 0.0000 4.8997
# 5 15.9678 2.5506 6.7439 0.0000 23.8849 0.0000
# 6 0.0000 0.0000 0.0000 4.8997 0.0000 21.1206
#
#
#
# Elastic Compliance Matrix: (Units=1/GPa)
#
#
# Indices 1 2 3 4 5 6 
#
# 1 0.009209 0.002724 -0.000213 0.000000 -0.006387 0.000000
# 2 0.002724 0.015035 -0.002817 0.000000 -0.002632 0.000000
# 3 -0.000213 -0.002817 0.014445 0.000000 -0.003635 0.000000
# 4 0.000000 0.000000 0.000000 0.057180 0.000000 -0.013265
# 5 -0.006387 -0.002632 -0.003635 0.000000 0.047445 0.000000
# 6 0.000000 0.000000 0.000000 -0.013265 0.000000 0.050424
#
#
# Mechanical properties :
#
#
# Convention : Reuss Voigt Hill
#
# Bulk Modulus (GPa) = 26.26242 29.64693 27.95467
# Shear Modulus (GPa) = 24.14975 31.08783 27.61879
#
# Velocity S-wave (km/s) = 3.33335 3.78198 3.56473
# Velocity P-wave (km/s) = 5.18634 5.71941 5.45939
#
# Compressibility (1/GPa) = 0.03807723
#
# Stress axis : x y z
#
# Youngs Moduli (GPa) = 108.59422 66.51039 69.22989
#
# Poissons Ratio (x) = -0.18120 0.01478
# Poissons Ratio (y) = -0.29586 0.19499
# Poissons Ratio (z) = 0.02318 0.18733
#
# Static dielectric constant tensor:
#      x y z
#    x 1.914460 0.000000 -0.025930 
#    y 0.000000 1.814260 0.000000 
#    z -0.025930 0.000000 1.815180 
# 
# From -- ./inp_files/6992.got.cif
#   From: 2010.05.17/outbox.cif.g08.bks.cpg/sg14_4_cif.got.tgz:6992.got - 2010.06.03 17:49:19.
