data_PCOD9241539
_publ_section_title
;
Structure prediction by ZEFSAII (Michael W. Deem and Ramdas Pophale) SiO2 
 PCOD9241539
Probable space group: P 21/C
;
_chemical_formula_sum "Si O2"
_cell_formula_units_Z 20
_cell_length_a 13.904919
_cell_length_b 5.618627
_cell_length_c 9.247591
_cell_angle_alpha 90.000000
_cell_angle_beta 98.372302
_cell_angle_gamma 90.000000
_cell_volume 714.782799
_symmetry_space_group_name_H-M "P 21/C"
_symmetry_group_IT_number 14
_symmetry_cell_setting 'monoclinic'
loop_
_space_group_symop_operation_xyz
x,y,z
-x,1/2+y,1/2-z
-x,-y,-z
x,1/2-y,1/2+z
loop_
_atom_site_type_symbol
_atom_site_label
_atom_site_fract_x
_atom_site_fract_y
_atom_site_fract_z
Si Si1 0.751788 0.053672 0.617277
Si Si2 0.123064 0.204245 0.135246
Si Si3 0.907379 0.063082 0.155838
Si Si4 0.387140 0.242472 0.576856
Si Si5 0.424592 0.749471 0.580044
O O1 0.656663 0.216557 0.565150
O O2 0.790382 0.950242 0.776652
O O3 0.715651 0.823966 0.516906
O O4 0.841842 0.282944 0.089833
O O5 0.133812 0.469749 0.200338
O O6 0.102956 0.143154 0.965900
O O7 0.020017 0.128975 0.186324
O O8 0.398922 0.500181 0.647942
O O9 0.469562 0.250441 0.469067
O O10 0.411238 0.996224 0.665099
#
# Coordination Sequence:
#
# PCOD9241539 Si02
#       5
#     4   4   4   4   4
#     4  10  19  36  60  90 127 172 227 283 350 413
#     4  11  24  41  62  93 133 183 235 298 354 429
#     4  11  24  41  62  93 134 182 238 295 362 420
#     4   8  15  29  55  93 125 165 218 279 342 407
#     4   8  15  29  55  93 125 165 216 282 338 414
#
# _framework density 27.980526999999999
#
# number of rings (size 3 to 8) (size 9 to 14) (size 15 to 20)
#    1.200    1.200    2.000    1.200    0.000    2.400 
#    0.000    0.000    0.000    0.000   41.600    0.000 
#    0.000    0.000    0.000    0.000    0.000    0.000 
#
# Total GULP energy -111751.099835 kJ/mol
# GULP energy per Si atom -5587.554992 kJ/mol
# Density = 2.791684 g / cm^3
# Si number density = 27.980527 Si / 1000 Ang^3
#
#
#
# Elastic Constant Matrix: (Units=GPa)
#
#
# Indices 1 2 3 4 5 6 
#
# 1 127.6076 30.3094 42.7303 0.0000 36.4730 0.0000
# 2 30.3094 207.4406 53.4103 0.0000 -1.9484 0.0000
# 3 42.7303 53.4103 163.8171 0.0000 26.3810 0.0000
# 4 0.0000 0.0000 0.0000 26.8459 0.0000 10.7560
# 5 36.4730 -1.9484 26.3810 0.0000 46.9664 0.0000
# 6 0.0000 0.0000 0.0000 10.7560 0.0000 44.7441
#
#
#
# Elastic Compliance Matrix: (Units=1/GPa)
#
#
# Indices 1 2 3 4 5 6 
#
# 1 0.010756 -0.001359 -0.001109 0.000000 -0.007787 0.000000
# 2 -0.001359 0.005507 -0.001812 0.000000 0.002302 0.000000
# 3 -0.001109 -0.001812 0.007540 0.000000 -0.003449 0.000000
# 4 0.000000 0.000000 0.000000 0.041220 0.000000 -0.009909
# 5 -0.007787 0.002302 -0.003449 0.000000 0.029372 0.000000
# 6 0.000000 0.000000 0.000000 -0.009909 0.000000 0.024731
#
#
# Mechanical properties :
#
#
# Convention : Reuss Voigt Hill
#
# Bulk Modulus (GPa) = 65.59879 83.52948 74.56414
# Shear Modulus (GPa) = 37.66013 48.53896 43.09955
#
# Velocity S-wave (km/s) = 3.67269 4.16954 3.92898
# Velocity P-wave (km/s) = 6.44051 7.28681 6.87669
#
# Compressibility (1/GPa) = 0.01524418
#
# Stress axis : x y z
#
# Youngs Moduli (GPa) = 92.96947 181.57545 132.63180
#
# Poissons Ratio (x) = 0.24682 0.14702
# Poissons Ratio (y) = 0.12638 0.24029
# Poissons Ratio (z) = 0.10306 0.32896
#
# Static dielectric constant tensor:
#      x y z
#    x 2.170120 0.000000 -0.045730 
#    y 0.000000 2.291790 0.000000 
#    z -0.045730 0.000000 2.032970 
# 
# From -- ./inp_files/33279.got.cif
#   From: 2010.05.17/outbox.cif.g08.bks.cpg/sg14_17_cif.got.tgz:33279.got - 2010.06.03 17:49:19.
