data_PCOD9241226
_publ_section_title
;
Structure prediction by ZEFSAII (Michael W. Deem and Ramdas Pophale) SiO2 
 PCOD9241226
Probable space group: P 21/C
;
_chemical_formula_sum "Si O2"
_cell_formula_units_Z 32
_cell_length_a 21.668053
_cell_length_b 12.571627
_cell_length_c 14.014733
_cell_angle_alpha 90.000000
_cell_angle_beta 157.459987
_cell_angle_gamma 90.000000
_cell_volume 1463.414512
_symmetry_space_group_name_H-M "P 21/C"
_symmetry_group_IT_number 14
_symmetry_cell_setting 'monoclinic'
loop_
_space_group_symop_operation_xyz
x,y,z
-x,1/2+y,1/2-z
-x,-y,-z
x,1/2-y,1/2+z
loop_
_atom_site_type_symbol
_atom_site_label
_atom_site_fract_x
_atom_site_fract_y
_atom_site_fract_z
Si Si1 0.257250 0.583291 0.497475
Si Si2 0.864643 0.422134 0.349601
Si Si3 0.838786 0.559943 0.825567
Si Si4 0.113478 0.255148 0.734507
Si Si5 0.814753 0.316272 0.083338
Si Si6 0.053217 0.072634 0.786038
Si Si7 0.615895 0.919567 0.445639
Si Si8 0.486341 0.938280 0.882716
O O1 0.198568 0.521719 0.316307
O O2 0.166849 0.691378 0.393702
O O3 0.445000 0.607212 0.748779
O O4 0.205070 0.505135 0.508260
O O5 0.800516 0.347834 0.172936
O O6 0.000000 0.500000 0.500000
O O7 0.970539 0.337252 0.558664
O O8 0.717581 0.501301 0.159597
O O9 0.918201 0.666631 0.893867
O O10 0.664680 0.598531 0.611692
O O11 0.928191 0.492709 0.036949
O O12 0.126450 0.178267 0.842954
O O13 0.267544 0.323216 0.920504
O O14 0.953963 0.387989 0.235012
O O15 0.647052 0.348299 0.795616
O O16 0.574713 0.984487 0.289574
O O17 0.500000 0.000000 0.000000
#
# Coordination Sequence:
#
# PCOD9241226 Si02
#       8
#     4   4   4   4   4   4   4   4
#     4  10  21  37  57  81 114 148 195 233 280 342
#     4   9  19  36  58  82 110 148 191 229 278 340
#     4  10  19  36  59  83 115 150 192 239 273 346
#     4  10  19  37  59  85 110 152 194 227 283 341
#     4  11  21  35  58  85 114 153 184 236 298 333
#     4  11  22  35  56  86 118 144 188 240 288 336
#     4   9  20  36  60  82 111 152 195 231 275 343
#     4  10  19  35  56  84 118 146 186 238 283 329
#
# _framework density 21.866669000000002
#
# number of rings (size 3 to 8) (size 9 to 14) (size 15 to 20)
#    0.000    2.000    1.250    3.750    0.000    4.000 
#    2.250    0.000    0.000    3.750    0.000    0.000 
#    0.000    0.000    0.000    0.000    0.000    0.000 
#
# Total GULP energy -178273.959777 kJ/mol
# GULP energy per Si atom -5571.061243 kJ/mol
# Density = 2.181690 g / cm^3
# Si number density = 21.866669 Si / 1000 Ang^3
#
#
#
# Elastic Constant Matrix: (Units=GPa)
#
#
# Indices 1 2 3 4 5 6 
#
# 1 51.8125 2.6205 16.4640 0.0000 11.4398 0.0000
# 2 2.6205 83.0087 10.3928 0.0000 -3.6364 0.0000
# 3 16.4640 10.3928 72.0198 0.0000 11.6669 0.0000
# 4 0.0000 0.0000 0.0000 25.4882 0.0000 11.1707
# 5 11.4398 -3.6364 11.6669 0.0000 27.3327 0.0000
# 6 0.0000 0.0000 0.0000 11.1707 0.0000 25.8464
#
#
#
# Elastic Compliance Matrix: (Units=1/GPa)
#
#
# Indices 1 2 3 4 5 6 
#
# 1 0.022237 -0.000575 -0.003739 0.000000 -0.007788 0.000000
# 2 -0.000575 0.012453 -0.002120 0.000000 0.002802 0.000000
# 3 -0.003739 -0.002120 0.015940 0.000000 -0.005521 0.000000
# 4 0.000000 0.000000 0.000000 0.048402 0.000000 -0.020919
# 5 -0.007788 0.002802 -0.005521 0.000000 0.042575 0.000000
# 6 0.000000 0.000000 0.000000 -0.020919 0.000000 0.047731
#
#
# Mechanical properties :
#
#
# Convention : Reuss Voigt Hill
#
# Bulk Modulus (GPa) = 26.48080 29.53286 28.00683
# Shear Modulus (GPa) = 23.27813 27.55769 25.41791
#
# Velocity S-wave (km/s) = 3.26628 3.55387 3.41310
# Velocity P-wave (km/s) = 5.13432 5.51137 5.32618
#
# Compressibility (1/GPa) = 0.03776321
#
# Stress axis : x y z
#
# Youngs Moduli (GPa) = 44.97016 80.30056 62.73500
#
# Poissons Ratio (x) = 0.04617 0.23456
# Poissons Ratio (y) = 0.02586 0.13297
# Poissons Ratio (z) = 0.16814 0.17020
#
# Static dielectric constant tensor:
#      x y z
#    x 1.840230 0.000000 -0.007260 
#    y 0.000000 1.827820 0.000000 
#    z -0.007260 0.000000 1.901680 
# 
# From -- ./inp_files/62367.got.cif
#   From: 2010.05.17/outbox.cif.g08.bks.cpg/sg14_32_cif.got.tgz:62367.got - 2010.06.03 17:49:19.
