data_PCOD9241212
_publ_section_title
;
Structure prediction by ZEFSAII (Michael W. Deem and Ramdas Pophale) SiO2 
 PCOD9241212
Probable space group: P 21/C
;
_chemical_formula_sum "Si O2"
_cell_formula_units_Z 32
_cell_length_a 13.497507
_cell_length_b 23.258603
_cell_length_c 7.145159
_cell_angle_alpha 90.000000
_cell_angle_beta 129.749175
_cell_angle_gamma 90.000000
_cell_volume 1724.611550
_symmetry_space_group_name_H-M "P 21/C"
_symmetry_group_IT_number 14
_symmetry_cell_setting 'monoclinic'
loop_
_space_group_symop_operation_xyz
x,y,z
-x,1/2+y,1/2-z
-x,-y,-z
x,1/2-y,1/2+z
loop_
_atom_site_type_symbol
_atom_site_label
_atom_site_fract_x
_atom_site_fract_y
_atom_site_fract_z
Si Si1 0.464668 0.809909 0.038448
Si Si2 0.748299 0.825364 0.289425
Si Si3 0.308072 0.872736 0.552445
Si Si4 0.878933 0.462712 0.076665
Si Si5 0.958358 0.912553 0.564389
Si Si6 0.210872 0.307018 0.724426
Si Si7 0.506898 0.675745 0.025187
Si Si8 0.041252 0.872338 0.059343
O O1 0.594515 0.829844 0.085351
O O2 0.473769 0.829023 0.264810
O O3 0.347147 0.836148 0.781005
O O4 0.467706 0.740584 0.039143
O O5 0.846405 0.873518 0.338312
O O6 0.766446 0.826448 0.535760
O O7 0.789324 0.761964 0.274305
O O8 0.262833 0.936465 0.558686
O O9 0.424396 0.868231 0.546945
O O10 0.179602 0.848929 0.293916
O O11 0.891985 0.530250 0.068665
O O12 0.960547 0.435357 0.346329
O O13 0.938702 0.433178 0.963760
O O14 0.026185 0.879533 0.818733
O O15 0.075504 0.334055 0.504861
O O16 0.338012 0.326802 0.766176
#
# Coordination Sequence:
#
# PCOD9241212 Si02
#       8
#     4   4   4   4   4   4   4   4
#     4  10  19  36  52  82 112 150 186 212 282 348
#     4   9  20  33  60  80 110 146 184 235 266 331
#     4  10  22  34  53  85 109 148 183 226 278 336
#     4   9  22  36  58  83 106 152 191 225 290 331
#     4  10  19  41  59  80 110 150 190 237 279 323
#     4   9  19  35  54  85 109 141 189 222 282 331
#     4  10  19  35  56  73 115 153 177 222 276 341
#     4   9  21  37  55  86 111 141 185 240 273 331
#
# _framework density 18.554902999999999
#
# number of rings (size 3 to 8) (size 9 to 14) (size 15 to 20)
#    0.750    1.750    1.250    0.375    5.250    0.000 
#    6.750    0.625    0.000    6.750    0.000    0.000 
#    0.000    0.000    0.000    0.000    0.000    0.000 
#
# Total GULP energy -178238.612272 kJ/mol
# GULP energy per Si atom -5569.956634 kJ/mol
# Density = 1.851267 g / cm^3
# Si number density = 18.554903 Si / 1000 Ang^3
#
#
#
# Elastic Constant Matrix: (Units=GPa)
#
#
# Indices 1 2 3 4 5 6 
#
# 1 61.6615 22.5384 16.1623 0.0000 3.6234 0.0000
# 2 22.5384 45.9755 21.2127 0.0000 21.0671 0.0000
# 3 16.1623 21.2127 73.3228 0.0000 17.1950 0.0000
# 4 0.0000 0.0000 0.0000 44.7083 0.0000 12.7652
# 5 3.6234 21.0671 17.1950 0.0000 28.2550 0.0000
# 6 0.0000 0.0000 0.0000 12.7652 0.0000 33.1055
#
#
#
# Elastic Compliance Matrix: (Units=1/GPa)
#
#
# Indices 1 2 3 4 5 6 
#
# 1 0.021270 -0.013116 -0.002972 0.000000 0.008860 0.000000
# 2 -0.013116 0.042396 -0.002748 0.000000 -0.028256 0.000000
# 3 -0.002972 -0.002748 0.016935 0.000000 -0.007876 0.000000
# 4 0.000000 0.000000 0.000000 0.025134 0.000000 -0.009692
# 5 0.008860 -0.028256 -0.007876 0.000000 0.060117 0.000000
# 6 0.000000 0.000000 0.000000 -0.009692 0.000000 0.033943
#
#
# Mechanical properties :
#
#
# Convention : Reuss Voigt Hill
#
# Bulk Modulus (GPa) = 23.29348 33.42071 28.35710
# Shear Modulus (GPa) = 19.85883 29.28354 24.57118
#
# Velocity S-wave (km/s) = 3.27505 3.97698 3.64296
# Velocity P-wave (km/s) = 5.18482 6.25615 5.74551
#
# Compressibility (1/GPa) = 0.04293046
#
# Stress axis : x y z
#
# Youngs Moduli (GPa) = 47.01478 23.58716 59.04772
#
# Poissons Ratio (x) = 0.30936 0.17548
# Poissons Ratio (y) = 0.61664 0.16226
# Poissons Ratio (z) = 0.13972 0.06481
#
# Static dielectric constant tensor:
#      x y z
#    x 1.674260 0.000000 -0.016530 
#    y 0.000000 1.549580 0.000000 
#    z -0.016530 0.000000 1.669510 
# 
# From -- ./inp_files/16970.got.cif
#   From: 2010.05.17/outbox.cif.g08.bks.cpg/sg14_9_cif.got.tgz:16970.got - 2010.06.03 17:49:19.
