data_PCOD9241354
_publ_section_title
;
Structure prediction by ZEFSAII (Michael W. Deem and Ramdas Pophale) SiO2 
 PCOD9241354
Probable space group: P 21/C
;
_chemical_formula_sum "Si O2"
_cell_formula_units_Z 32
_cell_length_a 11.772242
_cell_length_b 20.428485
_cell_length_c 9.643757
_cell_angle_alpha 90.000000
_cell_angle_beta 44.628042
_cell_angle_gamma 90.000000
_cell_volume 1629.254114
_symmetry_space_group_name_H-M "P 21/C"
_symmetry_group_IT_number 14
_symmetry_cell_setting 'monoclinic'
loop_
_space_group_symop_operation_xyz
x,y,z
-x,1/2+y,1/2-z
-x,-y,-z
x,1/2-y,1/2+z
loop_
_atom_site_type_symbol
_atom_site_label
_atom_site_fract_x
_atom_site_fract_y
_atom_site_fract_z
Si Si1 0.576998 0.492288 0.782922
Si Si2 0.299203 0.820716 0.441517
Si Si3 0.983974 0.263553 0.398329
Si Si4 0.550148 0.564602 0.371880
Si Si5 0.249748 0.630270 0.280480
Si Si6 0.460826 0.813144 0.817655
Si Si7 0.637996 0.878229 0.062142
Si Si8 0.197075 0.250940 0.964982
O O1 0.441838 0.463163 0.792634
O O2 0.723603 0.441389 0.680147
O O3 0.639719 0.559362 0.661945
O O4 0.500000 0.500000 0.000000
O O5 0.144492 0.796306 0.489387
O O6 0.252533 0.865701 0.612458
O O7 0.367341 0.751833 0.443317
O O8 0.451660 0.852077 0.230507
O O9 0.898818 0.328312 0.531515
O O10 0.045181 0.272299 0.189172
O O11 0.139480 0.251427 0.357711
O O12 0.500000 0.500000 0.500000
O O13 0.428938 0.625072 0.444151
O O14 0.673913 0.598127 0.373512
O O15 0.403238 0.669047 0.212997
O O16 0.649911 0.797957 0.652797
O O17 0.747203 0.819943 0.025787
#
# Coordination Sequence:
#
# PCOD9241354 Si02
#       8
#     4   4   4   4   4   4   4   4
#     4  10  19  35  61  90 119 152 203 257 296 353
#     4  10  20  34  58  85 115 150 198 247 302 353
#     4  11  23  37  54  82 121 158 190 239 300 367
#     4   9  19  34  54  86 117 148 186 246 303 344
#     4  10  20  37  57  87 115 151 199 242 304 356
#     4   9  21  32  59  84 113 145 201 249 294 355
#     4  10  21  36  60  87 119 154 204 251 302 354
#     4  11  23  36  57  86 122 157 197 248 306 356
#
# _framework density 19.640888
#
# number of rings (size 3 to 8) (size 9 to 14) (size 15 to 20)
#    0.000    2.000    2.500    0.750    8.750    1.000 
#    0.000    0.625    0.000    0.000    0.000   21.000 
#    0.000    0.000    0.000    0.000    0.000    0.000 
#
# Total GULP energy -178137.665860 kJ/mol
# GULP energy per Si atom -5566.802058 kJ/mol
# Density = 1.959618 g / cm^3
# Si number density = 19.640888 Si / 1000 Ang^3
#
#
#
# Elastic Constant Matrix: (Units=GPa)
#
#
# Indices 1 2 3 4 5 6 
#
# 1 74.0468 24.8624 16.0659 0.0000 13.5854 0.0000
# 2 24.8624 83.3383 15.7090 0.0000 7.3449 0.0000
# 3 16.0659 15.7090 48.9611 0.0000 15.8307 0.0000
# 4 0.0000 0.0000 0.0000 15.7961 0.0000 8.7751
# 5 13.5854 7.3449 15.8307 0.0000 39.4289 0.0000
# 6 0.0000 0.0000 0.0000 8.7751 0.0000 28.2421
#
#
#
# Elastic Compliance Matrix: (Units=1/GPa)
#
#
# Indices 1 2 3 4 5 6 
#
# 1 0.016122 -0.003951 -0.002832 0.000000 -0.003682 0.000000
# 2 -0.003951 0.013765 -0.003138 0.000000 0.000057 0.000000
# 3 -0.002832 -0.003138 0.025117 0.000000 -0.008524 0.000000
# 4 0.000000 0.000000 0.000000 0.076514 0.000000 -0.023774
# 5 -0.003682 0.000057 -0.008524 0.000000 0.030042 0.000000
# 6 0.000000 0.000000 0.000000 -0.023774 0.000000 0.042795
#
#
# Mechanical properties :
#
#
# Convention : Reuss Voigt Hill
#
# Bulk Modulus (GPa) = 28.44160 35.51343 31.97751
# Shear Modulus (GPa) = 21.19393 26.67399 23.93396
#
# Velocity S-wave (km/s) = 3.28849 3.68922 3.49460
# Velocity P-wave (km/s) = 5.37876 6.02227 5.70959
#
# Compressibility (1/GPa) = 0.03515977
#
# Stress axis : x y z
#
# Youngs Moduli (GPa) = 62.02863 72.65018 39.81424
#
# Poissons Ratio (x) = 0.28706 0.11275
# Poissons Ratio (y) = 0.24509 0.12495
# Poissons Ratio (z) = 0.17566 0.22800
#
# Static dielectric constant tensor:
#      x y z
#    x 1.716420 0.000000 0.001580 
#    y 0.000000 1.729890 0.000000 
#    z 0.001580 0.000000 1.698250 
# 
# From -- ./inp_files/14312.got.cif
#   From: 2010.05.17/outbox.cif.g08.bks.cpg/sg14_8_cif.got.tgz:14312.got - 2010.06.03 17:49:19.
