data_PCOD9241607
_publ_section_title
;
Structure prediction by ZEFSAII (Michael W. Deem and Ramdas Pophale) SiO2 
 PCOD9241607
Probable space group: P 21/C
;
_chemical_formula_sum "Si O2"
_cell_formula_units_Z 32
_cell_length_a 16.680466
_cell_length_b 14.903180
_cell_length_c 11.955012
_cell_angle_alpha 90.000000
_cell_angle_beta 29.767600
_cell_angle_gamma 90.000000
_cell_volume 1475.508363
_symmetry_space_group_name_H-M "P 21/C"
_symmetry_group_IT_number 14
_symmetry_cell_setting 'monoclinic'
loop_
_space_group_symop_operation_xyz
x,y,z
-x,1/2+y,1/2-z
-x,-y,-z
x,1/2-y,1/2+z
loop_
_atom_site_type_symbol
_atom_site_label
_atom_site_fract_x
_atom_site_fract_y
_atom_site_fract_z
Si Si1 0.949681 0.226839 0.149118
Si Si2 0.586834 0.631473 0.439305
Si Si3 0.471095 0.581133 0.120683
Si Si4 0.082020 0.970856 0.783254
Si Si5 0.134288 0.122281 0.556239
Si Si6 0.537299 0.057890 0.694919
Si Si7 0.249763 0.290835 0.133945
Si Si8 0.391089 0.783584 0.549434
O O1 0.013473 0.310009 0.142091
O O2 0.961853 0.130806 0.196571
O O3 0.770002 0.240229 0.321794
O O4 0.070244 0.211464 0.899846
O O5 0.483007 0.571261 0.648552
O O6 0.674617 0.697238 0.421886
O O7 0.482125 0.696359 0.485703
O O8 0.731405 0.587904 0.193849
O O9 0.430459 0.526072 0.281725
O O10 0.355335 0.653003 0.201291
O O11 0.500000 0.500000 0.000000
O O12 0.634419 0.637497 0.944591
O O13 0.276911 0.967559 0.557875
O O14 0.048567 0.043582 0.728578
O O15 0.000000 0.000000 0.000000
O O16 0.234483 0.181105 0.524992
O O17 0.511596 0.148823 0.652019
#
# Coordination Sequence:
#
# PCOD9241607 Si02
#       8
#     4   4   4   4   4   4   4   4
#     4  10  22  38  66  99 129 175 224 280 330 395
#     4  10  22  37  63  95 133 173 209 279 342 398
#     4   9  17  34  62  91 123 157 216 281 315 375
#     4  11  21  41  67  96 131 177 231 273 327 402
#     4  11  22  39  69  93 134 182 220 275 337 402
#     4  10  19  36  62  96 130 161 227 273 329 388
#     4  10  19  39  63  91 124 173 229 258 332 400
#     4   9  20  37  61  94 132 167 218 271 332 392
#
# _framework density 21.687442000000001
#
# number of rings (size 3 to 8) (size 9 to 14) (size 15 to 20)
#    0.000    2.000    2.500    0.750    0.000    3.500 
#    0.000    0.000    0.000    8.250    0.000    0.000 
#    0.000    0.000    0.000    0.000    0.000    0.000 
#
# Total GULP energy -178534.048514 kJ/mol
# GULP energy per Si atom -5579.189016 kJ/mol
# Density = 2.163808 g / cm^3
# Si number density = 21.687442 Si / 1000 Ang^3
#
#
#
# Elastic Constant Matrix: (Units=GPa)
#
#
# Indices 1 2 3 4 5 6 
#
# 1 82.9486 35.2381 39.8628 0.0000 8.3810 0.0000
# 2 35.2381 84.4359 45.7813 0.0000 9.7051 0.0000
# 3 39.8628 45.7813 95.8794 0.0000 26.5912 0.0000
# 4 0.0000 0.0000 0.0000 16.9642 0.0000 1.3730
# 5 8.3810 9.7051 26.5912 0.0000 26.4336 0.0000
# 6 0.0000 0.0000 0.0000 1.3730 0.0000 49.4379
#
#
#
# Elastic Compliance Matrix: (Units=1/GPa)
#
#
# Indices 1 2 3 4 5 6 
#
# 1 0.016132 -0.004100 -0.005199 0.000000 0.001620 0.000000
# 2 -0.004100 0.017143 -0.007068 0.000000 0.002116 0.000000
# 3 -0.005199 -0.007068 0.020512 0.000000 -0.016391 0.000000
# 4 0.000000 0.000000 0.000000 0.059080 0.000000 -0.001641
# 5 0.001620 0.002116 -0.016391 0.000000 0.053029 0.000000
# 6 0.000000 0.000000 0.000000 -0.001641 0.000000 0.020273
#
#
# Mechanical properties :
#
#
# Convention : Reuss Voigt Hill
#
# Bulk Modulus (GPa) = 47.49680 56.11425 51.80552
# Shear Modulus (GPa) = 22.13164 28.05925 25.09545
#
# Velocity S-wave (km/s) = 3.19796 3.60085 3.40537
# Velocity P-wave (km/s) = 5.96524 6.57407 6.27704
#
# Compressibility (1/GPa) = 0.02105405
#
# Stress axis : x y z
#
# Youngs Moduli (GPa) = 61.98837 58.33126 48.75215
#
# Poissons Ratio (x) = 0.23915 0.25345
# Poissons Ratio (y) = 0.25415 0.34458
# Poissons Ratio (z) = 0.32226 0.41229
#
# Static dielectric constant tensor:
#      x y z
#    x 1.801670 0.000000 0.009230 
#    y 0.000000 1.849230 0.000000 
#    z 0.009230 0.000000 1.821730 
# 
# From -- ./inp_files/34219.got.cif
#   From: 2010.05.17/outbox.cif.g08.bks.cpg/sg14_18_cif.got.tgz:34219.got - 2010.06.03 17:49:19.
