data_PCOD9241956
_publ_section_title
;
Structure prediction by ZEFSAII (Michael W. Deem and Ramdas Pophale) SiO2 
 PCOD9241956
Probable space group: P 21/C
;
_chemical_formula_sum "Si O2"
_cell_formula_units_Z 28
_cell_length_a 9.593414
_cell_length_b 14.256773
_cell_length_c 9.738859
_cell_angle_alpha 90.000000
_cell_angle_beta 118.861868
_cell_angle_gamma 90.000000
_cell_volume 1166.542280
_symmetry_space_group_name_H-M "P 21/C"
_symmetry_group_IT_number 14
_symmetry_cell_setting 'monoclinic'
loop_
_space_group_symop_operation_xyz
x,y,z
-x,1/2+y,1/2-z
-x,-y,-z
x,1/2-y,1/2+z
loop_
_atom_site_type_symbol
_atom_site_label
_atom_site_fract_x
_atom_site_fract_y
_atom_site_fract_z
Si Si1 0.063895 0.636019 0.565568
Si Si2 0.943258 0.399550 0.731300
Si Si3 0.625031 0.530783 0.823582
Si Si4 0.581501 0.183576 0.804236
Si Si5 0.411184 0.645212 0.379142
Si Si6 0.098303 0.575250 0.893415
Si Si7 0.123371 0.308026 0.026860
O O1 0.053233 0.571627 0.425208
O O2 0.228091 0.689807 0.607469
O O3 0.096787 0.604819 0.735133
O O4 0.901348 0.697125 0.481637
O O5 0.779742 0.350163 0.691376
O O6 0.968872 0.491255 0.834696
O O7 0.087244 0.334651 0.850747
O O8 0.467258 0.586345 0.795378
O O9 0.572071 0.459611 0.676514
O O10 0.733158 0.626020 0.855466
O O11 0.733391 0.465699 0.974068
O O12 0.526088 0.276516 0.697317
O O13 0.529324 0.168717 0.938674
O O14 0.024716 0.655423 0.951946
#
# Coordination Sequence:
#
# PCOD9241956 Si02
#       7
#     4   4   4   4   4   4   4
#     4  11  23  37  63  99 132 171 221 281 331 403
#     4  10  19  38  62  94 127 172 217 271 342 389
#     4  11  23  45  69  99 135 183 230 278 340 401
#     4  11  26  42  70  98 135 187 224 273 342 413
#     4  11  22  46  67  95 138 179 230 272 338 407
#     4  11  21  39  67  94 133 173 221 283 334 399
#     4  11  20  40  70  93 129 177 222 274 335 401
#
# _framework density 24.002558000000001
#
# number of rings (size 3 to 8) (size 9 to 14) (size 15 to 20)
#    0.000    1.143    4.286    2.571    4.000    0.571 
#    7.714    0.000    0.000    0.000    0.000    0.000 
#    0.000    0.000    0.000    0.000    0.000    0.000 
#
# Total GULP energy -155931.554624 kJ/mol
# GULP energy per Si atom -5568.984094 kJ/mol
# Density = 2.394793 g / cm^3
# Si number density = 24.002558 Si / 1000 Ang^3
#
#
#
# Elastic Constant Matrix: (Units=GPa)
#
#
# Indices 1 2 3 4 5 6 
#
# 1 31.6191 27.5477 35.3006 0.0000 -11.5690 0.0000
# 2 27.5477 76.6592 51.1284 0.0000 -8.9257 0.0000
# 3 35.3006 51.1284 160.5673 0.0000 -15.4022 0.0000
# 4 0.0000 0.0000 0.0000 36.3956 0.0000 2.8529
# 5 -11.5690 -8.9257 -15.4022 0.0000 21.0495 0.0000
# 6 0.0000 0.0000 0.0000 2.8529 0.0000 31.6369
#
#
#
# Elastic Compliance Matrix: (Units=1/GPa)
#
#
# Indices 1 2 3 4 5 6 
#
# 1 0.059365 -0.014580 -0.006315 0.000000 0.021824 0.000000
# 2 -0.014580 0.020373 -0.003465 0.000000 -0.001910 0.000000
# 3 -0.006315 -0.003465 0.008868 0.000000 0.001549 0.000000
# 4 0.000000 0.000000 0.000000 0.027671 0.000000 -0.002495
# 5 0.021824 -0.001910 0.001549 0.000000 0.059825 0.000000
# 6 0.000000 0.000000 0.000000 -0.002495 0.000000 0.031834
#
#
# Mechanical properties :
#
#
# Convention : Reuss Voigt Hill
#
# Bulk Modulus (GPa) = 25.07182 55.19989 40.13586
# Shear Modulus (GPa) = 18.52189 28.14101 23.33145
#
# Velocity S-wave (km/s) = 2.78090 3.42777 3.12114
# Velocity P-wave (km/s) = 4.55844 6.22202 5.45403
#
# Compressibility (1/GPa) = 0.03988541
#
# Stress axis : x y z
#
# Youngs Moduli (GPa) = 16.84505 49.08542 112.76216
#
# Poissons Ratio (x) = 0.71566 0.71212
# Poissons Ratio (y) = 0.24560 0.39072
# Poissons Ratio (z) = 0.10638 0.17008
#
# Static dielectric constant tensor:
#      x y z
#    x 1.904800 0.000000 -0.001460 
#    y 0.000000 2.030740 0.000000 
#    z -0.001460 0.000000 1.948400 
# 
# From -- ./inp_files/13409.got.cif
#   From: 2010.05.17/outbox.cif.g08.bks.cpg/sg14_7_cif.got.tgz:13409.got - 2010.06.03 17:49:19.
