data_PCOD9241483
_publ_section_title
;
Structure prediction by ZEFSAII (Michael W. Deem and Ramdas Pophale) SiO2 
 PCOD9241483
Probable space group: P 21/C
;
_chemical_formula_sum "Si O2"
_cell_formula_units_Z 24
_cell_length_a 17.395388
_cell_length_b 7.708928
_cell_length_c 23.001282
_cell_angle_alpha 90.000000
_cell_angle_beta 163.539995
_cell_angle_gamma 90.000000
_cell_volume 873.971363
_symmetry_space_group_name_H-M "P 21/C"
_symmetry_group_IT_number 14
_symmetry_cell_setting 'monoclinic'
loop_
_space_group_symop_operation_xyz
x,y,z
-x,1/2+y,1/2-z
-x,-y,-z
x,1/2-y,1/2+z
loop_
_atom_site_type_symbol
_atom_site_label
_atom_site_fract_x
_atom_site_fract_y
_atom_site_fract_z
Si Si1 0.677284 0.009752 0.521493
Si Si2 0.144455 0.314571 0.654330
Si Si3 0.950357 0.143823 0.835184
Si Si4 0.547503 0.027762 0.838225
Si Si5 0.890774 0.379171 0.063937
Si Si6 0.675524 0.174907 0.228428
O O1 0.415091 0.129019 0.317335
O O2 0.775041 0.076442 0.654372
O O3 0.904659 0.032443 0.637081
O O4 0.565614 0.815893 0.446128
O O5 0.058596 0.499128 0.620355
O O6 0.145820 0.187874 0.711533
O O7 0.910820 0.237356 0.444044
O O8 0.812927 0.310088 0.764984
O O9 0.254229 0.134487 0.032435
O O10 0.302754 0.998985 0.616112
O O11 0.435742 0.998639 0.822342
O O12 0.724070 0.198568 0.955303
#
# Coordination Sequence:
#
# PCOD9241483 Si02
#       6
#     4   4   4   4   4   4
#     4  11  20  33  56  81 109 140 174 215 264 319
#     4   9  18  34  56  77 103 140 181 215 252 312
#     4  10  20  33  54  81 110 142 173 211 266 324
#     4  10  21  37  57  78 105 138 180 222 261 310
#     4  10  20  37  55  79 104 138 178 220 262 308
#     4  10  19  36  59  80 102 140 184 221 254 307
#
# _framework density 27.460853
#
# number of rings (size 3 to 8) (size 9 to 14) (size 15 to 20)
#    0.000    2.000    0.000    8.000    0.000    4.000 
#    0.000   10.000    0.000    0.000    0.000    0.000 
#    0.000    0.000    0.000    0.000    0.000    0.000 
#
# Total GULP energy -134416.790060 kJ/mol
# GULP energy per Si atom -5600.699586 kJ/mol
# Density = 2.739835 g / cm^3
# Si number density = 27.460853 Si / 1000 Ang^3
#
#
#
# Elastic Constant Matrix: (Units=GPa)
#
#
# Indices 1 2 3 4 5 6 
#
# 1 158.7914 0.7394 16.6973 0.0000 16.6609 0.0000
# 2 0.7394 94.4297 3.4507 0.0000 1.0210 0.0000
# 3 16.6973 3.4507 33.5010 0.0000 -8.3953 0.0000
# 4 0.0000 0.0000 0.0000 19.9503 0.0000 17.4040
# 5 16.6609 1.0210 -8.3953 0.0000 40.7223 0.0000
# 6 0.0000 0.0000 0.0000 17.4040 0.0000 41.6137
#
#
#
# Elastic Compliance Matrix: (Units=1/GPa)
#
#
# Indices 1 2 3 4 5 6 
#
# 1 0.007185 0.000153 -0.004571 0.000000 -0.003886 0.000000
# 2 0.000153 0.010644 -0.001323 0.000000 -0.000602 0.000000
# 3 -0.004571 -0.001323 0.034525 0.000000 0.009021 0.000000
# 4 0.000000 0.000000 0.000000 0.078918 0.000000 -0.033006
# 5 -0.003886 -0.000602 0.009021 0.000000 0.028021 0.000000
# 6 0.000000 0.000000 0.000000 -0.033006 0.000000 0.037834
#
#
# Mechanical properties :
#
#
# Convention : Reuss Voigt Hill
#
# Bulk Modulus (GPa) = 24.46720 36.49964 30.48342
# Shear Modulus (GPa) = 22.49888 38.17955 30.33921
#
# Velocity S-wave (km/s) = 2.86546 3.73275 3.32748
# Velocity P-wave (km/s) = 4.45836 5.64786 5.08799
#
# Compressibility (1/GPa) = 0.04087104
#
# Stress axis : x y z
#
# Youngs Moduli (GPa) = 139.17497 93.95345 28.96459
#
# Poissons Ratio (x) = -0.01435 0.13239
# Poissons Ratio (y) = -0.02126 0.03833
# Poissons Ratio (z) = 0.63613 0.12434
#
# Static dielectric constant tensor:
#      x y z
#    x 2.180130 0.000000 0.037970 
#    y 0.000000 2.213240 0.000000 
#    z 0.037970 0.000000 2.101060 
# 
# From -- ./inp_files/38896.got.cif
#   From: 2010.05.17/outbox.cif.g08.bks.cpg/sg14_20_cif.got.tgz:38896.got - 2010.06.03 17:49:19.
