data_PCOD9241830
_publ_section_title
;
Structure prediction by ZEFSAII (Michael W. Deem and Ramdas Pophale) SiO2 
 PCOD9241830
Probable space group: P 21/C
;
_chemical_formula_sum "Si O2"
_cell_formula_units_Z 32
_cell_length_a 9.175260
_cell_length_b 11.395905
_cell_length_c 20.789880
_cell_angle_alpha 90.000000
_cell_angle_beta 133.804997
_cell_angle_gamma 90.000000
_cell_volume 1568.829705
_symmetry_space_group_name_H-M "P 21/C"
_symmetry_group_IT_number 14
_symmetry_cell_setting 'monoclinic'
loop_
_space_group_symop_operation_xyz
x,y,z
-x,1/2+y,1/2-z
-x,-y,-z
x,1/2-y,1/2+z
loop_
_atom_site_type_symbol
_atom_site_label
_atom_site_fract_x
_atom_site_fract_y
_atom_site_fract_z
Si Si1 0.689738 0.337115 0.749162
Si Si2 0.799570 0.533250 0.313563
Si Si3 0.005790 0.396340 0.948809
Si Si4 0.929844 0.135472 0.750788
Si Si5 0.318227 0.231874 0.324571
Si Si6 0.716818 0.958639 0.586473
Si Si7 0.428629 0.413752 0.275114
Si Si8 0.771869 0.754595 0.882951
O O1 0.814823 0.251410 0.741593
O O2 0.666127 0.471715 0.720886
O O3 0.462400 0.289724 0.680553
O O4 0.798539 0.350828 0.852253
O O5 0.947793 0.447003 0.320073
O O6 0.708364 0.624708 0.233537
O O7 0.618177 0.457381 0.290085
O O8 0.880541 0.627932 0.389697
O O9 0.136171 0.441041 0.928462
O O10 0.121273 0.292651 0.021254
O O11 0.000000 0.500000 0.000000
O O12 0.125162 0.184332 0.774823
O O13 0.808801 0.053365 0.664099
O O14 0.328040 0.166568 0.394623
O O15 0.485474 0.317176 0.345740
O O16 0.500000 0.000000 0.500000
O O17 0.259124 0.350917 0.178337
#
# Coordination Sequence:
#
# PCOD9241830 Si02
#       8
#     4   4   4   4   4   4   4   4
#     4  11  21  38  66  96 132 177 216 275 337 397
#     4   9  21  37  62  90 124 173 215 263 331 401
#     4  12  24  40  67 102 128 171 231 282 328 406
#     4  11  21  40  63  92 130 172 216 263 337 404
#     4  10  22  37  64  93 127 169 220 268 329 399
#     4  11  25  42  65  98 132 169 223 289 335 395
#     4  10  19  37  64  94 121 171 221 267 329 395
#     4  10  21  38  65  94 135 166 225 281 334 388
#
# _framework density 20.397369999999999
#
# number of rings (size 3 to 8) (size 9 to 14) (size 15 to 20)
#    0.000    1.500    3.750    1.500    5.250    1.000 
#    0.000    0.625    0.000    9.750    0.000    0.000 
#    0.000    0.000    0.000    0.000    0.000    0.000 
#
# Total GULP energy -178382.119536 kJ/mol
# GULP energy per Si atom -5574.441235 kJ/mol
# Density = 2.035094 g / cm^3
# Si number density = 20.397370 Si / 1000 Ang^3
#
#
#
# Elastic Constant Matrix: (Units=GPa)
#
#
# Indices 1 2 3 4 5 6 
#
# 1 103.9666 58.7347 25.0851 0.0000 -17.6006 0.0000
# 2 58.7347 130.8734 25.5544 0.0000 -13.8400 0.0000
# 3 25.0851 25.5544 75.3902 0.0000 -3.6714 0.0000
# 4 0.0000 0.0000 0.0000 31.9009 0.0000 -14.7165
# 5 -17.6006 -13.8400 -3.6714 0.0000 25.6138 0.0000
# 6 0.0000 0.0000 0.0000 -14.7165 0.0000 51.3954
#
#
#
# Elastic Compliance Matrix: (Units=1/GPa)
#
#
# Indices 1 2 3 4 5 6 
#
# 1 0.014332 -0.005205 -0.002680 0.000000 0.006651 0.000000
# 2 -0.005205 0.010513 -0.001741 0.000000 0.001854 0.000000
# 3 -0.002680 -0.001741 0.014714 0.000000 -0.000674 0.000000
# 4 0.000000 0.000000 0.000000 0.036118 0.000000 0.010342
# 5 0.006651 0.001854 -0.000674 0.000000 0.044517 0.000000
# 6 0.000000 0.000000 0.000000 0.010342 0.000000 0.022418
#
#
# Mechanical properties :
#
#
# Convention : Reuss Voigt Hill
#
# Bulk Modulus (GPa) = 49.24967 58.77540 54.01254
# Shear Modulus (GPa) = 29.64994 35.17243 32.41119
#
# Velocity S-wave (km/s) = 3.81677 4.15705 3.99054
# Velocity P-wave (km/s) = 6.60463 7.20549 6.91159
#
# Compressibility (1/GPa) = 0.02030470
#
# Stress axis : x y z
#
# Youngs Moduli (GPa) = 69.77453 95.11928 67.96423
#
# Poissons Ratio (x) = 0.49512 0.18218
# Poissons Ratio (y) = 0.36319 0.11834
# Poissons Ratio (z) = 0.18703 0.16563
#
# Static dielectric constant tensor:
#      x y z
#    x 1.765600 0.000000 -0.022930 
#    y 0.000000 1.769910 0.000000 
#    z -0.022930 0.000000 1.720540 
# 
# From -- ./inp_files/65603.got.cif
#   From: 2010.05.17/outbox.cif.g08.bks.cpg/sg14_33_cif.got.tgz:65603.got - 2010.06.03 17:49:19.
