data_PCOD9241374
_publ_section_title
;
Structure prediction by ZEFSAII (Michael W. Deem and Ramdas Pophale) SiO2 
 PCOD9241374
Probable space group: P 21/C
;
_chemical_formula_sum "Si O2"
_cell_formula_units_Z 28
_cell_length_a 11.114805
_cell_length_b 7.724487
_cell_length_c 18.777367
_cell_angle_alpha 90.000000
_cell_angle_beta 128.706887
_cell_angle_gamma 90.000000
_cell_volume 1258.051859
_symmetry_space_group_name_H-M "P 21/C"
_symmetry_group_IT_number 14
_symmetry_cell_setting 'monoclinic'
loop_
_space_group_symop_operation_xyz
x,y,z
-x,1/2+y,1/2-z
-x,-y,-z
x,1/2-y,1/2+z
loop_
_atom_site_type_symbol
_atom_site_label
_atom_site_fract_x
_atom_site_fract_y
_atom_site_fract_z
Si Si1 0.575822 0.892709 0.939488
Si Si2 0.639174 0.309850 0.884705
Si Si3 0.597298 0.726017 0.594751
Si Si4 0.073423 0.024390 0.948970
Si Si5 0.145483 0.261314 0.191523
Si Si6 0.934717 0.384954 0.910910
Si Si7 0.415753 0.309565 0.193238
O O1 0.523103 0.801918 0.848324
O O2 0.439275 0.021486 0.910395
O O3 0.609542 0.755338 0.014802
O O4 0.740361 0.988881 0.986538
O O5 0.561381 0.309370 0.933700
O O6 0.802187 0.285325 0.907036
O O7 0.609794 0.503067 0.846422
O O8 0.528025 0.181622 0.800989
O O9 0.747185 0.766744 0.698672
O O10 0.034494 0.226599 0.916603
O O11 0.992453 0.877265 0.869288
O O12 0.000000 0.000000 0.000000
O O13 0.102907 0.465572 0.162117
O O14 0.259581 0.229184 0.166611
O O15 0.000000 0.500000 0.000000
#
# Coordination Sequence:
#
# PCOD9241374 Si02
#       7
#     4   4   4   4   4   4   4
#     4  11  22  42  62  91 126 169 212 260 322 386
#     4  10  21  35  62  93 122 161 208 269 320 370
#     4  10  24  42  62  85 131 169 210 262 317 387
#     4  12  21  37  70  93 123 167 212 261 323 381
#     4  10  22  41  61  95 127 161 216 267 317 377
#     4  11  21  35  60  97 126 158 207 272 321 373
#     4  10  19  35  62  91 121 159 215 268 309 376
#
# _framework density 22.256636
#
# number of rings (size 3 to 8) (size 9 to 14) (size 15 to 20)
#    0.000    1.429    2.857    4.286    4.000    0.571 
#    2.571    0.000    0.000    0.000    0.000    0.000 
#    0.000    0.000    0.000    0.000    0.000    0.000 
#
# Total GULP energy -155925.014848 kJ/mol
# GULP energy per Si atom -5568.750530 kJ/mol
# Density = 2.220598 g / cm^3
# Si number density = 22.256636 Si / 1000 Ang^3
#
#
#
# Elastic Constant Matrix: (Units=GPa)
#
#
# Indices 1 2 3 4 5 6 
#
# 1 47.1158 1.3141 8.0625 0.0000 4.0302 0.0000
# 2 1.3141 66.4136 15.8021 0.0000 4.3422 0.0000
# 3 8.0625 15.8021 51.1844 0.0000 0.1779 0.0000
# 4 0.0000 0.0000 0.0000 100.6403 0.0000 30.4970
# 5 4.0302 4.3422 0.1779 0.0000 37.5555 0.0000
# 6 0.0000 0.0000 0.0000 30.4970 0.0000 31.5547
#
#
#
# Elastic Compliance Matrix: (Units=1/GPa)
#
#
# Indices 1 2 3 4 5 6 
#
# 1 0.022038 0.000589 -0.003645 0.000000 -0.002416 0.000000
# 2 0.000589 0.016397 -0.005148 0.000000 -0.001935 0.000000
# 3 -0.003645 -0.005148 0.021698 0.000000 0.000884 0.000000
# 4 0.000000 0.000000 0.000000 0.014052 0.000000 -0.013581
# 5 -0.002416 -0.001935 0.000884 0.000000 0.027106 0.000000
# 6 0.000000 0.000000 0.000000 -0.013581 0.000000 0.044817
#
#
# Mechanical properties :
#
#
# Convention : Reuss Voigt Hill
#
# Bulk Modulus (GPa) = 22.87034 23.89680 23.38357
# Shear Modulus (GPa) = 28.23419 43.25244 35.74331
#
# Velocity S-wave (km/s) = 3.56557 4.41313 4.01179
# Velocity P-wave (km/s) = 5.22007 6.06035 5.65583
#
# Compressibility (1/GPa) = 0.04372475
#
# Stress axis : x y z
#
# Youngs Moduli (GPa) = 45.37561 60.98694 46.08786
#
# Poissons Ratio (x) = -0.03593 0.16799
# Poissons Ratio (y) = -0.02673 0.23727
# Poissons Ratio (z) = 0.16539 0.31398
#
# Static dielectric constant tensor:
#      x y z
#    x 2.481100 0.000000 0.105040 
#    y 0.000000 1.929370 0.000000 
#    z 0.105040 0.000000 1.880430 
# 
# From -- ./inp_files/66895.got.cif
#   From: 2010.05.17/outbox.cif.g08.bks.cpg/sg14_34_cif.got.tgz:66895.got - 2010.06.03 17:49:19.
