data_PCOD9241911
_publ_section_title
;
Structure prediction by ZEFSAII (Michael W. Deem and Ramdas Pophale) SiO2 
 PCOD9241911
Probable space group: P 21/C
;
_chemical_formula_sum "Si O2"
_cell_formula_units_Z 24
_cell_length_a 20.234121
_cell_length_b 10.831621
_cell_length_c 28.784295
_cell_angle_alpha 90.000000
_cell_angle_beta 170.858371
_cell_angle_gamma 90.000000
_cell_volume 1002.282557
_symmetry_space_group_name_H-M "P 21/C"
_symmetry_group_IT_number 14
_symmetry_cell_setting 'monoclinic'
loop_
_space_group_symop_operation_xyz
x,y,z
-x,1/2+y,1/2-z
-x,-y,-z
x,1/2-y,1/2+z
loop_
_atom_site_type_symbol
_atom_site_label
_atom_site_fract_x
_atom_site_fract_y
_atom_site_fract_z
Si Si1 0.326986 0.445727 0.831591
Si Si2 0.020584 0.303838 0.433619
Si Si3 0.120675 0.909054 0.727583
Si Si4 0.392309 0.642362 0.606463
Si Si5 0.693330 0.205636 0.050476
Si Si6 0.221622 0.919395 0.583513
O O1 0.627772 0.350265 0.014886
O O2 0.194630 0.564724 0.710063
O O3 0.932952 0.366866 0.576910
O O4 0.500000 0.500000 0.000000
O O5 0.253195 0.245162 0.639019
O O6 0.401274 0.326437 0.661806
O O7 0.761157 0.197901 0.227376
O O8 0.043773 0.849392 0.724439
O O9 0.790298 0.993514 0.471208
O O10 0.500000 0.000000 0.000000
O O11 0.147253 0.672727 0.389711
O O12 0.628534 0.511490 0.772101
O O13 0.230679 0.141764 0.727528
#
# Coordination Sequence:
#
# PCOD9241911 Si02
#       6
#     4   4   4   4   4   4
#     4  11  22  40  63  87 131 166 195 260 318 359
#     4  10  19  38  60  86 124 163 201 248 312 371
#     4   9  19  35  59  84 118 165 204 246 313 368
#     4  10  22  38  62  91 117 158 208 251 305 371
#     4  11  20  39  61  90 119 159 206 253 301 371
#     4   9  19  37  61  84 119 159 202 252 309 362
#
# _framework density 23.945343000000001
#
# number of rings (size 3 to 8) (size 9 to 14) (size 15 to 20)
#    0.000    2.000    3.333    0.500    0.000    0.667 
#    3.000    1.667    0.000    0.000    0.000    0.000 
#    0.000    0.000    0.000    0.000    0.000    0.000 
#
# Total GULP energy -134005.826871 kJ/mol
# GULP energy per Si atom -5583.576120 kJ/mol
# Density = 2.389084 g / cm^3
# Si number density = 23.945343 Si / 1000 Ang^3
#
#
#
# Elastic Constant Matrix: (Units=GPa)
#
#
# Indices 1 2 3 4 5 6 
#
# 1 66.3733 27.2364 10.2047 0.0000 -30.2062 0.0000
# 2 27.2364 111.2906 19.3153 0.0000 -15.8947 0.0000
# 3 10.2047 19.3153 57.4728 0.0000 -10.9003 0.0000
# 4 0.0000 0.0000 0.0000 27.1736 0.0000 -7.2234
# 5 -30.2062 -15.8947 -10.9003 0.0000 35.2828 0.0000
# 6 0.0000 0.0000 0.0000 -7.2234 0.0000 17.3762
#
#
#
# Elastic Compliance Matrix: (Units=1/GPa)
#
#
# Indices 1 2 3 4 5 6 
#
# 1 0.025833 -0.003451 0.000502 0.000000 0.020717 0.000000
# 2 -0.003451 0.010431 -0.002722 0.000000 0.000904 0.000000
# 3 0.000502 -0.002722 0.019199 0.000000 0.005135 0.000000
# 4 0.000000 0.000000 0.000000 0.041372 0.000000 0.017199
# 5 0.020717 0.000904 0.005135 0.000000 0.048072 0.000000
# 6 0.000000 0.000000 0.000000 0.017199 0.000000 0.064700
#
#
# Mechanical properties :
#
#
# Convention : Reuss Voigt Hill
#
# Bulk Modulus (GPa) = 22.66376 38.73883 30.70130
# Shear Modulus (GPa) = 21.21737 27.85854 24.53796
#
# Velocity S-wave (km/s) = 2.97993 3.41460 3.20464
# Velocity P-wave (km/s) = 4.61793 5.63552 5.15191
#
# Compressibility (1/GPa) = 0.04412330
#
# Stress axis : x y z
#
# Youngs Moduli (GPa) = 38.70989 95.86384 52.08616
#
# Poissons Ratio (x) = 0.33078 -0.02614
# Poissons Ratio (y) = 0.13357 0.14176
# Poissons Ratio (z) = -0.01943 0.26090
#
# Static dielectric constant tensor:
#      x y z
#    x 1.933670 0.000000 0.016910 
#    y 0.000000 1.937360 0.000000 
#    z 0.016910 0.000000 1.943110 
# 
# From -- ./inp_files/44494.got.cif
#   From: 2010.05.17/outbox.cif.g08.bks.cpg/sg14_23_cif.got.tgz:44494.got - 2010.06.03 17:49:19.
