data_PCOD9241963
_publ_section_title
;
Structure prediction by ZEFSAII (Michael W. Deem and Ramdas Pophale) SiO2 
 PCOD9241963
Probable space group: P 21/C
;
_chemical_formula_sum "Si O2"
_cell_formula_units_Z 24
_cell_length_a 9.325079
_cell_length_b 7.763397
_cell_length_c 12.842851
_cell_angle_alpha 90.000000
_cell_angle_beta 77.138364
_cell_angle_gamma 90.000000
_cell_volume 906.422106
_symmetry_space_group_name_H-M "P 21/C"
_symmetry_group_IT_number 14
_symmetry_cell_setting 'monoclinic'
loop_
_space_group_symop_operation_xyz
x,y,z
-x,1/2+y,1/2-z
-x,-y,-z
x,1/2-y,1/2+z
loop_
_atom_site_type_symbol
_atom_site_label
_atom_site_fract_x
_atom_site_fract_y
_atom_site_fract_z
Si Si1 0.342495 0.341148 0.973979
Si Si2 0.432549 0.833701 0.906672
Si Si3 0.640983 0.028159 0.733086
Si Si4 0.052404 0.207168 0.076112
Si Si5 0.987983 0.996068 0.737546
Si Si6 0.182578 0.696110 0.052584
O O1 0.448750 0.269691 0.044327
O O2 0.204324 0.213755 0.991451
O O3 0.396631 0.387482 0.850409
O O4 0.280260 0.525492 0.021935
O O5 0.520183 0.993234 0.842335
O O6 0.374643 0.712924 0.820996
O O7 0.296939 0.849086 0.009787
O O8 0.812513 0.997302 0.737750
O O9 0.006061 0.030463 0.138890
O O10 0.933244 0.290576 0.021341
O O11 0.063859 0.339647 0.171471
O O12 0.087484 0.842691 0.669850
#
# Coordination Sequence:
#
# PCOD9241963 Si02
#       6
#     4   4   4   4   4   4
#     4  10  19  38  63  86 114 162 200 234 291 361
#     4  11  23  37  65  90 119 155 201 242 299 349
#     4  11  21  41  59  89 123 154 194 252 292 348
#     4  11  20  37  65  87 115 157 201 240 294 348
#     4  11  21  39  62  88 120 155 199 247 294 344
#     4  10  20  38  61  88 114 157 205 240 277 365
#
# _framework density 26.477732
#
# number of rings (size 3 to 8) (size 9 to 14) (size 15 to 20)
#    0.000    1.333    6.667    3.000    0.000    4.000 
#    0.000    3.333    0.000    0.000    0.000    0.000 
#    0.000    0.000    0.000    0.000    0.000    0.000 
#
# Total GULP energy -134206.328537 kJ/mol
# GULP energy per Si atom -5591.930356 kJ/mol
# Density = 2.641747 g / cm^3
# Si number density = 26.477732 Si / 1000 Ang^3
#
#
#
# Elastic Constant Matrix: (Units=GPa)
#
#
# Indices 1 2 3 4 5 6 
#
# 1 79.0425 -14.7114 19.3689 0.0000 -28.4501 0.0000
# 2 -14.7114 70.9113 14.4238 0.0000 -14.0787 0.0000
# 3 19.3689 14.4238 82.0202 0.0000 -26.0907 0.0000
# 4 0.0000 0.0000 0.0000 46.7551 0.0000 0.7280
# 5 -28.4501 -14.0787 -26.0907 0.0000 47.3259 0.0000
# 6 0.0000 0.0000 0.0000 0.7280 0.0000 33.5787
#
#
#
# Elastic Compliance Matrix: (Units=1/GPa)
#
#
# Indices 1 2 3 4 5 6 
#
# 1 0.018743 0.006678 -0.001679 0.000000 0.012328 0.000000
# 2 0.006678 0.017515 -0.002089 0.000000 0.008073 0.000000
# 3 -0.001679 -0.002089 0.015082 0.000000 0.006684 0.000000
# 4 0.000000 0.000000 0.000000 0.021395 0.000000 -0.000464
# 5 0.012328 0.008073 0.006684 0.000000 0.034628 0.000000
# 6 0.000000 0.000000 0.000000 -0.000464 0.000000 0.029791
#
#
# Mechanical properties :
#
#
# Convention : Reuss Voigt Hill
#
# Bulk Modulus (GPa) = 17.49474 30.01518 23.75496
# Shear Modulus (GPa) = 33.24732 39.72479 36.48605
#
# Velocity S-wave (km/s) = 3.54739 3.87758 3.71616
# Velocity P-wave (km/s) = 4.83739 5.60430 5.23491
#
# Compressibility (1/GPa) = 0.05716005
#
# Stress axis : x y z
#
# Youngs Moduli (GPa) = 53.35317 57.09320 66.30352
#
# Poissons Ratio (x) = -0.38125 0.11131
# Poissons Ratio (y) = -0.35627 0.13851
# Poissons Ratio (z) = 0.08957 0.11927
#
# Static dielectric constant tensor:
#      x y z
#    x 2.040430 0.000000 -0.043640 
#    y 0.000000 2.193090 0.000000 
#    z -0.043640 0.000000 2.035540 
# 
# From -- ./inp_files/38936.got.cif
#   From: 2010.05.17/outbox.cif.g08.bks.cpg/sg14_20_cif.got.tgz:38936.got - 2010.06.03 17:49:19.
