data_PCOD9241924
_publ_section_title
;
Structure prediction by ZEFSAII (Michael W. Deem and Ramdas Pophale) SiO2 
 PCOD9241924
Probable space group: P 21/C
;
_chemical_formula_sum "Si O2"
_cell_formula_units_Z 32
_cell_length_a 14.970249
_cell_length_b 12.950527
_cell_length_c 17.555718
_cell_angle_alpha 90.000000
_cell_angle_beta 23.835018
_cell_angle_gamma 90.000000
_cell_volume 1375.398886
_symmetry_space_group_name_H-M "P 21/C"
_symmetry_group_IT_number 14
_symmetry_cell_setting 'monoclinic'
loop_
_space_group_symop_operation_xyz
x,y,z
-x,1/2+y,1/2-z
-x,-y,-z
x,1/2-y,1/2+z
loop_
_atom_site_type_symbol
_atom_site_label
_atom_site_fract_x
_atom_site_fract_y
_atom_site_fract_z
Si Si1 0.157525 0.096221 0.872596
Si Si2 0.598886 0.003971 0.508210
Si Si3 0.977668 0.257755 0.402785
Si Si4 0.310121 0.229992 0.340956
Si Si5 0.332261 0.859467 0.146885
Si Si6 0.765791 0.926084 0.717440
Si Si7 0.501627 0.714485 0.148047
Si Si8 0.787301 0.284359 0.891458
O O1 0.124519 0.193413 0.952799
O O2 0.142055 0.151283 0.802212
O O3 0.390489 0.051118 0.715435
O O4 0.000000 0.000000 0.000000
O O5 0.611290 0.890886 0.533100
O O6 0.500000 0.000000 0.500000
O O7 0.782999 0.093484 0.372359
O O8 0.743327 0.293832 0.622175
O O9 0.948158 0.241108 0.336114
O O10 0.064610 0.150733 0.371601
O O11 0.257928 0.115227 0.350703
O O12 0.347311 0.250183 0.400024
O O13 0.542737 0.257011 0.116776
O O14 0.455324 0.790049 0.114043
O O15 0.192053 0.788838 0.198198
O O16 0.204355 0.952896 0.288893
O O17 0.527979 0.904029 0.941707
#
# Coordination Sequence:
#
# PCOD9241924 Si02
#       8
#     4   4   4   4   4   4   4   4
#     4  10  19  38  61  86 115 155 198 252 306 353
#     4  11  21  37  62  83 119 162 194 245 311 362
#     4  10  21  39  59  88 123 155 200 257 301 357
#     4   8  19  35  58  85 117 155 198 245 300 372
#     4  10  20  39  60  86 117 163 199 240 303 368
#     4   9  20  40  61  80 122 163 194 245 305 356
#     4  11  21  36  61  91 116 155 207 249 299 369
#     4   9  19  38  57  83 123 158 196 244 304 366
#
# _framework density 23.265976999999999
#
# number of rings (size 3 to 8) (size 9 to 14) (size 15 to 20)
#    0.000    2.250    2.500    0.750    0.000    3.500 
#    6.750    3.750    0.000    0.000    0.000    0.000 
#    0.000    0.000    0.000    0.000    0.000    0.000 
#
# Total GULP energy -178555.010509 kJ/mol
# GULP energy per Si atom -5579.844078 kJ/mol
# Density = 2.321302 g / cm^3
# Si number density = 23.265977 Si / 1000 Ang^3
#
#
#
# Elastic Constant Matrix: (Units=GPa)
#
#
# Indices 1 2 3 4 5 6 
#
# 1 130.0434 59.1886 -21.9924 0.0000 -8.9677 0.0000
# 2 59.1886 164.2283 2.7623 0.0000 -3.8950 0.0000
# 3 -21.9924 2.7623 37.3065 0.0000 -4.0964 0.0000
# 4 0.0000 0.0000 0.0000 31.7363 0.0000 -5.5086
# 5 -8.9677 -3.8950 -4.0964 0.0000 23.8467 0.0000
# 6 0.0000 0.0000 0.0000 -5.5086 0.0000 19.3153
#
#
#
# Elastic Compliance Matrix: (Units=1/GPa)
#
#
# Indices 1 2 3 4 5 6 
#
# 1 0.011087 -0.004006 0.007357 0.000000 0.004779 0.000000
# 2 -0.004006 0.007565 -0.003008 0.000000 -0.000788 0.000000
# 3 0.007357 -0.003008 0.032222 0.000000 0.007810 0.000000
# 4 0.000000 0.000000 0.000000 0.033151 0.000000 0.009454
# 5 0.004779 -0.000788 0.007810 0.000000 0.044945 0.000000
# 6 0.000000 0.000000 0.000000 0.009454 0.000000 0.054469
#
#
# Mechanical properties :
#
#
# Convention : Reuss Voigt Hill
#
# Bulk Modulus (GPa) = 19.39506 45.72170 32.55838
# Shear Modulus (GPa) = 25.00757 34.42096 29.71426
#
# Velocity S-wave (km/s) = 3.28206 3.85054 3.57761
# Velocity P-wave (km/s) = 4.76622 6.28198 5.57585
#
# Compressibility (1/GPa) = 0.05155951
#
# Stress axis : x y z
#
# Youngs Moduli (GPa) = 90.19677 132.19049 31.03427
#
# Poissons Ratio (x) = 0.52958 -0.22832
# Poissons Ratio (y) = 0.36134 0.09336
# Poissons Ratio (z) = -0.66359 0.39767
#
# Static dielectric constant tensor:
#      x y z
#    x 1.849990 0.000000 -0.005420 
#    y 0.000000 1.938830 0.000000 
#    z -0.005420 0.000000 2.068030 
# 
# From -- ./inp_files/59467.got.cif
#   From: 2010.05.17/outbox.cif.g08.bks.cpg/sg14_30_cif.got.tgz:59467.got - 2010.06.03 17:49:19.
