data_PCOD9241737
_publ_section_title
;
Structure prediction by ZEFSAII (Michael W. Deem and Ramdas Pophale) SiO2 
 PCOD9241737
Probable space group: P 21/C
;
_chemical_formula_sum "Si O2"
_cell_formula_units_Z 24
_cell_length_a 14.369073
_cell_length_b 10.259224
_cell_length_c 8.661365
_cell_angle_alpha 90.000000
_cell_angle_beta 81.634449
_cell_angle_gamma 90.000000
_cell_volume 1263.234406
_symmetry_space_group_name_H-M "P 21/C"
_symmetry_group_IT_number 14
_symmetry_cell_setting 'monoclinic'
loop_
_space_group_symop_operation_xyz
x,y,z
-x,1/2+y,1/2-z
-x,-y,-z
x,1/2-y,1/2+z
loop_
_atom_site_type_symbol
_atom_site_label
_atom_site_fract_x
_atom_site_fract_y
_atom_site_fract_z
Si Si1 0.930494 0.663281 0.894546
Si Si2 0.479005 0.139610 0.575861
Si Si3 0.951344 0.565945 0.237510
Si Si4 0.736286 0.949151 0.829661
Si Si5 0.280116 0.289581 0.983003
Si Si6 0.446056 0.613892 0.603618
O O1 0.963425 0.809170 0.844841
O O2 0.817124 0.661987 0.916214
O O3 0.976223 0.553324 0.774763
O O4 0.956180 0.626206 0.063685
O O5 0.373129 0.169896 0.550927
O O6 0.498075 0.135765 0.751826
O O7 0.545567 0.252396 0.491524
O O8 0.500000 0.000000 0.500000
O O9 0.845245 0.512596 0.287634
O O10 0.717294 0.850718 0.689006
O O11 0.724479 0.866299 0.990479
O O12 0.659454 0.062691 0.841484
O O13 0.500000 0.500000 0.500000
#
# Coordination Sequence:
#
# PCOD9241737 Si02
#       6
#     4   4   4   4   4   4
#     4   9  19  36  60  83 114 148 187 236 282 340
#     4  12  23  39  59  86 117 155 192 239 285 340
#     4   9  19  37  59  84 115 148 189 236 286 339
#     4  10  20  37  59  86 114 153 194 237 283 343
#     4  10  19  37  61  82 114 152 192 227 288 343
#     4  12  24  40  60  84 118 152 197 240 281 343
#
# _framework density 18.998849
#
# number of rings (size 3 to 8) (size 9 to 14) (size 15 to 20)
#    0.000    1.667    3.333    2.000    0.000    0.667 
#    3.000    0.000    0.000    0.000    0.000    0.000 
#    0.000    0.000    0.000    0.000    0.000    0.000 
#
# Total GULP energy -133937.755902 kJ/mol
# GULP energy per Si atom -5580.739829 kJ/mol
# Density = 1.895561 g / cm^3
# Si number density = 18.998849 Si / 1000 Ang^3
#
#
#
# Elastic Constant Matrix: (Units=GPa)
#
#
# Indices 1 2 3 4 5 6 
#
# 1 67.8074 30.3301 6.1247 0.0000 -10.4312 0.0000
# 2 30.3301 93.5990 28.4403 0.0000 -15.5744 0.0000
# 3 6.1247 28.4403 68.7728 0.0000 -2.6491 0.0000
# 4 0.0000 0.0000 0.0000 37.4570 0.0000 -7.4493
# 5 -10.4312 -15.5744 -2.6491 0.0000 18.9408 0.0000
# 6 0.0000 0.0000 0.0000 -7.4493 0.0000 34.0231
#
#
#
# Elastic Compliance Matrix: (Units=1/GPa)
#
#
# Indices 1 2 3 4 5 6 
#
# 1 0.017822 -0.005031 0.000716 0.000000 0.005778 0.000000
# 2 -0.005031 0.015563 -0.005632 0.000000 0.009238 0.000000
# 3 0.000716 -0.005632 0.016733 0.000000 -0.001896 0.000000
# 4 0.000000 0.000000 0.000000 0.027913 0.000000 0.006111
# 5 0.005778 0.009238 -0.001896 0.000000 0.063310 0.000000
# 6 0.000000 0.000000 0.000000 0.006111 0.000000 0.030730
#
#
# Mechanical properties :
#
#
# Convention : Reuss Voigt Hill
#
# Bulk Modulus (GPa) = 33.08676 39.99661 36.54169
# Shear Modulus (GPa) = 24.74772 29.10312 26.92542
#
# Velocity S-wave (km/s) = 3.61306 3.91811 3.76867
# Velocity P-wave (km/s) = 5.90411 6.44722 6.18163
#
# Compressibility (1/GPa) = 0.03022357
#
# Stress axis : x y z
#
# Youngs Moduli (GPa) = 56.10920 64.25625 59.76276
#
# Poissons Ratio (x) = 0.32329 -0.04279
# Poissons Ratio (y) = 0.28230 0.33658
# Poissons Ratio (z) = -0.04017 0.36188
#
# Static dielectric constant tensor:
#      x y z
#    x 1.652340 0.000000 -0.019770 
#    y 0.000000 1.604260 0.000000 
#    z -0.019770 0.000000 1.753230 
# 
# From -- ./inp_files/15058.got.cif
#   From: 2010.05.17/outbox.cif.g08.bks.cpg/sg14_8_cif.got.tgz:15058.got - 2010.06.03 17:49:19.
