data_PCOD9241706
_publ_section_title
;
Structure prediction by ZEFSAII (Michael W. Deem and Ramdas Pophale) SiO2 
 PCOD9241706
Probable space group: P 21/C
;
_chemical_formula_sum "Si O2"
_cell_formula_units_Z 32
_cell_length_a 23.888886
_cell_length_b 8.763828
_cell_length_c 18.603972
_cell_angle_alpha 90.000000
_cell_angle_beta 24.171716
_cell_angle_gamma 90.000000
_cell_volume 1594.852012
_symmetry_space_group_name_H-M "P 21/C"
_symmetry_group_IT_number 14
_symmetry_cell_setting 'monoclinic'
loop_
_space_group_symop_operation_xyz
x,y,z
-x,1/2+y,1/2-z
-x,-y,-z
x,1/2-y,1/2+z
loop_
_atom_site_type_symbol
_atom_site_label
_atom_site_fract_x
_atom_site_fract_y
_atom_site_fract_z
Si Si1 0.711850 0.688504 0.211930
Si Si2 0.007358 0.438643 0.162402
Si Si3 0.737569 0.845979 0.428242
Si Si4 0.297437 0.509241 0.486673
Si Si5 0.306052 0.959826 0.804482
Si Si6 0.022996 0.697294 0.643028
Si Si7 0.543785 0.756283 0.536002
Si Si8 0.429607 0.018600 0.254647
O O1 0.628152 0.652187 0.381999
O O2 0.633866 0.616195 0.235410
O O3 0.706990 0.870236 0.209121
O O4 0.868319 0.632488 0.027924
O O5 0.029535 0.620305 0.140428
O O6 0.850457 0.420707 0.320248
O O7 0.013350 0.366628 0.235081
O O8 0.710281 0.673905 0.491010
O O9 0.654227 0.850570 0.452383
O O10 0.675843 0.967139 0.556216
O O11 0.900375 0.854718 0.234811
O O12 0.319668 0.531674 0.375675
O O13 0.424260 0.571294 0.384217
O O14 0.435799 0.866380 0.624900
O O15 0.167408 0.869746 0.951412
O O16 0.456973 0.648788 0.691108
#
# Coordination Sequence:
#
# PCOD9241706 Si02
#       8
#     4   4   4   4   4   4   4   4
#     4  12  23  41  58  87 130 165 194 246 309 367
#     4  10  19  37  59  88 120 155 199 252 302 357
#     4  10  19  39  60  90 116 149 200 257 294 351
#     4   9  19  35  60  90 113 147 203 254 298 342
#     4  11  21  38  58  87 121 157 202 251 300 353
#     4  10  20  35  63  90 116 154 207 253 299 348
#     4  11  25  39  60  91 124 161 199 248 312 363
#     4  11  20  38  63  87 116 155 209 249 295 359
#
# _framework density 20.064557000000001
#
# number of rings (size 3 to 8) (size 9 to 14) (size 15 to 20)
#    0.000    1.500    3.750    3.000    0.000    0.000 
#    0.000    7.500    0.000    0.000    0.000    0.000 
#    0.000    0.000    0.000    0.000    0.000    0.000 
#
# Total GULP energy -178720.525252 kJ/mol
# GULP energy per Si atom -5585.016414 kJ/mol
# Density = 2.001889 g / cm^3
# Si number density = 20.064557 Si / 1000 Ang^3
#
#
#
# Elastic Constant Matrix: (Units=GPa)
#
#
# Indices 1 2 3 4 5 6 
#
# 1 33.2309 2.0772 21.6500 0.0000 -7.5883 0.0000
# 2 2.0772 51.8345 32.0431 0.0000 -10.4658 0.0000
# 3 21.6500 32.0431 104.1736 0.0000 -23.1115 0.0000
# 4 0.0000 0.0000 0.0000 31.8756 0.0000 -1.4182
# 5 -7.5883 -10.4658 -23.1115 0.0000 25.4521 0.0000
# 6 0.0000 0.0000 0.0000 -1.4182 0.0000 15.6413
#
#
#
# Elastic Compliance Matrix: (Units=1/GPa)
#
#
# Indices 1 2 3 4 5 6 
#
# 1 0.036054 0.004389 -0.007586 0.000000 0.005665 0.000000
# 2 0.004389 0.024675 -0.007464 0.000000 0.004677 0.000000
# 3 -0.007586 -0.007464 0.015389 0.000000 0.008643 0.000000
# 4 0.000000 0.000000 0.000000 0.031499 0.000000 0.002856
# 5 0.005665 0.004677 0.008643 0.000000 0.050750 0.000000
# 6 0.000000 0.000000 0.000000 0.002856 0.000000 0.064192
#
#
# Mechanical properties :
#
#
# Convention : Reuss Voigt Hill
#
# Bulk Modulus (GPa) = 18.24988 33.41997 25.83492
# Shear Modulus (GPa) = 19.07318 23.49171 21.28245
#
# Velocity S-wave (km/s) = 3.08651 3.42542 3.26037
# Velocity P-wave (km/s) = 4.67091 5.68657 5.20358
#
# Compressibility (1/GPa) = 0.05479489
#
# Stress axis : x y z
#
# Youngs Moduli (GPa) = 27.73607 40.52709 64.97951
#
# Poissons Ratio (x) = -0.17786 0.49293
# Poissons Ratio (y) = -0.12172 0.48503
# Poissons Ratio (z) = 0.21041 0.30251
#
# Static dielectric constant tensor:
#      x y z
#    x 1.702190 0.000000 -0.002570 
#    y 0.000000 1.693260 0.000000 
#    z -0.002570 0.000000 1.729900 
# 
# From -- ./inp_files/70492.got.cif
#   From: 2010.05.17/outbox.cif.g08.bks.cpg/sg14_36_cif.got.tgz:70492.got - 2010.06.03 17:49:19.
