data_PCOD9241360
_publ_section_title
;
Structure prediction by ZEFSAII (Michael W. Deem and Ramdas Pophale) SiO2 
 PCOD9241360
Probable space group: P 21/C
;
_chemical_formula_sum "Si O2"
_cell_formula_units_Z 26
_cell_length_a 14.234947
_cell_length_b 11.669075
_cell_length_c 8.001233
_cell_angle_alpha 90.000000
_cell_angle_beta 47.372491
_cell_angle_gamma 90.000000
_cell_volume 977.895552
_symmetry_space_group_name_H-M "P 21/C"
_symmetry_group_IT_number 14
_symmetry_cell_setting 'monoclinic'
loop_
_space_group_symop_operation_xyz
x,y,z
-x,1/2+y,1/2-z
-x,-y,-z
x,1/2-y,1/2+z
loop_
_atom_site_type_symbol
_atom_site_label
_atom_site_fract_x
_atom_site_fract_y
_atom_site_fract_z
Si Si1 0.224376 0.384173 0.879313
Si Si2 0.500000 0.000000 0.000000
Si Si3 0.086151 0.913774 0.714503
Si Si4 0.178589 0.372518 0.548374
Si Si5 0.393210 0.808957 0.787103
Si Si6 0.200127 0.705822 0.780966
Si Si7 0.469253 0.391252 0.189683
O O1 0.373150 0.412758 0.667744
O O2 0.168765 0.475657 0.076819
O O3 0.168010 0.394903 0.759548
O O4 0.179960 0.262484 0.003798
O O5 0.505356 0.021742 0.791990
O O6 0.935473 0.932581 0.916361
O O7 0.148161 0.825426 0.771304
O O8 0.093941 0.850241 0.522514
O O9 0.321781 0.402703 0.324657
O O10 0.318389 0.713841 0.766903
O O11 0.451764 0.888311 0.576227
O O12 0.493511 0.734930 0.773506
O O13 0.274853 0.856620 0.040105
#
# Coordination Sequence:
#
# PCOD9241360 Si02
#       7
#     4   2   4   4   4   4   4
#     4  11  24  45  69  97 140 186 235 289 352 421
#     4  10  20  36  64  94 124 172 220 280 354 404
#     4  11  22  42  67  96 138 185 229 278 350 425
#     4  11  24  41  65  99 137 182 227 286 345 412
#     4   9  17  33  58  88 123 165 210 268 336 393
#     4   9  19  35  64 100 131 169 225 287 336 407
#     4  10  19  35  61  93 132 171 216 278 350 412
#
# _framework density 26.587705
#
# number of rings (size 3 to 8) (size 9 to 14) (size 15 to 20)
#    0.000    1.846    0.000    6.000    0.000    1.231 
#    0.000    7.692    0.000   24.000    0.000    3.231 
#    0.000    0.000    0.000    0.000    0.000    0.000 
#
# Total GULP energy -145047.417359 kJ/mol
# GULP energy per Si atom -5578.746821 kJ/mol
# Density = 2.652719 g / cm^3
# Si number density = 26.587705 Si / 1000 Ang^3
#
#
#
# Elastic Constant Matrix: (Units=GPa)
#
#
# Indices 1 2 3 4 5 6 
#
# 1 117.6208 10.6835 34.0125 0.0000 -19.6398 0.0000
# 2 10.6835 59.8288 -2.2242 0.0000 5.3516 0.0000
# 3 34.0125 -2.2242 95.1497 0.0000 12.2324 0.0000
# 4 0.0000 0.0000 0.0000 51.0171 0.0000 9.3510
# 5 -19.6398 5.3516 12.2324 0.0000 55.1318 0.0000
# 6 0.0000 0.0000 0.0000 9.3510 0.0000 33.4453
#
#
#
# Elastic Compliance Matrix: (Units=1/GPa)
#
#
# Indices 1 2 3 4 5 6 
#
# 1 0.010943 -0.002590 -0.004638 0.000000 0.005179 0.000000
# 2 -0.002590 0.017509 0.001721 0.000000 -0.003004 0.000000
# 3 -0.004638 0.001721 0.012807 0.000000 -0.004661 0.000000
# 4 0.000000 0.000000 0.000000 0.020660 0.000000 -0.005776
# 5 0.005179 -0.003004 -0.004661 0.000000 0.021309 0.000000
# 6 0.000000 0.000000 0.000000 -0.005776 0.000000 0.031515
#
#
# Mechanical properties :
#
#
# Convention : Reuss Voigt Hill
#
# Bulk Modulus (GPa) = 33.06158 39.72697 36.39428
# Shear Modulus (GPa) = 36.80846 43.26068 40.03457
#
# Velocity S-wave (km/s) = 3.72481 4.03810 3.88462
# Velocity P-wave (km/s) = 5.56425 6.05937 5.81708
#
# Compressibility (1/GPa) = 0.03024659
#
# Stress axis : x y z
#
# Youngs Moduli (GPa) = 91.38246 57.11192 78.08156
#
# Poissons Ratio (x) = 0.14790 0.36214
# Poissons Ratio (y) = 0.23665 -0.13440
# Poissons Ratio (z) = 0.42383 -0.09830
#
# Static dielectric constant tensor:
#      x y z
#    x 1.859280 0.000000 0.081120 
#    y 0.000000 1.603300 0.000000 
#    z 0.081120 0.000000 2.065600 
# 
# From -- ./inp_files/16499.got.cif
#   From: 2010.05.17/outbox.cif.g08.bks.cpg/sg14_9_cif.got.tgz:16499.got - 2010.06.03 17:49:19.
