data_PCOD9241259
_publ_section_title
;
Structure prediction by ZEFSAII (Michael W. Deem and Ramdas Pophale) SiO2 
 PCOD9241259
Probable space group: P 21/C
;
_chemical_formula_sum "Si O2"
_cell_formula_units_Z 28
_cell_length_a 7.668476
_cell_length_b 13.484802
_cell_length_c 12.063902
_cell_angle_alpha 90.000000
_cell_angle_beta 67.059396
_cell_angle_gamma 90.000000
_cell_volume 1148.836828
_symmetry_space_group_name_H-M "P 21/C"
_symmetry_group_IT_number 14
_symmetry_cell_setting 'monoclinic'
loop_
_space_group_symop_operation_xyz
x,y,z
-x,1/2+y,1/2-z
-x,-y,-z
x,1/2-y,1/2+z
loop_
_atom_site_type_symbol
_atom_site_label
_atom_site_fract_x
_atom_site_fract_y
_atom_site_fract_z
Si Si1 0.411640 0.209492 0.627112
Si Si2 0.730932 0.374311 0.153361
Si Si3 0.844968 0.927355 0.420712
Si Si4 0.902016 0.377579 0.785038
Si Si5 0.071176 0.831128 0.965502
Si Si6 0.764712 0.689607 0.141449
Si Si7 0.325422 0.678103 0.595153
O O1 0.555451 0.117825 0.612941
O O2 0.207283 0.163463 0.649119
O O3 0.404859 0.267464 0.745184
O O4 0.487828 0.283172 0.513736
O O5 0.803610 0.264653 0.100079
O O6 0.657111 0.383719 0.297033
O O7 0.933811 0.427958 0.099417
O O8 0.727037 0.892892 0.557700
O O9 0.808038 0.028010 0.366203
O O10 0.938851 0.391904 0.645316
O O11 0.780382 0.279371 0.840839
O O12 0.096562 0.357932 0.801950
O O13 0.187860 0.874850 0.039894
O O14 0.877466 0.781129 0.056385
#
# Coordination Sequence:
#
# PCOD9241259 Si02
#       7
#     4   4   4   4   4   4   4
#     4  11  21  35  60  85 111 152 196 230 278 342
#     4   9  19  36  55  81 113 147 192 235 272 334
#     4  11  22  37  60  87 117 148 185 240 292 334
#     4  10  20  36  60  88 116 147 186 239 294 333
#     4   8  16  33  57  79 106 145 188 228 274 333
#     4  10  19  35  58  82 109 149 194 228 272 341
#     4   9  18  36  58  82 113 149 193 239 275 333
#
# _framework density 24.372478999999998
#
# number of rings (size 3 to 8) (size 9 to 14) (size 15 to 20)
#    0.000    2.286    0.000    5.571    0.000    0.571 
#    0.000    7.143    0.000    2.571    0.000    0.000 
#    0.000    0.000    0.000    0.000    0.000    0.000 
#
# Total GULP energy -156366.749977 kJ/mol
# GULP energy per Si atom -5584.526785 kJ/mol
# Density = 2.431701 g / cm^3
# Si number density = 24.372479 Si / 1000 Ang^3
#
#
#
# Elastic Constant Matrix: (Units=GPa)
#
#
# Indices 1 2 3 4 5 6 
#
# 1 63.3855 9.8861 25.7122 0.0000 1.8181 0.0000
# 2 9.8861 31.9466 12.4544 0.0000 -4.5064 0.0000
# 3 25.7122 12.4544 155.0527 0.0000 1.4113 0.0000
# 4 0.0000 0.0000 0.0000 16.9901 0.0000 0.0328
# 5 1.8181 -4.5064 1.4113 0.0000 40.3604 0.0000
# 6 0.0000 0.0000 0.0000 0.0328 0.0000 18.2166
#
#
#
# Elastic Compliance Matrix: (Units=1/GPa)
#
#
# Indices 1 2 3 4 5 6 
#
# 1 0.017558 -0.004619 -0.002529 0.000000 -0.001218 0.000000
# 2 -0.004619 0.034091 -0.002010 0.000000 0.004085 0.000000
# 3 -0.002529 -0.002010 0.007034 0.000000 -0.000356 0.000000
# 4 0.000000 0.000000 0.000000 0.058858 0.000000 -0.000106
# 5 -0.001218 0.004085 -0.000356 0.000000 0.025300 0.000000
# 6 0.000000 0.000000 0.000000 -0.000106 0.000000 0.054895
#
#
# Mechanical properties :
#
#
# Convention : Reuss Voigt Hill
#
# Bulk Modulus (GPa) = 24.77307 38.49890 31.63599
# Shear Modulus (GPa) = 21.78575 28.60224 25.19399
#
# Velocity S-wave (km/s) = 2.99300 3.42942 3.21862
# Velocity P-wave (km/s) = 4.70431 5.61352 5.17891
#
# Compressibility (1/GPa) = 0.04036641
#
# Stress axis : x y z
#
# Youngs Moduli (GPa) = 56.95430 29.33307 142.17591
#
# Poissons Ratio (x) = 0.13549 0.35963
# Poissons Ratio (y) = 0.26308 0.28571
# Poissons Ratio (z) = 0.14407 0.05895
#
# Static dielectric constant tensor:
#      x y z
#    x 2.017460 0.000000 0.042810 
#    y 0.000000 2.005660 0.000000 
#    z 0.042810 0.000000 1.984960 
# 
# From -- ./inp_files/25100.got.cif
#   From: 2010.05.17/outbox.cif.g08.bks.cpg/sg14_13_cif.got.tgz:25100.got - 2010.06.03 17:49:19.
