data_PCOD9241728
_publ_section_title
;
Structure prediction by ZEFSAII (Michael W. Deem and Ramdas Pophale) SiO2 
 PCOD9241728
Probable space group: P 21/C
;
_chemical_formula_sum "Si O2"
_cell_formula_units_Z 32
_cell_length_a 7.911264
_cell_length_b 13.872694
_cell_length_c 15.021942
_cell_angle_alpha 90.000000
_cell_angle_beta 126.175038
_cell_angle_gamma 90.000000
_cell_volume 1330.832375
_symmetry_space_group_name_H-M "P 21/C"
_symmetry_group_IT_number 14
_symmetry_cell_setting 'monoclinic'
loop_
_space_group_symop_operation_xyz
x,y,z
-x,1/2+y,1/2-z
-x,-y,-z
x,1/2-y,1/2+z
loop_
_atom_site_type_symbol
_atom_site_label
_atom_site_fract_x
_atom_site_fract_y
_atom_site_fract_z
Si Si1 0.656733 0.465594 0.735673
Si Si2 0.840223 0.210198 0.985855
Si Si3 0.131679 0.562652 0.376174
Si Si4 0.160494 0.350266 0.120618
Si Si5 0.211966 0.756128 0.224908
Si Si6 0.194136 0.211332 0.297744
Si Si7 0.230418 0.410780 0.545945
Si Si8 0.422727 0.220692 0.536769
O O1 0.730979 0.484784 0.657992
O O2 0.775326 0.542737 0.832364
O O3 0.731962 0.356105 0.773685
O O4 0.404000 0.465494 0.659198
O O5 0.743828 0.150960 0.036742
O O6 0.917819 0.317050 0.034955
O O7 0.061933 0.152678 0.045122
O O8 0.747342 0.200154 0.859400
O O9 0.107607 0.481554 0.442764
O O10 0.927318 0.613890 0.270155
O O11 0.238497 0.280374 0.227080
O O12 0.261684 0.331040 0.055360
O O13 0.357022 0.797513 0.347264
O O14 0.977147 0.761291 0.189493
O O15 0.387983 0.192644 0.423578
O O16 0.366320 0.333090 0.533755
#
# Coordination Sequence:
#
# PCOD9241728 Si02
#       8
#     4   4   4   4   4   4   4   4
#     4  10  22  35  59  94 119 150 208 254 306 357
#     4  10  21  39  61  86 120 165 202 243 311 367
#     4  10  21  35  59  92 117 156 202 252 301 353
#     4  10  21  38  63  90 121 162 197 255 310 354
#     4  10  21  40  60  88 120 166 200 249 310 368
#     4  10  20  40  60  90 126 159 204 248 303 362
#     4  10  19  37  60  88 118 153 206 258 291 355
#     4  10  21  40  62  86 125 164 202 248 309 368
#
# _framework density 24.045100999999999
#
# number of rings (size 3 to 8) (size 9 to 14) (size 15 to 20)
#    0.000    2.000    2.500    1.500    1.750    2.500 
#    2.250    0.000    0.000    0.750    0.000    0.000 
#    0.000    0.000    0.000    0.000    0.000    0.000 
#
# Total GULP energy -178693.255075 kJ/mol
# GULP energy per Si atom -5584.164221 kJ/mol
# Density = 2.399037 g / cm^3
# Si number density = 24.045101 Si / 1000 Ang^3
#
#
#
# Elastic Constant Matrix: (Units=GPa)
#
#
# Indices 1 2 3 4 5 6 
#
# 1 43.9728 -2.1200 5.6364 0.0000 4.1600 0.0000
# 2 -2.1200 40.5953 -0.6389 0.0000 3.9618 0.0000
# 3 5.6364 -0.6389 140.7294 0.0000 -6.1305 0.0000
# 4 0.0000 0.0000 0.0000 46.4553 0.0000 -7.1423
# 5 4.1600 3.9618 -6.1305 0.0000 34.2129 0.0000
# 6 0.0000 0.0000 0.0000 -7.1423 0.0000 17.9500
#
#
#
# Elastic Compliance Matrix: (Units=1/GPa)
#
#
# Indices 1 2 3 4 5 6 
#
# 1 0.023252 0.001509 -0.001064 0.000000 -0.003193 0.000000
# 2 0.001509 0.025013 -0.000082 0.000000 -0.003095 0.000000
# 3 -0.001064 -0.000082 0.007210 0.000000 0.001431 0.000000
# 4 0.000000 0.000000 0.000000 0.022929 0.000000 0.009123
# 5 -0.003193 -0.003095 0.001431 0.000000 0.030232 0.000000
# 6 0.000000 0.000000 0.000000 0.009123 0.000000 0.059340
#
#
# Mechanical properties :
#
#
# Convention : Reuss Voigt Hill
#
# Bulk Modulus (GPa) = 17.79245 25.67250 21.73247
# Shear Modulus (GPa) = 26.88415 34.55167 30.71791
#
# Velocity S-wave (km/s) = 3.34739 3.79483 3.57811
# Velocity P-wave (km/s) = 4.72818 5.46818 5.11159
#
# Compressibility (1/GPa) = 0.05620362
#
# Stress axis : x y z
#
# Youngs Moduli (GPa) = 43.00623 39.97932 138.68882
#
# Poissons Ratio (x) = -0.06033 0.14750
# Poissons Ratio (y) = -0.06490 0.01133
# Poissons Ratio (z) = 0.04574 0.00327
#
# Static dielectric constant tensor:
#      x y z
#    x 2.036530 0.000000 0.010730 
#    y 0.000000 1.955830 0.000000 
#    z 0.010730 0.000000 1.970080 
# 
# From -- ./inp_files/41257.got.cif
#   From: 2010.05.17/outbox.cif.g08.bks.cpg/sg14_21_cif.got.tgz:41257.got - 2010.06.03 17:49:19.
