data_PCOD9241182
_publ_section_title
;
Structure prediction by ZEFSAII (Michael W. Deem and Ramdas Pophale) SiO2 
 PCOD9241182
Probable space group: P 21/C
;
_chemical_formula_sum "Si O2"
_cell_formula_units_Z 28
_cell_length_a 12.319278
_cell_length_b 23.285081
_cell_length_c 5.317727
_cell_angle_alpha 90.000000
_cell_angle_beta 113.801290
_cell_angle_gamma 90.000000
_cell_volume 1395.682665
_symmetry_space_group_name_H-M "P 21/C"
_symmetry_group_IT_number 14
_symmetry_cell_setting 'monoclinic'
loop_
_space_group_symop_operation_xyz
x,y,z
-x,1/2+y,1/2-z
-x,-y,-z
x,1/2-y,1/2+z
loop_
_atom_site_type_symbol
_atom_site_label
_atom_site_fract_x
_atom_site_fract_y
_atom_site_fract_z
Si Si1 0.973718 0.109075 0.602569
Si Si2 0.210052 0.717016 0.588582
Si Si3 0.945544 0.762840 0.381966
Si Si4 0.692657 0.989884 0.759860
Si Si5 0.269499 0.599463 0.370015
Si Si6 0.476514 0.947122 0.791447
Si Si7 0.064019 0.445145 0.679479
O O1 0.832120 0.102876 0.438907
O O2 0.009729 0.172772 0.561985
O O3 0.026987 0.069326 0.429056
O O4 0.023093 0.100199 0.928949
O O5 0.250424 0.740555 0.898478
O O6 0.245011 0.652759 0.535579
O O7 0.066441 0.724600 0.474494
O O8 0.876111 0.746390 0.562956
O O9 0.606927 0.940748 0.795997
O O10 0.797832 0.959602 0.710056
O O11 0.610799 0.028798 0.504195
O O12 0.741539 0.036962 0.005732
O O13 0.400811 0.599985 0.371022
O O14 0.500000 0.000000 0.000000
O O15 0.000000 0.500000 0.500000
#
# Coordination Sequence:
#
# PCOD9241182 Si02
#       7
#     4   4   4   4   4   4   4
#     4  12  24  35  56  88 122 158 187 237 299 348
#     4  10  21  32  53  84 118 148 183 242 293 348
#     4  10  19  35  54  78 117 148 193 238 289 349
#     4  10  22  39  58  82 121 154 206 232 290 353
#     4  11  21  34  60  84 122 150 196 234 301 348
#     4   9  21  38  60  82 110 158 192 251 283 346
#     4  12  25  36  55  84 125 163 191 233 284 353
#
# _framework density 20.061865999999998
#
# number of rings (size 3 to 8) (size 9 to 14) (size 15 to 20)
#    0.000    1.429    4.286    2.143    8.000    0.000 
#    0.000    0.000    0.000    0.000    0.000    6.000 
#    0.000    0.000    0.000    0.000    0.000    0.000 
#
# Total GULP energy -156143.609388 kJ/mol
# GULP energy per Si atom -5576.557478 kJ/mol
# Density = 2.001620 g / cm^3
# Si number density = 20.061866 Si / 1000 Ang^3
#
#
#
# Elastic Constant Matrix: (Units=GPa)
#
#
# Indices 1 2 3 4 5 6 
#
# 1 89.5222 22.3411 -8.4242 0.0000 -10.1657 0.0000
# 2 22.3411 63.9023 -0.1308 0.0000 -5.0436 0.0000
# 3 -8.4242 -0.1308 61.3288 0.0000 -17.0959 0.0000
# 4 0.0000 0.0000 0.0000 22.2426 0.0000 -14.2088
# 5 -10.1657 -5.0436 -17.0959 0.0000 27.6417 0.0000
# 6 0.0000 0.0000 0.0000 -14.2088 0.0000 24.5624
#
#
#
# Elastic Compliance Matrix: (Units=1/GPa)
#
#
# Indices 1 2 3 4 5 6 
#
# 1 0.013257 -0.004127 0.003578 0.000000 0.006335 0.000000
# 2 -0.004127 0.017215 -0.000094 0.000000 0.001565 0.000000
# 3 0.003578 -0.000094 0.020733 0.000000 0.014122 0.000000
# 4 0.000000 0.000000 0.000000 0.071311 0.000000 0.041252
# 5 0.006335 0.001565 0.014122 0.000000 0.047527 0.000000
# 6 0.000000 0.000000 0.000000 0.041252 0.000000 0.064576
#
#
# Mechanical properties :
#
#
# Convention : Reuss Voigt Hill
#
# Bulk Modulus (GPa) = 20.03247 26.92505 23.47876
# Shear Modulus (GPa) = 19.79847 28.28715 24.04281
#
# Velocity S-wave (km/s) = 3.14486 3.75906 3.46560
# Velocity P-wave (km/s) = 4.81600 5.68251 5.26710
#
# Compressibility (1/GPa) = 0.04991895
#
# Stress axis : x y z
#
# Youngs Moduli (GPa) = 75.43452 58.08819 48.23123
#
# Poissons Ratio (x) = 0.23975 -0.17258
# Poissons Ratio (y) = 0.31134 0.00453
# Poissons Ratio (z) = -0.26991 0.00546
#
# Static dielectric constant tensor:
#      x y z
#    x 1.762260 0.000000 -0.043050 
#    y 0.000000 1.730000 0.000000 
#    z -0.043050 0.000000 1.883100 
# 
# From -- ./inp_files/2973.got.cif
#   From: 2010.05.17/outbox.cif.g08.bks.cpg/sg14_2_cif.got.tgz:2973.got - 2010.06.03 17:49:19.
