data_PCOD9241502
_publ_section_title
;
Structure prediction by ZEFSAII (Michael W. Deem and Ramdas Pophale) SiO2 
 PCOD9241502
Probable space group: P 21/C
;
_chemical_formula_sum "Si O2"
_cell_formula_units_Z 32
_cell_length_a 16.058738
_cell_length_b 10.835684
_cell_length_c 10.912033
_cell_angle_alpha 90.000000
_cell_angle_beta 42.400363
_cell_angle_gamma 90.000000
_cell_volume 1280.357133
_symmetry_space_group_name_H-M "P 21/C"
_symmetry_group_IT_number 14
_symmetry_cell_setting 'monoclinic'
loop_
_space_group_symop_operation_xyz
x,y,z
-x,1/2+y,1/2-z
-x,-y,-z
x,1/2-y,1/2+z
loop_
_atom_site_type_symbol
_atom_site_label
_atom_site_fract_x
_atom_site_fract_y
_atom_site_fract_z
Si Si1 0.979677 0.807607 0.554267
Si Si2 0.179005 0.342746 0.113604
Si Si3 0.596702 0.777606 0.014174
Si Si4 0.521744 0.851578 0.354951
Si Si5 0.754943 0.558676 0.199302
Si Si6 0.094854 0.903175 0.792371
Si Si7 0.304910 0.945526 0.741005
Si Si8 0.766410 0.309130 0.082842
O O1 0.911397 0.766895 0.753078
O O2 0.896565 0.917197 0.590534
O O3 0.986392 0.686934 0.457077
O O4 0.120195 0.822028 0.442635
O O5 0.293842 0.322848 0.081091
O O6 0.096555 0.468030 0.214045
O O7 0.242955 0.341327 0.912881
O O8 0.531429 0.741285 0.959109
O O9 0.668544 0.903446 0.904409
O O10 0.521378 0.793569 0.220976
O O11 0.398316 0.926512 0.524578
O O12 0.637582 0.944932 0.242645
O O13 0.702458 0.437000 0.190141
O O14 0.168007 0.949878 0.833556
O O15 0.178895 0.818483 0.612574
O O16 0.299424 0.819269 0.824394
#
# Coordination Sequence:
#
# PCOD9241502 Si02
#       8
#     4   4   4   4   4   4   4   4
#     4  10  20  34  58  88 127 171 215 259 319 380
#     4  10  19  36  59  87 126 167 216 264 315 377
#     4  11  22  41  67  95 128 166 215 268 326 383
#     4  11  24  44  68  96 125 169 215 272 327 390
#     4  10  21  38  60  91 128 170 213 265 319 381
#     4  10  20  37  59  89 126 170 219 266 317 379
#     4  10  24  43  64  90 128 170 215 265 325 394
#     4  10  22  39  59  91 130 171 214 272 314 383
#
# _framework density 24.993026
#
# number of rings (size 3 to 8) (size 9 to 14) (size 15 to 20)
#    0.000    1.750    2.500    1.500    1.750    2.000 
#    2.250    5.625    0.000    0.000    0.000    0.000 
#    0.000    0.000    0.000    0.000    0.000    0.000 
#
# Total GULP energy -178476.922809 kJ/mol
# GULP energy per Si atom -5577.403838 kJ/mol
# Density = 2.493614 g / cm^3
# Si number density = 24.993026 Si / 1000 Ang^3
#
#
#
# Elastic Constant Matrix: (Units=GPa)
#
#
# Indices 1 2 3 4 5 6 
#
# 1 64.8113 5.3829 6.5979 0.0000 20.2888 0.0000
# 2 5.3829 78.3444 16.6120 0.0000 12.2904 0.0000
# 3 6.5979 16.6120 73.6511 0.0000 35.4209 0.0000
# 4 0.0000 0.0000 0.0000 28.1237 0.0000 -1.1408
# 5 20.2888 12.2904 35.4209 0.0000 33.9692 0.0000
# 6 0.0000 0.0000 0.0000 -1.1408 0.0000 24.0993
#
#
#
# Elastic Compliance Matrix: (Units=1/GPa)
#
#
# Indices 1 2 3 4 5 6 
#
# 1 0.021314 0.000131 0.008437 0.000000 -0.021575 0.000000
# 2 0.000131 0.013605 -0.001355 0.000000 -0.003588 0.000000
# 3 0.008437 -0.001355 0.030721 0.000000 -0.036583 0.000000
# 4 0.000000 0.000000 0.000000 0.035626 0.000000 0.001686
# 5 -0.021575 -0.003588 -0.036583 0.000000 0.081770 0.000000
# 6 0.000000 0.000000 0.000000 0.001686 0.000000 0.041575
#
#
# Mechanical properties :
#
#
# Convention : Reuss Voigt Hill
#
# Bulk Modulus (GPa) = 12.48942 30.44359 21.46651
# Shear Modulus (GPa) = 21.10846 29.78605 25.44725
#
# Velocity S-wave (km/s) = 2.90931 3.45595 3.19435
# Velocity P-wave (km/s) = 4.03651 5.30397 4.71304
#
# Compressibility (1/GPa) = 0.08006774
#
# Stress axis : x y z
#
# Youngs Moduli (GPa) = 46.91828 73.50071 32.55082
#
# Poissons Ratio (x) = -0.00965 -0.27464
# Poissons Ratio (y) = -0.00616 0.04410
# Poissons Ratio (z) = -0.39586 0.09957
#
# Static dielectric constant tensor:
#      x y z
#    x 2.052190 0.000000 -0.068890 
#    y 0.000000 2.049660 0.000000 
#    z -0.068890 0.000000 1.970160 
# 
# From -- ./inp_files/29071.got.cif
#   From: 2010.05.17/outbox.cif.g08.bks.cpg/sg14_15_cif.got.tgz:29071.got - 2010.06.03 17:49:19.
