data_PCOD9241972
_publ_section_title
;
Structure prediction by ZEFSAII (Michael W. Deem and Ramdas Pophale) SiO2 
 PCOD9241972
Probable space group: P 21/C
;
_chemical_formula_sum "Si O2"
_cell_formula_units_Z 32
_cell_length_a 10.872799
_cell_length_b 14.283843
_cell_length_c 12.548015
_cell_angle_alpha 90.000000
_cell_angle_beta 126.367851
_cell_angle_gamma 90.000000
_cell_volume 1569.204671
_symmetry_space_group_name_H-M "P 21/C"
_symmetry_group_IT_number 14
_symmetry_cell_setting 'monoclinic'
loop_
_space_group_symop_operation_xyz
x,y,z
-x,1/2+y,1/2-z
-x,-y,-z
x,1/2-y,1/2+z
loop_
_atom_site_type_symbol
_atom_site_label
_atom_site_fract_x
_atom_site_fract_y
_atom_site_fract_z
Si Si1 0.652722 0.494462 0.936971
Si Si2 0.098051 0.137539 0.488790
Si Si3 0.669854 0.763617 0.020923
Si Si4 0.919032 0.875904 0.267110
Si Si5 0.506910 0.437716 0.654344
Si Si6 0.579140 0.131904 0.595446
Si Si7 0.844716 0.233102 0.217376
Si Si8 0.255222 0.542817 0.412433
O O1 0.816369 0.543543 0.007385
O O2 0.601699 0.433729 0.811140
O O3 0.514553 0.570914 0.867757
O O4 0.647369 0.437791 0.043367
O O5 0.220397 0.215603 0.510446
O O6 0.073768 0.122560 0.601673
O O7 0.943859 0.173368 0.353079
O O8 0.561697 0.837400 0.908185
O O9 0.562842 0.689785 0.025713
O O10 0.768436 0.818017 0.157406
O O11 0.052874 0.811649 0.287925
O O12 0.887588 0.974747 0.190173
O O13 0.358594 0.505687 0.563615
O O14 0.631120 0.467285 0.630042
O O15 0.706013 0.206602 0.694719
O O16 0.788291 0.152100 0.107094
#
# Coordination Sequence:
#
# PCOD9241972 Si02
#       8
#     4   4   4   4   4   4   4   4
#     4  10  22  39  64  89 117 155 199 250 299 344
#     4  10  22  39  59  87 120 159 200 237 297 360
#     4   9  20  39  60  86 118 152 199 250 297 349
#     4  10  22  40  60  84 122 160 196 246 297 350
#     4  10  19  38  63  91 112 151 201 252 294 347
#     4  10  22  40  58  89 121 153 196 252 296 349
#     4  11  24  39  58  88 123 162 195 238 297 362
#     4  10  21  38  60  86 123 154 199 249 296 343
#
# _framework density 20.392496000000001
#
# number of rings (size 3 to 8) (size 9 to 14) (size 15 to 20)
#    0.000    2.000    2.500    0.000    3.500    2.500 
#    2.250    0.000    0.000    4.500    0.000    0.000 
#    0.000    0.000    0.000    0.000    0.000    0.000 
#
# Total GULP energy -178310.527547 kJ/mol
# GULP energy per Si atom -5572.203986 kJ/mol
# Density = 2.034608 g / cm^3
# Si number density = 20.392496 Si / 1000 Ang^3
#
#
#
# Elastic Constant Matrix: (Units=GPa)
#
#
# Indices 1 2 3 4 5 6 
#
# 1 53.8908 19.2586 24.9862 0.0000 18.7529 0.0000
# 2 19.2586 77.4026 5.6458 0.0000 21.9691 0.0000
# 3 24.9862 5.6458 48.2964 0.0000 12.5800 0.0000
# 4 0.0000 0.0000 0.0000 20.9747 0.0000 11.9956
# 5 18.7529 21.9691 12.5800 0.0000 20.5892 0.0000
# 6 0.0000 0.0000 0.0000 11.9956 0.0000 33.1034
#
#
#
# Elastic Compliance Matrix: (Units=1/GPa)
#
#
# Indices 1 2 3 4 5 6 
#
# 1 0.031018 -0.001087 -0.010541 0.000000 -0.020651 0.000000
# 2 -0.001087 0.019096 0.004019 0.000000 -0.021841 0.000000
# 3 -0.010541 0.004019 0.028906 0.000000 -0.012349 0.000000
# 4 0.000000 0.000000 0.000000 0.060140 0.000000 -0.021793
# 5 -0.020651 -0.021841 -0.012349 0.000000 0.098228 0.000000
# 6 0.000000 0.000000 0.000000 -0.021793 0.000000 0.038105
#
#
# Mechanical properties :
#
#
# Convention : Reuss Voigt Hill
#
# Bulk Modulus (GPa) = 15.67364 31.04121 23.35743
# Shear Modulus (GPa) = 16.02674 23.58008 19.80341
#
# Velocity S-wave (km/s) = 2.80646 3.40415 3.11965
# Velocity P-wave (km/s) = 4.26665 5.54129 4.94521
#
# Compressibility (1/GPa) = 0.06380138
#
# Stress axis : x y z
#
# Youngs Moduli (GPa) = 32.23935 52.36697 34.59524
#
# Poissons Ratio (x) = 0.05695 0.36467
# Poissons Ratio (y) = 0.03506 -0.13905
# Poissons Ratio (z) = 0.33984 -0.21048
#
# Static dielectric constant tensor:
#      x y z
#    x 1.720200 0.000000 0.042270 
#    y 0.000000 1.777230 0.000000 
#    z 0.042270 0.000000 1.731560 
# 
# From -- ./inp_files/30048.got.cif
#   From: 2010.05.17/outbox.cif.g08.bks.cpg/sg14_16_cif.got.tgz:30048.got - 2010.06.03 17:49:19.
