data_PCOD9241729
_publ_section_title
;
Structure prediction by ZEFSAII (Michael W. Deem and Ramdas Pophale) SiO2 
 PCOD9241729
Probable space group: P 21/C
;
_chemical_formula_sum "Si O2"
_cell_formula_units_Z 32
_cell_length_a 11.782972
_cell_length_b 16.177260
_cell_length_c 11.766616
_cell_angle_alpha 90.000000
_cell_angle_beta 37.609526
_cell_angle_gamma 90.000000
_cell_volume 1368.794685
_symmetry_space_group_name_H-M "P 21/C"
_symmetry_group_IT_number 14
_symmetry_cell_setting 'monoclinic'
loop_
_space_group_symop_operation_xyz
x,y,z
-x,1/2+y,1/2-z
-x,-y,-z
x,1/2-y,1/2+z
loop_
_atom_site_type_symbol
_atom_site_label
_atom_site_fract_x
_atom_site_fract_y
_atom_site_fract_z
Si Si1 0.441097 0.798221 0.277329
Si Si2 0.005751 0.333019 0.579710
Si Si3 0.096776 0.359769 0.967845
Si Si4 0.524896 0.924735 0.824798
Si Si5 0.347966 0.341566 0.167076
Si Si6 0.371390 0.884337 0.732906
Si Si7 0.195261 0.182883 0.153016
Si Si8 0.714040 0.087806 0.772271
O O1 0.499946 0.806201 0.362300
O O2 0.396777 0.705192 0.274860
O O3 0.284211 0.851967 0.339003
O O4 0.621662 0.831995 0.066182
O O5 0.027369 0.234476 0.536339
O O6 0.820715 0.374896 0.680925
O O7 0.179484 0.375219 0.376648
O O8 0.029352 0.329198 0.696246
O O9 0.298591 0.372424 0.863530
O O10 0.152691 0.374254 0.792861
O O11 0.928623 0.417105 0.139953
O O12 0.392721 0.944658 0.822993
O O13 0.619227 0.005948 0.800651
O O14 0.406827 0.884477 0.021732
O O15 0.247319 0.271088 0.169471
O O16 0.464281 0.396879 0.988349
#
# Coordination Sequence:
#
# PCOD9241729 Si02
#       8
#     4   4   4   4   4   4   4   4
#     4  10  19  37  60  88 119 151 199 247 302 355
#     4  10  21  33  57  94 123 153 195 252 306 360
#     4  11  20  37  61  87 117 158 205 250 299 361
#     4  11  25  43  59  89 128 158 206 255 306 361
#     4   9  20  34  56  87 120 153 188 250 304 348
#     4  11  22  36  61  88 122 157 196 253 304 361
#     4   9  18  34  55  87 124 149 192 248 302 353
#     4  11  24  40  63  90 118 169 206 248 306 369
#
# _framework density 23.378233000000002
#
# number of rings (size 3 to 8) (size 9 to 14) (size 15 to 20)
#    0.000    1.750    2.500    3.375    3.500    3.000 
#    0.000    0.625    0.000    1.500    0.000    0.000 
#    0.000    0.000    0.000    0.000    0.000    0.000 
#
# Total GULP energy -178470.613674 kJ/mol
# GULP energy per Si atom -5577.206677 kJ/mol
# Density = 2.332502 g / cm^3
# Si number density = 23.378233 Si / 1000 Ang^3
#
#
#
# Elastic Constant Matrix: (Units=GPa)
#
#
# Indices 1 2 3 4 5 6 
#
# 1 146.6146 -0.7711 24.1335 0.0000 0.8803 0.0000
# 2 -0.7711 27.3185 5.1799 0.0000 -0.0622 0.0000
# 3 24.1335 5.1799 72.4775 0.0000 1.0928 0.0000
# 4 0.0000 0.0000 0.0000 7.9941 0.0000 0.4285
# 5 0.8803 -0.0622 1.0928 0.0000 39.5667 0.0000
# 6 0.0000 0.0000 0.0000 0.4285 0.0000 24.6556
#
#
#
# Elastic Compliance Matrix: (Units=1/GPa)
#
#
# Indices 1 2 3 4 5 6 
#
# 1 0.007229 0.000669 -0.002453 0.000000 -0.000092 0.000000
# 2 0.000669 0.037171 -0.002881 0.000000 0.000123 0.000000
# 3 -0.002453 -0.002881 0.014826 0.000000 -0.000359 0.000000
# 4 0.000000 0.000000 0.000000 0.125209 0.000000 -0.002176
# 5 -0.000092 0.000123 -0.000359 0.000000 0.025286 0.000000
# 6 0.000000 0.000000 0.000000 -0.002176 0.000000 0.040597
#
#
# Mechanical properties :
#
#
# Convention : Reuss Voigt Hill
#
# Bulk Modulus (GPa) = 20.04260 33.72170 26.88215
# Shear Modulus (GPa) = 18.09768 28.96784 23.53276
#
# Velocity S-wave (km/s) = 2.78533 3.52390 3.17615
# Velocity P-wave (km/s) = 4.35154 5.56892 4.99744
#
# Compressibility (1/GPa) = 0.04989374
#
# Stress axis : x y z
#
# Youngs Moduli (GPa) = 138.34103 26.90295 67.45065
#
# Poissons Ratio (x) = -0.01800 0.16548
# Poissons Ratio (y) = -0.09255 0.19434
# Poissons Ratio (z) = 0.33940 0.07751
#
# Static dielectric constant tensor:
#      x y z
#    x 1.968000 0.000000 -0.031660 
#    y 0.000000 1.951940 0.000000 
#    z -0.031660 0.000000 1.891590 
# 
# From -- ./inp_files/30626.got.cif
#   From: 2010.05.17/outbox.cif.g08.bks.cpg/sg14_16_cif.got.tgz:30626.got - 2010.06.03 17:49:19.
