data_PCOD9241312
_publ_section_title
;
Structure prediction by ZEFSAII (Michael W. Deem and Ramdas Pophale) SiO2 
 PCOD9241312
Probable space group: P 21/C
;
_chemical_formula_sum "Si O2"
_cell_formula_units_Z 24
_cell_length_a 15.768338
_cell_length_b 8.050603
_cell_length_c 14.197106
_cell_angle_alpha 90.000000
_cell_angle_beta 35.415926
_cell_angle_gamma 90.000000
_cell_volume 1044.415684
_symmetry_space_group_name_H-M "P 21/C"
_symmetry_group_IT_number 14
_symmetry_cell_setting 'monoclinic'
loop_
_space_group_symop_operation_xyz
x,y,z
-x,1/2+y,1/2-z
-x,-y,-z
x,1/2-y,1/2+z
loop_
_atom_site_type_symbol
_atom_site_label
_atom_site_fract_x
_atom_site_fract_y
_atom_site_fract_z
Si Si1 0.469672 0.270202 0.492220
Si Si2 0.530885 0.430057 0.101610
Si Si3 0.818617 0.950735 0.697649
Si Si4 0.035279 0.782130 0.914510
Si Si5 0.712443 0.367996 0.120022
Si Si6 0.806571 0.474629 0.571851
O O1 0.539985 0.235075 0.530453
O O2 0.335270 0.392903 0.623313
O O3 0.585725 0.321839 0.309714
O O4 0.419103 0.088227 0.504442
O O5 0.631382 0.428812 0.101523
O O6 0.357105 0.450426 0.281981
O O7 0.926347 0.793760 0.593650
O O8 0.880695 0.114975 0.691997
O O9 0.802576 0.002235 0.601131
O O10 0.148773 0.904218 0.864469
O O11 0.931610 0.888712 0.939579
O O12 0.798612 0.197043 0.021178
#
# Coordination Sequence:
#
# PCOD9241312 Si02
#       6
#     4   4   4   4   4   4
#     4  10  21  36  58  93 125 164 205 257 330 374
#     4  10  21  37  60  94 125 160 206 267 326 373
#     4  10  19  35  59  95 117 164 213 256 309 377
#     4   9  18  33  60  88 120 166 214 244 303 388
#     4  10  22  36  62  95 121 160 209 267 323 371
#     4   9  18  35  58  88 118 167 205 247 320 374
#
# _framework density 22.979357
#
# number of rings (size 3 to 8) (size 9 to 14) (size 15 to 20)
#    0.000    2.333    1.667    0.500    4.667    0.000 
#    0.000    0.000    0.000    8.000   43.333    0.000 
#    0.000    0.000    0.000    0.000    0.000    0.000 
#
# Total GULP energy -133943.584302 kJ/mol
# GULP energy per Si atom -5580.982679 kJ/mol
# Density = 2.292705 g / cm^3
# Si number density = 22.979357 Si / 1000 Ang^3
#
#
#
# Elastic Constant Matrix: (Units=GPa)
#
#
# Indices 1 2 3 4 5 6 
#
# 1 115.3307 39.4383 26.3389 0.0000 -18.2053 0.0000
# 2 39.4383 111.8184 31.1492 0.0000 -21.6012 0.0000
# 3 26.3389 31.1492 31.3314 0.0000 -18.5264 0.0000
# 4 0.0000 0.0000 0.0000 44.8614 0.0000 -23.8083
# 5 -18.2053 -21.6012 -18.5264 0.0000 24.4488 0.0000
# 6 0.0000 0.0000 0.0000 -23.8083 0.0000 29.2818
#
#
#
# Elastic Compliance Matrix: (Units=1/GPa)
#
#
# Indices 1 2 3 4 5 6 
#
# 1 0.011027 -0.001739 -0.006512 0.000000 0.001740 0.000000
# 2 -0.001739 0.012759 -0.009644 0.000000 0.002670 0.000000
# 3 -0.006512 -0.009644 0.070794 0.000000 0.040276 0.000000
# 4 0.000000 0.000000 0.000000 0.039210 0.000000 0.031881
# 5 0.001740 0.002670 0.040276 0.000000 0.075076 0.000000
# 6 0.000000 0.000000 0.000000 0.031881 0.000000 0.060072
#
#
# Mechanical properties :
#
#
# Convention : Reuss Voigt Hill
#
# Bulk Modulus (GPa) = 17.00973 50.25925 33.63449
# Shear Modulus (GPa) = 15.41660 30.48867 22.95263
#
# Velocity S-wave (km/s) = 2.59296 3.64646 3.16387
# Velocity P-wave (km/s) = 4.04757 6.29665 5.29295
#
# Compressibility (1/GPa) = 0.05878987
#
# Stress axis : x y z
#
# Youngs Moduli (GPa) = 90.68373 78.37793 14.12543
#
# Poissons Ratio (x) = 0.13630 0.09199
# Poissons Ratio (y) = 0.15770 0.13622
# Poissons Ratio (z) = 0.59057 0.75586
#
# Static dielectric constant tensor:
#      x y z
#    x 1.912280 0.000000 -0.048290 
#    y 0.000000 1.934140 0.000000 
#    z -0.048290 0.000000 1.852370 
# 
# From -- ./inp_files/46356.got.cif
#   From: 2010.05.17/outbox.cif.g08.bks.cpg/sg14_24_cif.got.tgz:46356.got - 2010.06.03 17:49:19.
