data_PCOD9241516
_publ_section_title
;
Structure prediction by ZEFSAII (Michael W. Deem and Ramdas Pophale) SiO2 
 PCOD9241516
Probable space group: P 21/C
;
_chemical_formula_sum "Si O2"
_cell_formula_units_Z 24
_cell_length_a 18.864285
_cell_length_b 12.238656
_cell_length_c 13.577495
_cell_angle_alpha 90.000000
_cell_angle_beta 160.725137
_cell_angle_gamma 90.000000
_cell_volume 1034.760016
_symmetry_space_group_name_H-M "P 21/C"
_symmetry_group_IT_number 14
_symmetry_cell_setting 'monoclinic'
loop_
_space_group_symop_operation_xyz
x,y,z
-x,1/2+y,1/2-z
-x,-y,-z
x,1/2-y,1/2+z
loop_
_atom_site_type_symbol
_atom_site_label
_atom_site_fract_x
_atom_site_fract_y
_atom_site_fract_z
Si Si1 0.569209 0.489009 0.701404
Si Si2 0.292842 0.389608 0.945106
Si Si3 0.009212 0.359742 0.280073
Si Si4 0.811257 0.047608 0.846619
Si Si5 0.173075 0.455888 0.306227
Si Si6 0.291013 0.661850 0.596474
O O1 0.500000 0.500000 0.500000
O O2 0.623115 0.598360 0.833288
O O3 0.382145 0.431237 0.516869
O O4 0.791087 0.427659 0.987998
O O5 0.465718 0.311692 0.119213
O O6 0.315143 0.506791 0.915014
O O7 0.032920 0.389751 0.607925
O O8 0.141904 0.432523 0.533102
O O9 0.107379 0.362678 0.298536
O O10 0.910112 0.243683 0.180141
O O11 0.695502 0.125710 0.771913
O O12 0.224259 0.557633 0.444475
O O13 0.000000 0.500000 0.000000
#
# Coordination Sequence:
#
# PCOD9241516 Si02
#       6
#     4   4   4   4   4   4
#     4  10  19  36  60  84 118 157 202 249 305 360
#     4   9  19  37  59  83 113 159 195 247 311 353
#     4  10  21  38  58  92 118 155 206 253 297 368
#     4   9  19  39  60  82 124 156 195 251 311 361
#     4  10  20  39  63  83 123 166 197 247 312 361
#     4  10  21  37  60  90 118 155 206 251 302 364
#
# _framework density 23.193781000000001
#
# number of rings (size 3 to 8) (size 9 to 14) (size 15 to 20)
#    0.000    2.333    1.667    0.500    0.000    1.333 
#   12.000    0.000    0.000    0.000    0.000    0.000 
#    0.000    0.000    0.000    0.000    0.000    0.000 
#
# Total GULP energy -133743.299712 kJ/mol
# GULP energy per Si atom -5572.637488 kJ/mol
# Density = 2.314099 g / cm^3
# Si number density = 23.193781 Si / 1000 Ang^3
#
#
#
# Elastic Constant Matrix: (Units=GPa)
#
#
# Indices 1 2 3 4 5 6 
#
# 1 158.1481 13.0324 31.0884 0.0000 16.0658 0.0000
# 2 13.0324 59.9490 1.1555 0.0000 3.8856 0.0000
# 3 31.0884 1.1555 81.6977 0.0000 -0.4010 0.0000
# 4 0.0000 0.0000 0.0000 7.3210 0.0000 7.8196
# 5 16.0658 3.8856 -0.4010 0.0000 47.0298 0.0000
# 6 0.0000 0.0000 0.0000 7.8196 0.0000 13.4520
#
#
#
# Elastic Compliance Matrix: (Units=1/GPa)
#
#
# Indices 1 2 3 4 5 6 
#
# 1 0.007215 -0.001362 -0.002738 0.000000 -0.002376 0.000000
# 2 -0.001362 0.017033 0.000273 0.000000 -0.000940 0.000000
# 3 -0.002738 0.000273 0.013283 0.000000 0.001026 0.000000
# 4 0.000000 0.000000 0.000000 0.360307 0.000000 -0.209447
# 5 -0.002376 -0.000940 0.001026 0.000000 0.022161 0.000000
# 6 0.000000 0.000000 0.000000 -0.209447 0.000000 0.196091
#
#
# Mechanical properties :
#
#
# Convention : Reuss Voigt Hill
#
# Bulk Modulus (GPa) = 33.47075 43.37193 38.42134
# Shear Modulus (GPa) = 7.89014 30.52844 19.20929
#
# Velocity S-wave (km/s) = 1.84641 3.63193 2.88098
# Velocity P-wave (km/s) = 4.35980 6.02730 5.26005
#
# Compressibility (1/GPa) = 0.02987683
#
# Stress axis : x y z
#
# Youngs Moduli (GPa) = 138.60133 58.71123 75.28256
#
# Poissons Ratio (x) = 0.07995 0.20612
# Poissons Ratio (y) = 0.18874 -0.02053
# Poissons Ratio (z) = 0.37948 -0.01601
#
# Static dielectric constant tensor:
#      x y z
#    x 2.068290 0.000000 -0.104500 
#    y 0.000000 2.660650 0.000000 
#    z -0.104500 0.000000 1.978800 
# 
# From -- ./inp_files/50487.got.cif
#   From: 2010.05.17/outbox.cif.g08.bks.cpg/sg14_26_cif.got.tgz:50487.got - 2010.06.03 17:49:19.
