data_PCOD9241666
_publ_section_title
;
Structure prediction by ZEFSAII (Michael W. Deem and Ramdas Pophale) SiO2 
 PCOD9241666
Probable space group: P 21/C
;
_chemical_formula_sum "Si O2"
_cell_formula_units_Z 32
_cell_length_a 7.760975
_cell_length_b 16.444755
_cell_length_c 13.629907
_cell_angle_alpha 90.000000
_cell_angle_beta 102.614576
_cell_angle_gamma 90.000000
_cell_volume 1697.558115
_symmetry_space_group_name_H-M "P 21/C"
_symmetry_group_IT_number 14
_symmetry_cell_setting 'monoclinic'
loop_
_space_group_symop_operation_xyz
x,y,z
-x,1/2+y,1/2-z
-x,-y,-z
x,1/2-y,1/2+z
loop_
_atom_site_type_symbol
_atom_site_label
_atom_site_fract_x
_atom_site_fract_y
_atom_site_fract_z
Si Si1 0.672854 0.201402 0.150976
Si Si2 0.479130 0.522161 0.383197
Si Si3 0.116787 0.510037 0.613959
Si Si4 0.686972 0.773308 0.392316
Si Si5 0.883756 0.728419 0.097045
Si Si6 0.372936 0.149717 0.828045
Si Si7 0.051360 0.155490 0.181154
Si Si8 0.233400 0.690980 0.646420
O O1 0.605294 0.108651 0.152920
O O2 0.503073 0.247743 0.088967
O O3 0.713959 0.254577 0.253106
O O4 0.863290 0.192902 0.125573
O O5 0.500000 0.500000 0.500000
O O6 0.679914 0.517485 0.371957
O O7 0.364532 0.447229 0.329006
O O8 0.037384 0.441396 0.673883
O O9 0.139920 0.603047 0.651629
O O10 0.000000 0.500000 0.500000
O O11 0.788857 0.814708 0.494516
O O12 0.663871 0.821825 0.288023
O O13 0.800235 0.694517 0.371026
O O14 0.761343 0.805105 0.115622
O O15 0.907255 0.680222 0.201633
O O16 0.074253 0.757071 0.082630
O O17 0.577578 0.172663 0.879954
#
# Coordination Sequence:
#
# PCOD9241666 Si02
#       8
#     4   4   4   4   4   4   4   4
#     4  10  20  36  55  80 114 151 181 225 291 344
#     4  11  21  33  56  88 110 143 185 235 293 333
#     4  11  21  34  56  88 115 139 184 248 287 328
#     4  10  19  37  56  78 113 145 188 229 279 345
#     4  10  20  34  58  80 105 152 185 222 287 336
#     4   9  21  35  52  84 111 141 183 235 278 338
#     4  10  21  35  53  85 113 143 184 237 279 335
#     4   9  21  36  52  80 116 147 178 230 286 340
#
# _framework density 18.850608000000001
#
# number of rings (size 3 to 8) (size 9 to 14) (size 15 to 20)
#    0.000    2.000    1.250    2.250    3.500    3.000 
#    0.000    0.000    0.000    9.750    3.250    0.000 
#    0.000    0.000    0.000    0.000    0.000    0.000 
#
# Total GULP energy -178170.183261 kJ/mol
# GULP energy per Si atom -5567.818227 kJ/mol
# Density = 1.880770 g / cm^3
# Si number density = 18.850608 Si / 1000 Ang^3
#
#
#
# Elastic Constant Matrix: (Units=GPa)
#
#
# Indices 1 2 3 4 5 6 
#
# 1 71.9202 5.7239 28.0809 0.0000 18.7188 0.0000
# 2 5.7239 96.3640 36.9134 0.0000 11.5589 0.0000
# 3 28.0809 36.9134 94.0739 0.0000 16.1038 0.0000
# 4 0.0000 0.0000 0.0000 10.4701 0.0000 9.0298
# 5 18.7188 11.5589 16.1038 0.0000 27.3677 0.0000
# 6 0.0000 0.0000 0.0000 9.0298 0.0000 27.0762
#
#
#
# Elastic Compliance Matrix: (Units=1/GPa)
#
#
# Indices 1 2 3 4 5 6 
#
# 1 0.018238 0.001865 -0.004343 0.000000 -0.010706 0.000000
# 2 0.001865 0.012572 -0.004851 0.000000 -0.003731 0.000000
# 3 -0.004343 -0.004851 0.014423 0.000000 -0.003468 0.000000
# 4 0.000000 0.000000 0.000000 0.134072 0.000000 -0.044712
# 5 -0.010706 -0.003731 -0.003468 0.000000 0.047479 0.000000
# 6 0.000000 0.000000 0.000000 -0.044712 0.000000 0.051844
#
#
# Mechanical properties :
#
#
# Convention : Reuss Voigt Hill
#
# Bulk Modulus (GPa) = 32.70662 44.86607 38.78635
# Shear Modulus (GPa) = 16.47559 25.75879 21.11719
#
# Velocity S-wave (km/s) = 2.95957 3.70059 3.35063
# Velocity P-wave (km/s) = 5.39137 6.48935 5.96567
#
# Compressibility (1/GPa) = 0.03057485
#
# Stress axis : x y z
#
# Youngs Moduli (GPa) = 54.83008 79.53952 69.33153
#
# Poissons Ratio (x) = -0.14830 0.30110
# Poissons Ratio (y) = -0.10223 0.33634
# Poissons Ratio (z) = 0.23812 0.38586
#
# Static dielectric constant tensor:
#      x y z
#    x 1.796110 0.000000 -0.100910 
#    y 0.000000 1.306170 0.000000 
#    z -0.100910 0.000000 1.760090 
# 
# From -- ./inp_files/41005.got.cif
#   From: 2010.05.17/outbox.cif.g08.bks.cpg/sg14_21_cif.got.tgz:41005.got - 2010.06.03 17:49:19.
