data_PCOD9241487
_publ_section_title
;
Structure prediction by ZEFSAII (Michael W. Deem and Ramdas Pophale) SiO2 
 PCOD9241487
Probable space group: P 21/C
;
_chemical_formula_sum "Si O2"
_cell_formula_units_Z 32
_cell_length_a 8.516778
_cell_length_b 11.009032
_cell_length_c 13.958950
_cell_angle_alpha 90.000000
_cell_angle_beta 82.803975
_cell_angle_gamma 90.000000
_cell_volume 1298.502838
_symmetry_space_group_name_H-M "P 21/C"
_symmetry_group_IT_number 14
_symmetry_cell_setting 'monoclinic'
loop_
_space_group_symop_operation_xyz
x,y,z
-x,1/2+y,1/2-z
-x,-y,-z
x,1/2-y,1/2+z
loop_
_atom_site_type_symbol
_atom_site_label
_atom_site_fract_x
_atom_site_fract_y
_atom_site_fract_z
Si Si1 0.434362 0.143759 0.212040
Si Si2 0.709414 0.088947 0.792212
Si Si3 0.944729 0.503500 0.750837
Si Si4 0.227784 0.426539 0.410427
Si Si5 0.499002 0.728569 0.089211
Si Si6 0.074554 0.834763 0.993289
Si Si7 0.083886 0.228004 0.192914
Si Si8 0.654708 0.176224 0.585806
O O1 0.452247 0.146871 0.324704
O O2 0.266434 0.206763 0.203346
O O3 0.571429 0.212018 0.146833
O O4 0.421837 0.010102 0.172657
O O5 0.879635 0.036452 0.803292
O O6 0.657569 0.204795 0.856379
O O7 0.697979 0.099480 0.677010
O O8 0.975684 0.359894 0.771475
O O9 0.789020 0.516396 0.695204
O O10 0.931706 0.625876 0.815820
O O11 0.367002 0.335064 0.430095
O O12 0.183456 0.543012 0.479823
O O13 0.067344 0.344337 0.421424
O O14 0.464151 0.655470 0.994515
O O15 0.186126 0.719199 0.978105
O O16 0.975369 0.827454 0.902147
#
# Coordination Sequence:
#
# PCOD9241487 Si02
#       8
#     4   4   4   4   4   4   4   4
#     4  10  22  39  60  86 119 157 198 247 303 358
#     4  10  22  39  60  86 119 157 198 247 303 358
#     4  10  19  36  59  83 113 150 193 243 295 350
#     4  10  20  34  57  85 113 148 196 250 297 347
#     4  11  22  37  59  87 119 156 197 247 297 361
#     4  10  20  34  57  85 113 148 196 250 297 347
#     4  10  19  36  59  83 113 150 193 243 295 350
#     4  11  22  37  59  87 119 156 197 247 297 361
#
# _framework density 24.643768000000001
#
# number of rings (size 3 to 8) (size 9 to 14) (size 15 to 20)
#    0.000    1.750    2.500    2.250    0.000    4.500 
#    0.000    0.000    0.000    6.000    0.000    0.000 
#    0.000    0.000    0.000    0.000    0.000    0.000 
#
# Total GULP energy -178165.340028 kJ/mol
# GULP energy per Si atom -5567.666876 kJ/mol
# Density = 2.458768 g / cm^3
# Si number density = 24.643768 Si / 1000 Ang^3
#
#
#
# Elastic Constant Matrix: (Units=GPa)
#
#
# Indices 1 2 3 4 5 6 
#
# 1 80.2499 -1.5813 12.2534 0.0000 15.6488 0.0000
# 2 -1.5813 21.1078 3.4793 0.0000 -1.7383 0.0000
# 3 12.2534 3.4793 85.5438 0.0000 29.3018 0.0000
# 4 0.0000 0.0000 0.0000 14.0228 0.0000 1.4314
# 5 15.6488 -1.7383 29.3018 0.0000 39.0683 0.0000
# 6 0.0000 0.0000 0.0000 1.4314 0.0000 22.9415
#
#
#
# Elastic Compliance Matrix: (Units=1/GPa)
#
#
# Indices 1 2 3 4 5 6 
#
# 1 0.013525 0.000604 -0.000155 0.000000 -0.005274 0.000000
# 2 0.000604 0.048405 -0.003647 0.000000 0.004647 0.000000
# 3 -0.000155 -0.003647 0.016007 0.000000 -0.012106 0.000000
# 4 0.000000 0.000000 0.000000 0.071769 0.000000 -0.004478
# 5 -0.005274 0.004647 -0.012106 0.000000 0.036995 0.000000
# 6 0.000000 0.000000 0.000000 -0.004478 0.000000 0.043869
#
#
# Mechanical properties :
#
#
# Convention : Reuss Voigt Hill
#
# Bulk Modulus (GPa) = 13.97792 23.91160 18.94476
# Shear Modulus (GPa) = 19.17081 26.72319 22.94700
#
# Velocity S-wave (km/s) = 2.79214 3.29656 3.05478
# Velocity P-wave (km/s) = 4.00987 4.92075 4.48847
#
# Compressibility (1/GPa) = 0.07154139
#
# Stress axis : x y z
#
# Youngs Moduli (GPa) = 73.93625 20.65900 62.47217
#
# Poissons Ratio (x) = -0.01249 0.00971
# Poissons Ratio (y) = -0.04469 0.22784
# Poissons Ratio (z) = 0.01149 0.07535
#
# Static dielectric constant tensor:
#      x y z
#    x 2.014270 0.000000 -0.019440 
#    y 0.000000 2.029830 0.000000 
#    z -0.019440 0.000000 2.056570 
# 
# From -- ./inp_files/40342.got.cif
#   From: 2010.05.17/outbox.cif.g08.bks.cpg/sg14_21_cif.got.tgz:40342.got - 2010.06.03 17:49:19.
