data_PCOD9241096
_publ_section_title
;
Structure prediction by ZEFSAII (Michael W. Deem and Ramdas Pophale) SiO2 
 PCOD9241096
Probable space group: P 21/C
;
_chemical_formula_sum "Si O2"
_cell_formula_units_Z 26
_cell_length_a 13.995148
_cell_length_b 11.962879
_cell_length_c 7.098731
_cell_angle_alpha 90.000000
_cell_angle_beta 73.818819
_cell_angle_gamma 90.000000
_cell_volume 1141.404065
_symmetry_space_group_name_H-M "P 21/C"
_symmetry_group_IT_number 14
_symmetry_cell_setting 'monoclinic'
loop_
_space_group_symop_operation_xyz
x,y,z
-x,1/2+y,1/2-z
-x,-y,-z
x,1/2-y,1/2+z
loop_
_atom_site_type_symbol
_atom_site_label
_atom_site_fract_x
_atom_site_fract_y
_atom_site_fract_z
Si Si1 0.500000 0.500000 0.000000
Si Si2 0.047234 0.144818 0.625133
Si Si3 0.130391 0.375443 0.471764
Si Si4 0.626688 0.468010 0.352249
Si Si5 0.501835 0.143404 0.230763
Si Si6 0.151647 0.969279 0.303839
Si Si7 0.356310 0.352271 0.324167
O O1 0.554210 0.375481 0.899122
O O2 0.598121 0.570583 0.859554
O O3 0.075382 0.274340 0.607493
O O4 0.067932 0.098883 0.821353
O O5 0.119376 0.073118 0.451693
O O6 0.934081 0.122347 0.626135
O O7 0.146015 0.481339 0.595978
O O8 0.240149 0.330518 0.355891
O O9 0.554860 0.516596 0.225743
O O10 0.570276 0.376948 0.511162
O O11 0.734802 0.434454 0.225230
O O12 0.636061 0.577991 0.482710
O O13 0.423134 0.241191 0.285844
#
# Coordination Sequence:
#
# PCOD9241096 Si02
#       7
#     2   4   4   4   4   4   4
#     4  10  22  34  56  92 120 152 202 242 304 364
#     4  11  22  37  65  89 117 155 199 253 299 356
#     4  11  22  38  64  93 118 154 205 250 299 361
#     4   9  20  36  56  82 117 158 190 245 300 353
#     4  10  19  34  58  84 121 155 195 248 292 358
#     4  10  22  40  61  89 121 159 199 248 306 358
#     4  10  21  35  61  88 117 154 201 250 294 357
#
# _framework density 22.778963000000001
#
# number of rings (size 3 to 8) (size 9 to 14) (size 15 to 20)
#    0.000    1.846    1.538    2.308    6.462    0.000 
#    0.000    0.000   23.692    0.000    0.000    0.000 
#    0.000    0.000    0.000    0.000    0.000    0.000 
#
# Total GULP energy -144895.102321 kJ/mol
# GULP energy per Si atom -5572.888551 kJ/mol
# Density = 2.272712 g / cm^3
# Si number density = 22.778963 Si / 1000 Ang^3
#
#
#
# Elastic Constant Matrix: (Units=GPa)
#
#
# Indices 1 2 3 4 5 6 
#
# 1 89.9182 19.1402 16.7334 0.0000 -30.1066 0.0000
# 2 19.1402 72.3446 5.3640 0.0000 -19.9035 0.0000
# 3 16.7334 5.3640 78.4184 0.0000 -8.3598 0.0000
# 4 0.0000 0.0000 0.0000 24.9899 0.0000 -2.0975
# 5 -30.1066 -19.9035 -8.3598 0.0000 49.8439 0.0000
# 6 0.0000 0.0000 0.0000 -2.0975 0.0000 20.8439
#
#
#
# Elastic Compliance Matrix: (Units=1/GPa)
#
#
# Indices 1 2 3 4 5 6 
#
# 1 0.014443 -0.001529 -0.002151 0.000000 0.007752 0.000000
# 2 -0.001529 0.015703 -0.000181 0.000000 0.005317 0.000000
# 3 -0.002151 -0.000181 0.013315 0.000000 0.000862 0.000000
# 4 0.000000 0.000000 0.000000 0.040357 0.000000 0.004061
# 5 0.007752 0.005317 0.000862 0.000000 0.027013 0.000000
# 6 0.000000 0.000000 0.000000 0.004061 0.000000 0.048384
#
#
# Mechanical properties :
#
#
# Convention : Reuss Voigt Hill
#
# Bulk Modulus (GPa) = 27.97999 35.90629 31.94314
# Shear Modulus (GPa) = 27.95634 32.43176 30.19405
#
# Velocity S-wave (km/s) = 3.50707 3.77737 3.64472
# Velocity P-wave (km/s) = 5.35810 5.90100 5.63609
#
# Compressibility (1/GPa) = 0.03573982
#
# Stress axis : x y z
#
# Youngs Moduli (GPa) = 69.23975 63.68054 75.10148
#
# Poissons Ratio (x) = 0.09735 0.16153
# Poissons Ratio (y) = 0.10585 0.01360
# Poissons Ratio (z) = 0.14892 0.01153
#
# Static dielectric constant tensor:
#      x y z
#    x 2.010040 0.000000 0.239420 
#    y 0.000000 1.908590 0.000000 
#    z 0.239420 0.000000 2.185470 
# 
# From -- ./inp_files/15442.got.cif
#   From: 2010.05.17/outbox.cif.g08.bks.cpg/sg14_8_cif.got.tgz:15442.got - 2010.06.03 17:49:19.
