data_PCOD9241330
_publ_section_title
;
Structure prediction by ZEFSAII (Michael W. Deem and Ramdas Pophale) SiO2 
 PCOD9241330
Probable space group: P 21/C
;
_chemical_formula_sum "Si O2"
_cell_formula_units_Z 28
_cell_length_a 13.879226
_cell_length_b 8.069619
_cell_length_c 14.048811
_cell_angle_alpha 90.000000
_cell_angle_beta 51.143182
_cell_angle_gamma 90.000000
_cell_volume 1225.284837
_symmetry_space_group_name_H-M "P 21/C"
_symmetry_group_IT_number 14
_symmetry_cell_setting 'monoclinic'
loop_
_space_group_symop_operation_xyz
x,y,z
-x,1/2+y,1/2-z
-x,-y,-z
x,1/2-y,1/2+z
loop_
_atom_site_type_symbol
_atom_site_label
_atom_site_fract_x
_atom_site_fract_y
_atom_site_fract_z
Si Si1 0.477911 0.070510 0.730589
Si Si2 0.737424 0.125335 0.505869
Si Si3 0.883644 0.784417 0.143087
Si Si4 0.964251 0.013380 0.252005
Si Si5 0.758192 0.121778 0.150412
Si Si6 0.046301 0.809414 0.369587
Si Si7 0.328232 0.109348 0.297523
O O1 0.384778 0.929816 0.751265
O O2 0.555260 0.015160 0.776336
O O3 0.588332 0.114699 0.588007
O O4 0.392143 0.227339 0.800968
O O5 0.768223 0.297606 0.539311
O O6 0.828034 0.081101 0.365476
O O7 0.757624 0.978658 0.570876
O O8 0.946670 0.849272 0.199164
O O9 0.759517 0.674685 0.230818
O O10 0.837879 0.957047 0.121182
O O11 0.976174 0.693615 0.013833
O O12 0.033662 0.962728 0.305703
O O13 0.013977 0.156105 0.152306
O O14 0.813948 0.258620 0.187561
#
# Coordination Sequence:
#
# PCOD9241330 Si02
#       7
#     4   4   4   4   4   4   4
#     4   9  16  34  59  89 116 160 195 246 302 353
#     4  10  19  35  60  89 113 154 208 243 287 361
#     4  10  22  42  60  85 126 161 190 255 309 348
#     4  11  24  38  61  90 120 159 205 246 296 356
#     4  10  20  35  63  84 121 161 200 239 309 352
#     4  11  24  42  59  89 122 161 198 253 300 361
#     4   9  17  34  61  86 117 158 199 241 306 348
#
# _framework density 22.851828000000001
#
# number of rings (size 3 to 8) (size 9 to 14) (size 15 to 20)
#    0.857    1.143    2.857    1.714    4.000    1.714 
#    0.000    6.429    0.000    0.857    0.000    0.000 
#    0.000    0.000    0.000    0.000    0.000    0.000 
#
# Total GULP energy -156012.163446 kJ/mol
# GULP energy per Si atom -5571.862980 kJ/mol
# Density = 2.279982 g / cm^3
# Si number density = 22.851828 Si / 1000 Ang^3
#
#
#
# Elastic Constant Matrix: (Units=GPa)
#
#
# Indices 1 2 3 4 5 6 
#
# 1 117.5750 28.7996 38.0179 0.0000 -6.7587 0.0000
# 2 28.7996 71.3566 14.3641 0.0000 2.6722 0.0000
# 3 38.0179 14.3641 64.9947 0.0000 8.0593 0.0000
# 4 0.0000 0.0000 0.0000 27.9489 0.0000 9.4232
# 5 -6.7587 2.6722 8.0593 0.0000 25.0321 0.0000
# 6 0.0000 0.0000 0.0000 9.4232 0.0000 55.4261
#
#
#
# Elastic Compliance Matrix: (Units=1/GPa)
#
#
# Indices 1 2 3 4 5 6 
#
# 1 0.011976 -0.003659 -0.006922 0.000000 0.005853 0.000000
# 2 -0.003659 0.015792 -0.001060 0.000000 -0.002332 0.000000
# 3 -0.006922 -0.001060 0.020714 0.000000 -0.008425 0.000000
# 4 0.000000 0.000000 0.000000 0.037955 0.000000 -0.006453
# 5 0.005853 -0.002332 -0.008425 0.000000 0.044491 0.000000
# 6 0.000000 0.000000 0.000000 -0.006453 0.000000 0.019139
#
#
# Mechanical properties :
#
#
# Convention : Reuss Voigt Hill
#
# Bulk Modulus (GPa) = 39.68572 46.25438 42.97005
# Shear Modulus (GPa) = 27.51017 33.19774 30.35395
#
# Velocity S-wave (km/s) = 3.47342 3.81562 3.64853
# Velocity P-wave (km/s) = 5.78709 6.30054 6.04927
#
# Compressibility (1/GPa) = 0.02519798
#
# Stress axis : x y z
#
# Youngs Moduli (GPa) = 83.49746 63.32386 48.27620
#
# Poissons Ratio (x) = 0.23173 0.33419
# Poissons Ratio (y) = 0.30555 0.05119
# Poissons Ratio (z) = 0.57801 0.06714
#
# Static dielectric constant tensor:
#      x y z
#    x 1.889220 0.000000 -0.015360 
#    y 0.000000 1.958790 0.000000 
#    z -0.015360 0.000000 1.826040 
# 
# From -- ./inp_files/46239.got.cif
#   From: 2010.05.17/outbox.cif.g08.bks.cpg/sg14_24_cif.got.tgz:46239.got - 2010.06.03 17:49:19.
