data_PCOD9241181
_publ_section_title
;
Structure prediction by ZEFSAII (Michael W. Deem and Ramdas Pophale) SiO2 
 PCOD9241181
Probable space group: P 21/C
;
_chemical_formula_sum "Si O2"
_cell_formula_units_Z 28
_cell_length_a 13.360224
_cell_length_b 16.913372
_cell_length_c 5.424312
_cell_angle_alpha 90.000000
_cell_angle_beta 111.250057
_cell_angle_gamma 90.000000
_cell_volume 1142.373220
_symmetry_space_group_name_H-M "P 21/C"
_symmetry_group_IT_number 14
_symmetry_cell_setting 'monoclinic'
loop_
_space_group_symop_operation_xyz
x,y,z
-x,1/2+y,1/2-z
-x,-y,-z
x,1/2-y,1/2+z
loop_
_atom_site_type_symbol
_atom_site_label
_atom_site_fract_x
_atom_site_fract_y
_atom_site_fract_z
Si Si1 0.829247 0.067845 0.827400
Si Si2 0.584063 0.731383 0.459179
Si Si3 0.533482 0.078284 0.168881
Si Si4 0.389756 0.639403 0.765555
Si Si5 0.886058 0.275539 0.362052
Si Si6 0.878361 0.792824 0.444727
Si Si7 0.126268 0.478486 0.128825
O O1 0.734190 0.132405 0.772819
O O2 0.924707 0.132661 0.907012
O O3 0.822178 0.021184 0.565523
O O4 0.833867 0.013224 0.072667
O O5 0.639744 0.739567 0.766475
O O6 0.563607 0.639576 0.408611
O O7 0.471986 0.785568 0.369433
O O8 0.569045 0.077117 0.485551
O O9 0.607812 0.117924 0.022347
O O10 0.500000 0.000000 0.000000
O O11 0.829159 0.242068 0.553211
O O12 0.991522 0.219317 0.437136
O O13 0.844570 0.759637 0.680145
O O14 0.855030 0.885022 0.378444
O O15 0.000000 0.500000 0.000000
#
# Coordination Sequence:
#
# PCOD9241181 Si02
#       7
#     4   4   4   4   4   4   4
#     4  12  24  38  58  85 121 157 191 251 308 355
#     4   8  16  30  50  79 115 146 180 214 261 332
#     4  10  19  35  58  86 116 152 187 222 267 339
#     4  10  21  36  55  86 121 150 183 225 291 350
#     4  10  20  34  51  76 108 147 191 234 294 352
#     4  10  19  35  54  77 103 141 196 251 294 346
#     4  12  23  38  57  83 116 155 206 255 299 350
#
# _framework density 24.510377999999999
#
# number of rings (size 3 to 8) (size 9 to 14) (size 15 to 20)
#    0.000    1.714    0.000    6.857    0.000    3.429 
#    0.000    0.000    0.000    0.000    0.000   60.000 
#    0.000    0.000    0.000    0.000    0.000    0.000 
#
# Total GULP energy -156102.752121 kJ/mol
# GULP energy per Si atom -5575.098290 kJ/mol
# Density = 2.445459 g / cm^3
# Si number density = 24.510378 Si / 1000 Ang^3
#
#
#
# Elastic Constant Matrix: (Units=GPa)
#
#
# Indices 1 2 3 4 5 6 
#
# 1 29.9569 17.7294 23.4955 0.0000 -15.9984 0.0000
# 2 17.7294 147.5772 35.3604 0.0000 -18.5172 0.0000
# 3 23.4955 35.3604 143.9344 0.0000 -51.6537 0.0000
# 4 0.0000 0.0000 0.0000 41.4811 0.0000 -14.9276
# 5 -15.9984 -18.5172 -51.6537 0.0000 42.9545 0.0000
# 6 0.0000 0.0000 0.0000 -14.9276 0.0000 13.8359
#
#
#
# Elastic Compliance Matrix: (Units=1/GPa)
#
#
# Indices 1 2 3 4 5 6 
#
# 1 0.043427 -0.003206 -0.001746 0.000000 0.012692 0.000000
# 2 -0.003206 0.007509 -0.001035 0.000000 0.000799 0.000000
# 3 -0.001746 -0.001035 0.012478 0.000000 0.013909 0.000000
# 4 0.000000 0.000000 0.000000 0.039408 0.000000 0.042517
# 5 0.012692 0.000799 0.013909 0.000000 0.045078 0.000000
# 6 0.000000 0.000000 0.000000 0.042517 0.000000 0.118147
#
#
# Mechanical properties :
#
#
# Convention : Reuss Voigt Hill
#
# Bulk Modulus (GPa) = 19.44023 52.73768 36.08895
# Shear Modulus (GPa) = 16.93945 35.97984 26.45965
#
# Velocity S-wave (km/s) = 2.63176 3.83553 3.28918
# Velocity P-wave (km/s) = 4.14530 6.41703 5.40193
#
# Compressibility (1/GPa) = 0.05143973
#
# Stress axis : x y z
#
# Youngs Moduli (GPa) = 23.02735 133.16530 80.13799
#
# Poissons Ratio (x) = 0.42695 0.13995
# Poissons Ratio (y) = 0.07383 0.08293
# Poissons Ratio (z) = 0.04022 0.13781
#
# Static dielectric constant tensor:
#      x y z
#    x 2.345900 0.000000 -0.018000 
#    y 0.000000 1.944170 0.000000 
#    z -0.018000 0.000000 2.089560 
# 
# From -- ./inp_files/4165.got.cif
#   From: 2010.05.17/outbox.cif.g08.bks.cpg/sg14_3_cif.got.tgz:4165.got - 2010.06.03 17:49:19.
