data_PCOD9241514
_publ_section_title
;
Structure prediction by ZEFSAII (Michael W. Deem and Ramdas Pophale) SiO2 
 PCOD9241514
Probable space group: P 21/C
;
_chemical_formula_sum "Si O2"
_cell_formula_units_Z 24
_cell_length_a 13.667949
_cell_length_b 8.932371
_cell_length_c 18.383227
_cell_angle_alpha 90.000000
_cell_angle_beta 31.550888
_cell_angle_gamma 90.000000
_cell_volume 1174.372228
_symmetry_space_group_name_H-M "P 21/C"
_symmetry_group_IT_number 14
_symmetry_cell_setting 'monoclinic'
loop_
_space_group_symop_operation_xyz
x,y,z
-x,1/2+y,1/2-z
-x,-y,-z
x,1/2-y,1/2+z
loop_
_atom_site_type_symbol
_atom_site_label
_atom_site_fract_x
_atom_site_fract_y
_atom_site_fract_z
Si Si1 0.787099 0.903000 0.940260
Si Si2 0.795774 0.603327 0.270737
Si Si3 0.907918 0.567687 0.671548
Si Si4 0.404936 0.530268 0.743363
Si Si5 0.160133 0.689126 0.382740
Si Si6 0.868831 0.614098 0.972370
O O1 0.728272 0.930988 0.894770
O O2 0.819009 0.728364 0.939448
O O3 0.626314 0.962485 0.095931
O O4 0.979510 0.988571 0.835194
O O5 0.805858 0.781798 0.257970
O O6 0.675587 0.539979 0.280375
O O7 0.000855 0.526100 0.132247
O O8 0.786829 0.442474 0.706730
O O9 0.063050 0.618552 0.514237
O O10 0.325515 0.698902 0.796650
O O11 0.311529 0.442154 0.869239
O O12 0.998652 0.788354 0.445317
#
# Coordination Sequence:
#
# PCOD9241514 Si02
#       6
#     4   4   4   4   4   4
#     4  11  25  34  56  91 123 141 191 249 292 325
#     4  11  20  41  60  82 115 160 190 230 291 350
#     4  10  19  36  60  83 109 153 194 229 274 345
#     4  11  21  38  59  85 116 153 188 243 286 337
#     4   9  18  36  59  81 105 149 198 229 268 346
#     4  10  20  38  59  82 110 157 197 226 282 350
#
# _framework density 20.436451999999999
#
# number of rings (size 3 to 8) (size 9 to 14) (size 15 to 20)
#    0.000    1.667    3.333    2.500    2.333    0.000 
#    0.000    2.500    0.000    0.000    0.000    0.000 
#    0.000    0.000    0.000    0.000    0.000    0.000 
#
# Total GULP energy -134028.556975 kJ/mol
# GULP energy per Si atom -5584.523207 kJ/mol
# Density = 2.038994 g / cm^3
# Si number density = 20.436452 Si / 1000 Ang^3
#
#
#
# Elastic Constant Matrix: (Units=GPa)
#
#
# Indices 1 2 3 4 5 6 
#
# 1 25.0225 4.3038 -5.7554 0.0000 9.0724 0.0000
# 2 4.3038 99.0956 6.5828 0.0000 6.3794 0.0000
# 3 -5.7554 6.5828 43.9113 0.0000 4.9707 0.0000
# 4 0.0000 0.0000 0.0000 15.8984 0.0000 0.6981
# 5 9.0724 6.3794 4.9707 0.0000 21.4125 0.0000
# 6 0.0000 0.0000 0.0000 0.6981 0.0000 16.7636
#
#
#
# Elastic Compliance Matrix: (Units=1/GPa)
#
#
# Indices 1 2 3 4 5 6 
#
# 1 0.050848 -0.001337 0.009509 0.000000 -0.023353 0.000000
# 2 -0.001337 0.010389 -0.001485 0.000000 -0.002184 0.000000
# 3 0.009509 -0.001485 0.025313 0.000000 -0.009462 0.000000
# 4 0.000000 0.000000 0.000000 0.063015 0.000000 -0.002624
# 5 -0.023353 -0.002184 -0.009462 0.000000 0.059444 0.000000
# 6 0.000000 0.000000 0.000000 -0.002624 0.000000 0.059762
#
#
# Mechanical properties :
#
#
# Convention : Reuss Voigt Hill
#
# Bulk Modulus (GPa) = 10.00768 19.81018 14.90893
# Shear Modulus (GPa) = 17.31870 21.67479 19.49675
#
# Velocity S-wave (km/s) = 2.91424 3.26021 3.09207
# Velocity P-wave (km/s) = 4.02882 4.88739 4.47872
#
# Compressibility (1/GPa) = 0.09992329
#
# Stress axis : x y z
#
# Youngs Moduli (GPa) = 19.66638 96.25956 39.50495
#
# Poissons Ratio (x) = 0.12866 -0.37563
# Poissons Ratio (y) = 0.02629 0.05868
# Poissons Ratio (z) = -0.18700 0.14298
#
# Static dielectric constant tensor:
#      x y z
#    x 1.712020 0.000000 0.014480 
#    y 0.000000 1.728240 0.000000 
#    z 0.014480 0.000000 1.694380 
# 
# From -- ./inp_files/46351.got.cif
#   From: 2010.05.17/outbox.cif.g08.bks.cpg/sg14_24_cif.got.tgz:46351.got - 2010.06.03 17:49:19.
