data_PCOD9241375
_publ_section_title
;
Structure prediction by ZEFSAII (Michael W. Deem and Ramdas Pophale) SiO2 
 PCOD9241375
Probable space group: P 21/C
;
_chemical_formula_sum "Si O2"
_cell_formula_units_Z 32
_cell_length_a 10.963128
_cell_length_b 14.607380
_cell_length_c 7.840784
_cell_angle_alpha 90.000000
_cell_angle_beta 106.234365
_cell_angle_gamma 90.000000
_cell_volume 1205.576055
_symmetry_space_group_name_H-M "P 21/C"
_symmetry_group_IT_number 14
_symmetry_cell_setting 'monoclinic'
loop_
_space_group_symop_operation_xyz
x,y,z
-x,1/2+y,1/2-z
-x,-y,-z
x,1/2-y,1/2+z
loop_
_atom_site_type_symbol
_atom_site_label
_atom_site_fract_x
_atom_site_fract_y
_atom_site_fract_z
Si Si1 0.612877 0.015564 0.870750
Si Si2 0.939338 0.225947 0.976320
Si Si3 0.226869 0.199585 0.202171
Si Si4 0.341872 0.700999 0.481735
Si Si5 0.719657 0.883503 0.146049
Si Si6 0.993581 0.103304 0.660268
Si Si7 0.603795 0.111035 0.357642
Si Si8 0.219131 0.478281 0.863914
O O1 0.521717 0.947953 0.729938
O O2 0.585290 0.122701 0.881466
O O3 0.742545 0.012840 0.810703
O O4 0.634630 0.970938 0.067258
O O5 0.946845 0.337064 0.980322
O O6 0.073578 0.209111 0.127229
O O7 0.804921 0.203900 0.013082
O O8 0.951993 0.167417 0.807609
O O9 0.305360 0.292093 0.258077
O O10 0.244552 0.129097 0.364135
O O11 0.264835 0.157855 0.037263
O O12 0.349819 0.662525 0.294139
O O13 0.402101 0.801813 0.517837
O O14 0.856948 0.912367 0.269407
O O15 0.922871 0.008048 0.653706
O O16 0.697056 0.036476 0.474326
#
# Coordination Sequence:
#
# PCOD9241375 Si02
#       8
#     4   4   4   4   4   4   4   4
#     4  11  25  43  66  90 121 167 209 254 303 365
#     4  10  19  36  61  89 124 158 202 247 308 360
#     4   9  21  36  62  90 126 162 197 256 310 370
#     4  12  24  43  65  91 123 164 208 259 301 364
#     4   9  21  38  61  91 123 162 206 250 311 362
#     4  10  19  35  62  91 123 158 202 252 307 367
#     4  12  27  43  63  94 124 164 209 255 306 358
#     4  11  22  40  63  94 124 161 204 251 311 366
#
# _framework density 26.543327000000001
#
# number of rings (size 3 to 8) (size 9 to 14) (size 15 to 20)
#    0.000    1.500    2.500    2.250    1.750    5.500 
#    0.000    0.625    0.000    0.000    0.000    0.000 
#    0.000    0.000    0.000    0.000    0.000    0.000 
#
# Total GULP energy -179058.331485 kJ/mol
# GULP energy per Si atom -5595.572859 kJ/mol
# Density = 2.648291 g / cm^3
# Si number density = 26.543327 Si / 1000 Ang^3
#
#
#
# Elastic Constant Matrix: (Units=GPa)
#
#
# Indices 1 2 3 4 5 6 
#
# 1 62.0671 39.4757 6.5478 0.0000 13.9591 0.0000
# 2 39.4757 135.2572 60.8636 0.0000 20.5180 0.0000
# 3 6.5478 60.8636 81.7499 0.0000 1.4119 0.0000
# 4 0.0000 0.0000 0.0000 38.4662 0.0000 3.2585
# 5 13.9591 20.5180 1.4119 0.0000 39.9278 0.0000
# 6 0.0000 0.0000 0.0000 3.2585 0.0000 43.9671
#
#
#
# Elastic Compliance Matrix: (Units=1/GPa)
#
#
# Indices 1 2 3 4 5 6 
#
# 1 0.021232 -0.007349 0.003836 0.000000 -0.003782 0.000000
# 2 -0.007349 0.014974 -0.010478 0.000000 -0.004755 0.000000
# 3 0.003836 -0.010478 0.019668 0.000000 0.003348 0.000000
# 4 0.000000 0.000000 0.000000 0.026161 0.000000 -0.001939
# 5 -0.003782 -0.004755 0.003348 0.000000 0.028693 0.000000
# 6 0.000000 0.000000 0.000000 -0.001939 0.000000 0.022888
#
#
# Mechanical properties :
#
#
# Convention : Reuss Voigt Hill
#
# Bulk Modulus (GPa) = 35.85157 54.76094 45.30626
# Shear Modulus (GPa) = 29.25773 35.95135 32.60454
#
# Velocity S-wave (km/s) = 3.32364 3.68426 3.50859
# Velocity P-wave (km/s) = 5.31647 6.22687 5.78960
#
# Compressibility (1/GPa) = 0.02789278
#
# Stress axis : x y z
#
# Youngs Moduli (GPa) = 47.09957 66.78046 50.84344
#
# Poissons Ratio (x) = 0.49078 -0.19505
# Poissons Ratio (y) = 0.34614 0.53273
# Poissons Ratio (z) = -0.18069 0.69972
#
# Static dielectric constant tensor:
#      x y z
#    x 2.125330 0.000000 -0.002030 
#    y 0.000000 2.127450 0.000000 
#    z -0.002030 0.000000 2.096320 
# 
# From -- ./inp_files/13388.got.cif
#   From: 2010.05.17/outbox.cif.g08.bks.cpg/sg14_7_cif.got.tgz:13388.got - 2010.06.03 17:49:19.
