data_PCOD9241361
_publ_section_title
;
Structure prediction by ZEFSAII (Michael W. Deem and Ramdas Pophale) SiO2 
 PCOD9241361
Probable space group: P 21/C
;
_chemical_formula_sum "Si O2"
_cell_formula_units_Z 32
_cell_length_a 26.635535
_cell_length_b 5.660048
_cell_length_c 15.717316
_cell_angle_alpha 90.000000
_cell_angle_beta 141.043981
_cell_angle_gamma 90.000000
_cell_volume 1489.771721
_symmetry_space_group_name_H-M "P 21/C"
_symmetry_group_IT_number 14
_symmetry_cell_setting 'monoclinic'
loop_
_space_group_symop_operation_xyz
x,y,z
-x,1/2+y,1/2-z
-x,-y,-z
x,1/2-y,1/2+z
loop_
_atom_site_type_symbol
_atom_site_label
_atom_site_fract_x
_atom_site_fract_y
_atom_site_fract_z
Si Si1 0.078909 0.875274 0.953147
Si Si2 0.496064 0.810236 0.191959
Si Si3 0.670586 0.122860 0.561346
Si Si4 0.191968 0.001178 0.521155
Si Si5 0.924572 0.853845 0.218823
Si Si6 0.780858 0.501037 0.619716
Si Si7 0.664689 0.837469 0.384196
Si Si8 0.203055 0.160737 0.198390
O O1 0.049788 0.051892 0.840209
O O2 0.003589 0.712724 0.873982
O O3 0.149669 0.727757 0.001999
O O4 0.122404 0.007802 0.086525
O O5 0.508268 0.570342 0.267253
O O6 0.574265 0.809119 0.234762
O O7 0.411097 0.765325 0.034018
O O8 0.738709 0.286300 0.610207
O O9 0.652259 0.932870 0.463647
O O10 0.715848 0.993334 0.697063
O O11 0.132761 0.130101 0.376247
O O12 0.278695 0.984462 0.592681
O O13 0.201069 0.173122 0.613930
O O14 0.866246 0.037067 0.188882
O O15 0.718210 0.603851 0.467733
O O16 0.795339 0.693578 0.712605
#
# Coordination Sequence:
#
# PCOD9241361 Si02
#       8
#     4   4   4   4   4   4   4   4
#     4  11  20  38  57  82 112 149 189 241 294 342
#     4  10  19  35  61  94 122 153 200 258 304 351
#     4  10  19  36  58  84 119 150 189 239 295 350
#     4  10  20  38  57  80 117 146 195 236 290 350
#     4  10  21  34  61  83 105 147 193 242 286 342
#     4  10  19  37  56  83 114 147 191 234 288 354
#     4   9  19  34  59  90 108 149 194 244 288 345
#     4  10  23  36  55  80 116 159 186 231 297 353
#
# _framework density 21.479800000000001
#
# number of rings (size 3 to 8) (size 9 to 14) (size 15 to 20)
#    0.000    2.000    2.500    1.500    0.000    0.500 
#    0.000    3.125    0.000    3.000    0.000    0.000 
#    0.000    0.000    0.000    0.000    0.000    0.000 
#
# Total GULP energy -178435.168204 kJ/mol
# GULP energy per Si atom -5576.099006 kJ/mol
# Density = 2.143091 g / cm^3
# Si number density = 21.479800 Si / 1000 Ang^3
#
#
#
# Elastic Constant Matrix: (Units=GPa)
#
#
# Indices 1 2 3 4 5 6 
#
# 1 53.1804 -0.5381 32.1478 0.0000 26.2242 0.0000
# 2 -0.5381 62.7200 20.3541 0.0000 0.0523 0.0000
# 3 32.1478 20.3541 101.9714 0.0000 18.2517 0.0000
# 4 0.0000 0.0000 0.0000 26.0547 0.0000 4.5630
# 5 26.2242 0.0523 18.2517 0.0000 32.4614 0.0000
# 6 0.0000 0.0000 0.0000 4.5630 0.0000 11.8223
#
#
#
# Elastic Compliance Matrix: (Units=1/GPa)
#
#
# Indices 1 2 3 4 5 6 
#
# 1 0.035268 0.002688 -0.007288 0.000000 -0.024398 0.000000
# 2 0.002688 0.017382 -0.004362 0.000000 0.000253 0.000000
# 3 -0.007288 -0.004362 0.013254 0.000000 -0.001557 0.000000
# 4 0.000000 0.000000 0.000000 0.041163 0.000000 -0.015887
# 5 -0.024398 0.000253 -0.001557 0.000000 0.051391 0.000000
# 6 0.000000 0.000000 0.000000 -0.015887 0.000000 0.090718
#
#
# Mechanical properties :
#
#
# Convention : Reuss Voigt Hill
#
# Bulk Modulus (GPa) = 20.84237 35.75548 28.29893
# Shear Modulus (GPa) = 17.66196 25.12822 21.39509
#
# Velocity S-wave (km/s) = 2.87062 3.42402 3.15946
# Velocity P-wave (km/s) = 4.55100 5.68455 5.14906
#
# Compressibility (1/GPa) = 0.04797919
#
# Stress axis : x y z
#
# Youngs Moduli (GPa) = 28.35433 57.52930 75.44959
#
# Poissons Ratio (x) = -0.15465 0.54990
# Poissons Ratio (y) = -0.07622 0.32914
# Poissons Ratio (z) = 0.20665 0.25097
#
# Static dielectric constant tensor:
#      x y z
#    x 1.787910 0.000000 0.030600 
#    y 0.000000 1.853170 0.000000 
#    z 0.030600 0.000000 1.804230 
# 
# From -- ./inp_files/59966.got.cif
#   From: 2010.05.17/outbox.cif.g08.bks.cpg/sg14_30_cif.got.tgz:59966.got - 2010.06.03 17:49:19.
