data_PCOD9241667
_publ_section_title
;
Structure prediction by ZEFSAII (Michael W. Deem and Ramdas Pophale) SiO2 
 PCOD9241667
Probable space group: P 21/C
;
_chemical_formula_sum "Si O2"
_cell_formula_units_Z 32
_cell_length_a 12.399014
_cell_length_b 9.756556
_cell_length_c 19.203936
_cell_angle_alpha 90.000000
_cell_angle_beta 130.093027
_cell_angle_gamma 90.000000
_cell_volume 1777.195708
_symmetry_space_group_name_H-M "P 21/C"
_symmetry_group_IT_number 14
_symmetry_cell_setting 'monoclinic'
loop_
_space_group_symop_operation_xyz
x,y,z
-x,1/2+y,1/2-z
-x,-y,-z
x,1/2-y,1/2+z
loop_
_atom_site_type_symbol
_atom_site_label
_atom_site_fract_x
_atom_site_fract_y
_atom_site_fract_z
Si Si1 0.635066 0.949411 0.714981
Si Si2 0.955767 0.051363 0.557259
Si Si3 0.231336 0.576129 0.601738
Si Si4 0.907438 0.656965 0.150540
Si Si5 0.069952 0.182236 0.181147
Si Si6 0.343772 0.948217 0.419026
Si Si7 0.334985 0.820590 0.551528
Si Si8 0.956311 0.901042 0.070176
O O1 0.762718 0.840879 0.759808
O O2 0.486267 0.877505 0.638421
O O3 0.653362 0.021881 0.796338
O O4 0.664645 0.063570 0.667307
O O5 0.787361 0.071472 0.480770
O O6 0.016084 0.195993 0.609740
O O7 0.992336 0.945910 0.634922
O O8 0.000000 0.000000 0.500000
O O9 0.295615 0.680391 0.573015
O O10 0.158560 0.446448 0.534114
O O11 0.100195 0.643652 0.590198
O O12 0.962467 0.698724 0.250040
O O13 0.766187 0.568832 0.107223
O O14 0.896067 0.791579 0.098736
O O15 0.999663 0.040313 0.127664
O O16 0.323694 0.820317 0.462316
O O17 0.500000 0.000000 0.500000
#
# Coordination Sequence:
#
# PCOD9241667 Si02
#       8
#     4   4   4   4   4   4   4   4
#     4   9  20  35  58  80 109 153 190 226 283 345
#     4  11  22  34  57  89 115 144 188 244 289 328
#     4  10  20  35  55  80 114 150 179 230 290 334
#     4  10  20  33  59  87 108 147 197 229 280 346
#     4  10  20  38  57  81 113 150 188 238 286 336
#     4   8  17  36  56  79 108 150 185 231 276 334
#     4  10  19  37  56  81 111 147 190 232 277 340
#     4  10  20  36  57  81 118 147 184 232 294 334
#
# _framework density 18.005894000000001
#
# number of rings (size 3 to 8) (size 9 to 14) (size 15 to 20)
#    0.000    2.250    1.250    1.500    3.500    2.000 
#    4.500    0.000    0.000    6.750    0.000    0.000 
#    0.000    0.000    0.000    0.000    0.000    0.000 
#
# Total GULP energy -178216.804299 kJ/mol
# GULP energy per Si atom -5569.275134 kJ/mol
# Density = 1.796491 g / cm^3
# Si number density = 18.005894 Si / 1000 Ang^3
#
#
#
# Elastic Constant Matrix: (Units=GPa)
#
#
# Indices 1 2 3 4 5 6 
#
# 1 64.4372 28.5938 38.0099 0.0000 -15.7889 0.0000
# 2 28.5938 71.7737 36.0986 0.0000 -14.7683 0.0000
# 3 38.0099 36.0986 106.8125 0.0000 -6.8964 0.0000
# 4 0.0000 0.0000 0.0000 26.3341 0.0000 -15.1356
# 5 -15.7889 -14.7683 -6.8964 0.0000 25.3845 0.0000
# 6 0.0000 0.0000 0.0000 -15.1356 0.0000 24.8712
#
#
#
# Elastic Compliance Matrix: (Units=1/GPa)
#
#
# Indices 1 2 3 4 5 6 
#
# 1 0.023680 -0.004036 -0.006375 0.000000 0.010648 0.000000
# 2 -0.004036 0.019425 -0.004642 0.000000 0.007529 0.000000
# 3 -0.006375 -0.004642 0.012997 0.000000 -0.003135 0.000000
# 4 0.000000 0.000000 0.000000 0.058400 0.000000 0.035540
# 5 0.010648 0.007529 -0.003135 0.000000 0.049546 0.000000
# 6 0.000000 0.000000 0.000000 0.035540 0.000000 0.061835
#
#
# Mechanical properties :
#
#
# Convention : Reuss Voigt Hill
#
# Bulk Modulus (GPa) = 38.46982 49.82532 44.14757
# Shear Modulus (GPa) = 18.89250 24.67271 21.78260
#
# Velocity S-wave (km/s) = 3.24271 3.70571 3.48192
# Velocity P-wave (km/s) = 5.95246 6.78539 6.38252
#
# Compressibility (1/GPa) = 0.02599440
#
# Stress axis : x y z
#
# Youngs Moduli (GPa) = 42.23040 51.48043 76.93925
#
# Poissons Ratio (x) = 0.20780 0.49048
# Poissons Ratio (y) = 0.17046 0.35718
# Poissons Ratio (z) = 0.26921 0.23899
#
# Static dielectric constant tensor:
#      x y z
#    x 1.664620 0.000000 -0.025040 
#    y 0.000000 1.615060 0.000000 
#    z -0.025040 0.000000 1.644760 
# 
# From -- ./inp_files/67043.got.cif
#   From: 2010.05.17/outbox.cif.g08.bks.cpg/sg14_34_cif.got.tgz:67043.got - 2010.06.03 17:49:19.
