data_PCOD9241918
_publ_section_title
;
Structure prediction by ZEFSAII (Michael W. Deem and Ramdas Pophale) SiO2 
 PCOD9241918
Probable space group: P 21/C
;
_chemical_formula_sum "Si O2"
_cell_formula_units_Z 28
_cell_length_a 17.225353
_cell_length_b 12.559694
_cell_length_c 20.841161
_cell_angle_alpha 90.000000
_cell_angle_beta 18.627526
_cell_angle_gamma 90.000000
_cell_volume 1440.203491
_symmetry_space_group_name_H-M "P 21/C"
_symmetry_group_IT_number 14
_symmetry_cell_setting 'monoclinic'
loop_
_space_group_symop_operation_xyz
x,y,z
-x,1/2+y,1/2-z
-x,-y,-z
x,1/2-y,1/2+z
loop_
_atom_site_type_symbol
_atom_site_label
_atom_site_fract_x
_atom_site_fract_y
_atom_site_fract_z
Si Si1 0.847176 0.941842 0.775687
Si Si2 0.200357 0.462039 0.538185
Si Si3 0.799970 0.392772 0.576871
Si Si4 0.696275 0.553301 0.763818
Si Si5 0.758374 0.139444 0.316633
Si Si6 0.286706 0.847287 0.355436
Si Si7 0.296350 0.866697 0.202430
O O1 0.865958 0.974885 0.835318
O O2 0.073391 0.873857 0.572523
O O3 0.820067 0.044702 0.751819
O O4 0.589443 0.880653 0.972065
O O5 0.173031 0.569047 0.517492
O O6 0.469767 0.413637 0.321397
O O7 0.007887 0.381971 0.657412
O O8 0.685315 0.494142 0.704134
O O9 0.667181 0.279973 0.683164
O O10 0.058213 0.382151 0.412062
O O11 0.715342 0.454225 0.798447
O O12 0.465088 0.625072 0.959450
O O13 0.760229 0.250746 0.279873
O O14 0.210149 0.878558 0.343058
#
# Coordination Sequence:
#
# PCOD9241918 Si02
#       7
#     4   4   4   4   4   4   4
#     4  10  23  41  59  87 124 160 199 255 298 367
#     4  10  25  39  54  94 128 148 206 246 308 376
#     4  10  20  39  61  91 121 157 207 253 302 369
#     4   9  19  35  64  88 118 153 202 253 296 356
#     4  10  19  38  60  91 118 156 196 256 298 353
#     4  11  22  41  64  86 121 168 198 253 308 360
#     4  10  21  41  64  88 114 159 218 241 294 372
#
# _framework density 19.441697000000001
#
# number of rings (size 3 to 8) (size 9 to 14) (size 15 to 20)
#    0.000    2.000    1.429    1.286    2.000    2.286 
#    0.000    0.000    0.000    0.000    0.000    0.000 
#    0.000    0.000    0.000    0.000    0.000    0.000 
#
# Total GULP energy -156284.006806 kJ/mol
# GULP energy per Si atom -5581.571672 kJ/mol
# Density = 1.939745 g / cm^3
# Si number density = 19.441697 Si / 1000 Ang^3
#
#
#
# Elastic Constant Matrix: (Units=GPa)
#
#
# Indices 1 2 3 4 5 6 
#
# 1 117.7777 30.7842 19.1307 0.0000 17.7958 0.0000
# 2 30.7842 37.2440 3.1695 0.0000 -3.6308 0.0000
# 3 19.1307 3.1695 58.3305 0.0000 16.5001 0.0000
# 4 0.0000 0.0000 0.0000 14.2661 0.0000 2.6861
# 5 17.7958 -3.6308 16.5001 0.0000 23.3979 0.0000
# 6 0.0000 0.0000 0.0000 2.6861 0.0000 21.8667
#
#
#
# Elastic Compliance Matrix: (Units=1/GPa)
#
#
# Indices 1 2 3 4 5 6 
#
# 1 0.013601 -0.012376 -0.000398 0.000000 -0.011984 0.000000
# 2 -0.012376 0.039057 -0.003048 0.000000 0.017623 0.000000
# 3 -0.000398 -0.003048 0.021846 0.000000 -0.015576 0.000000
# 4 0.000000 0.000000 0.000000 0.071756 0.000000 -0.008815
# 5 -0.011984 0.017623 -0.015576 0.000000 0.065572 0.000000
# 6 0.000000 0.000000 0.000000 -0.008815 0.000000 0.046814
#
#
# Mechanical properties :
#
#
# Convention : Reuss Voigt Hill
#
# Bulk Modulus (GPa) = 23.33283 35.50232 29.41757
# Shear Modulus (GPa) = 16.41616 22.59068 19.50342
#
# Velocity S-wave (km/s) = 2.90897 3.41247 3.17073
# Velocity P-wave (km/s) = 4.82808 5.81611 5.34497
#
# Compressibility (1/GPa) = 0.04285808
#
# Stress axis : x y z
#
# Youngs Moduli (GPa) = 73.52484 25.60354 45.77520
#
# Poissons Ratio (x) = 0.31688 0.01823
# Poissons Ratio (y) = 0.90996 0.13954
# Poissons Ratio (z) = 0.02928 0.07805
#
# Static dielectric constant tensor:
#      x y z
#    x 1.676970 0.000000 0.031200 
#    y 0.000000 1.639250 0.000000 
#    z 0.031200 0.000000 1.716750 
# 
# From -- ./inp_files/69378.got.cif
#   From: 2010.05.17/outbox.cif.g08.bks.cpg/sg14_35_cif.got.tgz:69378.got - 2010.06.03 17:49:19.
