data_PCOD9241368
_publ_section_title
;
Structure prediction by ZEFSAII (Michael W. Deem and Ramdas Pophale) SiO2 
 PCOD9241368
Probable space group: P 21/C
;
_chemical_formula_sum "Si O2"
_cell_formula_units_Z 32
_cell_length_a 8.041023
_cell_length_b 14.265353
_cell_length_c 18.219867
_cell_angle_alpha 90.000000
_cell_angle_beta 135.156440
_cell_angle_gamma 90.000000
_cell_volume 1473.787924
_symmetry_space_group_name_H-M "P 21/C"
_symmetry_group_IT_number 14
_symmetry_cell_setting 'monoclinic'
loop_
_space_group_symop_operation_xyz
x,y,z
-x,1/2+y,1/2-z
-x,-y,-z
x,1/2-y,1/2+z
loop_
_atom_site_type_symbol
_atom_site_label
_atom_site_fract_x
_atom_site_fract_y
_atom_site_fract_z
Si Si1 0.759698 0.631157 0.408652
Si Si2 0.551378 0.106083 0.982598
Si Si3 0.411174 0.345761 0.282029
Si Si4 0.647749 0.015228 0.745328
Si Si5 0.937712 0.235231 0.593427
Si Si6 0.306519 0.802470 0.716093
Si Si7 0.054020 0.141447 0.875964
Si Si8 0.785403 0.071592 0.440637
O O1 0.733646 0.556396 0.335299
O O2 0.491549 0.667396 0.336343
O O3 0.907673 0.716204 0.421885
O O4 0.891969 0.604852 0.524181
O O5 0.536090 0.102756 0.889304
O O6 0.309853 0.158858 0.925306
O O7 0.769198 0.178236 0.068693
O O8 0.500000 0.000000 0.000000
O O9 0.475719 0.410232 0.232378
O O10 0.546980 0.251480 0.301977
O O11 0.138776 0.314685 0.207021
O O12 0.882209 0.063796 0.787748
O O13 0.476698 0.970075 0.632767
O O14 0.813946 0.149741 0.512399
O O15 0.099241 0.734782 0.674122
O O16 0.213204 0.889218 0.642258
O O17 0.000000 0.000000 0.500000
#
# Coordination Sequence:
#
# PCOD9241368 Si02
#       8
#     4   4   4   4   4   4   4   4
#     4  10  19  35  62  88 121 152 209 269 321 367
#     4  12  25  40  61  91 134 177 216 255 317 399
#     4  10  20  39  62  90 126 162 217 262 330 381
#     4  10  20  34  63  94 116 156 211 274 318 379
#     4  11  21  40  64  92 126 171 208 276 331 384
#     4   9  20  35  60  91 117 158 207 271 314 377
#     4  11  21  36  57  87 123 162 207 255 318 383
#     4  11  19  36  65  96 119 154 212 274 335 378
#
# _framework density 21.712758000000001
#
# number of rings (size 3 to 8) (size 9 to 14) (size 15 to 20)
#    0.000    1.500    3.750    2.625    0.000    1.000 
#    0.000    0.000    0.000    1.500    0.000    0.000 
#    0.000    0.000    0.000    0.000    0.000    0.000 
#
# Total GULP energy -178214.918503 kJ/mol
# GULP energy per Si atom -5569.216203 kJ/mol
# Density = 2.166334 g / cm^3
# Si number density = 21.712758 Si / 1000 Ang^3
#
#
#
# Elastic Constant Matrix: (Units=GPa)
#
#
# Indices 1 2 3 4 5 6 
#
# 1 27.5754 2.3077 -2.1606 0.0000 17.0111 0.0000
# 2 2.3077 82.3520 47.6167 0.0000 15.8064 0.0000
# 3 -2.1606 47.6167 85.2140 0.0000 19.3426 0.0000
# 4 0.0000 0.0000 0.0000 50.5124 0.0000 9.9876
# 5 17.0111 15.8064 19.3426 0.0000 29.2347 0.0000
# 6 0.0000 0.0000 0.0000 9.9876 0.0000 16.0037
#
#
#
# Elastic Compliance Matrix: (Units=1/GPa)
#
#
# Indices 1 2 3 4 5 6 
#
# 1 0.065826 0.000007 0.012191 0.000000 -0.046372 0.000000
# 2 0.000007 0.018269 -0.009373 0.000000 -0.003680 0.000000
# 3 0.012191 -0.009373 0.020877 0.000000 -0.015839 0.000000
# 4 0.000000 0.000000 0.000000 0.022584 0.000000 -0.014094
# 5 -0.046372 -0.003680 -0.015839 0.000000 0.073658 0.000000
# 6 0.000000 0.000000 0.000000 -0.014094 0.000000 0.071282
#
#
# Mechanical properties :
#
#
# Convention : Reuss Voigt Hill
#
# Bulk Modulus (GPa) = 9.03981 32.29654 20.66818
# Shear Modulus (GPa) = 16.46263 28.97533 22.71898
#
# Velocity S-wave (km/s) = 2.75653 3.65702 3.23823
# Velocity P-wave (km/s) = 3.78202 5.72176 4.84985
#
# Compressibility (1/GPa) = 0.11062183
#
# Stress axis : x y z
#
# Youngs Moduli (GPa) = 15.19163 54.73882 47.89974
#
# Poissons Ratio (x) = -0.00038 -0.58395
# Poissons Ratio (y) = -0.00011 0.44895
# Poissons Ratio (z) = -0.18520 0.51306
#
# Static dielectric constant tensor:
#      x y z
#    x 1.823580 0.000000 -0.001940 
#    y 0.000000 1.873130 0.000000 
#    z -0.001940 0.000000 1.866530 
# 
# From -- ./inp_files/65851.got.cif
#   From: 2010.05.17/outbox.cif.g08.bks.cpg/sg14_33_cif.got.tgz:65851.got - 2010.06.03 17:49:19.
