data_PCOD9241604
_publ_section_title
;
Structure prediction by ZEFSAII (Michael W. Deem and Ramdas Pophale) SiO2 
 PCOD9241604
Probable space group: P 21/C
;
_chemical_formula_sum "Si O2"
_cell_formula_units_Z 32
_cell_length_a 9.216688
_cell_length_b 10.793455
_cell_length_c 17.018490
_cell_angle_alpha 90.000000
_cell_angle_beta 128.430432
_cell_angle_gamma 90.000000
_cell_volume 1326.232570
_symmetry_space_group_name_H-M "P 21/C"
_symmetry_group_IT_number 14
_symmetry_cell_setting 'monoclinic'
loop_
_space_group_symop_operation_xyz
x,y,z
-x,1/2+y,1/2-z
-x,-y,-z
x,1/2-y,1/2+z
loop_
_atom_site_type_symbol
_atom_site_label
_atom_site_fract_x
_atom_site_fract_y
_atom_site_fract_z
Si Si1 0.236730 0.289375 0.112363
Si Si2 0.495793 0.832144 0.528680
Si Si3 0.359782 0.847096 0.217080
Si Si4 0.176503 0.466885 0.364213
Si Si5 0.752005 0.527190 0.000149
Si Si6 0.978362 0.732483 0.116198
Si Si7 0.452948 0.925385 0.073906
Si Si8 0.798933 0.897399 0.762297
O O1 0.457801 0.281889 0.188020
O O2 0.216251 0.436020 0.080125
O O3 0.175032 0.217772 0.169128
O O4 0.127600 0.233350 0.001400
O O5 0.573935 0.895795 0.476102
O O6 0.470879 0.686999 0.517315
O O7 0.651405 0.860593 0.646374
O O8 0.303717 0.891015 0.494650
O O9 0.399290 0.870262 0.138971
O O10 0.190648 0.756780 0.175623
O O11 0.296926 0.981683 0.229136
O O12 0.096983 0.326982 0.343736
O O13 0.338927 0.479753 0.354606
O O14 0.289412 0.493537 0.483044
O O15 0.000518 0.556805 0.302298
O O16 0.920111 0.589640 0.103399
#
# Coordination Sequence:
#
# PCOD9241604 Si02
#       8
#     4   4   4   4   4   4   4   4
#     4  10  19  36  62  93 123 163 216 258 321 380
#     4  11  20  39  64  85 131 171 208 253 328 386
#     4  11  21  35  66  93 124 164 215 270 318 371
#     4  10  22  39  64  91 124 160 210 263 327 374
#     4   9  21  39  60  87 125 172 204 255 316 394
#     4   9  19  39  60  90 123 162 211 262 313 379
#     4  11  21  38  62  94 123 162 205 268 320 381
#     4  11  21  39  65  93 123 166 215 269 318 376
#
# _framework density 24.128499000000001
#
# number of rings (size 3 to 8) (size 9 to 14) (size 15 to 20)
#    0.750    1.000    3.750    1.500    0.000    2.000 
#    0.000    8.125    2.750    0.000    0.000    0.000 
#    0.000    0.000    0.000    0.000    0.000    0.000 
#
# Total GULP energy -178522.036978 kJ/mol
# GULP energy per Si atom -5578.813656 kJ/mol
# Density = 2.407358 g / cm^3
# Si number density = 24.128499 Si / 1000 Ang^3
#
#
#
# Elastic Constant Matrix: (Units=GPa)
#
#
# Indices 1 2 3 4 5 6 
#
# 1 74.3091 29.4017 17.5951 0.0000 17.3699 0.0000
# 2 29.4017 60.1683 16.2371 0.0000 9.0085 0.0000
# 3 17.5951 16.2371 58.9260 0.0000 10.6859 0.0000
# 4 0.0000 0.0000 0.0000 18.4391 0.0000 6.4486
# 5 17.3699 9.0085 10.6859 0.0000 40.9703 0.0000
# 6 0.0000 0.0000 0.0000 6.4486 0.0000 39.1302
#
#
#
# Elastic Compliance Matrix: (Units=1/GPa)
#
#
# Indices 1 2 3 4 5 6 
#
# 1 0.018255 -0.007452 -0.002405 0.000000 -0.005474 0.000000
# 2 -0.007452 0.021306 -0.003536 0.000000 -0.000603 0.000000
# 3 -0.002405 -0.003536 0.019247 0.000000 -0.003223 0.000000
# 4 0.000000 0.000000 0.000000 0.057549 0.000000 -0.009484
# 5 -0.005474 -0.000603 -0.003223 0.000000 0.027702 0.000000
# 6 0.000000 0.000000 0.000000 -0.009484 0.000000 0.027119
#
#
# Mechanical properties :
#
#
# Convention : Reuss Voigt Hill
#
# Bulk Modulus (GPa) = 31.22853 35.54125 33.38489
# Shear Modulus (GPa) = 23.96496 28.38589 26.17543
#
# Velocity S-wave (km/s) = 3.15496 3.43366 3.29726
# Velocity P-wave (km/s) = 5.12273 5.52105 5.32562
#
# Compressibility (1/GPa) = 0.03202200
#
# Stress axis : x y z
#
# Youngs Moduli (GPa) = 54.78076 46.93501 51.95486
#
# Poissons Ratio (x) = 0.34975 0.12494
# Poissons Ratio (y) = 0.40821 0.18374
# Poissons Ratio (z) = 0.13174 0.16598
#
# Static dielectric constant tensor:
#      x y z
#    x 1.951110 0.000000 -0.010950 
#    y 0.000000 1.943770 0.000000 
#    z -0.010950 0.000000 1.895880 
# 
# From -- ./inp_files/65605.got.cif
#   From: 2010.05.17/outbox.cif.g08.bks.cpg/sg14_33_cif.got.tgz:65605.got - 2010.06.03 17:49:19.
