data_PCOD9241680
_publ_section_title
;
Structure prediction by ZEFSAII (Michael W. Deem and Ramdas Pophale) SiO2 
 PCOD9241680
Probable space group: P 21/C
;
_chemical_formula_sum "Si O2"
_cell_formula_units_Z 24
_cell_length_a 8.546504
_cell_length_b 13.735426
_cell_length_c 13.289984
_cell_angle_alpha 90.000000
_cell_angle_beta 44.600478
_cell_angle_gamma 90.000000
_cell_volume 1095.444942
_symmetry_space_group_name_H-M "P 21/C"
_symmetry_group_IT_number 14
_symmetry_cell_setting 'monoclinic'
loop_
_space_group_symop_operation_xyz
x,y,z
-x,1/2+y,1/2-z
-x,-y,-z
x,1/2-y,1/2+z
loop_
_atom_site_type_symbol
_atom_site_label
_atom_site_fract_x
_atom_site_fract_y
_atom_site_fract_z
Si Si1 0.913636 0.188929 0.088504
Si Si2 0.896508 0.302683 0.296521
Si Si3 0.709852 0.681869 0.724378
Si Si4 0.164322 0.008174 0.283129
Si Si5 0.446100 0.638418 0.384029
Si Si6 0.233102 0.894108 0.449072
O O1 0.898757 0.217503 0.212082
O O2 0.738972 0.114814 0.115992
O O3 0.854329 0.293448 0.061929
O O4 0.154274 0.154985 0.938344
O O5 0.885208 0.407630 0.248644
O O6 0.682762 0.304294 0.468018
O O7 0.114706 0.306985 0.266033
O O8 0.611032 0.788682 0.751306
O O9 0.494571 0.618562 0.851322
O O10 0.390898 0.058968 0.143817
O O11 0.944741 0.075937 0.384636
O O12 0.219009 0.979100 0.372973
#
# Coordination Sequence:
#
# PCOD9241680 Si02
#       6
#     4   4   4   4   4   4
#     4   9  19  38  58  81 112 152 192 233 283 343
#     4  10  22  36  57  90 114 149 194 238 293 338
#     4  10  20  37  60  83 116 148 196 239 278 342
#     4  10  19  37  58  82 118 153 189 233 294 343
#     4  10  20  37  60  82 115 154 192 239 281 341
#     4   9  19  35  58  82 111 159 187 226 290 341
#
# _framework density 21.908906999999999
#
# number of rings (size 3 to 8) (size 9 to 14) (size 15 to 20)
#    0.000    2.333    1.667    0.500    0.000    4.667 
#    0.000    5.000    0.000    0.000    0.000    0.000 
#    0.000    0.000    0.000    0.000    0.000    0.000 
#
# Total GULP energy -133754.048463 kJ/mol
# GULP energy per Si atom -5573.085353 kJ/mol
# Density = 2.185904 g / cm^3
# Si number density = 21.908907 Si / 1000 Ang^3
#
#
#
# Elastic Constant Matrix: (Units=GPa)
#
#
# Indices 1 2 3 4 5 6 
#
# 1 72.8357 12.4255 74.3601 0.0000 -6.7690 0.0000
# 2 12.4255 28.6963 25.3391 0.0000 -7.7642 0.0000
# 3 74.3601 25.3391 136.5868 0.0000 -18.8166 0.0000
# 4 0.0000 0.0000 0.0000 -18.5278 0.0000 21.9251
# 5 -6.7690 -7.7642 -18.8166 0.0000 39.0209 0.0000
# 6 0.0000 0.0000 0.0000 21.9251 0.0000 17.4283
#
#
#
# Elastic Compliance Matrix: (Units=1/GPa)
#
#
# Indices 1 2 3 4 5 6 
#
# 1 0.031268 0.001280 -0.017650 0.000000 -0.002833 0.000000
# 2 0.001280 0.042616 -0.007931 0.000000 0.004877 0.000000
# 3 -0.017650 -0.007931 0.019027 0.000000 0.004535 0.000000
# 4 0.000000 0.000000 0.000000 -0.021687 0.000000 0.027283
# 5 -0.002833 0.004877 0.004535 0.000000 0.028293 0.000000
# 6 0.000000 0.000000 0.000000 0.027283 0.000000 0.023056
#
#
# Mechanical properties :
#
#
# Convention : Reuss Voigt Hill
#
# Bulk Modulus (GPa) = 22.56937 51.37427 36.97182
# Shear Modulus (GPa) = 26.88987 15.98388 21.43687
#
# Velocity S-wave (km/s) = 3.50715 2.70397 3.13142
# Velocity P-wave (km/s) = 5.16953 5.76615 5.47597
#
# Compressibility (1/GPa) = 0.04430784
#
# Stress axis : x y z
#
# Youngs Moduli (GPa) = 31.98191 23.46532 52.55803
#
# Poissons Ratio (x) = -0.03004 0.92767
# Poissons Ratio (y) = -0.04094 0.41684
# Poissons Ratio (z) = 0.56449 0.18610
#
# Static dielectric constant tensor:
#      x y z
#    x 1.820910 0.000000 -0.002160 
#    y 0.000000 1.840630 0.000000 
#    z -0.002160 0.000000 1.858260 
# 
# From -- ./inp_files/25989.got.cif
#   From: 2010.05.17/outbox.cif.g08.bks.cpg/sg14_13_cif.got.tgz:25989.got - 2010.06.03 17:49:19.
