data_PCOD9241755
_publ_section_title
;
Structure prediction by ZEFSAII (Michael W. Deem and Ramdas Pophale) SiO2 
 PCOD9241755
Probable space group: P 21/C
;
_chemical_formula_sum "Si O2"
_cell_formula_units_Z 24
_cell_length_a 5.557421
_cell_length_b 7.563301
_cell_length_c 24.222998
_cell_angle_alpha 90.000000
_cell_angle_beta 114.625149
_cell_angle_gamma 90.000000
_cell_volume 925.554346
_symmetry_space_group_name_H-M "P 21/C"
_symmetry_group_IT_number 14
_symmetry_cell_setting 'monoclinic'
loop_
_space_group_symop_operation_xyz
x,y,z
-x,1/2+y,1/2-z
-x,-y,-z
x,1/2-y,1/2+z
loop_
_atom_site_type_symbol
_atom_site_label
_atom_site_fract_x
_atom_site_fract_y
_atom_site_fract_z
Si Si1 0.864616 0.397109 0.382385
Si Si2 0.559147 0.964989 0.070562
Si Si3 0.921798 0.641127 0.799755
Si Si4 0.616674 0.410931 0.957973
Si Si5 0.655510 0.268124 0.749693
Si Si6 0.035986 0.016993 0.578804
O O1 0.673270 0.504834 0.406913
O O2 0.721108 0.331877 0.313465
O O3 0.952241 0.202339 0.417449
O O4 0.131045 0.505067 0.392197
O O5 0.545495 0.753646 0.075964
O O6 0.500000 0.000000 0.000000
O O7 0.772126 0.464219 0.765655
O O8 0.664918 0.767566 0.785187
O O9 0.039822 0.589688 0.870254
O O10 0.157268 0.688097 0.780480
O O11 0.660690 0.540562 0.911266
O O12 0.500000 0.500000 0.000000
O O13 0.892382 0.373335 0.016536
#
# Coordination Sequence:
#
# PCOD9241755 Si02
#       6
#     4   4   4   4   4   4
#     4  10  21  41  63  81 122 171 199 240 317 383
#     4  11  22  38  59  91 123 159 200 247 313 378
#     4  11  24  44  67  96 128 171 218 267 321 380
#     4  10  19  37  61  89 119 155 208 253 308 368
#     4  11  24  44  67  93 128 169 220 265 318 382
#     4   9  21  37  63  88 118 162 206 257 307 373
#
# _framework density 25.930403999999999
#
# number of rings (size 3 to 8) (size 9 to 14) (size 15 to 20)
#    0.000    1.667    1.667    2.500    2.333    2.667 
#    9.000    0.000    0.000    0.000    0.000    0.000 
#    0.000    0.000    0.000    0.000    0.000    0.000 
#
# Total GULP energy -133625.091042 kJ/mol
# GULP energy per Si atom -5567.712127 kJ/mol
# Density = 2.587139 g / cm^3
# Si number density = 25.930404 Si / 1000 Ang^3
#
#
#
# Elastic Constant Matrix: (Units=GPa)
#
#
# Indices 1 2 3 4 5 6 
#
# 1 198.8958 15.4098 59.8957 0.0000 -20.2379 0.0000
# 2 15.4098 71.0902 4.2069 0.0000 -9.0603 0.0000
# 3 59.8957 4.2069 73.8906 0.0000 -29.0265 0.0000
# 4 0.0000 0.0000 0.0000 35.0336 0.0000 -2.2862
# 5 -20.2379 -9.0603 -29.0265 0.0000 52.8083 0.0000
# 6 0.0000 0.0000 0.0000 -2.2862 0.0000 24.4018
#
#
#
# Elastic Compliance Matrix: (Units=1/GPa)
#
#
# Indices 1 2 3 4 5 6 
#
# 1 0.006766 -0.001225 -0.005712 0.000000 -0.000757 0.000000
# 2 -0.001225 0.014605 0.001226 0.000000 0.002710 0.000000
# 3 -0.005712 0.001226 0.022085 0.000000 0.010161 0.000000
# 4 0.000000 0.000000 0.000000 0.028720 0.000000 0.002691
# 5 -0.000757 0.002710 0.010161 0.000000 0.024696 0.000000
# 6 0.000000 0.000000 0.000000 0.002691 0.000000 0.041233
#
#
# Mechanical properties :
#
#
# Convention : Reuss Voigt Hill
#
# Bulk Modulus (GPa) = 31.21639 55.87795 43.54717
# Shear Modulus (GPa) = 31.21016 40.07300 35.64158
#
# Velocity S-wave (km/s) = 3.47308 3.93543 3.71146
# Velocity P-wave (km/s) = 5.30544 6.49970 5.93270
#
# Compressibility (1/GPa) = 0.03203446
#
# Stress axis : x y z
#
# Youngs Moduli (GPa) = 147.80354 68.46948 45.27919
#
# Poissons Ratio (x) = 0.08388 0.25863
# Poissons Ratio (y) = 0.18106 -0.05552
# Poissons Ratio (z) = 0.84424 -0.08395
#
# Static dielectric constant tensor:
#      x y z
#    x 1.768520 0.000000 0.293350 
#    y 0.000000 2.010210 0.000000 
#    z 0.293350 0.000000 1.543130 
# 
# From -- ./inp_files/75603.got.cif
#   From: 2010.05.17/outbox.cif.g08.bks.cpg/sg14_38_cif.got.tgz:75603.got - 2010.06.03 17:49:19.
