data_PCOD9241746
_publ_section_title
;
Structure prediction by ZEFSAII (Michael W. Deem and Ramdas Pophale) SiO2 
 PCOD9241746
Probable space group: P 21/C
;
_chemical_formula_sum "Si O2"
_cell_formula_units_Z 20
_cell_length_a 9.475831
_cell_length_b 11.452071
_cell_length_c 9.044281
_cell_angle_alpha 90.000000
_cell_angle_beta 58.544649
_cell_angle_gamma 90.000000
_cell_volume 837.236943
_symmetry_space_group_name_H-M "P 21/C"
_symmetry_group_IT_number 14
_symmetry_cell_setting 'monoclinic'
loop_
_space_group_symop_operation_xyz
x,y,z
-x,1/2+y,1/2-z
-x,-y,-z
x,1/2-y,1/2+z
loop_
_atom_site_type_symbol
_atom_site_label
_atom_site_fract_x
_atom_site_fract_y
_atom_site_fract_z
Si Si1 0.401936 0.966843 0.331081
Si Si2 0.766811 0.891214 0.811139
Si Si3 0.681076 0.872146 0.355668
Si Si4 0.943733 0.409595 0.365749
Si Si5 0.913342 0.185152 0.553136
O O1 0.563022 0.891712 0.279770
O O2 0.241918 0.883923 0.428064
O O3 0.375093 0.035038 0.193251
O O4 0.395023 0.064713 0.461094
O O5 0.844695 0.971415 0.895832
O O6 0.704978 0.763142 0.882127
O O7 0.918690 0.866467 0.611946
O O8 0.860501 0.927669 0.229964
O O9 0.895528 0.320484 0.520950
O O10 0.918584 0.339072 0.224649
#
# Coordination Sequence:
#
# PCOD9241746 Si02
#       5
#     4   4   4   4   4
#     4  10  19  39  59  83 119 155 199 240 302 349
#     4  10  19  38  59  82 116 157 198 240 296 357
#     4  10  20  35  59  87 111 156 195 248 292 348
#     4  10  19  38  61  88 119 158 200 241 291 358
#     4  10  19  37  61  86 117 161 195 241 297 354
#
# _framework density 23.888102
#
# number of rings (size 3 to 8) (size 9 to 14) (size 15 to 20)
#    0.000    2.000    4.000    1.200    0.000    0.000 
#   14.400    7.000    0.000    0.000    0.000    0.000 
#    0.000    0.000    0.000    0.000    0.000    0.000 
#
# Total GULP energy -112006.809778 kJ/mol
# GULP energy per Si atom -5600.340489 kJ/mol
# Density = 2.383373 g / cm^3
# Si number density = 23.888102 Si / 1000 Ang^3
#
#
#
# Elastic Constant Matrix: (Units=GPa)
#
#
# Indices 1 2 3 4 5 6 
#
# 1 160.9687 70.4396 29.3142 0.0000 10.6232 0.0000
# 2 70.4396 157.2690 40.9618 0.0000 2.0100 0.0000
# 3 29.3142 40.9618 58.7278 0.0000 8.0631 0.0000
# 4 0.0000 0.0000 0.0000 30.9424 0.0000 15.9236
# 5 10.6232 2.0100 8.0631 0.0000 16.8797 0.0000
# 6 0.0000 0.0000 0.0000 15.9236 0.0000 21.6058
#
#
#
# Elastic Compliance Matrix: (Units=1/GPa)
#
#
# Indices 1 2 3 4 5 6 
#
# 1 0.008141 -0.003279 -0.001206 0.000000 -0.004157 0.000000
# 2 -0.003279 0.009141 -0.005215 0.000000 0.003466 0.000000
# 3 -0.001206 -0.005215 0.022557 0.000000 -0.009395 0.000000
# 4 0.000000 0.000000 0.000000 0.052065 0.000000 -0.038372
# 5 -0.004157 0.003466 -0.009395 0.000000 0.065934 0.000000
# 6 0.000000 0.000000 0.000000 -0.038372 0.000000 0.074564
#
#
# Mechanical properties :
#
#
# Convention : Reuss Voigt Hill
#
# Bulk Modulus (GPa) = 48.92493 73.15520 61.04007
# Shear Modulus (GPa) = 19.33364 29.63559 24.48461
#
# Velocity S-wave (km/s) = 2.84798 3.52604 3.20499
# Velocity P-wave (km/s) = 5.59821 6.87516 6.26928
#
# Compressibility (1/GPa) = 0.02043948
#
# Stress axis : x y z
#
# Youngs Moduli (GPa) = 122.83012 109.39413 44.33242
#
# Poissons Ratio (x) = 0.35873 0.05345
# Poissons Ratio (y) = 0.40279 0.23119
# Poissons Ratio (z) = 0.14810 0.57049
#
# Static dielectric constant tensor:
#      x y z
#    x 1.900280 0.000000 0.014020 
#    y 0.000000 1.890320 0.000000 
#    z 0.014020 0.000000 1.954140 
# 
# From -- ./inp_files/23422.got.cif
#   From: 2010.05.17/outbox.cif.g08.bks.cpg/sg14_12_cif.got.tgz:23422.got - 2010.06.03 17:49:19.
