data_PCOD9241938
_publ_section_title
;
Structure prediction by ZEFSAII (Michael W. Deem and Ramdas Pophale) SiO2 
 PCOD9241938
Probable space group: P 21/C
;
_chemical_formula_sum "Si O2"
_cell_formula_units_Z 28
_cell_length_a 8.857442
_cell_length_b 9.188665
_cell_length_c 18.261253
_cell_angle_alpha 90.000000
_cell_angle_beta 95.846354
_cell_angle_gamma 90.000000
_cell_volume 1478.517555
_symmetry_space_group_name_H-M "P 21/C"
_symmetry_group_IT_number 14
_symmetry_cell_setting 'monoclinic'
loop_
_space_group_symop_operation_xyz
x,y,z
-x,1/2+y,1/2-z
-x,-y,-z
x,1/2-y,1/2+z
loop_
_atom_site_type_symbol
_atom_site_label
_atom_site_fract_x
_atom_site_fract_y
_atom_site_fract_z
Si Si1 0.375528 0.193421 0.844244
Si Si2 0.034264 0.695243 0.419873
Si Si3 0.359061 0.813240 0.455843
Si Si4 0.829474 0.891209 0.035470
Si Si5 0.753832 0.805353 0.318817
Si Si6 0.422984 0.074483 0.095176
Si Si7 0.569990 0.451724 0.888334
O O1 0.270039 0.198873 0.911571
O O2 0.271807 0.172992 0.768179
O O3 0.491060 0.061215 0.865785
O O4 0.477217 0.335901 0.836622
O O5 0.946494 0.704294 0.493677
O O6 0.918684 0.751703 0.352811
O O7 0.187453 0.786450 0.424749
O O8 0.085220 0.524928 0.420466
O O9 0.455776 0.668048 0.445160
O O10 0.445920 0.936634 0.414543
O O11 0.365291 0.861504 0.540128
O O12 0.716239 0.955864 0.967285
O O13 0.643415 0.679800 0.345576
O O14 0.698344 0.953503 0.355463
#
# Coordination Sequence:
#
# PCOD9241938 Si02
#       7
#     4   4   4   4   4   4   4
#     4  12  20  38  63  90 114 155 204 245 289 353
#     4  10  21  39  57  86 120 154 190 240 299 349
#     4  10  19  38  62  86 116 149 197 251 292 340
#     4  10  20  36  65  90 108 150 208 252 276 342
#     4  10  24  39  55  87 129 156 183 243 309 364
#     4  10  19  38  67  88 110 154 207 251 284 339
#     4  10  22  37  60  88 113 152 201 245 293 345
#
# _framework density 18.937888999999998
#
# number of rings (size 3 to 8) (size 9 to 14) (size 15 to 20)
#    0.000    1.714    2.857    2.143    2.000    0.571 
#    2.571    0.000    3.143    0.000    0.000    0.000 
#    0.000    0.000    0.000    0.000    0.000    0.000 
#
# Total GULP energy -156284.189081 kJ/mol
# GULP energy per Si atom -5581.578181 kJ/mol
# Density = 1.889479 g / cm^3
# Si number density = 18.937889 Si / 1000 Ang^3
#
#
#
# Elastic Constant Matrix: (Units=GPa)
#
#
# Indices 1 2 3 4 5 6 
#
# 1 86.5772 15.8734 24.7180 0.0000 27.1410 0.0000
# 2 15.8734 56.5848 19.8870 0.0000 18.0401 0.0000
# 3 24.7180 19.8870 84.2559 0.0000 26.2763 0.0000
# 4 0.0000 0.0000 0.0000 14.4464 0.0000 5.8917
# 5 27.1410 18.0401 26.2763 0.0000 25.9764 0.0000
# 6 0.0000 0.0000 0.0000 5.8917 0.0000 20.7178
#
#
#
# Elastic Compliance Matrix: (Units=1/GPa)
#
#
# Indices 1 2 3 4 5 6 
#
# 1 0.017272 0.001137 0.000787 0.000000 -0.019632 0.000000
# 2 0.001137 0.022797 -0.000594 0.000000 -0.016420 0.000000
# 3 0.000787 -0.000594 0.017392 0.000000 -0.018003 0.000000
# 4 0.000000 0.000000 0.000000 0.078303 0.000000 -0.022267
# 5 -0.019632 -0.016420 -0.018003 0.000000 0.088623 0.000000
# 6 0.000000 0.000000 0.000000 -0.022267 0.000000 0.054600
#
#
# Mechanical properties :
#
#
# Convention : Reuss Voigt Hill
#
# Bulk Modulus (GPa) = 16.63283 38.70830 27.67057
# Shear Modulus (GPa) = 16.87103 23.35741 20.11422
#
# Velocity S-wave (km/s) = 2.98797 3.51575 3.26255
# Velocity P-wave (km/s) = 4.55037 6.07985 5.36984
#
# Compressibility (1/GPa) = 0.06012205
#
# Stress axis : x y z
#
# Youngs Moduli (GPa) = 57.89875 43.86528 57.49651
#
# Poissons Ratio (x) = -0.04988 -0.04525
# Poissons Ratio (y) = -0.06584 0.03414
# Poissons Ratio (z) = -0.04557 0.02605
#
# Static dielectric constant tensor:
#      x y z
#    x 1.659400 0.000000 -0.003660 
#    y 0.000000 1.668910 0.000000 
#    z -0.003660 0.000000 1.651160 
# 
# From -- ./inp_files/54931.got.cif
#   From: 2010.05.17/outbox.cif.g08.bks.cpg/sg14_28_cif.got.tgz:54931.got - 2010.06.03 17:49:19.
