data_PCOD9241725
_publ_section_title
;
Structure prediction by ZEFSAII (Michael W. Deem and Ramdas Pophale) SiO2 
 PCOD9241725
Probable space group: P 21/C
;
_chemical_formula_sum "Si O2"
_cell_formula_units_Z 28
_cell_length_a 10.993907
_cell_length_b 7.331248
_cell_length_c 16.776476
_cell_angle_alpha 90.000000
_cell_angle_beta 123.778279
_cell_angle_gamma 90.000000
_cell_volume 1123.915835
_symmetry_space_group_name_H-M "P 21/C"
_symmetry_group_IT_number 14
_symmetry_cell_setting 'monoclinic'
loop_
_space_group_symop_operation_xyz
x,y,z
-x,1/2+y,1/2-z
-x,-y,-z
x,1/2-y,1/2+z
loop_
_atom_site_type_symbol
_atom_site_label
_atom_site_fract_x
_atom_site_fract_y
_atom_site_fract_z
Si Si1 0.833539 0.918021 0.232984
Si Si2 0.800198 0.936480 0.915107
Si Si3 0.688192 0.252142 0.966580
Si Si4 0.661493 0.243787 0.141142
Si Si5 0.487440 0.487893 0.799366
Si Si6 0.808430 0.967794 0.396458
Si Si7 0.088666 0.497543 0.705794
O O1 0.887371 0.985566 0.340695
O O2 0.839269 0.698737 0.244126
O O3 0.685019 0.027902 0.158916
O O4 0.942558 0.977871 0.202689
O O5 0.750616 0.053273 0.972112
O O6 0.652705 0.956498 0.805701
O O7 0.835976 0.727832 0.944404
O O8 0.919815 0.004232 0.893522
O O9 0.660508 0.290356 0.048023
O O10 0.808143 0.378717 0.963902
O O11 0.539096 0.309711 0.867074
O O12 0.538671 0.344479 0.148709
O O13 0.806232 0.340276 0.228642
O O14 0.636952 0.531306 0.808324
#
# Coordination Sequence:
#
# PCOD9241725 Si02
#       7
#     4   4   4   4   4   4   4
#     4  11  21  39  66  86 113 164 208 248 295 354
#     4  10  19  37  60  87 113 160 203 239 288 361
#     4  10  22  36  60  89 123 156 188 250 307 350
#     4  11  22  40  58  91 124 153 195 253 306 353
#     4   9  20  37  60  84 121 154 194 244 290 359
#     4   9  21  34  59  84 116 150 202 237 298 356
#     4  10  22  38  66  86 116 156 215 249 288 354
#
# _framework density 24.9129
#
# number of rings (size 3 to 8) (size 9 to 14) (size 15 to 20)
#    0.857    1.143    1.429    3.000    2.000    1.143 
#    0.000    2.143    0.000    0.000    0.000    0.000 
#    0.000    0.000    0.000    0.000    0.000    0.000 
#
# Total GULP energy -156367.786757 kJ/mol
# GULP energy per Si atom -5584.563813 kJ/mol
# Density = 2.485620 g / cm^3
# Si number density = 24.912900 Si / 1000 Ang^3
#
#
#
# Elastic Constant Matrix: (Units=GPa)
#
#
# Indices 1 2 3 4 5 6 
#
# 1 95.4099 -0.3598 18.5091 0.0000 -16.2960 0.0000
# 2 -0.3598 92.9733 11.5025 0.0000 -7.3087 0.0000
# 3 18.5091 11.5025 57.4653 0.0000 -23.0741 0.0000
# 4 0.0000 0.0000 0.0000 21.8368 0.0000 -10.5631
# 5 -16.2960 -7.3087 -23.0741 0.0000 36.2621 0.0000
# 6 0.0000 0.0000 0.0000 -10.5631 0.0000 39.6581
#
#
#
# Elastic Compliance Matrix: (Units=1/GPa)
#
#
# Indices 1 2 3 4 5 6 
#
# 1 0.011592 0.000634 -0.002307 0.000000 0.003869 0.000000
# 2 0.000634 0.011096 -0.001898 0.000000 0.001314 0.000000
# 3 -0.002307 -0.001898 0.024117 0.000000 0.013927 0.000000
# 4 0.000000 0.000000 0.000000 0.052567 0.000000 0.014002
# 5 0.003869 0.001314 0.013927 0.000000 0.038442 0.000000
# 6 0.000000 0.000000 0.000000 0.014002 0.000000 0.028945
#
#
# Mechanical properties :
#
#
# Convention : Reuss Voigt Hill
#
# Bulk Modulus (GPa) = 25.21172 33.90578 29.55875
# Shear Modulus (GPa) = 26.72063 33.96454 30.34259
#
# Velocity S-wave (km/s) = 3.27855 3.69634 3.49370
# Velocity P-wave (km/s) = 4.94710 5.64416 5.30708
#
# Compressibility (1/GPa) = 0.03966409
#
# Stress axis : x y z
#
# Youngs Moduli (GPa) = 86.26719 90.11993 41.46507
#
# Poissons Ratio (x) = -0.05718 0.09566
# Poissons Ratio (y) = -0.05473 0.07869
# Poissons Ratio (z) = 0.19902 0.17103
#
# Static dielectric constant tensor:
#      x y z
#    x 2.002690 0.000000 0.055310 
#    y 0.000000 1.973820 0.000000 
#    z 0.055310 0.000000 1.976150 
# 
# From -- ./inp_files/56854.got.cif
#   From: 2010.05.17/outbox.cif.g08.bks.cpg/sg14_29_cif.got.tgz:56854.got - 2010.06.03 17:49:19.
