data_PCOD9241143
_publ_section_title
;
Structure prediction by ZEFSAII (Michael W. Deem and Ramdas Pophale) SiO2 
 PCOD9241143
Probable space group: P 21/C
;
_chemical_formula_sum "Si O2"
_cell_formula_units_Z 28
_cell_length_a 6.960985
_cell_length_b 13.456592
_cell_length_c 14.315776
_cell_angle_alpha 90.000000
_cell_angle_beta 106.361694
_cell_angle_gamma 90.000000
_cell_volume 1286.668885
_symmetry_space_group_name_H-M "P 21/C"
_symmetry_group_IT_number 14
_symmetry_cell_setting 'monoclinic'
loop_
_space_group_symop_operation_xyz
x,y,z
-x,1/2+y,1/2-z
-x,-y,-z
x,1/2-y,1/2+z
loop_
_atom_site_type_symbol
_atom_site_label
_atom_site_fract_x
_atom_site_fract_y
_atom_site_fract_z
Si Si1 0.972793 0.894548 0.614925
Si Si2 0.425807 0.042465 0.391985
Si Si3 0.459456 0.107652 0.730789
Si Si4 0.375319 0.536448 0.393901
Si Si5 0.019836 0.665414 0.320772
Si Si6 0.534789 0.669641 0.262426
Si Si7 0.020925 0.127180 0.595601
O O1 0.071216 0.846104 0.718191
O O2 0.033687 0.864533 0.520464
O O3 0.736945 0.876725 0.598456
O O4 0.968002 0.015312 0.619672
O O5 0.385800 0.950309 0.315047
O O6 0.500000 0.000000 0.500000
O O7 0.557336 0.103510 0.334612
O O8 0.523020 0.217843 0.764546
O O9 0.260432 0.124688 0.641426
O O10 0.394522 0.047095 0.814785
O O11 0.500000 0.500000 0.500000
O O12 0.471445 0.631767 0.355396
O O13 0.150874 0.576829 0.385031
O O14 0.778308 0.653405 0.295965
O O15 0.062014 0.776266 0.363376
#
# Coordination Sequence:
#
# PCOD9241143 Si02
#       7
#     4   4   4   4   4   4   4
#     4  10  20  38  62  91 123 162 209 262 317 370
#     4  10  19  34  61  88 117 161 201 255 316 361
#     4  10  20  41  59  87 128 156 210 267 302 384
#     4  11  24  44  63  90 130 172 209 263 323 371
#     4  10  22  43  62  93 127 165 212 258 316 384
#     4   9  23  40  61  94 123 163 215 253 315 384
#     4  10  20  37  63  93 121 162 208 258 311 376
#
# _framework density 21.761621999999999
#
# number of rings (size 3 to 8) (size 9 to 14) (size 15 to 20)
#    0.000    2.000    2.857    0.000    2.000    1.714 
#   10.286    0.000    0.000    0.000    0.000    0.000 
#    0.000    0.000    0.000    0.000    0.000    0.000 
#
# Total GULP energy -155910.332690 kJ/mol
# GULP energy per Si atom -5568.226167 kJ/mol
# Density = 2.171209 g / cm^3
# Si number density = 21.761622 Si / 1000 Ang^3
#
#
#
# Elastic Constant Matrix: (Units=GPa)
#
#
# Indices 1 2 3 4 5 6 
#
# 1 52.3616 11.4508 30.2402 0.0000 -7.7126 0.0000
# 2 11.4508 121.0169 73.0568 0.0000 -14.9868 0.0000
# 3 30.2402 73.0568 159.9490 0.0000 -4.1468 0.0000
# 4 0.0000 0.0000 0.0000 26.8358 0.0000 -7.4242
# 5 -7.7126 -14.9868 -4.1468 0.0000 28.6434 0.0000
# 6 0.0000 0.0000 0.0000 -7.4242 0.0000 29.7969
#
#
#
# Elastic Compliance Matrix: (Units=1/GPa)
#
#
# Indices 1 2 3 4 5 6 
#
# 1 0.022429 0.001522 -0.004776 0.000000 0.006144 0.000000
# 2 0.001522 0.012352 -0.005773 0.000000 0.006037 0.000000
# 3 -0.004776 -0.005773 0.009717 0.000000 -0.002900 0.000000
# 4 0.000000 0.000000 0.000000 0.040022 0.000000 0.009972
# 5 0.006144 0.006037 -0.002900 0.000000 0.039305 0.000000
# 6 0.000000 0.000000 0.000000 0.009972 0.000000 0.036045
#
#
# Mechanical properties :
#
#
# Convention : Reuss Voigt Hill
#
# Bulk Modulus (GPa) = 37.81769 62.53591 50.17680
# Shear Modulus (GPa) = 26.77534 31.62718 29.20126
#
# Velocity S-wave (km/s) = 3.51150 3.81641 3.66713
# Velocity P-wave (km/s) = 5.81865 6.94400 6.40609
#
# Compressibility (1/GPa) = 0.02644265
#
# Stress axis : x y z
#
# Youngs Moduli (GPa) = 44.58613 80.95828 102.91599
#
# Poissons Ratio (x) = -0.12322 0.49156
# Poissons Ratio (y) = -0.06786 0.59414
# Poissons Ratio (z) = 0.21296 0.46738
#
# Static dielectric constant tensor:
#      x y z
#    x 2.000970 0.000000 0.031940 
#    y 0.000000 1.833280 0.000000 
#    z 0.031940 0.000000 1.773040 
# 
# From -- ./inp_files/25323.got.cif
#   From: 2010.05.17/outbox.cif.g08.bks.cpg/sg14_13_cif.got.tgz:25323.got - 2010.06.03 17:49:19.
