data_PCOD9241583
_publ_section_title
;
Structure prediction by ZEFSAII (Michael W. Deem and Ramdas Pophale) SiO2 
 PCOD9241583
Probable space group: P 21/C
;
_chemical_formula_sum "Si O2"
_cell_formula_units_Z 24
_cell_length_a 6.672394
_cell_length_b 9.497096
_cell_length_c 18.781956
_cell_angle_alpha 90.000000
_cell_angle_beta 132.516842
_cell_angle_gamma 90.000000
_cell_volume 877.257724
_symmetry_space_group_name_H-M "P 21/C"
_symmetry_group_IT_number 14
_symmetry_cell_setting 'monoclinic'
loop_
_space_group_symop_operation_xyz
x,y,z
-x,1/2+y,1/2-z
-x,-y,-z
x,1/2-y,1/2+z
loop_
_atom_site_type_symbol
_atom_site_label
_atom_site_fract_x
_atom_site_fract_y
_atom_site_fract_z
Si Si1 0.260606 0.771572 0.640742
Si Si2 0.910013 0.164843 0.654497
Si Si3 0.595556 0.629908 0.395506
Si Si4 0.615978 0.910326 0.334530
Si Si5 0.837864 0.116256 0.030643
Si Si6 0.978566 0.631082 0.199991
O O1 0.418556 0.664176 0.730133
O O2 0.220903 0.702462 0.555297
O O3 0.994145 0.805633 0.624707
O O4 0.401092 0.923023 0.661738
O O5 0.090001 0.113012 0.631150
O O6 0.750477 0.292239 0.577479
O O7 0.076811 0.246615 0.756355
O O8 0.817588 0.015064 0.664112
O O9 0.596492 0.800773 0.395763
O O10 0.696345 0.533076 0.484175
O O11 0.296074 0.589358 0.294863
O O12 0.834365 0.597582 0.393727
#
# Coordination Sequence:
#
# PCOD9241583 Si02
#       6
#     4   4   4   4   4   4
#     4  10  19  36  62  85 114 148 194 238 280 339
#     4  10  22  36  56  82 113 147 189 233 285 337
#     4   9  20  37  58  84 114 148 190 231 288 339
#     4   9  19  35  59  87 113 154 193 230 280 344
#     4  10  20  37  61  90 114 143 190 248 288 330
#     4  10  22  39  56  80 114 157 190 225 285 355
#
# _framework density 27.357982
#
# number of rings (size 3 to 8) (size 9 to 14) (size 15 to 20)
#    0.000    2.333    0.000    3.000    0.000   13.333 
#    0.000    1.667    0.000   12.000    0.000    0.000 
#    0.000    0.000    0.000    0.000    0.000    0.000 
#
# Total GULP energy -134135.471914 kJ/mol
# GULP energy per Si atom -5588.977996 kJ/mol
# Density = 2.729571 g / cm^3
# Si number density = 27.357982 Si / 1000 Ang^3
#
#
#
# Elastic Constant Matrix: (Units=GPa)
#
#
# Indices 1 2 3 4 5 6 
#
# 1 66.4698 39.2211 17.5100 0.0000 -6.9330 0.0000
# 2 39.2211 241.8527 62.4663 0.0000 -22.3533 0.0000
# 3 17.5100 62.4663 111.9866 0.0000 -21.6615 0.0000
# 4 0.0000 0.0000 0.0000 60.0098 0.0000 -9.3447
# 5 -6.9330 -22.3533 -21.6615 0.0000 49.2270 0.0000
# 6 0.0000 0.0000 0.0000 -9.3447 0.0000 48.0634
#
#
#
# Elastic Compliance Matrix: (Units=1/GPa)
#
#
# Indices 1 2 3 4 5 6 
#
# 1 0.016823 -0.002355 -0.001165 0.000000 0.000788 0.000000
# 2 -0.002355 0.005216 -0.002347 0.000000 0.001004 0.000000
# 3 -0.001165 -0.002347 0.011130 0.000000 0.003668 0.000000
# 4 0.000000 0.000000 0.000000 0.017184 0.000000 0.003341
# 5 0.000788 0.001004 0.003668 0.000000 0.022495 0.000000
# 6 0.000000 0.000000 0.000000 0.003341 0.000000 0.021455
#
#
# Mechanical properties :
#
#
# Convention : Reuss Voigt Hill
#
# Bulk Modulus (GPa) = 46.64956 73.18931 59.91944
# Shear Modulus (GPa) = 44.17714 51.53416 47.85565
#
# Velocity S-wave (km/s) = 4.02279 4.34487 4.18693
# Velocity P-wave (km/s) = 6.21818 7.20979 6.73226
#
# Compressibility (1/GPa) = 0.02143643
#
# Stress axis : x y z
#
# Youngs Moduli (GPa) = 59.44356 191.73501 89.84450
#
# Poissons Ratio (x) = 0.45144 0.10464
# Poissons Ratio (y) = 0.13996 0.21085
# Poissons Ratio (z) = 0.06923 0.44998
#
# Static dielectric constant tensor:
#      x y z
#    x 2.298410 0.000000 0.059590 
#    y 0.000000 2.160570 0.000000 
#    z 0.059590 0.000000 2.109070 
# 
# From -- ./inp_files/64880.got.cif
#   From: 2010.05.17/outbox.cif.g08.bks.cpg/sg14_33_cif.got.tgz:64880.got - 2010.06.03 17:49:19.
