data_PCOD9241176
_publ_section_title
;
Structure prediction by ZEFSAII (Michael W. Deem and Ramdas Pophale) SiO2 
 PCOD9241176
Probable space group: P 21/C
;
_chemical_formula_sum "Si O2"
_cell_formula_units_Z 32
_cell_length_a 13.600571
_cell_length_b 12.627278
_cell_length_c 13.705102
_cell_angle_alpha 90.000000
_cell_angle_beta 34.995382
_cell_angle_gamma 90.000000
_cell_volume 1349.865390
_symmetry_space_group_name_H-M "P 21/C"
_symmetry_group_IT_number 14
_symmetry_cell_setting 'monoclinic'
loop_
_space_group_symop_operation_xyz
x,y,z
-x,1/2+y,1/2-z
-x,-y,-z
x,1/2-y,1/2+z
loop_
_atom_site_type_symbol
_atom_site_label
_atom_site_fract_x
_atom_site_fract_y
_atom_site_fract_z
Si Si1 0.136251 0.581851 0.677823
Si Si2 0.193543 0.581412 0.196012
Si Si3 0.192027 0.918387 0.906369
Si Si4 0.784532 0.641807 0.915040
Si Si5 0.891392 0.645520 0.314737
Si Si6 0.362856 0.365200 0.294746
Si Si7 0.553279 0.229613 0.004520
Si Si8 0.448598 0.764579 0.209937
O O1 0.117489 0.565978 0.575286
O O2 0.157331 0.462476 0.699912
O O3 0.302089 0.653188 0.565526
O O4 0.945755 0.624266 0.858144
O O5 0.096218 0.583622 0.380022
O O6 0.241413 0.463986 0.125195
O O7 0.082481 0.632047 0.199569
O O8 0.355387 0.655962 0.082249
O O9 0.277416 0.802838 0.847937
O O10 0.323228 0.018216 0.787032
O O11 0.853839 0.742601 0.796372
O O12 0.599110 0.677283 0.104789
O O13 0.779039 0.651852 0.505758
O O14 0.388222 0.267518 0.199786
O O15 0.535549 0.353177 0.220253
O O16 0.519097 0.188640 0.923602
#
# Coordination Sequence:
#
# PCOD9241176 Si02
#       8
#     4   4   4   4   4   4   4   4
#     4  10  20  35  58  80 116 150 186 228 287 339
#     4  10  20  34  60  86 109 145 190 240 282 340
#     4  10  20  36  56  87 111 140 193 238 284 333
#     4  10  19  35  53  83 114 147 182 232 281 334
#     4   9  20  35  53  85 116 150 184 235 285 334
#     4  10  20  34  55  80 117 143 182 235 280 331
#     4  11  20  36  58  86 109 152 190 231 289 338
#     4  10  21  35  56  83 112 146 189 233 281 342
#
# _framework density 23.706066
#
# number of rings (size 3 to 8) (size 9 to 14) (size 15 to 20)
#    0.000    2.000    2.500    1.500    0.000    7.500 
#    0.000    5.625    0.000    0.000    3.250    5.250 
#    0.000    0.000    0.000    0.000    0.000    0.000 
#
# Total GULP energy -178256.548207 kJ/mol
# GULP energy per Si atom -5570.517131 kJ/mol
# Density = 2.365211 g / cm^3
# Si number density = 23.706066 Si / 1000 Ang^3
#
#
#
# Elastic Constant Matrix: (Units=GPa)
#
#
# Indices 1 2 3 4 5 6 
#
# 1 72.5586 16.3227 -11.1915 0.0000 13.2692 0.0000
# 2 16.3227 101.6563 -21.4642 0.0000 -8.0633 0.0000
# 3 -11.1915 -21.4642 32.2631 0.0000 -2.7638 0.0000
# 4 0.0000 0.0000 0.0000 26.9953 0.0000 -5.8269
# 5 13.2692 -8.0633 -2.7638 0.0000 28.0999 0.0000
# 6 0.0000 0.0000 0.0000 -5.8269 0.0000 27.3445
#
#
#
# Elastic Compliance Matrix: (Units=1/GPa)
#
#
# Indices 1 2 3 4 5 6 
#
# 1 0.016355 -0.002585 0.003256 0.000000 -0.008144 0.000000
# 2 -0.002585 0.012333 0.007782 0.000000 0.005525 0.000000
# 3 0.003256 0.007782 0.037679 0.000000 0.004401 0.000000
# 4 0.000000 0.000000 0.000000 0.038830 0.000000 0.008274
# 5 -0.008144 0.005525 0.004401 0.000000 0.041452 0.000000
# 6 0.000000 0.000000 0.000000 0.008274 0.000000 0.038334
#
#
# Mechanical properties :
#
#
# Convention : Reuss Voigt Hill
#
# Bulk Modulus (GPa) = 12.00848 19.31245 15.66046
# Shear Modulus (GPa) = 25.53192 31.34201 28.43697
#
# Velocity S-wave (km/s) = 3.28536 3.64003 3.46723
# Velocity P-wave (km/s) = 4.41226 5.08239 4.75913
#
# Compressibility (1/GPa) = 0.08327447
#
# Stress axis : x y z
#
# Youngs Moduli (GPa) = 61.14331 81.08041 26.53998
#
# Poissons Ratio (x) = 0.20956 -0.08642
# Poissons Ratio (y) = 0.15803 -0.20653
# Poissons Ratio (z) = -0.19909 -0.63097
#
# Static dielectric constant tensor:
#      x y z
#    x 1.963480 0.000000 -0.008990 
#    y 0.000000 1.959290 0.000000 
#    z -0.008990 0.000000 2.025990 
# 
# From -- ./inp_files/34242.got.cif
#   From: 2010.05.17/outbox.cif.g08.bks.cpg/sg14_18_cif.got.tgz:34242.got - 2010.06.03 17:49:19.
