data_PCOD9241937
_publ_section_title
;
Structure prediction by ZEFSAII (Michael W. Deem and Ramdas Pophale) SiO2 
 PCOD9241937
Probable space group: P 21/C
;
_chemical_formula_sum "Si O2"
_cell_formula_units_Z 28
_cell_length_a 12.503511
_cell_length_b 7.017456
_cell_length_c 17.313267
_cell_angle_alpha 90.000000
_cell_angle_beta 118.767785
_cell_angle_gamma 90.000000
_cell_volume 1331.622058
_symmetry_space_group_name_H-M "P 21/C"
_symmetry_group_IT_number 14
_symmetry_cell_setting 'monoclinic'
loop_
_space_group_symop_operation_xyz
x,y,z
-x,1/2+y,1/2-z
-x,-y,-z
x,1/2-y,1/2+z
loop_
_atom_site_type_symbol
_atom_site_label
_atom_site_fract_x
_atom_site_fract_y
_atom_site_fract_z
Si Si1 0.425818 0.877887 0.266468
Si Si2 0.927056 0.314714 0.877597
Si Si3 0.178018 0.074798 0.520640
Si Si4 0.307504 0.762269 0.994304
Si Si5 0.720789 0.096886 0.187304
Si Si6 0.805696 0.498932 0.416658
Si Si7 0.441247 0.223956 0.837364
O O1 0.310958 0.937198 0.174206
O O2 0.441676 0.048444 0.331536
O O3 0.386430 0.691572 0.298595
O O4 0.532607 0.836837 0.242865
O O5 0.847138 0.355231 0.774154
O O6 0.065492 0.384388 0.923699
O O7 0.915180 0.096819 0.905029
O O8 0.864921 0.439444 0.924119
O O9 0.201620 0.278476 0.568244
O O10 0.281317 0.955585 0.511883
O O11 0.442273 0.824853 0.069008
O O12 0.210867 0.889521 0.008460
O O13 0.286832 0.807128 0.898325
O O14 0.680900 0.875626 0.174216
#
# Coordination Sequence:
#
# PCOD9241937 Si02
#       7
#     4   4   4   4   4   4   4
#     4  10  21  33  60  87 106 150 201 240 288 343
#     4   9  20  37  62  86 109 156 203 247 286 337
#     4  10  19  38  62  85 115 151 199 251 285 342
#     4  10  24  36  54  88 124 154 189 235 303 357
#     4  11  22  40  54  85 126 149 197 242 293 367
#     4   9  19  36  59  86 113 150 197 242 291 345
#     4  11  21  36  59  84 115 157 191 247 292 347
#
# _framework density 21.026987999999999
#
# number of rings (size 3 to 8) (size 9 to 14) (size 15 to 20)
#    0.000    2.000    1.429    2.571    2.000    1.714 
#    2.571    0.000    0.000    0.000    0.000    0.000 
#    0.000    0.000    0.000    0.000    0.000    0.000 
#
# Total GULP energy -156231.838015 kJ/mol
# GULP energy per Si atom -5579.708501 kJ/mol
# Density = 2.097913 g / cm^3
# Si number density = 21.026988 Si / 1000 Ang^3
#
#
#
# Elastic Constant Matrix: (Units=GPa)
#
#
# Indices 1 2 3 4 5 6 
#
# 1 32.6577 8.6208 23.6865 0.0000 1.4190 0.0000
# 2 8.6208 71.9657 0.9112 0.0000 8.9736 0.0000
# 3 23.6865 0.9112 112.6767 0.0000 0.2204 0.0000
# 4 0.0000 0.0000 0.0000 19.8080 0.0000 7.2224
# 5 1.4190 8.9736 0.2204 0.0000 8.3617 0.0000
# 6 0.0000 0.0000 0.0000 7.2224 0.0000 23.1802
#
#
#
# Elastic Compliance Matrix: (Units=1/GPa)
#
#
# Indices 1 2 3 4 5 6 
#
# 1 0.037486 -0.004184 -0.007843 0.000000 -0.001665 0.000000
# 2 -0.004184 0.016510 0.000779 0.000000 -0.017029 0.000000
# 3 -0.007843 0.000779 0.010517 0.000000 0.000218 0.000000
# 4 0.000000 0.000000 0.000000 0.056955 0.000000 -0.017746
# 5 -0.001665 -0.017029 0.000218 0.000000 0.138144 0.000000
# 6 0.000000 0.000000 0.000000 -0.017746 0.000000 0.048669
#
#
# Mechanical properties :
#
#
# Convention : Reuss Voigt Hill
#
# Bulk Modulus (GPa) = 23.79914 31.52636 27.66275
# Shear Modulus (GPa) = 14.50189 22.54210 18.52200
#
# Velocity S-wave (km/s) = 2.62903 3.27778 2.97116
# Velocity P-wave (km/s) = 4.53416 5.41765 4.99548
#
# Compressibility (1/GPa) = 0.04201832
#
# Stress axis : x y z
#
# Youngs Moduli (GPa) = 26.67664 60.56868 95.08434
#
# Poissons Ratio (x) = 0.25339 0.74576
# Poissons Ratio (y) = 0.11160 -0.07409
# Poissons Ratio (z) = 0.20923 -0.04720
#
# Static dielectric constant tensor:
#      x y z
#    x 1.768940 0.000000 0.030830 
#    y 0.000000 1.815890 0.000000 
#    z 0.030830 0.000000 1.736390 
# 
# From -- ./inp_files/58652.got.cif
#   From: 2010.05.17/outbox.cif.g08.bks.cpg/sg14_30_cif.got.tgz:58652.got - 2010.06.03 17:49:19.
