data_PCOD9241833
_publ_section_title
;
Structure prediction by ZEFSAII (Michael W. Deem and Ramdas Pophale) SiO2 
 PCOD9241833
Probable space group: P 21/C
;
_chemical_formula_sum "Si O2"
_cell_formula_units_Z 32
_cell_length_a 13.901908
_cell_length_b 12.198799
_cell_length_c 17.399031
_cell_angle_alpha 90.000000
_cell_angle_beta 145.914027
_cell_angle_gamma 90.000000
_cell_volume 1653.646855
_symmetry_space_group_name_H-M "P 21/C"
_symmetry_group_IT_number 14
_symmetry_cell_setting 'monoclinic'
loop_
_space_group_symop_operation_xyz
x,y,z
-x,1/2+y,1/2-z
-x,-y,-z
x,1/2-y,1/2+z
loop_
_atom_site_type_symbol
_atom_site_label
_atom_site_fract_x
_atom_site_fract_y
_atom_site_fract_z
Si Si1 0.295371 0.741254 0.088537
Si Si2 0.609661 0.012814 0.285331
Si Si3 0.834276 0.606515 0.384703
Si Si4 0.620264 0.691914 0.697146
Si Si5 0.772774 0.908926 0.016445
Si Si6 0.990650 0.388597 0.649978
Si Si7 0.431119 0.591127 0.800656
Si Si8 0.668815 0.778800 0.565672
O O1 0.291756 0.620878 0.122589
O O2 0.456859 0.763606 0.138277
O O3 0.325517 0.821670 0.180669
O O4 0.128624 0.781193 0.932601
O O5 0.665400 0.930157 0.255284
O O6 0.587195 0.942089 0.347748
O O7 0.417944 0.049656 0.132680
O O8 0.772362 0.726253 0.318430
O O9 0.857255 0.621128 0.490672
O O10 0.982738 0.579080 0.422507
O O11 0.684595 0.517260 0.266914
O O12 0.599848 0.709463 0.592842
O O13 0.744218 0.807523 0.053835
O O14 0.885471 0.012345 0.119651
O O15 0.174843 0.358923 0.806514
O O16 0.514094 0.649086 0.928657
#
# Coordination Sequence:
#
# PCOD9241833 Si02
#       8
#     4   4   4   4   4   4   4   4
#     4  11  19  40  62  90 112 162 210 249 285 371
#     4  10  19  37  69  84 111 163 217 243 284 366
#     4  10  20  40  66  88 115 164 212 256 286 370
#     4  10  20  38  59  91 123 158 202 252 306 366
#     4  11  19  40  60  85 121 160 200 255 303 364
#     4  11  24  38  60  92 128 151 203 260 321 349
#     4  10  19  37  65  86 111 157 215 240 289 363
#     4  11  25  39  57  94 131 158 193 261 323 366
#
# _framework density 19.35117
#
# number of rings (size 3 to 8) (size 9 to 14) (size 15 to 20)
#    0.000    1.500    7.500    1.125    0.000    3.500 
#    2.250    3.750    0.000    0.000    0.000    0.000 
#    0.000    0.000    0.000    0.000    0.000    0.000 
#
# Total GULP energy -178301.171678 kJ/mol
# GULP energy per Si atom -5571.911615 kJ/mol
# Density = 1.930713 g / cm^3
# Si number density = 19.351170 Si / 1000 Ang^3
#
#
#
# Elastic Constant Matrix: (Units=GPa)
#
#
# Indices 1 2 3 4 5 6 
#
# 1 44.5404 25.3003 9.1547 0.0000 -14.8313 0.0000
# 2 25.3003 90.9645 14.7736 0.0000 -16.7756 0.0000
# 3 9.1547 14.7736 49.8528 0.0000 -7.1575 0.0000
# 4 0.0000 0.0000 0.0000 21.0782 0.0000 1.8364
# 5 -14.8313 -16.7756 -7.1575 0.0000 20.0481 0.0000
# 6 0.0000 0.0000 0.0000 1.8364 0.0000 29.5311
#
#
#
# Elastic Compliance Matrix: (Units=1/GPa)
#
#
# Indices 1 2 3 4 5 6 
#
# 1 0.031964 -0.005168 -0.001649 0.000000 0.018734 0.000000
# 2 -0.005168 0.014116 -0.002200 0.000000 0.007204 0.000000
# 3 -0.001649 -0.002200 0.021686 0.000000 0.004682 0.000000
# 4 0.000000 0.000000 0.000000 0.047701 0.000000 -0.002966
# 5 0.018734 0.007204 0.004682 0.000000 0.071438 0.000000
# 6 0.000000 0.000000 0.000000 -0.002966 0.000000 0.034047
#
#
# Mechanical properties :
#
#
# Convention : Reuss Voigt Hill
#
# Bulk Modulus (GPa) = 20.10719 31.53498 25.82108
# Shear Modulus (GPa) = 19.56467 23.20675 21.38571
#
# Velocity S-wave (km/s) = 3.18312 3.46677 3.32797
# Velocity P-wave (km/s) = 4.89111 5.68825 5.30467
#
# Compressibility (1/GPa) = 0.04973345
#
# Stress axis : x y z
#
# Youngs Moduli (GPa) = 31.28547 70.83950 46.11283
#
# Poissons Ratio (x) = 0.36607 0.07602
# Poissons Ratio (y) = 0.16167 0.10145
# Poissons Ratio (z) = 0.05158 0.15585
#
# Static dielectric constant tensor:
#      x y z
#    x 1.711650 0.000000 -0.009570 
#    y 0.000000 1.714510 0.000000 
#    z -0.009570 0.000000 1.679580 
# 
# From -- ./inp_files/59417.got.cif
#   From: 2010.05.17/outbox.cif.g08.bks.cpg/sg14_30_cif.got.tgz:59417.got - 2010.06.03 17:49:19.
