data_PCOD9241277
_publ_section_title
;
Structure prediction by ZEFSAII (Michael W. Deem and Ramdas Pophale) SiO2 
 PCOD9241277
Probable space group: P 21/C
;
_chemical_formula_sum "Si O2"
_cell_formula_units_Z 32
_cell_length_a 10.832526
_cell_length_b 10.455994
_cell_length_c 14.449169
_cell_angle_alpha 90.000000
_cell_angle_beta 120.476641
_cell_angle_gamma 90.000000
_cell_volume 1410.465836
_symmetry_space_group_name_H-M "P 21/C"
_symmetry_group_IT_number 14
_symmetry_cell_setting 'monoclinic'
loop_
_space_group_symop_operation_xyz
x,y,z
-x,1/2+y,1/2-z
-x,-y,-z
x,1/2-y,1/2+z
loop_
_atom_site_type_symbol
_atom_site_label
_atom_site_fract_x
_atom_site_fract_y
_atom_site_fract_z
Si Si1 0.497567 0.275639 0.618582
Si Si2 0.117372 0.341287 0.081298
Si Si3 0.341049 0.468609 0.296897
Si Si4 0.883424 0.450359 0.647306
Si Si5 0.691765 0.298931 0.030795
Si Si6 0.611223 0.152201 0.835654
Si Si7 0.897438 0.986181 0.608381
Si Si8 0.797703 0.915454 0.941193
O O1 0.610054 0.385737 0.691833
O O2 0.551753 0.225663 0.540618
O O3 0.530002 0.172214 0.709407
O O4 0.340039 0.336674 0.569018
O O5 0.252308 0.412013 0.178304
O O6 0.128333 0.189151 0.095628
O O7 0.986533 0.405257 0.085665
O O8 0.111492 0.373492 0.970096
O O9 0.236271 0.465490 0.343861
O O10 0.490871 0.397066 0.361849
O O11 0.807081 0.313022 0.601981
O O12 0.901272 0.528147 0.559314
O O13 0.016968 0.445271 0.767591
O O14 0.751409 0.439832 0.073796
O O15 0.669824 0.275076 0.912777
O O16 0.728243 0.041317 0.869387
#
# Coordination Sequence:
#
# PCOD9241277 Si02
#       8
#     4   4   4   4   4   4   4   4
#     4  10  19  35  62  84 115 151 181 238 295 339
#     4  10  20  38  59  81 109 152 196 229 278 342
#     4   9  17  34  59  81 109 148 194 229 280 349
#     4   9  20  36  56  81 109 152 192 237 282 332
#     4  10  21  38  55  86 113 147 196 235 284 346
#     4  10  19  35  58  87 117 147 185 238 295 339
#     4  10  22  38  58  79 110 157 195 232 275 336
#     4  10  20  36  58  87 115 144 189 236 289 342
#
# _framework density 22.687541
#
# number of rings (size 3 to 8) (size 9 to 14) (size 15 to 20)
#    0.000    2.250    1.250    1.500    1.750    4.000 
#    2.250    1.875    0.000    0.000    0.000    0.000 
#    0.000    0.000    0.000    0.000    0.000    0.000 
#
# Total GULP energy -178583.670775 kJ/mol
# GULP energy per Si atom -5580.739712 kJ/mol
# Density = 2.263590 g / cm^3
# Si number density = 22.687541 Si / 1000 Ang^3
#
#
#
# Elastic Constant Matrix: (Units=GPa)
#
#
# Indices 1 2 3 4 5 6 
#
# 1 27.8089 10.1608 1.5150 0.0000 -2.3439 0.0000
# 2 10.1608 24.3409 7.7185 0.0000 -4.2429 0.0000
# 3 1.5150 7.7185 78.8323 0.0000 -9.8181 0.0000
# 4 0.0000 0.0000 0.0000 26.8814 0.0000 1.5597
# 5 -2.3439 -4.2429 -9.8181 0.0000 17.8736 0.0000
# 6 0.0000 0.0000 0.0000 1.5597 0.0000 36.4433
#
#
#
# Elastic Compliance Matrix: (Units=1/GPa)
#
#
# Indices 1 2 3 4 5 6 
#
# 1 0.042565 -0.017791 0.001173 0.000000 0.002003 0.000000
# 2 -0.017791 0.051031 -0.003689 0.000000 0.007755 0.000000
# 3 0.001173 -0.003689 0.013884 0.000000 0.006905 0.000000
# 4 0.000000 0.000000 0.000000 0.037293 0.000000 -0.001596
# 5 0.002003 0.007755 0.006905 0.000000 0.061845 0.000000
# 6 0.000000 0.000000 0.000000 -0.001596 0.000000 0.027508
#
#
# Mechanical properties :
#
#
# Convention : Reuss Voigt Hill
#
# Bulk Modulus (GPa) = 14.95510 18.86343 16.90927
# Shear Modulus (GPa) = 16.83342 23.67884 20.25613
#
# Velocity S-wave (km/s) = 2.72686 3.23413 2.99127
# Velocity P-wave (km/s) = 4.06454 4.72002 4.40449
#
# Compressibility (1/GPa) = 0.06686682
#
# Stress axis : x y z
#
# Youngs Moduli (GPa) = 23.49343 19.59585 72.02684
#
# Poissons Ratio (x) = 0.34863 -0.08451
# Poissons Ratio (y) = 0.41798 0.26569
# Poissons Ratio (z) = -0.02757 0.07229
#
# Static dielectric constant tensor:
#      x y z
#    x 1.919030 0.000000 -0.031690 
#    y 0.000000 1.849870 0.000000 
#    z -0.031690 0.000000 1.837910 
# 
# From -- ./inp_files/44414.got.cif
#   From: 2010.05.17/outbox.cif.g08.bks.cpg/sg14_23_cif.got.tgz:44414.got - 2010.06.03 17:49:19.
