data_PCOD9241892
_publ_section_title
;
Structure prediction by ZEFSAII (Michael W. Deem and Ramdas Pophale) SiO2 
 PCOD9241892
Probable space group: P 21/C
;
_chemical_formula_sum "Si O2"
_cell_formula_units_Z 28
_cell_length_a 14.189633
_cell_length_b 10.816166
_cell_length_c 17.603038
_cell_angle_alpha 90.000000
_cell_angle_beta 30.393230
_cell_angle_gamma 90.000000
_cell_volume 1366.860368
_symmetry_space_group_name_H-M "P 21/C"
_symmetry_group_IT_number 14
_symmetry_cell_setting 'monoclinic'
loop_
_space_group_symop_operation_xyz
x,y,z
-x,1/2+y,1/2-z
-x,-y,-z
x,1/2-y,1/2+z
loop_
_atom_site_type_symbol
_atom_site_label
_atom_site_fract_x
_atom_site_fract_y
_atom_site_fract_z
Si Si1 0.454290 0.758314 0.706413
Si Si2 0.684126 0.647956 0.928432
Si Si3 0.098619 0.871326 0.911990
Si Si4 0.829045 0.711707 0.192716
Si Si5 0.728546 0.367236 0.863206
Si Si6 0.555995 0.270578 0.612250
Si Si7 0.413830 0.506813 0.644989
O O1 0.651209 0.804457 0.536493
O O2 0.310061 0.870402 0.794345
O O3 0.438769 0.728597 0.805287
O O4 0.402909 0.640792 0.689394
O O5 0.815196 0.736337 0.787501
O O6 0.748038 0.507873 0.876792
O O7 0.475424 0.649698 0.035395
O O8 0.118577 0.845685 0.808276
O O9 0.000907 0.761658 0.026400
O O10 0.000000 0.000000 0.000000
O O11 0.645999 0.771179 0.279415
O O12 0.782326 0.566558 0.222707
O O13 0.714508 0.281258 0.946681
O O14 0.540838 0.418469 0.610253
O O15 0.500000 0.500000 0.500000
#
# Coordination Sequence:
#
# PCOD9241892 Si02
#       7
#     4   4   4   4   4   4   4
#     4  11  22  34  59  87 114 149 192 245 290 333
#     4   9  16  31  56  82 106 145 194 228 265 346
#     4  11  21  35  59  87 114 149 192 236 287 351
#     4   9  19  36  56  84 110 150 191 230 287 347
#     4   9  17  32  57  80 111 149 185 232 281 340
#     4   9  22  36  58  85 114 146 198 244 290 335
#     4  10  19  38  59  83 111 154 199 230 282 363
#
# _framework density 20.484901000000001
#
# number of rings (size 3 to 8) (size 9 to 14) (size 15 to 20)
#    0.857    1.429    2.857    0.857    4.000    0.571 
#    0.000    1.429    6.286    0.000    0.000    0.000 
#    0.000    0.000    0.000    0.000    0.000    0.000 
#
# Total GULP energy -155869.021361 kJ/mol
# GULP energy per Si atom -5566.750763 kJ/mol
# Density = 2.043828 g / cm^3
# Si number density = 20.484901 Si / 1000 Ang^3
#
#
#
# Elastic Constant Matrix: (Units=GPa)
#
#
# Indices 1 2 3 4 5 6 
#
# 1 24.3576 -0.4060 20.1680 0.0000 20.4621 0.0000
# 2 -0.4060 73.2534 21.8339 0.0000 7.0868 0.0000
# 3 20.1680 21.8339 144.0663 0.0000 37.0412 0.0000
# 4 0.0000 0.0000 0.0000 37.1941 0.0000 5.5264
# 5 20.4621 7.0868 37.0412 0.0000 25.4949 0.0000
# 6 0.0000 0.0000 0.0000 5.5264 0.0000 10.1940
#
#
#
# Elastic Compliance Matrix: (Units=1/GPa)
#
#
# Indices 1 2 3 4 5 6 
#
# 1 0.151933 0.010602 0.014741 0.000000 -0.146304 0.000000
# 2 0.010602 0.015065 -0.000803 0.000000 -0.011531 0.000000
# 3 0.014741 -0.000803 0.012745 0.000000 -0.030124 0.000000
# 4 0.000000 0.000000 0.000000 0.029241 0.000000 -0.015852
# 5 -0.146304 -0.011531 -0.030124 0.000000 0.203619 0.000000
# 6 0.000000 0.000000 0.000000 -0.015852 0.000000 0.106691
#
#
# Mechanical properties :
#
#
# Convention : Reuss Voigt Hill
#
# Bulk Modulus (GPa) = 4.37020 36.09657 20.23338
# Shear Modulus (GPa) = 9.14936 27.91537 18.53236
#
# Velocity S-wave (km/s) = 2.11568 3.69552 3.01106
# Velocity P-wave (km/s) = 2.84713 5.98903 4.68906
#
# Compressibility (1/GPa) = 0.22882263
#
# Stress axis : x y z
#
# Youngs Moduli (GPa) = 6.58186 66.38004 78.46452
#
# Poissons Ratio (x) = -0.70379 -1.15661
# Poissons Ratio (y) = -0.06978 0.06298
# Poissons Ratio (z) = -0.09702 0.05328
#
# Static dielectric constant tensor:
#      x y z
#    x 1.786360 0.000000 0.014110 
#    y 0.000000 1.745670 0.000000 
#    z 0.014110 0.000000 1.761090 
# 
# From -- ./inp_files/60445.got.cif
#   From: 2010.05.17/outbox.cif.g08.bks.cpg/sg14_31_cif.got.tgz:60445.got - 2010.06.03 17:49:19.
