data_PCOD9241789
_publ_section_title
;
Structure prediction by ZEFSAII (Michael W. Deem and Ramdas Pophale) SiO2 
 PCOD9241789
Probable space group: P 21/C
;
_chemical_formula_sum "Si O2"
_cell_formula_units_Z 28
_cell_length_a 19.908592
_cell_length_b 8.699114
_cell_length_c 17.814522
_cell_angle_alpha 90.000000
_cell_angle_beta 156.042689
_cell_angle_gamma 90.000000
_cell_volume 1252.782122
_symmetry_space_group_name_H-M "P 21/C"
_symmetry_group_IT_number 14
_symmetry_cell_setting 'monoclinic'
loop_
_space_group_symop_operation_xyz
x,y,z
-x,1/2+y,1/2-z
-x,-y,-z
x,1/2-y,1/2+z
loop_
_atom_site_type_symbol
_atom_site_label
_atom_site_fract_x
_atom_site_fract_y
_atom_site_fract_z
Si Si1 0.162457 0.272178 0.067324
Si Si2 0.704526 0.912440 0.999129
Si Si3 0.630948 0.013409 0.700855
Si Si4 0.393419 0.781346 0.182462
Si Si5 0.925429 0.090793 0.590646
Si Si6 0.113743 0.737258 0.607284
Si Si7 0.325656 0.021870 0.860412
O O1 0.230230 0.367667 0.207146
O O2 0.300722 0.144072 0.192028
O O3 0.109019 0.407642 0.955595
O O4 0.005529 0.193497 0.946320
O O5 0.669362 0.084226 0.935432
O O6 0.559108 0.800302 0.821994
O O7 0.671187 0.912129 0.053973
O O8 0.900853 0.880455 0.188754
O O9 0.568023 0.129008 0.700455
O O10 0.789111 0.093761 0.825320
O O11 0.500000 0.000000 0.500000
O O12 0.239762 0.665873 0.042371
O O13 0.948172 0.169957 0.530996
O O14 0.238167 0.858123 0.771806
O O15 0.500000 0.000000 0.000000
#
# Coordination Sequence:
#
# PCOD9241789 Si02
#       7
#     4   4   4   4   4   4   4
#     4  11  19  38  67 100 129 164 221 275 332 401
#     4  12  24  48  68  95 140 179 225 279 345 392
#     4  11  24  40  62  99 139 170 214 281 337 384
#     4  11  29  44  66 100 131 182 231 275 330 423
#     4  10  22  45  72  93 134 175 226 277 336 395
#     4  10  19  37  63 102 125 166 222 266 328 400
#     4  11  20  37  70  97 128 173 222 276 336 395
#
# _framework density 22.350254
#
# number of rings (size 3 to 8) (size 9 to 14) (size 15 to 20)
#    0.000    1.143    2.857    5.571    0.000    5.714 
#    0.000    0.000    0.000    0.000    0.000    0.000 
#    0.000    0.000    0.000    0.000    0.000    0.000 
#
# Total GULP energy -156392.943463 kJ/mol
# GULP energy per Si atom -5585.462267 kJ/mol
# Density = 2.229938 g / cm^3
# Si number density = 22.350254 Si / 1000 Ang^3
#
#
#
# Elastic Constant Matrix: (Units=GPa)
#
#
# Indices 1 2 3 4 5 6 
#
# 1 56.6252 32.3083 25.8540 0.0000 16.6098 0.0000
# 2 32.3083 124.6548 55.4860 0.0000 18.7852 0.0000
# 3 25.8540 55.4860 116.9673 0.0000 14.4170 0.0000
# 4 0.0000 0.0000 0.0000 27.2300 0.0000 4.1690
# 5 16.6098 18.7852 14.4170 0.0000 13.3761 0.0000
# 6 0.0000 0.0000 0.0000 4.1690 0.0000 24.2568
#
#
#
# Elastic Compliance Matrix: (Units=1/GPa)
#
#
# Indices 1 2 3 4 5 6 
#
# 1 0.028631 -0.002070 -0.001526 0.000000 -0.031002 0.000000
# 2 -0.002070 0.011773 -0.003928 0.000000 -0.009731 0.000000
# 3 -0.001526 -0.003928 0.011344 0.000000 -0.004815 0.000000
# 4 0.000000 0.000000 0.000000 0.037717 0.000000 -0.006482
# 5 -0.031002 -0.009731 -0.004815 0.000000 0.132112 0.000000
# 6 0.000000 0.000000 0.000000 -0.006482 0.000000 0.042340
#
#
# Mechanical properties :
#
#
# Convention : Reuss Voigt Hill
#
# Bulk Modulus (GPa) = 27.24694 58.39377 42.82035
# Shear Modulus (GPa) = 17.17047 25.27917 21.22482
#
# Velocity S-wave (km/s) = 2.77473 3.36675 3.08498
# Velocity P-wave (km/s) = 4.74161 6.42625 5.64711
#
# Compressibility (1/GPa) = 0.03670138
#
# Stress axis : x y z
#
# Youngs Moduli (GPa) = 34.92689 84.93681 88.15616
#
# Poissons Ratio (x) = 0.17580 0.13448
# Poissons Ratio (y) = 0.07229 0.34629
# Poissons Ratio (z) = 0.05328 0.33365
#
# Static dielectric constant tensor:
#      x y z
#    x 1.747290 0.000000 -0.055180 
#    y 0.000000 1.820960 0.000000 
#    z -0.055180 0.000000 1.790150 
# 
# From -- ./inp_files/70220.got.cif
#   From: 2010.05.17/outbox.cif.g08.bks.cpg/sg14_36_cif.got.tgz:70220.got - 2010.06.03 17:49:19.
