data_PCOD9241882
_publ_section_title
;
Structure prediction by ZEFSAII (Michael W. Deem and Ramdas Pophale) SiO2 
 PCOD9241882
Probable space group: P 21/C
;
_chemical_formula_sum "Si O2"
_cell_formula_units_Z 32
_cell_length_a 9.160910
_cell_length_b 7.830232
_cell_length_c 22.896681
_cell_angle_alpha 90.000000
_cell_angle_beta 49.669508
_cell_angle_gamma 90.000000
_cell_volume 1252.060683
_symmetry_space_group_name_H-M "P 21/C"
_symmetry_group_IT_number 14
_symmetry_cell_setting 'monoclinic'
loop_
_space_group_symop_operation_xyz
x,y,z
-x,1/2+y,1/2-z
-x,-y,-z
x,1/2-y,1/2+z
loop_
_atom_site_type_symbol
_atom_site_label
_atom_site_fract_x
_atom_site_fract_y
_atom_site_fract_z
Si Si1 0.220769 0.755340 0.927320
Si Si2 0.590223 0.600875 0.786341
Si Si3 0.058657 0.396971 0.093984
Si Si4 0.548572 0.599886 0.663827
Si Si5 0.422268 0.263747 0.467219
Si Si6 0.219528 0.623237 0.557002
Si Si7 0.068924 0.588285 0.294978
Si Si8 0.149810 0.094241 0.265119
O O1 0.392994 0.623500 0.870465
O O2 0.042822 0.683378 0.936874
O O3 0.304958 0.937210 0.882021
O O4 0.181492 0.784237 0.005488
O O5 0.568383 0.659587 0.725033
O O6 0.703507 0.424573 0.757418
O O7 0.744364 0.727809 0.774195
O O8 0.954231 0.564516 0.145886
O O9 0.007632 0.263368 0.158533
O O10 0.285115 0.386262 0.025676
O O11 0.584971 0.724776 0.600689
O O12 0.332791 0.530025 0.712827
O O13 0.325849 0.443921 0.512654
O O14 0.633970 0.272516 0.439699
O O15 0.035516 0.557827 0.639565
O O16 0.002138 0.570299 0.246364
#
# Coordination Sequence:
#
# PCOD9241882 Si02
#       8
#     4   4   4   4   4   4   4   4
#     4  10  21  35  56  89 116 144 195 244 283 339
#     4  11  23  37  60  86 119 156 187 237 295 346
#     4  11  22  36  60  87 115 152 193 239 289 340
#     4  10  19  38  58  80 116 153 193 236 288 334
#     4   9  19  33  58  84 112 150 189 244 288 328
#     4   9  19  34  57  87 115 142 194 248 287 327
#     4  11  22  38  63  87 114 153 197 240 291 342
#     4  11  23  39  56  88 123 150 191 242 286 351
#
# _framework density 25.557866000000001
#
# number of rings (size 3 to 8) (size 9 to 14) (size 15 to 20)
#    0.000    1.750    3.750    0.750    8.750    1.500 
#    0.000    0.625    0.000    0.750    0.000    0.000 
#    0.000    0.000    0.000    0.000    0.000    0.000 
#
# Total GULP energy -179277.577424 kJ/mol
# GULP energy per Si atom -5602.424295 kJ/mol
# Density = 2.549970 g / cm^3
# Si number density = 25.557866 Si / 1000 Ang^3
#
#
#
# Elastic Constant Matrix: (Units=GPa)
#
#
# Indices 1 2 3 4 5 6 
#
# 1 113.2482 10.0801 15.0813 0.0000 12.6209 0.0000
# 2 10.0801 62.8073 17.5121 0.0000 0.4695 0.0000
# 3 15.0813 17.5121 94.1580 0.0000 -5.0936 0.0000
# 4 0.0000 0.0000 0.0000 40.0993 0.0000 -5.7512
# 5 12.6209 0.4695 -5.0936 0.0000 44.0836 0.0000
# 6 0.0000 0.0000 0.0000 -5.7512 0.0000 22.4947
#
#
#
# Elastic Compliance Matrix: (Units=1/GPa)
#
#
# Indices 1 2 3 4 5 6 
#
# 1 0.009441 -0.001085 -0.001465 0.000000 -0.002861 0.000000
# 2 -0.001085 0.016930 -0.002987 0.000000 -0.000215 0.000000
# 3 -0.001465 -0.002987 0.011507 0.000000 0.001781 0.000000
# 4 0.000000 0.000000 0.000000 0.025887 0.000000 0.006619
# 5 -0.002861 -0.000215 0.001781 0.000000 0.023711 0.000000
# 6 0.000000 0.000000 0.000000 0.006619 0.000000 0.046147
#
#
# Mechanical properties :
#
#
# Convention : Reuss Voigt Hill
#
# Bulk Modulus (GPa) = 37.30783 39.50672 38.40728
# Shear Modulus (GPa) = 32.54532 36.50484 34.52508
#
# Velocity S-wave (km/s) = 3.57234 3.78341 3.67939
# Velocity P-wave (km/s) = 5.62535 5.88022 5.75419
#
# Compressibility (1/GPa) = 0.02680402
#
# Stress axis : x y z
#
# Youngs Moduli (GPa) = 105.92488 59.06592 86.90438
#
# Poissons Ratio (x) = 0.06410 0.12732
# Poissons Ratio (y) = 0.11496 0.25955
# Poissons Ratio (z) = 0.15518 0.17640
#
# Static dielectric constant tensor:
#      x y z
#    x 1.926530 0.000000 -0.014560 
#    y 0.000000 2.195950 0.000000 
#    z -0.014560 0.000000 1.957840 
# 
# From -- ./inp_files/60546.got.cif
#   From: 2010.05.17/outbox.cif.g08.bks.cpg/sg14_31_cif.got.tgz:60546.got - 2010.06.03 17:49:19.
