data_PCOD9241358
_publ_section_title
;
Structure prediction by ZEFSAII (Michael W. Deem and Ramdas Pophale) SiO2 
 PCOD9241358
Probable space group: P 21/C
;
_chemical_formula_sum "Si O2"
_cell_formula_units_Z 28
_cell_length_a 9.786347
_cell_length_b 18.306300
_cell_length_c 7.521515
_cell_angle_alpha 90.000000
_cell_angle_beta 91.561584
_cell_angle_gamma 90.000000
_cell_volume 1346.992538
_symmetry_space_group_name_H-M "P 21/C"
_symmetry_group_IT_number 14
_symmetry_cell_setting 'monoclinic'
loop_
_space_group_symop_operation_xyz
x,y,z
-x,1/2+y,1/2-z
-x,-y,-z
x,1/2-y,1/2+z
loop_
_atom_site_type_symbol
_atom_site_label
_atom_site_fract_x
_atom_site_fract_y
_atom_site_fract_z
Si Si1 0.249312 0.846551 0.342726
Si Si2 0.658195 0.798002 0.817688
Si Si3 0.548415 0.854091 0.476624
Si Si4 0.852214 0.802669 0.120376
Si Si5 0.921598 0.081118 0.357456
Si Si6 0.144031 0.809195 0.962752
Si Si7 0.171464 0.423959 0.092710
O O1 0.400808 0.872262 0.397299
O O2 0.148141 0.893442 0.460891
O O3 0.217701 0.847337 0.132428
O O4 0.225619 0.762244 0.402510
O O5 0.555430 0.841990 0.689742
O O6 0.587292 0.724599 0.889891
O O7 0.780471 0.769491 0.694258
O O8 0.737890 0.835192 0.982508
O O9 0.668773 0.910275 0.434559
O O10 0.874195 0.857897 0.281641
O O11 0.994299 0.786066 0.030397
O O12 0.082380 0.077912 0.408911
O O13 0.865481 0.000422 0.317686
O O14 0.881944 0.136841 0.201853
#
# Coordination Sequence:
#
# PCOD9241358 Si02
#       7
#     4   4   4   4   4   4   4
#     4  12  24  40  64  94 129 163 206 258 320 370
#     4   9  19  33  61  93 120 157 210 256 312 368
#     4  10  21  39  61  90 128 165 202 261 313 374
#     4  10  19  35  61  93 122 158 206 261 315 362
#     4  11  25  44  65  93 127 165 215 262 308 379
#     4  12  23  38  66  95 127 162 206 264 319 367
#     4  10  23  45  63  89 129 166 214 261 307 378
#
# _framework density 20.787050000000001
#
# number of rings (size 3 to 8) (size 9 to 14) (size 15 to 20)
#    0.000    1.429    2.857    2.571    4.000    1.143 
#    2.571    0.714    0.000    0.000    0.000    0.000 
#    0.000    0.000    0.000    0.000    0.000    0.000 
#
# Total GULP energy -156512.449083 kJ/mol
# GULP energy per Si atom -5589.730324 kJ/mol
# Density = 2.073974 g / cm^3
# Si number density = 20.787050 Si / 1000 Ang^3
#
#
#
# Elastic Constant Matrix: (Units=GPa)
#
#
# Indices 1 2 3 4 5 6 
#
# 1 88.5578 -4.7001 16.5067 0.0000 27.1655 0.0000
# 2 -4.7001 41.5060 -2.1739 0.0000 -0.1171 0.0000
# 3 16.5067 -2.1739 88.4754 0.0000 21.3351 0.0000
# 4 0.0000 0.0000 0.0000 21.5367 0.0000 6.6014
# 5 27.1655 -0.1171 21.3351 0.0000 28.5040 0.0000
# 6 0.0000 0.0000 0.0000 6.6014 0.0000 10.6833
#
#
#
# Elastic Compliance Matrix: (Units=1/GPa)
#
#
# Indices 1 2 3 4 5 6 
#
# 1 0.016146 0.001830 0.000905 0.000000 -0.016058 0.000000
# 2 0.001830 0.024336 0.000797 0.000000 -0.002241 0.000000
# 3 0.000905 0.000797 0.013863 0.000000 -0.011235 0.000000
# 4 0.000000 0.000000 0.000000 0.057281 0.000000 -0.035395
# 5 -0.016058 -0.002241 -0.011235 0.000000 0.058787 0.000000
# 6 0.000000 0.000000 0.000000 -0.035395 0.000000 0.115475
#
#
# Mechanical properties :
#
#
# Convention : Reuss Voigt Hill
#
# Bulk Modulus (GPa) = 16.28430 26.42276 21.35353
# Shear Modulus (GPa) = 16.70602 26.07191 21.38896
#
# Velocity S-wave (km/s) = 2.83799 3.54536 3.21121
# Velocity P-wave (km/s) = 4.31159 5.43123 4.90347
#
# Compressibility (1/GPa) = 0.06140883
#
# Stress axis : x y z
#
# Youngs Moduli (GPa) = 61.93336 41.09211 72.13646
#
# Poissons Ratio (x) = -0.07522 -0.06527
# Poissons Ratio (y) = -0.11337 -0.05748
# Poissons Ratio (z) = -0.05604 -0.03274
#
# Static dielectric constant tensor:
#      x y z
#    x 1.772620 0.000000 0.009990 
#    y 0.000000 1.725250 0.000000 
#    z 0.009990 0.000000 1.782430 
# 
# From -- ./inp_files/9512.got.cif
#   From: 2010.05.17/outbox.cif.g08.bks.cpg/sg14_5_cif.got.tgz:9512.got - 2010.06.03 17:49:19.
