data_PCOD9241596
_publ_section_title
;
Structure prediction by ZEFSAII (Michael W. Deem and Ramdas Pophale) SiO2 
 PCOD9241596
Probable space group: P 21/C
;
_chemical_formula_sum "Si O2"
_cell_formula_units_Z 24
_cell_length_a 8.893773
_cell_length_b 13.845280
_cell_length_c 14.032313
_cell_angle_alpha 90.000000
_cell_angle_beta 144.749735
_cell_angle_gamma 90.000000
_cell_volume 997.252124
_symmetry_space_group_name_H-M "P 21/C"
_symmetry_group_IT_number 14
_symmetry_cell_setting 'monoclinic'
loop_
_space_group_symop_operation_xyz
x,y,z
-x,1/2+y,1/2-z
-x,-y,-z
x,1/2-y,1/2+z
loop_
_atom_site_type_symbol
_atom_site_label
_atom_site_fract_x
_atom_site_fract_y
_atom_site_fract_z
Si Si1 0.197928 0.444300 0.530943
Si Si2 0.542569 0.113160 0.544712
Si Si3 0.427650 0.383308 0.273082
Si Si4 0.943804 0.877122 0.600184
Si Si5 0.938972 0.913667 0.260251
Si Si6 0.168619 0.703505 0.634291
O O1 0.456582 0.507647 0.672005
O O2 0.140998 0.440743 0.388579
O O3 0.000000 0.500000 0.500000
O O4 0.130097 0.334394 0.527426
O O5 0.254811 0.155115 0.417140
O O6 0.681317 0.128891 0.718302
O O7 0.779986 0.139950 0.597068
O O8 0.500000 0.000000 0.500000
O O9 0.289368 0.361630 0.301234
O O10 0.665891 0.310145 0.374803
O O11 0.211511 0.377691 0.079491
O O12 0.171803 0.802373 0.694535
O O13 0.025658 0.984466 0.668026
#
# Coordination Sequence:
#
# PCOD9241596 Si02
#       6
#     4   4   4   4   4   4
#     4   9  19  38  60  81 117 164 203 237 293 372
#     4   8  17  35  58  83 115 159 203 240 296 370
#     4  10  20  35  55  83 118 159 200 239 298 372
#     4  10  20  36  59  88 122 156 199 254 306 358
#     4  10  19  36  62  89 117 161 207 246 301 374
#     4   9  19  36  58  86 120 159 200 256 308 352
#
# _framework density 24.066130999999999
#
# number of rings (size 3 to 8) (size 9 to 14) (size 15 to 20)
#    0.000    2.667    0.000    2.000    0.000    2.667 
#    0.000   10.000    0.000   12.000    0.000    0.000 
#    0.000    0.000    0.000    0.000    0.000    0.000 
#
# Total GULP energy -133609.083367 kJ/mol
# GULP energy per Si atom -5567.045140 kJ/mol
# Density = 2.401136 g / cm^3
# Si number density = 24.066131 Si / 1000 Ang^3
#
#
#
# Elastic Constant Matrix: (Units=GPa)
#
#
# Indices 1 2 3 4 5 6 
#
# 1 202.2775 42.0969 18.0268 0.0000 21.4385 0.0000
# 2 42.0969 49.4333 15.6223 0.0000 -10.6450 0.0000
# 3 18.0268 15.6223 39.5747 0.0000 -6.9513 0.0000
# 4 0.0000 0.0000 0.0000 20.1192 0.0000 -1.6202
# 5 21.4385 -10.6450 -6.9513 0.0000 33.0035 0.0000
# 6 0.0000 0.0000 0.0000 -1.6202 0.0000 30.4861
#
#
#
# Elastic Compliance Matrix: (Units=1/GPa)
#
#
# Indices 1 2 3 4 5 6 
#
# 1 0.007456 -0.007419 -0.001805 0.000000 -0.007616 0.000000
# 2 -0.007419 0.031594 -0.006704 0.000000 0.013597 0.000000
# 3 -0.001805 -0.006704 0.029661 0.000000 0.005258 0.000000
# 4 0.000000 0.000000 0.000000 0.049917 0.000000 0.002653
# 5 -0.007616 0.013597 0.005258 0.000000 0.040740 0.000000
# 6 0.000000 0.000000 0.000000 0.002653 0.000000 0.032943
#
#
# Mechanical properties :
#
#
# Convention : Reuss Voigt Hill
#
# Bulk Modulus (GPa) = 27.13399 49.19750 38.16575
# Shear Modulus (GPa) = 21.14590 31.09104 26.11847
#
# Velocity S-wave (km/s) = 2.96743 3.59820 3.29793
# Velocity P-wave (km/s) = 4.80001 6.14408 5.51316
#
# Compressibility (1/GPa) = 0.03685414
#
# Stress axis : x y z
#
# Youngs Moduli (GPa) = 134.12416 31.65181 33.71426
#
# Poissons Ratio (x) = 0.23482 0.06087
# Poissons Ratio (y) = 0.99504 0.22602
# Poissons Ratio (z) = 0.24215 0.21219
#
# Static dielectric constant tensor:
#      x y z
#    x 2.054130 0.000000 0.107240 
#    y 0.000000 2.033410 0.000000 
#    z 0.107240 0.000000 1.966560 
# 
# From -- ./inp_files/41331.got.cif
#   From: 2010.05.17/outbox.cif.g08.bks.cpg/sg14_21_cif.got.tgz:41331.got - 2010.06.03 17:49:19.
