data_PCOD9241459
_publ_section_title
;
Structure prediction by ZEFSAII (Michael W. Deem and Ramdas Pophale) SiO2 
 PCOD9241459
Probable space group: P 21/C
;
_chemical_formula_sum "Si O2"
_cell_formula_units_Z 32
_cell_length_a 13.218441
_cell_length_b 19.893401
_cell_length_c 13.604575
_cell_angle_alpha 90.000000
_cell_angle_beta 153.862724
_cell_angle_gamma 90.000000
_cell_volume 1575.952633
_symmetry_space_group_name_H-M "P 21/C"
_symmetry_group_IT_number 14
_symmetry_cell_setting 'monoclinic'
loop_
_space_group_symop_operation_xyz
x,y,z
-x,1/2+y,1/2-z
-x,-y,-z
x,1/2-y,1/2+z
loop_
_atom_site_type_symbol
_atom_site_label
_atom_site_fract_x
_atom_site_fract_y
_atom_site_fract_z
Si Si1 0.748729 0.897133 0.917588
Si Si2 0.388407 0.800199 0.520685
Si Si3 0.602095 0.674274 0.609048
Si Si4 0.439118 0.481453 0.099348
Si Si5 0.006559 0.841745 0.329233
Si Si6 0.213480 0.574240 0.742377
Si Si7 0.255961 0.929111 0.714382
Si Si8 0.201912 0.069309 0.576792
O O1 0.619717 0.829656 0.771642
O O2 0.558717 0.955119 0.757532
O O3 0.880185 0.884311 0.133729
O O4 0.939205 0.919593 0.003747
O O5 0.440982 0.733443 0.506475
O O6 0.303928 0.857682 0.371955
O O7 0.194966 0.797046 0.436924
O O8 0.813625 0.696603 0.724199
O O9 0.462460 0.618209 0.426618
O O10 0.705325 0.636865 0.793728
O O11 0.646580 0.438512 0.234475
O O12 0.281158 0.440557 0.035310
O O13 0.288597 0.513964 0.881005
O O14 0.130177 0.892697 0.512505
O O15 0.069504 0.932974 0.639570
O O16 0.305573 0.005344 0.726764
#
# Coordination Sequence:
#
# PCOD9241459 Si02
#       8
#     4   4   4   4   4   4   4   4
#     4  10  19  37  63  83 114 155 198 237 294 355
#     4  10  22  40  56  87 117 155 202 240 284 358
#     4  11  23  40  57  88 119 158 197 243 295 352
#     4  10  19  36  57  92 119 150 195 246 298 350
#     4  10  21  38  63  85 108 161 196 242 296 353
#     4   9  20  36  59  84 120 158 197 240 293 350
#     4  10  21  40  60  86 117 153 195 244 296 360
#     4  10  21  35  58  89 119 147 193 248 298 346
#
# _framework density 20.30518
#
# number of rings (size 3 to 8) (size 9 to 14) (size 15 to 20)
#    0.000    2.000    0.000    4.500    0.000    7.000 
#    9.000    0.000    0.000    0.000    0.000    0.000 
#    0.000    0.000    0.000    0.000    0.000    0.000 
#
# Total GULP energy -178758.617529 kJ/mol
# GULP energy per Si atom -5586.206798 kJ/mol
# Density = 2.025896 g / cm^3
# Si number density = 20.305180 Si / 1000 Ang^3
#
#
#
# Elastic Constant Matrix: (Units=GPa)
#
#
# Indices 1 2 3 4 5 6 
#
# 1 150.8841 34.2902 14.2641 0.0000 30.2804 0.0000
# 2 34.2902 48.6427 -4.1799 0.0000 14.6808 0.0000
# 3 14.2641 -4.1799 41.8247 0.0000 12.6397 0.0000
# 4 0.0000 0.0000 0.0000 14.5041 0.0000 7.1765
# 5 30.2804 14.6808 12.6397 0.0000 28.2083 0.0000
# 6 0.0000 0.0000 0.0000 7.1765 0.0000 26.6638
#
#
#
# Elastic Compliance Matrix: (Units=1/GPa)
#
#
# Indices 1 2 3 4 5 6 
#
# 1 0.009168 -0.004544 -0.001528 0.000000 -0.006791 0.000000
# 2 -0.004544 0.028707 0.008628 0.000000 -0.013928 0.000000
# 3 -0.001528 0.008628 0.030250 0.000000 -0.016404 0.000000
# 4 0.000000 0.000000 0.000000 0.079539 0.000000 -0.021408
# 5 -0.006791 -0.013928 -0.016404 0.000000 0.057340 0.000000
# 6 0.000000 0.000000 0.000000 -0.021408 0.000000 0.043266
#
#
# Mechanical properties :
#
#
# Convention : Reuss Voigt Hill
#
# Bulk Modulus (GPa) = 13.65476 36.67782 25.16629
# Shear Modulus (GPa) = 18.68668 27.00705 22.84687
#
# Velocity S-wave (km/s) = 3.03692 3.65095 3.35800
# Velocity P-wave (km/s) = 4.36309 5.98958 5.23983
#
# Compressibility (1/GPa) = 0.07323456
#
# Stress axis : x y z
#
# Youngs Moduli (GPa) = 109.07757 34.83523 33.05753
#
# Poissons Ratio (x) = 0.15831 0.05053
# Poissons Ratio (y) = 0.49570 -0.28521
# Poissons Ratio (z) = 0.16672 -0.30055
#
# Static dielectric constant tensor:
#      x y z
#    x 1.748050 0.000000 0.015280 
#    y 0.000000 1.694610 0.000000 
#    z 0.015280 0.000000 1.739680 
# 
# From -- ./inp_files/30752.got.cif
#   From: 2010.05.17/outbox.cif.g08.bks.cpg/sg14_16_cif.got.tgz:30752.got - 2010.06.03 17:49:19.
