data_PCOD9241341
_publ_section_title
;
Structure prediction by ZEFSAII (Michael W. Deem and Ramdas Pophale) SiO2 
 PCOD9241341
Probable space group: P 21/C
;
_chemical_formula_sum "Si O2"
_cell_formula_units_Z 32
_cell_length_a 5.238383
_cell_length_b 17.681562
_cell_length_c 14.831181
_cell_angle_alpha 90.000000
_cell_angle_beta 63.142834
_cell_angle_gamma 90.000000
_cell_volume 1225.531396
_symmetry_space_group_name_H-M "P 21/C"
_symmetry_group_IT_number 14
_symmetry_cell_setting 'monoclinic'
loop_
_space_group_symop_operation_xyz
x,y,z
-x,1/2+y,1/2-z
-x,-y,-z
x,1/2-y,1/2+z
loop_
_atom_site_type_symbol
_atom_site_label
_atom_site_fract_x
_atom_site_fract_y
_atom_site_fract_z
Si Si1 0.341366 0.681992 0.720377
Si Si2 0.835279 0.699606 0.288498
Si Si3 0.365305 0.436349 0.764475
Si Si4 0.485247 0.928129 0.343536
Si Si5 0.494860 0.199699 0.534808
Si Si6 0.004280 0.911690 0.917947
Si Si7 0.095522 0.271643 0.446308
Si Si8 0.891719 0.050631 0.840760
O O1 0.287044 0.627854 0.814795
O O2 0.661906 0.712765 0.665954
O O3 0.296374 0.625732 0.641468
O O4 0.119892 0.750232 0.749025
O O5 0.791480 0.643585 0.211462
O O6 0.584821 0.754892 0.360725
O O7 0.844768 0.638868 0.368587
O O8 0.388956 0.484743 0.852307
O O9 0.676181 0.420227 0.672208
O O10 0.213006 0.494327 0.721254
O O11 0.514406 0.887854 0.434683
O O12 0.785480 0.928622 0.240161
O O13 0.265242 0.224934 0.496830
O O14 0.810377 0.228968 0.463009
O O15 0.989055 0.856246 0.005408
O O16 0.876776 0.997034 0.931493
#
# Coordination Sequence:
#
# PCOD9241341 Si02
#       8
#     4   4   4   4   4   4   4   4
#     4  11  23  36  58  93 124 159 203 260 309 362
#     4  10  19  35  61  84 118 159 212 257 300 358
#     4   9  18  34  59  89 112 154 212 256 300 359
#     4  10  20  37  62  86 118 157 217 255 299 364
#     4  11  22  40  62  86 120 167 208 250 302 368
#     4   9  18  36  55  83 119 164 203 241 303 375
#     4  11  25  38  59  91 132 165 197 251 318 372
#     4   9  19  34  57  88 116 156 206 246 301 364
#
# _framework density 26.111125000000001
#
# number of rings (size 3 to 8) (size 9 to 14) (size 15 to 20)
#    0.000    2.000    2.500    1.500    3.500    0.500 
#    0.000    5.625    0.000    1.500    0.000    0.000 
#    0.000    0.000    0.000    0.000    0.000    0.000 
#
# Total GULP energy -179055.991198 kJ/mol
# GULP energy per Si atom -5595.499725 kJ/mol
# Density = 2.605170 g / cm^3
# Si number density = 26.111125 Si / 1000 Ang^3
#
#
#
# Elastic Constant Matrix: (Units=GPa)
#
#
# Indices 1 2 3 4 5 6 
#
# 1 60.0445 6.0719 -5.7521 0.0000 -4.7692 0.0000
# 2 6.0719 85.1641 -2.1635 0.0000 -4.3478 0.0000
# 3 -5.7521 -2.1635 52.3788 0.0000 -6.8392 0.0000
# 4 0.0000 0.0000 0.0000 32.1886 0.0000 0.6330
# 5 -4.7692 -4.3478 -6.8392 0.0000 43.2582 0.0000
# 6 0.0000 0.0000 0.0000 0.6330 0.0000 64.7365
#
#
#
# Elastic Compliance Matrix: (Units=1/GPa)
#
#
# Indices 1 2 3 4 5 6 
#
# 1 0.017132 -0.001060 0.002114 0.000000 0.002117 0.000000
# 2 -0.001060 0.011890 0.000526 0.000000 0.001161 0.000000
# 3 0.002114 0.000526 0.019791 0.000000 0.003415 0.000000
# 4 0.000000 0.000000 0.000000 0.031073 0.000000 -0.000304
# 5 0.002117 0.001161 0.003415 0.000000 0.024007 0.000000
# 6 0.000000 0.000000 0.000000 -0.000304 0.000000 0.015450
#
#
# Mechanical properties :
#
#
# Convention : Reuss Voigt Hill
#
# Bulk Modulus (GPa) = 19.23992 21.54444 20.39218
# Shear Modulus (GPa) = 37.45104 41.33207 39.39156
#
# Velocity S-wave (km/s) = 3.79132 3.98292 3.88830
# Velocity P-wave (km/s) = 5.15266 5.42407 5.29011
#
# Compressibility (1/GPa) = 0.05197526
#
# Stress axis : x y z
#
# Youngs Moduli (GPa) = 58.36994 84.10243 50.52676
#
# Poissons Ratio (x) = 0.08912 -0.10681
# Poissons Ratio (y) = 0.06185 -0.02660
# Poissons Ratio (z) = -0.12339 -0.04427
#
# Static dielectric constant tensor:
#      x y z
#    x 2.166860 0.000000 0.078150 
#    y 0.000000 2.083590 0.000000 
#    z 0.078150 0.000000 2.024690 
# 
# From -- ./inp_files/63871.got.cif
#   From: 2010.05.17/outbox.cif.g08.bks.cpg/sg14_32_cif.got.tgz:63871.got - 2010.06.03 17:49:19.
