data_PCOD9241761
_publ_section_title
;
Structure prediction by ZEFSAII (Michael W. Deem and Ramdas Pophale) SiO2 
 PCOD9241761
Probable space group: P 21/C
;
_chemical_formula_sum "Si O2"
_cell_formula_units_Z 32
_cell_length_a 12.098392
_cell_length_b 18.941422
_cell_length_c 9.983177
_cell_angle_alpha 90.000000
_cell_angle_beta 128.587064
_cell_angle_gamma 90.000000
_cell_volume 1788.247468
_symmetry_space_group_name_H-M "P 21/C"
_symmetry_group_IT_number 14
_symmetry_cell_setting 'monoclinic'
loop_
_space_group_symop_operation_xyz
x,y,z
-x,1/2+y,1/2-z
-x,-y,-z
x,1/2-y,1/2+z
loop_
_atom_site_type_symbol
_atom_site_label
_atom_site_fract_x
_atom_site_fract_y
_atom_site_fract_z
Si Si1 0.320666 0.814450 0.948998
Si Si2 0.442779 0.065393 0.868458
Si Si3 0.546376 0.563604 0.938720
Si Si4 0.143984 0.063175 0.235385
Si Si5 0.872790 0.924366 0.285635
Si Si6 0.062160 0.588188 0.190102
Si Si7 0.697258 0.318077 0.250854
Si Si8 0.039127 0.905007 0.156269
O O1 0.186742 0.856099 0.787859
O O2 0.343965 0.746147 0.876360
O O3 0.449502 0.869566 0.041266
O O4 0.293569 0.797564 0.085340
O O5 0.433003 0.044077 0.703205
O O6 0.290409 0.090175 0.807701
O O7 0.500000 0.000000 0.000000
O O8 0.423954 0.622148 0.850667
O O9 0.500000 0.500000 0.000000
O O10 0.698251 0.586614 0.111677
O O11 0.036401 0.098973 0.256563
O O12 0.125528 0.978539 0.242900
O O13 0.084057 0.079114 0.043921
O O14 0.964559 0.910112 0.486491
O O15 0.955590 0.886325 0.228084
O O16 0.877558 0.008408 0.256726
O O17 0.846667 0.350004 0.312970
#
# Coordination Sequence:
#
# PCOD9241761 Si02
#       8
#     4   4   4   4   4   4   4   4
#     4  11  25  43  63  85 128 169 207 253 307 378
#     4  11  23  39  61  94 128 162 203 259 317 370
#     4  11  23  38  64  93 124 163 208 261 310 370
#     4  10  19  37  62  92 120 149 199 261 305 351
#     4  10  21  35  62  97 121 148 199 252 314 362
#     4  10  19  37  61  91 122 156 195 254 304 363
#     4  11  25  44  60  90 124 169 209 249 314 375
#     4  10  21  35  63  92 121 150 199 253 307 367
#
# _framework density 17.894615000000002
#
# number of rings (size 3 to 8) (size 9 to 14) (size 15 to 20)
#    0.000    1.500    5.000    0.000    3.500    1.000 
#    0.000    2.500    0.000    0.000    0.000    0.000 
#    0.000    0.000    0.000    0.000    0.000    0.000 
#
# Total GULP energy -178572.122264 kJ/mol
# GULP energy per Si atom -5580.378821 kJ/mol
# Density = 1.785389 g / cm^3
# Si number density = 17.894615 Si / 1000 Ang^3
#
#
#
# Elastic Constant Matrix: (Units=GPa)
#
#
# Indices 1 2 3 4 5 6 
#
# 1 103.9376 28.7762 39.8556 0.0000 1.8340 0.0000
# 2 28.7762 52.9511 32.9998 0.0000 -9.1442 0.0000
# 3 39.8556 32.9998 63.4039 0.0000 2.9014 0.0000
# 4 0.0000 0.0000 0.0000 22.9406 0.0000 -5.4255
# 5 1.8340 -9.1442 2.9014 0.0000 33.5525 0.0000
# 6 0.0000 0.0000 0.0000 -5.4255 0.0000 20.5584
#
#
#
# Elastic Compliance Matrix: (Units=1/GPa)
#
#
# Indices 1 2 3 4 5 6 
#
# 1 0.013006 -0.003228 -0.006448 0.000000 -0.001033 0.000000
# 2 -0.003228 0.031685 -0.014925 0.000000 0.010102 0.000000
# 3 -0.006448 -0.014925 0.027873 0.000000 -0.006125 0.000000
# 4 0.000000 0.000000 0.000000 0.046493 0.000000 0.012270
# 5 -0.001033 0.010102 -0.006125 0.000000 0.033143 0.000000
# 6 0.000000 0.000000 0.000000 0.012270 0.000000 0.051880
#
#
# Mechanical properties :
#
#
# Convention : Reuss Voigt Hill
#
# Bulk Modulus (GPa) = 42.80214 47.06177 44.93195
# Shear Modulus (GPa) = 19.15208 23.32104 21.23656
#
# Velocity S-wave (km/s) = 3.27505 3.61396 3.44867
# Velocity P-wave (km/s) = 6.18645 6.61595 6.40480
#
# Compressibility (1/GPa) = 0.02336332
#
# Stress axis : x y z
#
# Youngs Moduli (GPa) = 76.89006 31.56045 35.87679
#
# Poissons Ratio (x) = 0.10187 0.23134
# Poissons Ratio (y) = 0.24818 0.53544
# Poissons Ratio (z) = 0.49579 0.47102
#
# Static dielectric constant tensor:
#      x y z
#    x 1.628040 0.000000 -0.005530 
#    y 0.000000 1.598060 0.000000 
#    z -0.005530 0.000000 1.609760 
# 
# From -- ./inp_files/14320.got.cif
#   From: 2010.05.17/outbox.cif.g08.bks.cpg/sg14_8_cif.got.tgz:14320.got - 2010.06.03 17:49:19.
