data_PCOD9241920
_publ_section_title
;
Structure prediction by ZEFSAII (Michael W. Deem and Ramdas Pophale) SiO2 
 PCOD9241920
Probable space group: P 21/C
;
_chemical_formula_sum "Si O2"
_cell_formula_units_Z 32
_cell_length_a 12.644954
_cell_length_b 7.960691
_cell_length_c 33.380901
_cell_angle_alpha 90.000000
_cell_angle_beta 24.355144
_cell_angle_gamma 90.000000
_cell_volume 1385.720415
_symmetry_space_group_name_H-M "P 21/C"
_symmetry_group_IT_number 14
_symmetry_cell_setting 'monoclinic'
loop_
_space_group_symop_operation_xyz
x,y,z
-x,1/2+y,1/2-z
-x,-y,-z
x,1/2-y,1/2+z
loop_
_atom_site_type_symbol
_atom_site_label
_atom_site_fract_x
_atom_site_fract_y
_atom_site_fract_z
Si Si1 0.200031 0.855155 0.006696
Si Si2 0.063348 0.263450 0.476412
Si Si3 0.255437 0.954346 0.357633
Si Si4 0.538543 0.697070 0.592326
Si Si5 0.927671 0.847012 0.400252
Si Si6 0.014517 0.967985 0.284572
Si Si7 0.811705 0.518990 0.696422
Si Si8 0.702881 0.669917 0.819503
O O1 0.044374 0.892572 0.019250
O O2 0.004114 0.845205 0.110644
O O3 0.403117 0.709274 0.929566
O O4 0.372392 0.017462 0.955545
O O5 0.319858 0.285905 0.413730
O O6 0.842979 0.210090 0.584027
O O7 0.123536 0.107544 0.426253
O O8 0.141817 0.941448 0.352737
O O9 0.557176 0.978662 0.257137
O O10 0.238768 0.673016 0.701815
O O11 0.672481 0.826467 0.515595
O O12 0.890035 0.934326 0.370754
O O13 0.048664 0.660702 0.352515
O O14 0.821400 0.932534 0.315215
O O15 0.144563 0.152215 0.237596
O O16 0.733924 0.569135 0.767750
#
# Coordination Sequence:
#
# PCOD9241920 Si02
#       8
#     4   4   4   4   4   4   4   4
#     4  10  22  39  64  92 132 169 211 264 317 381
#     4  10  19  38  60  94 133 165 204 263 309 376
#     4  10  22  35  61  96 132 163 206 257 315 375
#     4   9  21  40  63  92 127 172 209 255 324 383
#     4  10  23  41  61  95 127 166 214 258 319 382
#     4  11  24  43  68  87 125 170 213 273 316 381
#     4  11  23  40  64  93 131 173 209 262 318 386
#     4  11  25  46  64  95 122 167 224 263 326 380
#
# _framework density 23.092680999999999
#
# number of rings (size 3 to 8) (size 9 to 14) (size 15 to 20)
#    0.000    1.750    1.250    1.875    5.250    1.000 
#    2.250    5.000    0.000    0.000    0.000    0.000 
#    0.000    0.000    0.000    0.000    0.000    0.000 
#
# Total GULP energy -179007.087771 kJ/mol
# GULP energy per Si atom -5593.971493 kJ/mol
# Density = 2.304012 g / cm^3
# Si number density = 23.092681 Si / 1000 Ang^3
#
#
#
# Elastic Constant Matrix: (Units=GPa)
#
#
# Indices 1 2 3 4 5 6 
#
# 1 90.3444 12.6814 28.7391 0.0000 8.8704 0.0000
# 2 12.6814 68.0972 15.4101 0.0000 1.8309 0.0000
# 3 28.7391 15.4101 64.1675 0.0000 1.6463 0.0000
# 4 0.0000 0.0000 0.0000 28.1360 0.0000 3.8468
# 5 8.8704 1.8309 1.6463 0.0000 31.1273 0.0000
# 6 0.0000 0.0000 0.0000 3.8468 0.0000 32.1171
#
#
#
# Elastic Compliance Matrix: (Units=1/GPa)
#
#
# Indices 1 2 3 4 5 6 
#
# 1 0.013353 -0.001122 -0.005623 0.000000 -0.003442 0.000000
# 2 -0.001122 0.015639 -0.003242 0.000000 -0.000429 0.000000
# 3 -0.005623 -0.003242 0.018861 0.000000 0.000795 0.000000
# 4 0.000000 0.000000 0.000000 0.036133 0.000000 -0.004328
# 5 -0.003442 -0.000429 0.000795 0.000000 0.033090 0.000000
# 6 0.000000 0.000000 0.000000 -0.004328 0.000000 0.031654
#
#
# Mechanical properties :
#
#
# Convention : Reuss Voigt Hill
#
# Bulk Modulus (GPa) = 35.86933 37.36337 36.61635
# Shear Modulus (GPa) = 28.09036 29.32798 28.70917
#
# Velocity S-wave (km/s) = 3.49150 3.56759 3.52975
# Velocity P-wave (km/s) = 5.64098 5.76065 5.70113
#
# Compressibility (1/GPa) = 0.02787897
#
# Stress axis : x y z
#
# Youngs Moduli (GPa) = 74.89103 63.94247 53.02020
#
# Poissons Ratio (x) = 0.07172 0.29812
# Poissons Ratio (y) = 0.08400 0.17191
# Poissons Ratio (z) = 0.42109 0.20733
#
# Static dielectric constant tensor:
#      x y z
#    x 1.829100 0.000000 -0.010400 
#    y 0.000000 1.977990 0.000000 
#    z -0.010400 0.000000 1.840580 
# 
# From -- ./inp_files/80007.got.cif
#   From: 2010.05.17/outbox.cif.g08.bks.cpg/sg14_41_cif.got.tgz:80007.got - 2010.06.03 17:49:19.
