data_PCOD9241391
_publ_section_title
;
Structure prediction by ZEFSAII (Michael W. Deem and Ramdas Pophale) SiO2 
 PCOD9241391
Probable space group: P 21/C
;
_chemical_formula_sum "Si O2"
_cell_formula_units_Z 32
_cell_length_a 11.845495
_cell_length_b 7.675897
_cell_length_c 22.419158
_cell_angle_alpha 90.000000
_cell_angle_beta 39.497730
_cell_angle_gamma 90.000000
_cell_volume 1296.556066
_symmetry_space_group_name_H-M "P 21/C"
_symmetry_group_IT_number 14
_symmetry_cell_setting 'monoclinic'
loop_
_space_group_symop_operation_xyz
x,y,z
-x,1/2+y,1/2-z
-x,-y,-z
x,1/2-y,1/2+z
loop_
_atom_site_type_symbol
_atom_site_label
_atom_site_fract_x
_atom_site_fract_y
_atom_site_fract_z
Si Si1 0.602756 0.846564 0.496704
Si Si2 0.532336 0.553235 0.741791
Si Si3 0.684153 0.421468 0.557960
Si Si4 0.046568 0.698295 0.992312
Si Si5 0.693080 0.113669 0.291300
Si Si6 0.250854 0.360290 0.803988
Si Si7 0.066333 0.204344 0.090643
Si Si8 0.677003 0.717632 0.344741
O O1 0.449826 0.792767 0.606491
O O2 0.790286 0.862637 0.456879
O O3 0.680571 0.718094 0.414074
O O4 0.500000 0.000000 0.500000
O O5 0.630528 0.536928 0.637798
O O6 0.600209 0.417193 0.764712
O O7 0.326410 0.528030 0.807284
O O8 0.580601 0.734007 0.753834
O O9 0.813594 0.531115 0.462844
O O10 0.517278 0.354787 0.589835
O O11 0.776582 0.252987 0.547825
O O12 0.900367 0.744777 0.101824
O O13 0.012034 0.789571 0.944199
O O14 0.000000 0.500000 0.000000
O O15 0.890871 0.191942 0.203490
O O16 0.711243 0.917855 0.310933
O O17 0.210496 0.387397 0.750988
#
# Coordination Sequence:
#
# PCOD9241391 Si02
#       8
#     4   4   4   4   4   4   4   4
#     4  10  24  47  72  99 146 192 245 297 348 425
#     4  10  19  35  63  92 133 170 218 286 353 426
#     4  11  22  41  69  99 144 177 231 299 363 434
#     4  12  26  39  64 106 142 177 234 299 370 438
#     4  10  21  41  70  98 140 182 238 291 359 426
#     4  10  21  36  62  92 131 178 220 283 361 425
#     4  12  24  45  75 104 139 198 239 297 365 436
#     4   9  22  43  67  95 136 189 228 299 353 415
#
# _framework density 24.680769000000002
#
# number of rings (size 3 to 8) (size 9 to 14) (size 15 to 20)
#    0.000    1.500    2.500    2.625    8.750    0.500 
#    9.000    0.000    0.000    0.000    0.000    0.000 
#    0.000    0.000    0.000    0.000    0.000    0.000 
#
# Total GULP energy -178434.124632 kJ/mol
# GULP energy per Si atom -5576.066395 kJ/mol
# Density = 2.462459 g / cm^3
# Si number density = 24.680769 Si / 1000 Ang^3
#
#
#
# Elastic Constant Matrix: (Units=GPa)
#
#
# Indices 1 2 3 4 5 6 
#
# 1 62.9513 4.6625 37.9328 0.0000 22.7248 0.0000
# 2 4.6625 69.2039 10.6636 0.0000 0.0413 0.0000
# 3 37.9328 10.6636 171.6190 0.0000 2.5208 0.0000
# 4 0.0000 0.0000 0.0000 26.8790 0.0000 -9.8434
# 5 22.7248 0.0413 2.5208 0.0000 39.8895 0.0000
# 6 0.0000 0.0000 0.0000 -9.8434 0.0000 33.0683
#
#
#
# Elastic Compliance Matrix: (Units=1/GPa)
#
#
# Indices 1 2 3 4 5 6 
#
# 1 0.023722 -0.000820 -0.004999 0.000000 -0.013198 0.000000
# 2 -0.000820 0.014618 -0.000734 0.000000 0.000498 0.000000
# 3 -0.004999 -0.000734 0.006942 0.000000 0.002410 0.000000
# 4 0.000000 0.000000 0.000000 0.041756 0.000000 0.012429
# 5 -0.013198 0.000498 0.002410 0.000000 0.032435 0.000000
# 6 0.000000 0.000000 0.000000 0.012429 0.000000 0.033940
#
#
# Mechanical properties :
#
#
# Convention : Reuss Voigt Hill
#
# Bulk Modulus (GPa) = 31.07876 45.58800 38.33338
# Shear Modulus (GPa) = 28.20959 36.66835 32.43897
#
# Velocity S-wave (km/s) = 3.38446 3.85867 3.62932
# Velocity P-wave (km/s) = 5.28133 6.19383 5.75569
#
# Compressibility (1/GPa) = 0.03217632
#
# Stress axis : x y z
#
# Youngs Moduli (GPa) = 42.15453 68.40803 144.05250
#
# Poissons Ratio (x) = 0.05610 0.72005
# Poissons Ratio (y) = 0.03457 0.10579
# Poissons Ratio (z) = 0.21071 0.05024
#
# Static dielectric constant tensor:
#      x y z
#    x 1.971250 0.000000 0.009280 
#    y 0.000000 2.080680 0.000000 
#    z 0.009280 0.000000 2.214240 
# 
# From -- ./inp_files/73107.got.cif
#   From: 2010.05.17/outbox.cif.g08.bks.cpg/sg14_37_cif.got.tgz:73107.got - 2010.06.03 17:49:19.
