data_PCOD9241274
_publ_section_title
;
Structure prediction by ZEFSAII (Michael W. Deem and Ramdas Pophale) SiO2 
 PCOD9241274
Probable space group: P 21/C
;
_chemical_formula_sum "Si O2"
_cell_formula_units_Z 28
_cell_length_a 9.457608
_cell_length_b 25.452510
_cell_length_c 7.412957
_cell_angle_alpha 90.000000
_cell_angle_beta 142.685451
_cell_angle_gamma 90.000000
_cell_volume 1081.713980
_symmetry_space_group_name_H-M "P 21/C"
_symmetry_group_IT_number 14
_symmetry_cell_setting 'monoclinic'
loop_
_space_group_symop_operation_xyz
x,y,z
-x,1/2+y,1/2-z
-x,-y,-z
x,1/2-y,1/2+z
loop_
_atom_site_type_symbol
_atom_site_label
_atom_site_fract_x
_atom_site_fract_y
_atom_site_fract_z
Si Si1 0.191879 0.502379 0.541656
Si Si2 0.331577 0.128959 0.697239
Si Si3 0.804034 0.177588 0.801630
Si Si4 0.044107 0.871885 0.372186
Si Si5 0.570172 0.912008 0.562633
Si Si6 0.302077 0.544689 0.306741
Si Si7 0.290671 0.703248 0.397211
O O1 0.301210 0.443784 0.649198
O O2 0.122833 0.524012 0.276210
O O3 0.000000 0.500000 0.500000
O O4 0.388613 0.543882 0.804963
O O5 0.263331 0.104521 0.435542
O O6 0.558649 0.094219 0.973264
O O7 0.439283 0.187384 0.793646
O O8 0.160117 0.123933 0.689197
O O9 0.997466 0.151107 0.868468
O O10 0.583075 0.138779 0.548049
O O11 0.841632 0.183103 0.055342
O O12 0.748114 0.235745 0.675753
O O13 0.176007 0.928491 0.508831
O O14 0.202018 0.826863 0.629502
O O15 0.500000 0.500000 0.500000
#
# Coordination Sequence:
#
# PCOD9241274 Si02
#       7
#     4   4   4   4   4   4   4
#     4  10  19  35  58  86 119 159 199 239 293 359
#     4   9  21  40  59  87 125 164 204 252 308 362
#     4  11  21  41  65  86 121 160 202 257 309 366
#     4  11  22  41  63  88 125 161 203 257 302 365
#     4   9  20  36  57  86 121 158 196 245 301 352
#     4  10  21  36  58  90 127 161 202 251 302 361
#     4  10  22  43  60  86 121 158 202 257 314 363
#
# _framework density 25.884844999999999
#
# number of rings (size 3 to 8) (size 9 to 14) (size 15 to 20)
#    0.000    2.000    1.429    2.571    0.000    1.714 
#    5.143    7.143    0.000    0.000    0.000    0.000 
#    0.000    0.000    0.000    0.000    0.000    0.000 
#
# Total GULP energy -156609.206967 kJ/mol
# GULP energy per Si atom -5593.185963 kJ/mol
# Density = 2.582593 g / cm^3
# Si number density = 25.884845 Si / 1000 Ang^3
#
#
#
# Elastic Constant Matrix: (Units=GPa)
#
#
# Indices 1 2 3 4 5 6 
#
# 1 153.4265 35.9647 17.5242 0.0000 -7.3072 0.0000
# 2 35.9647 153.3901 22.3234 0.0000 -2.5067 0.0000
# 3 17.5242 22.3234 49.0945 0.0000 -27.7938 0.0000
# 4 0.0000 0.0000 0.0000 29.6078 0.0000 -7.2627
# 5 -7.3072 -2.5067 -27.7938 0.0000 42.0739 0.0000
# 6 0.0000 0.0000 0.0000 -7.2627 0.0000 51.7079
#
#
#
# Elastic Compliance Matrix: (Units=1/GPa)
#
#
# Indices 1 2 3 4 5 6 
#
# 1 0.007058 -0.001367 -0.001996 0.000000 -0.000175 0.000000
# 2 -0.001367 0.007441 -0.004439 0.000000 -0.002727 0.000000
# 3 -0.001996 -0.004439 0.036347 0.000000 0.023400 0.000000
# 4 0.000000 0.000000 0.000000 0.034980 0.000000 0.004913
# 5 -0.000175 -0.002727 0.023400 0.000000 0.039033 0.000000
# 6 0.000000 0.000000 0.000000 0.004913 0.000000 0.020030
#
#
# Mechanical properties :
#
#
# Convention : Reuss Voigt Hill
#
# Bulk Modulus (GPa) = 28.37616 56.39285 42.38450
# Shear Modulus (GPa) = 29.02899 43.35115 36.19007
#
# Velocity S-wave (km/s) = 3.35246 4.09683 3.74320
# Velocity P-wave (km/s) = 5.09623 6.64922 5.92384
#
# Compressibility (1/GPa) = 0.03524085
#
# Stress axis : x y z
#
# Youngs Moduli (GPa) = 141.68367 134.38372 27.51240
#
# Poissons Ratio (x) = 0.18372 0.05493
# Poissons Ratio (y) = 0.19370 0.12213
# Poissons Ratio (z) = 0.28287 0.59656
#
# Static dielectric constant tensor:
#      x y z
#    x 2.041930 0.000000 0.027490 
#    y 0.000000 2.039400 0.000000 
#    z 0.027490 0.000000 2.155900 
# 
# From -- ./inp_files/11193.got.cif
#   From: 2010.05.17/outbox.cif.g08.bks.cpg/sg14_6_cif.got.tgz:11193.got - 2010.06.03 17:49:19.
