data_PCOD9241961
_publ_section_title
;
Structure prediction by ZEFSAII (Michael W. Deem and Ramdas Pophale) SiO2 
 PCOD9241961
Probable space group: P 21/C
;
_chemical_formula_sum "Si O2"
_cell_formula_units_Z 32
_cell_length_a 11.580524
_cell_length_b 11.222043
_cell_length_c 24.122569
_cell_angle_alpha 90.000000
_cell_angle_beta 29.794528
_cell_angle_gamma 90.000000
_cell_volume 1557.703875
_symmetry_space_group_name_H-M "P 21/C"
_symmetry_group_IT_number 14
_symmetry_cell_setting 'monoclinic'
loop_
_space_group_symop_operation_xyz
x,y,z
-x,1/2+y,1/2-z
-x,-y,-z
x,1/2-y,1/2+z
loop_
_atom_site_type_symbol
_atom_site_label
_atom_site_fract_x
_atom_site_fract_y
_atom_site_fract_z
Si Si1 0.620456 0.698871 0.117982
Si Si2 0.225076 0.212019 0.133578
Si Si3 0.217085 0.644598 0.124591
Si Si4 0.667639 0.910536 0.019146
Si Si5 0.655444 0.189926 0.016064
Si Si6 0.717704 0.585309 0.966614
Si Si7 0.174760 0.932121 0.853012
Si Si8 0.017759 0.317984 0.455609
O O1 0.400192 0.626043 0.231907
O O2 0.797645 0.730303 0.093353
O O3 0.557867 0.823347 0.111487
O O4 0.748870 0.623496 0.016537
O O5 0.366896 0.137835 0.028207
O O6 0.399980 0.243969 0.110813
O O7 0.147804 0.329524 0.132594
O O8 0.010022 0.137419 0.244231
O O9 0.223082 0.548330 0.073022
O O10 0.216913 0.772409 0.094198
O O11 0.447217 0.614392 0.064075
O O12 0.944292 0.899590 0.914613
O O13 0.613321 0.049816 0.044510
O O14 0.825587 0.232248 0.993797
O O15 0.161426 0.075111 0.865869
O O16 0.127143 0.878192 0.933792
#
# Coordination Sequence:
#
# PCOD9241961 Si02
#       8
#     4   4   4   4   4   4   4   4
#     4  10  19  38  63  85 112 161 197 246 303 350
#     4  10  20  35  60  87 118 161 194 244 301 362
#     4  10  21  38  60  86 123 160 187 252 303 357
#     4   9  19  36  59  90 115 149 204 248 288 364
#     4  10  21  38  55  87 123 152 197 249 294 358
#     4   9  21  40  58  90 124 150 209 242 300 367
#     4   9  18  37  63  83 113 158 197 248 298 352
#     4   9  20  38  59  86 119 150 207 246 290 363
#
# _framework density 20.543057000000001
#
# number of rings (size 3 to 8) (size 9 to 14) (size 15 to 20)
#    0.000    2.500    0.000    1.875    1.750    1.000 
#   15.750    0.625    0.000    0.000    0.000    0.000 
#    0.000    0.000    0.000    0.000    0.000    0.000 
#
# Total GULP energy -178360.976922 kJ/mol
# GULP energy per Si atom -5573.780529 kJ/mol
# Density = 2.049630 g / cm^3
# Si number density = 20.543057 Si / 1000 Ang^3
#
#
#
# Elastic Constant Matrix: (Units=GPa)
#
#
# Indices 1 2 3 4 5 6 
#
# 1 119.1269 34.5437 36.4077 0.0000 2.3989 0.0000
# 2 34.5437 70.2611 33.5339 0.0000 6.1278 0.0000
# 3 36.4077 33.5339 76.7586 0.0000 3.5974 0.0000
# 4 0.0000 0.0000 0.0000 19.3479 0.0000 6.9770
# 5 2.3989 6.1278 3.5974 0.0000 9.7408 0.0000
# 6 0.0000 0.0000 0.0000 6.9770 0.0000 27.6782
#
#
#
# Elastic Compliance Matrix: (Units=1/GPa)
#
#
# Indices 1 2 3 4 5 6 
#
# 1 0.010467 -0.003586 -0.003443 0.000000 0.000949 0.000000
# 2 -0.003586 0.019940 -0.006578 0.000000 -0.009232 0.000000
# 3 -0.003443 -0.006578 0.017606 0.000000 -0.001516 0.000000
# 4 0.000000 0.000000 0.000000 0.056853 0.000000 -0.014331
# 5 0.000949 -0.009232 -0.001516 0.000000 0.108794 0.000000
# 6 0.000000 0.000000 0.000000 -0.014331 0.000000 0.039742
#
#
# Mechanical properties :
#
#
# Convention : Reuss Voigt Hill
#
# Bulk Modulus (GPa) = 48.07670 52.79080 50.43375
# Shear Modulus (GPa) = 17.38838 22.13083 19.75960
#
# Velocity S-wave (km/s) = 2.91251 3.28577 3.10476
# Velocity P-wave (km/s) = 5.89610 6.33628 6.12015
#
# Compressibility (1/GPa) = 0.02080009
#
# Stress axis : x y z
#
# Youngs Moduli (GPa) = 95.53597 50.14981 56.80040
#
# Poissons Ratio (x) = 0.17983 0.19554
# Poissons Ratio (y) = 0.34258 0.37363
# Poissons Ratio (z) = 0.32890 0.32988
#
# Static dielectric constant tensor:
#      x y z
#    x 1.762200 0.000000 0.004950 
#    y 0.000000 1.782630 0.000000 
#    z 0.004950 0.000000 1.725970 
# 
# From -- ./inp_files/73297.got.cif
#   From: 2010.05.17/outbox.cif.g08.bks.cpg/sg14_37_cif.got.tgz:73297.got - 2010.06.03 17:49:19.
