data_PCOD9241638
_publ_section_title
;
Structure prediction by ZEFSAII (Michael W. Deem and Ramdas Pophale) SiO2 
 PCOD9241638
Probable space group: P 21/C
;
_chemical_formula_sum "Si O2"
_cell_formula_units_Z 24
_cell_length_a 11.994162
_cell_length_b 15.283285
_cell_length_c 9.561236
_cell_angle_alpha 90.000000
_cell_angle_beta 48.099913
_cell_angle_gamma 90.000000
_cell_volume 1304.532264
_symmetry_space_group_name_H-M "P 21/C"
_symmetry_group_IT_number 14
_symmetry_cell_setting 'monoclinic'
loop_
_space_group_symop_operation_xyz
x,y,z
-x,1/2+y,1/2-z
-x,-y,-z
x,1/2-y,1/2+z
loop_
_atom_site_type_symbol
_atom_site_label
_atom_site_fract_x
_atom_site_fract_y
_atom_site_fract_z
Si Si1 0.348362 0.124538 0.790573
Si Si2 0.877754 0.694368 0.297308
Si Si3 0.559736 0.073543 0.846011
Si Si4 0.774940 0.609156 0.911436
Si Si5 0.609058 0.683329 0.305539
Si Si6 0.102953 0.951404 0.528131
O O1 0.462666 0.068051 0.785673
O O2 0.299999 0.096390 0.677061
O O3 0.425049 0.219387 0.714374
O O4 0.201793 0.145212 0.006538
O O5 0.871638 0.799466 0.328745
O O6 0.765492 0.682743 0.260150
O O7 0.026194 0.639317 0.140252
O O8 0.734052 0.067743 0.671528
O O9 0.512401 0.157286 0.977378
O O10 0.500000 0.000000 0.000000
O O11 0.869583 0.524347 0.875109
O O12 0.646810 0.625627 0.137419
O O13 0.000000 0.000000 0.500000
#
# Coordination Sequence:
#
# PCOD9241638 Si02
#       6
#     4   4   4   4   4   4
#     4   9  20  37  63  86 116 158 205 249 299 353
#     4   9  19  37  60  87 121 163 203 242 307 373
#     4  11  21  39  63  89 120 155 205 250 300 360
#     4  10  19  36  65  86 120 162 205 248 302 359
#     4   9  17  39  63  86 113 162 204 245 303 361
#     4  12  22  38  63  90 124 163 203 241 308 370
#
# _framework density 18.397399
#
# number of rings (size 3 to 8) (size 9 to 14) (size 15 to 20)
#    0.000    2.000    3.333    2.000    0.000    1.333 
#    3.000    0.000    0.000    0.000    0.000    0.000 
#    0.000    0.000    0.000    0.000    0.000    0.000 
#
# Total GULP energy -133720.383394 kJ/mol
# GULP energy per Si atom -5571.682641 kJ/mol
# Density = 1.835553 g / cm^3
# Si number density = 18.397399 Si / 1000 Ang^3
#
#
#
# Elastic Constant Matrix: (Units=GPa)
#
#
# Indices 1 2 3 4 5 6 
#
# 1 101.9170 49.5973 64.0051 0.0000 12.5468 0.0000
# 2 49.5973 79.1206 45.9364 0.0000 -12.3810 0.0000
# 3 64.0051 45.9364 109.0803 0.0000 -6.3892 0.0000
# 4 0.0000 0.0000 0.0000 34.0920 0.0000 9.0957
# 5 12.5468 -12.3810 -6.3892 0.0000 45.0197 0.0000
# 6 0.0000 0.0000 0.0000 9.0957 0.0000 27.5986
#
#
#
# Elastic Compliance Matrix: (Units=1/GPa)
#
#
# Indices 1 2 3 4 5 6 
#
# 1 0.021492 -0.009756 -0.009086 0.000000 -0.009962 0.000000
# 2 -0.009756 0.021768 -0.002957 0.000000 0.008286 0.000000
# 3 -0.009086 -0.002957 0.015978 0.000000 0.003987 0.000000
# 4 0.000000 0.000000 0.000000 0.032160 0.000000 -0.010599
# 5 -0.009962 0.008286 0.003987 0.000000 0.027834 0.000000
# 6 0.000000 0.000000 0.000000 -0.010599 0.000000 0.039727
#
#
# Mechanical properties :
#
#
# Convention : Reuss Voigt Hill
#
# Bulk Modulus (GPa) = 63.94055 67.68838 65.81446
# Shear Modulus (GPa) = 24.06499 30.04734 27.05617
#
# Velocity S-wave (km/s) = 3.62064 4.04572 3.83907
# Velocity P-wave (km/s) = 7.23252 7.66133 7.45001
#
# Compressibility (1/GPa) = 0.01563953
#
# Stress axis : x y z
#
# Youngs Moduli (GPa) = 46.52819 45.93849 62.58718
#
# Poissons Ratio (x) = 0.44819 0.56866
# Poissons Ratio (y) = 0.45395 0.18507
# Poissons Ratio (z) = 0.42275 0.13584
#
# Static dielectric constant tensor:
#      x y z
#    x 1.622740 0.000000 0.009570 
#    y 0.000000 1.886720 0.000000 
#    z 0.009570 0.000000 1.697160 
# 
# From -- ./inp_files/13674.got.cif
#   From: 2010.05.17/outbox.cif.g08.bks.cpg/sg14_7_cif.got.tgz:13674.got - 2010.06.03 17:49:19.
