data_PCOD9241655
_publ_section_title
;
Structure prediction by ZEFSAII (Michael W. Deem and Ramdas Pophale) SiO2 
 PCOD9241655
Probable space group: P 21/C
;
_chemical_formula_sum "Si O2"
_cell_formula_units_Z 28
_cell_length_a 19.575875
_cell_length_b 11.053280
_cell_length_c 11.759500
_cell_angle_alpha 90.000000
_cell_angle_beta 24.317769
_cell_angle_gamma 90.000000
_cell_volume 1047.814440
_symmetry_space_group_name_H-M "P 21/C"
_symmetry_group_IT_number 14
_symmetry_cell_setting 'monoclinic'
loop_
_space_group_symop_operation_xyz
x,y,z
-x,1/2+y,1/2-z
-x,-y,-z
x,1/2-y,1/2+z
loop_
_atom_site_type_symbol
_atom_site_label
_atom_site_fract_x
_atom_site_fract_y
_atom_site_fract_z
Si Si1 0.402487 0.609152 0.204393
Si Si2 0.549299 0.597325 0.325055
Si Si3 0.097371 0.625464 0.524263
Si Si4 0.226738 0.985129 0.186230
Si Si5 0.024514 0.876209 0.689058
Si Si6 0.232769 0.910319 0.585057
Si Si7 0.423417 0.283435 0.380944
O O1 0.281044 0.659731 0.291072
O O2 0.262494 0.559134 0.505363
O O3 0.535514 0.688167 0.077689
O O4 0.500000 0.500000 0.000000
O O5 0.500000 0.500000 0.500000
O O6 0.382886 0.580633 0.507221
O O7 0.582881 0.737475 0.240649
O O8 0.719546 0.547458 0.012296
O O9 0.976447 0.735439 0.745659
O O10 0.105516 0.620649 0.375819
O O11 0.067975 0.487928 0.609885
O O12 0.075226 0.931434 0.488514
O O13 0.267102 0.127758 0.139271
O O14 0.174265 0.863000 0.553107
O O15 0.410320 0.861575 0.355762
#
# Coordination Sequence:
#
# PCOD9241655 Si02
#       7
#     4   4   4   4   4   4   4
#     4  11  23  44  70 104 145 182 231 300 367 431
#     4  10  19  36  67 105 142 179 233 294 357 430
#     4  12  27  48  73 101 144 195 247 296 369 432
#     4  10  23  40  68 106 137 182 235 291 372 425
#     4  12  27  49  72 102 145 198 245 301 357 446
#     4  11  23  44  70  99 143 186 244 295 364 430
#     4  10  21  39  69 105 141 181 233 302 366 429
#
# _framework density 26.722289
#
# number of rings (size 3 to 8) (size 9 to 14) (size 15 to 20)
#    0.000    1.143    2.857    4.714    0.000    5.143 
#    2.571    0.000    0.000    0.000    0.000    0.000 
#    0.000    0.000    0.000    0.000    0.000    0.000 
#
# Total GULP energy -155907.149682 kJ/mol
# GULP energy per Si atom -5568.112489 kJ/mol
# Density = 2.666147 g / cm^3
# Si number density = 26.722289 Si / 1000 Ang^3
#
#
#
# Elastic Constant Matrix: (Units=GPa)
#
#
# Indices 1 2 3 4 5 6 
#
# 1 98.9754 21.8296 15.6319 0.0000 21.7475 0.0000
# 2 21.8296 144.5887 29.4347 0.0000 7.2707 0.0000
# 3 15.6319 29.4347 64.5565 0.0000 21.3453 0.0000
# 4 0.0000 0.0000 0.0000 38.0560 0.0000 9.1403
# 5 21.7475 7.2707 21.3453 0.0000 41.0713 0.0000
# 6 0.0000 0.0000 0.0000 9.1403 0.0000 25.6230
#
#
#
# Elastic Compliance Matrix: (Units=1/GPa)
#
#
# Indices 1 2 3 4 5 6 
#
# 1 0.011740 -0.001425 -0.000267 0.000000 -0.005825 0.000000
# 2 -0.001425 0.007807 -0.003631 0.000000 0.001260 0.000000
# 3 -0.000267 -0.003631 0.020469 0.000000 -0.009854 0.000000
# 4 0.000000 0.000000 0.000000 0.028739 0.000000 -0.010252
# 5 -0.005825 0.001260 -0.009854 0.000000 0.032331 0.000000
# 6 0.000000 0.000000 0.000000 -0.010252 0.000000 0.042685
#
#
# Mechanical properties :
#
#
# Convention : Reuss Voigt Hill
#
# Bulk Modulus (GPa) = 34.04885 49.10146 41.57516
# Shear Modulus (GPa) = 30.44946 37.03168 33.74057
#
# Velocity S-wave (km/s) = 3.37928 3.72667 3.55722
# Velocity P-wave (km/s) = 5.29107 6.07717 5.69769
#
# Compressibility (1/GPa) = 0.02936957
#
# Stress axis : x y z
#
# Youngs Moduli (GPa) = 85.17888 128.08674 48.85527
#
# Poissons Ratio (x) = 0.18255 0.01303
# Poissons Ratio (y) = 0.12140 0.17740
# Poissons Ratio (z) = 0.02272 0.46510
#
# Static dielectric constant tensor:
#      x y z
#    x 2.168220 0.000000 0.073750 
#    y 0.000000 2.294860 0.000000 
#    z 0.073750 0.000000 2.190700 
# 
# From -- ./inp_files/35143.got.cif
#   From: 2010.05.17/outbox.cif.g08.bks.cpg/sg14_18_cif.got.tgz:35143.got - 2010.06.03 17:49:19.
