data_PCOD9241319
_publ_section_title
;
Structure prediction by ZEFSAII (Michael W. Deem and Ramdas Pophale) SiO2 
 PCOD9241319
Probable space group: P 21/C
;
_chemical_formula_sum "Si O2"
_cell_formula_units_Z 20
_cell_length_a 8.811017
_cell_length_b 15.512208
_cell_length_c 5.493250
_cell_angle_alpha 90.000000
_cell_angle_beta 92.427129
_cell_angle_gamma 90.000000
_cell_volume 750.134670
_symmetry_space_group_name_H-M "P 21/C"
_symmetry_group_IT_number 14
_symmetry_cell_setting 'monoclinic'
loop_
_space_group_symop_operation_xyz
x,y,z
-x,1/2+y,1/2-z
-x,-y,-z
x,1/2-y,1/2+z
loop_
_atom_site_type_symbol
_atom_site_label
_atom_site_fract_x
_atom_site_fract_y
_atom_site_fract_z
Si Si1 0.838194 0.548353 0.016773
Si Si2 0.038509 0.239706 0.445101
Si Si3 0.328795 0.695361 0.393554
Si Si4 0.818641 0.018052 0.015945
Si Si5 0.360104 0.299018 0.455737
O O1 0.756107 0.511674 0.249874
O O2 0.884144 0.646664 0.062115
O O3 0.758860 0.530907 0.752843
O O4 0.000000 0.500000 0.000000
O O5 0.952860 0.259339 0.192264
O O6 0.177243 0.308147 0.464868
O O7 0.326758 0.765805 0.617136
O O8 0.210820 0.618134 0.434910
O O9 0.493529 0.647399 0.453727
O O10 0.000000 0.000000 0.000000
O O11 0.379795 0.273509 0.174038
#
# Coordination Sequence:
#
# PCOD9241319 Si02
#       5
#     4   4   4   4   4
#     4  10  21  38  55  80 118 149 180 226 284 337
#     4  10  19  35  60  83 108 145 191 233 269 325
#     4  10  19  35  60  83 108 145 191 233 269 325
#     4  10  21  38  55  80 118 149 180 226 284 337
#     4   8  16  30  54  80 104 132 180 232 268 308
#
# _framework density 26.661881000000001
#
# number of rings (size 3 to 8) (size 9 to 14) (size 15 to 20)
#    0.000    2.400    0.000    2.400    0.000    0.000 
#    0.000   24.000    0.000   64.800    0.000    0.000 
#    0.000    0.000    0.000    0.000    0.000    0.000 
#
# Total GULP energy -111543.143677 kJ/mol
# GULP energy per Si atom -5577.157184 kJ/mol
# Density = 2.660120 g / cm^3
# Si number density = 26.661881 Si / 1000 Ang^3
#
#
#
# Elastic Constant Matrix: (Units=GPa)
#
#
# Indices 1 2 3 4 5 6 
#
# 1 85.1772 1.3109 5.8856 0.0000 0.1748 0.0000
# 2 1.3109 88.2195 69.7383 0.0000 -2.0291 0.0000
# 3 5.8856 69.7383 305.4159 0.0000 -4.7047 0.0000
# 4 0.0000 0.0000 0.0000 42.3523 0.0000 -8.4511
# 5 0.1748 -2.0291 -4.7047 0.0000 38.7773 0.0000
# 6 0.0000 0.0000 0.0000 -8.4511 0.0000 26.5651
#
#
#
# Elastic Compliance Matrix: (Units=1/GPa)
#
#
# Indices 1 2 3 4 5 6 
#
# 1 0.011756 0.000004 -0.000229 0.000000 -0.000081 0.000000
# 2 0.000004 0.013837 -0.003154 0.000000 0.000341 0.000000
# 3 -0.000229 -0.003154 0.004004 0.000000 0.000322 0.000000
# 4 0.000000 0.000000 0.000000 0.025212 0.000000 0.008021
# 5 -0.000081 0.000341 0.000322 0.000000 0.025846 0.000000
# 6 0.000000 0.000000 0.000000 0.008021 0.000000 0.040195
#
#
# Mechanical properties :
#
#
# Convention : Reuss Voigt Hill
#
# Bulk Modulus (GPa) = 43.78452 70.29804 57.04128
# Shear Modulus (GPa) = 36.97690 48.33079 42.65385
#
# Velocity S-wave (km/s) = 3.72813 4.26224 4.00410
# Velocity P-wave (km/s) = 5.91521 7.11660 6.54353
#
# Compressibility (1/GPa) = 0.02283912
#
# Stress axis : x y z
#
# Youngs Moduli (GPa) = 85.06199 72.27200 249.76086
#
# Poissons Ratio (x) = -0.00031 0.05714
# Poissons Ratio (y) = -0.00037 0.78781
# Poissons Ratio (z) = 0.01946 0.22796
#
# Static dielectric constant tensor:
#      x y z
#    x 2.275710 0.000000 -0.006980 
#    y 0.000000 2.298510 0.000000 
#    z -0.006980 0.000000 2.283780 
# 
# From -- ./inp_files/575.got.cif
#   From: 2010.05.17/outbox.cif.g08.bks.cpg/sg14_1_cif.got.tgz:575.got - 2010.06.03 17:49:19.
