data_PCOD9241541
_publ_section_title
;
Structure prediction by ZEFSAII (Michael W. Deem and Ramdas Pophale) SiO2 
 PCOD9241541
Probable space group: P 21/C
;
_chemical_formula_sum "Si O2"
_cell_formula_units_Z 24
_cell_length_a 7.722298
_cell_length_b 11.843341
_cell_length_c 11.679649
_cell_angle_alpha 90.000000
_cell_angle_beta 70.643255
_cell_angle_gamma 90.000000
_cell_volume 1007.813399
_symmetry_space_group_name_H-M "P 21/C"
_symmetry_group_IT_number 14
_symmetry_cell_setting 'monoclinic'
loop_
_space_group_symop_operation_xyz
x,y,z
-x,1/2+y,1/2-z
-x,-y,-z
x,1/2-y,1/2+z
loop_
_atom_site_type_symbol
_atom_site_label
_atom_site_fract_x
_atom_site_fract_y
_atom_site_fract_z
Si Si1 0.777472 0.987765 0.027470
Si Si2 0.367031 0.540320 0.931416
Si Si3 0.065795 0.097306 0.619008
Si Si4 0.172478 0.733627 0.472436
Si Si5 0.724590 0.953744 0.773304
Si Si6 0.812457 0.796673 0.189594
O O1 0.728457 0.115405 0.076312
O O2 0.707513 0.969818 0.913178
O O3 0.731966 0.874543 0.107077
O O4 0.000000 0.000000 0.000000
O O5 0.406551 0.517080 0.789320
O O6 0.500000 0.500000 0.000000
O O7 0.182789 0.466841 0.998038
O O8 0.320186 0.670272 0.961988
O O9 0.198668 0.135737 0.690510
O O10 0.958586 0.207643 0.594892
O O11 0.921957 0.011895 0.706518
O O12 0.029510 0.718602 0.609038
O O13 0.728446 0.824585 0.732503
#
# Coordination Sequence:
#
# PCOD9241541 Si02
#       6
#     4   4   4   4   4   4
#     4  10  20  34  60 100 121 148 193 272 322 355
#     4  11  24  41  59  86 126 170 208 243 309 379
#     4  11  20  35  64  89 117 157 203 261 310 361
#     4  10  19  36  60  91 117 153 201 260 306 358
#     4  11  20  37  62  91 120 155 205 261 303 365
#     4  11  19  33  64  96 121 147 205 264 319 356
#
# _framework density 23.813934
#
# number of rings (size 3 to 8) (size 9 to 14) (size 15 to 20)
#    0.000    1.333    6.667    3.000    0.000    0.000 
#    0.000    1.667    0.000    2.000    0.000    0.000 
#    0.000    0.000    0.000    0.000    0.000    0.000 
#
# Total GULP energy -134068.318062 kJ/mol
# GULP energy per Si atom -5586.179919 kJ/mol
# Density = 2.375973 g / cm^3
# Si number density = 23.813934 Si / 1000 Ang^3
#
#
#
# Elastic Constant Matrix: (Units=GPa)
#
#
# Indices 1 2 3 4 5 6 
#
# 1 70.2964 31.7060 36.1327 0.0000 18.6501 0.0000
# 2 31.7060 206.2507 76.9807 0.0000 14.2199 0.0000
# 3 36.1327 76.9807 94.9876 0.0000 18.4212 0.0000
# 4 0.0000 0.0000 0.0000 43.0762 0.0000 0.3221
# 5 18.6501 14.2199 18.4212 0.0000 34.2483 0.0000
# 6 0.0000 0.0000 0.0000 0.3221 0.0000 18.5993
#
#
#
# Elastic Compliance Matrix: (Units=1/GPa)
#
#
# Indices 1 2 3 4 5 6 
#
# 1 0.019200 -0.000359 -0.005598 0.000000 -0.007296 0.000000
# 2 -0.000359 0.006959 -0.005560 0.000000 0.000297 0.000000
# 3 -0.005598 -0.005560 0.018002 0.000000 -0.004326 0.000000
# 4 0.000000 0.000000 0.000000 0.023218 0.000000 -0.000402
# 5 -0.007296 0.000297 -0.004326 0.000000 0.035375 0.000000
# 6 0.000000 0.000000 0.000000 -0.000402 0.000000 0.053772
#
#
# Mechanical properties :
#
#
# Convention : Reuss Voigt Hill
#
# Bulk Modulus (GPa) = 47.33391 73.46370 60.39881
# Shear Modulus (GPa) = 26.79488 34.29912 30.54700
#
# Velocity S-wave (km/s) = 3.35800 3.79924 3.58542
# Velocity P-wave (km/s) = 5.91224 7.08249 6.52366
#
# Compressibility (1/GPa) = 0.02112650
#
# Stress axis : x y z
#
# Youngs Moduli (GPa) = 52.08239 143.70793 55.54868
#
# Poissons Ratio (x) = 0.05164 0.31094
# Poissons Ratio (y) = 0.01872 0.30887
# Poissons Ratio (z) = 0.29154 0.79907
#
# Static dielectric constant tensor:
#      x y z
#    x 1.986310 0.000000 -0.020210 
#    y 0.000000 1.894540 0.000000 
#    z -0.020210 0.000000 1.963350 
# 
# From -- ./inp_files/24175.got.cif
#   From: 2010.05.17/outbox.cif.g08.bks.cpg/sg14_13_cif.got.tgz:24175.got - 2010.06.03 17:49:19.
