data_PCOD9241637
_publ_section_title
;
Structure prediction by ZEFSAII (Michael W. Deem and Ramdas Pophale) SiO2 
 PCOD9241637
Probable space group: P 21/C
;
_chemical_formula_sum "Si O2"
_cell_formula_units_Z 24
_cell_length_a 10.453128
_cell_length_b 16.740978
_cell_length_c 7.532758
_cell_angle_alpha 90.000000
_cell_angle_beta 66.586973
_cell_angle_gamma 90.000000
_cell_volume 1209.664536
_symmetry_space_group_name_H-M "P 21/C"
_symmetry_group_IT_number 14
_symmetry_cell_setting 'monoclinic'
loop_
_space_group_symop_operation_xyz
x,y,z
-x,1/2+y,1/2-z
-x,-y,-z
x,1/2-y,1/2+z
loop_
_atom_site_type_symbol
_atom_site_label
_atom_site_fract_x
_atom_site_fract_y
_atom_site_fract_z
Si Si1 0.856665 0.133819 0.168280
Si Si2 0.428151 0.893122 0.194924
Si Si3 0.351968 0.081420 0.218812
Si Si4 0.148610 0.683808 0.725318
Si Si5 0.455210 0.590550 0.071890
Si Si6 0.973533 0.914844 0.603927
O O1 0.545598 0.133314 0.617808
O O2 0.856058 0.221141 0.259292
O O3 0.701819 0.096146 0.266982
O O4 0.962258 0.084897 0.233652
O O5 0.307642 0.841091 0.174585
O O6 0.370216 0.984765 0.224549
O O7 0.567225 0.893355 0.002797
O O8 0.435611 0.117898 0.339870
O O9 0.190506 0.101880 0.303296
O O10 0.106526 0.648087 0.557451
O O11 0.054561 0.646891 0.932754
O O12 0.500000 0.500000 0.000000
O O13 0.000000 0.000000 0.500000
#
# Coordination Sequence:
#
# PCOD9241637 Si02
#       6
#     4   4   4   4   4   4
#     4  12  24  42  71  94 129 184 226 267 340 408
#     4  10  19  38  64  92 124 168 214 264 315 392
#     4  10  21  36  61  94 131 159 211 269 324 374
#     4  12  23  43  70  93 131 181 228 267 335 412
#     4  10  19  36  64  95 124 164 214 266 319 387
#     4  12  24  42  64 103 135 168 220 284 327 398
#
# _framework density 19.840209000000002
#
# number of rings (size 3 to 8) (size 9 to 14) (size 15 to 20)
#    0.000    1.000    6.667    1.000    0.000    2.000 
#    0.000    1.667    0.000    0.000    0.000    0.000 
#    0.000    0.000    0.000    0.000    0.000    0.000 
#
# Total GULP energy -134085.310382 kJ/mol
# GULP energy per Si atom -5586.887933 kJ/mol
# Density = 1.979505 g / cm^3
# Si number density = 19.840209 Si / 1000 Ang^3
#
#
#
# Elastic Constant Matrix: (Units=GPa)
#
#
# Indices 1 2 3 4 5 6 
#
# 1 128.4651 -2.0543 28.9881 0.0000 3.3364 0.0000
# 2 -2.0543 35.9232 -7.4203 0.0000 -3.6224 0.0000
# 3 28.9881 -7.4203 80.0067 0.0000 1.2052 0.0000
# 4 0.0000 0.0000 0.0000 13.8280 0.0000 9.4277
# 5 3.3364 -3.6224 1.2052 0.0000 53.2363 0.0000
# 6 0.0000 0.0000 0.0000 9.4277 0.0000 19.9122
#
#
#
# Elastic Compliance Matrix: (Units=1/GPa)
#
#
# Indices 1 2 3 4 5 6 
#
# 1 0.008490 -0.000200 -0.003088 0.000000 -0.000476 0.000000
# 2 -0.000200 0.028573 0.002694 0.000000 0.001896 0.000000
# 3 -0.003088 0.002694 0.013867 0.000000 0.000063 0.000000
# 4 0.000000 0.000000 0.000000 0.106789 0.000000 -0.050561
# 5 -0.000476 0.001896 0.000063 0.000000 0.018942 0.000000
# 6 0.000000 0.000000 0.000000 -0.050561 0.000000 0.074159
#
#
# Mechanical properties :
#
#
# Convention : Reuss Voigt Hill
#
# Bulk Modulus (GPa) = 20.10351 31.49134 25.79742
# Shear Modulus (GPa) = 18.61590 32.38741 25.50166
#
# Velocity S-wave (km/s) = 3.06648 4.04470 3.58907
# Velocity P-wave (km/s) = 4.76366 6.14164 5.49600
#
# Compressibility (1/GPa) = 0.04974256
#
# Stress axis : x y z
#
# Youngs Moduli (GPa) = 117.78469 34.99764 72.11606
#
# Poissons Ratio (x) = 0.00701 0.22266
# Poissons Ratio (y) = 0.02359 -0.19429
# Poissons Ratio (z) = 0.36366 -0.09429
#
# Static dielectric constant tensor:
#      x y z
#    x 1.691390 0.000000 0.042480 
#    y 0.000000 1.763610 0.000000 
#    z 0.042480 0.000000 1.695340 
# 
# From -- ./inp_files/13617.got.cif
#   From: 2010.05.17/outbox.cif.g08.bks.cpg/sg14_7_cif.got.tgz:13617.got - 2010.06.03 17:49:19.
