data_PCOD9241939
_publ_section_title
;
Structure prediction by ZEFSAII (Michael W. Deem and Ramdas Pophale) SiO2 
 PCOD9241939
Probable space group: P 21/C
;
_chemical_formula_sum "Si O2"
_cell_formula_units_Z 32
_cell_length_a 23.606431
_cell_length_b 9.303491
_cell_length_c 14.176079
_cell_angle_alpha 90.000000
_cell_angle_beta 26.400790
_cell_angle_gamma 90.000000
_cell_volume 1384.357577
_symmetry_space_group_name_H-M "P 21/C"
_symmetry_group_IT_number 14
_symmetry_cell_setting 'monoclinic'
loop_
_space_group_symop_operation_xyz
x,y,z
-x,1/2+y,1/2-z
-x,-y,-z
x,1/2-y,1/2+z
loop_
_atom_site_type_symbol
_atom_site_label
_atom_site_fract_x
_atom_site_fract_y
_atom_site_fract_z
Si Si1 0.333324 0.914155 0.826782
Si Si2 0.897539 0.543772 0.422234
Si Si3 0.106684 0.759596 0.966236
Si Si4 0.812765 0.989382 0.570628
Si Si5 0.235143 0.237793 0.744680
Si Si6 0.762625 0.332716 0.898335
Si Si7 0.587022 0.027616 0.499815
Si Si8 0.831845 0.639088 0.859440
O O1 0.393209 0.897995 0.632003
O O2 0.437677 0.997665 0.733212
O O3 0.210160 0.015175 0.994652
O O4 0.294844 0.765172 0.934071
O O5 0.863864 0.422565 0.550951
O O6 0.880720 0.684268 0.512516
O O7 0.034169 0.495938 0.178533
O O8 0.143463 0.735034 0.803970
O O9 0.194918 0.658028 0.897437
O O10 0.954142 0.763456 0.204461
O O11 0.761643 0.904661 0.736562
O O12 0.755046 0.899406 0.569046
O O13 0.219971 0.210513 0.657005
O O14 0.349312 0.131719 0.603595
O O15 0.652760 0.391571 0.990505
O O16 0.847646 0.470331 0.803707
#
# Coordination Sequence:
#
# PCOD9241939 Si02
#       8
#     4   4   4   4   4   4   4   4
#     4  10  20  39  67  86 118 166 212 267 306 375
#     4  10  19  38  62  86 119 166 210 243 321 381
#     4  11  21  37  57  97 127 161 206 261 306 391
#     4  11  24  36  59  97 130 157 210 260 312 383
#     4  10  21  42  60  88 126 167 206 258 313 382
#     4  11  21  39  65  94 118 166 215 255 323 385
#     4   9  21  44  64  90 120 168 219 257 321 381
#     4  10  22  38  65  84 130 171 196 249 327 375
#
# _framework density 23.115417000000001
#
# number of rings (size 3 to 8) (size 9 to 14) (size 15 to 20)
#    0.000    1.750    3.750    2.625    3.500    0.500 
#    6.750    6.250    0.000    2.250    0.000    0.000 
#    0.000    0.000    0.000    0.000    0.000    0.000 
#
# Total GULP energy -178140.820573 kJ/mol
# GULP energy per Si atom -5566.900643 kJ/mol
# Density = 2.306281 g / cm^3
# Si number density = 23.115417 Si / 1000 Ang^3
#
#
#
# Elastic Constant Matrix: (Units=GPa)
#
#
# Indices 1 2 3 4 5 6 
#
# 1 79.6474 28.9362 11.4463 0.0000 6.0628 0.0000
# 2 28.9362 75.2834 9.6113 0.0000 11.6774 0.0000
# 3 11.4463 9.6113 36.5003 0.0000 2.9867 0.0000
# 4 0.0000 0.0000 0.0000 27.7752 0.0000 13.2551
# 5 6.0628 11.6774 2.9867 0.0000 27.4110 0.0000
# 6 0.0000 0.0000 0.0000 13.2551 0.0000 31.7502
#
#
#
# Elastic Compliance Matrix: (Units=1/GPa)
#
#
# Indices 1 2 3 4 5 6 
#
# 1 0.014979 -0.005228 -0.003261 0.000000 -0.000731 0.000000
# 2 -0.005228 0.016447 -0.002233 0.000000 -0.005607 0.000000
# 3 -0.003261 -0.002233 0.029130 0.000000 -0.001502 0.000000
# 4 0.000000 0.000000 0.000000 0.044961 0.000000 -0.018770
# 5 -0.000731 -0.005607 -0.001502 0.000000 0.039196 0.000000
# 6 0.000000 0.000000 0.000000 -0.018770 0.000000 0.039332
#
#
# Mechanical properties :
#
#
# Convention : Reuss Voigt Hill
#
# Bulk Modulus (GPa) = 25.56634 32.37986 28.97310
# Shear Modulus (GPa) = 22.88056 26.81642 24.84849
#
# Velocity S-wave (km/s) = 3.14959 3.40973 3.28224
# Velocity P-wave (km/s) = 4.93060 5.43507 5.18897
#
# Compressibility (1/GPa) = 0.03911392
#
# Stress axis : x y z
#
# Youngs Moduli (GPa) = 66.76094 60.80042 34.32831
#
# Poissons Ratio (x) = 0.31784 0.11194
# Poissons Ratio (y) = 0.34900 0.07665
# Poissons Ratio (z) = 0.21770 0.13575
#
# Static dielectric constant tensor:
#      x y z
#    x 1.956010 0.000000 0.003660 
#    y 0.000000 1.929800 0.000000 
#    z 0.003660 0.000000 1.918780 
# 
# From -- ./inp_files/51346.got.cif
#   From: 2010.05.17/outbox.cif.g08.bks.cpg/sg14_26_cif.got.tgz:51346.got - 2010.06.03 17:49:19.
