data_PCOD9241340
_publ_section_title
;
Structure prediction by ZEFSAII (Michael W. Deem and Ramdas Pophale) SiO2 
 PCOD9241340
Probable space group: P 21/C
;
_chemical_formula_sum "Si O2"
_cell_formula_units_Z 32
_cell_length_a 14.336688
_cell_length_b 8.116504
_cell_length_c 16.829716
_cell_angle_alpha 90.000000
_cell_angle_beta 120.906647
_cell_angle_gamma 90.000000
_cell_volume 1680.291423
_symmetry_space_group_name_H-M "P 21/C"
_symmetry_group_IT_number 14
_symmetry_cell_setting 'monoclinic'
loop_
_space_group_symop_operation_xyz
x,y,z
-x,1/2+y,1/2-z
-x,-y,-z
x,1/2-y,1/2+z
loop_
_atom_site_type_symbol
_atom_site_label
_atom_site_fract_x
_atom_site_fract_y
_atom_site_fract_z
Si Si1 0.442451 0.958175 0.735467
Si Si2 0.264347 0.423538 0.280713
Si Si3 0.237898 0.031205 0.949668
Si Si4 0.004108 0.939847 0.094092
Si Si5 0.716398 0.200486 0.884668
Si Si6 0.220255 0.399223 0.694877
Si Si7 0.907869 0.088227 0.407345
Si Si8 0.353311 0.271888 0.616832
O O1 0.395928 0.792707 0.676062
O O2 0.562499 0.913056 0.816741
O O3 0.366480 0.003037 0.777420
O O4 0.416045 0.103569 0.661735
O O5 0.258578 0.492560 0.366542
O O6 0.272475 0.223544 0.281781
O O7 0.154973 0.476814 0.184922
O O8 0.110307 0.047133 0.912730
O O9 0.307663 0.188650 0.010572
O O10 0.274456 0.890337 0.027562
O O11 0.039914 0.749924 0.109988
O O12 0.098337 0.059469 0.167769
O O13 0.000000 0.000000 0.000000
O O14 0.811787 0.336904 0.920360
O O15 0.737834 0.076496 0.819201
O O16 0.246504 0.291024 0.626638
O O17 0.000000 0.000000 0.500000
#
# Coordination Sequence:
#
# PCOD9241340 Si02
#       8
#     4   4   4   4   4   4   4   4
#     4  10  21  39  63  88 110 151 199 239 277 350
#     4  10  23  37  55  89 123 148 192 243 293 339
#     4  11  22  36  57  87 121 154 187 242 300 333
#     4  11  18  34  57  82 114 159 195 235 279 341
#     4   9  19  35  60  81 109 150 195 230 281 344
#     4   9  18  35  57  79 112 153 189 229 277 344
#     4  10  20  33  57  80 111 154 198 235 276 340
#     4  10  19  35  61  84 110 148 199 233 283 342
#
# _framework density 19.044315999999998
#
# number of rings (size 3 to 8) (size 9 to 14) (size 15 to 20)
#    0.000    2.000    3.750    2.250    3.500    1.500 
#    0.000    3.750    0.000    4.500    0.000    0.000 
#    0.000    0.000    0.000    0.000    0.000    0.000 
#
# Total GULP energy -178164.343504 kJ/mol
# GULP energy per Si atom -5567.635734 kJ/mol
# Density = 1.900097 g / cm^3
# Si number density = 19.044316 Si / 1000 Ang^3
#
#
#
# Elastic Constant Matrix: (Units=GPa)
#
#
# Indices 1 2 3 4 5 6 
#
# 1 68.1256 16.6600 50.9835 0.0000 3.1375 0.0000
# 2 16.6600 85.6127 30.6750 0.0000 1.4817 0.0000
# 3 50.9835 30.6750 87.5875 0.0000 0.8760 0.0000
# 4 0.0000 0.0000 0.0000 29.0428 0.0000 10.3248
# 5 3.1375 1.4817 0.8760 0.0000 26.0110 0.0000
# 6 0.0000 0.0000 0.0000 10.3248 0.0000 17.9450
#
#
#
# Elastic Compliance Matrix: (Units=1/GPa)
#
#
# Indices 1 2 3 4 5 6 
#
# 1 0.026205 0.000460 -0.015388 0.000000 -0.002669 0.000000
# 2 0.000460 0.013374 -0.004945 0.000000 -0.000651 0.000000
# 3 -0.015388 -0.004945 0.022092 0.000000 0.001394 0.000000
# 4 0.000000 0.000000 0.000000 0.043286 0.000000 -0.024905
# 5 -0.002669 -0.000651 0.001394 0.000000 0.038757 0.000000
# 6 0.000000 0.000000 0.000000 -0.024905 0.000000 0.070055
#
#
# Mechanical properties :
#
#
# Convention : Reuss Voigt Hill
#
# Bulk Modulus (GPa) = 45.60933 48.66251 47.13592
# Shear Modulus (GPa) = 19.16991 24.13356 21.65173
#
# Velocity S-wave (km/s) = 3.17613 3.56368 3.37547
# Velocity P-wave (km/s) = 6.11976 6.52233 6.32425
#
# Compressibility (1/GPa) = 0.02192534
#
# Stress axis : x y z
#
# Youngs Moduli (GPa) = 38.16019 74.77135 45.26431
#
# Poissons Ratio (x) = -0.03442 0.69654
# Poissons Ratio (y) = -0.01757 0.22385
# Poissons Ratio (z) = 0.58722 0.36977
#
# Static dielectric constant tensor:
#      x y z
#    x 1.676670 0.000000 0.041440 
#    y 0.000000 1.753520 0.000000 
#    z 0.041440 0.000000 1.677790 
# 
# From -- ./inp_files/58905.got.cif
#   From: 2010.05.17/outbox.cif.g08.bks.cpg/sg14_30_cif.got.tgz:58905.got - 2010.06.03 17:49:19.
