data_PCOD9241258
_publ_section_title
;
Structure prediction by ZEFSAII (Michael W. Deem and Ramdas Pophale) SiO2 
 PCOD9241258
Probable space group: P 21/C
;
_chemical_formula_sum "Si O2"
_cell_formula_units_Z 24
_cell_length_a 15.489540
_cell_length_b 14.632198
_cell_length_c 8.328738
_cell_angle_alpha 90.000000
_cell_angle_beta 28.810435
_cell_angle_gamma 90.000000
_cell_volume 909.695758
_symmetry_space_group_name_H-M "P 21/C"
_symmetry_group_IT_number 14
_symmetry_cell_setting 'monoclinic'
loop_
_space_group_symop_operation_xyz
x,y,z
-x,1/2+y,1/2-z
-x,-y,-z
x,1/2-y,1/2+z
loop_
_atom_site_type_symbol
_atom_site_label
_atom_site_fract_x
_atom_site_fract_y
_atom_site_fract_z
Si Si1 0.923369 0.055098 0.977770
Si Si2 0.482432 0.938809 0.365275
Si Si3 0.444682 0.723992 0.132850
Si Si4 0.015147 0.384009 0.803010
Si Si5 0.584709 0.390214 0.502979
Si Si6 0.005206 0.712311 0.836344
O O1 0.912477 0.984687 0.845822
O O2 0.031685 0.143891 0.750702
O O3 0.722907 0.080507 0.344713
O O4 0.000000 0.000000 0.000000
O O5 0.500000 0.000000 0.500000
O O6 0.537764 0.839779 0.345057
O O7 0.544438 0.006040 0.121465
O O8 0.486987 0.830403 0.031149
O O9 0.478357 0.673790 0.245598
O O10 0.224242 0.718422 0.483191
O O11 0.070796 0.311699 0.575821
O O12 0.800123 0.390037 0.142986
O O13 0.057091 0.338441 0.903677
#
# Coordination Sequence:
#
# PCOD9241258 Si02
#       6
#     4   4   4   4   4   4
#     4  11  22  37  56  83 116 147 182 230 279 329
#     4   9  19  37  56  77 109 147 180 222 276 327
#     4   8  16  31  53  76 103 139 178 215 265 327
#     4  10  19  35  58  82 108 146 191 228 270 331
#     4   9  17  33  55  77 101 139 183 220 261 320
#     4   9  18  33  55  79 108 148 186 223 275 336
#
# _framework density 26.382446000000002
#
# number of rings (size 3 to 8) (size 9 to 14) (size 15 to 20)
#    0.000    2.667    0.000    2.500    0.000    4.000 
#    0.000   11.667    0.000    0.000    0.000    0.000 
#    0.000    0.000    0.000    0.000    0.000    0.000 
#
# Total GULP energy -134132.363457 kJ/mol
# GULP energy per Si atom -5588.848477 kJ/mol
# Density = 2.632240 g / cm^3
# Si number density = 26.382446 Si / 1000 Ang^3
#
#
#
# Elastic Constant Matrix: (Units=GPa)
#
#
# Indices 1 2 3 4 5 6 
#
# 1 33.3912 14.3432 13.7096 0.0000 12.7860 0.0000
# 2 14.3432 163.2818 33.1947 0.0000 22.7484 0.0000
# 3 13.7096 33.1947 76.3647 0.0000 9.5437 0.0000
# 4 0.0000 0.0000 0.0000 38.3894 0.0000 20.3260
# 5 12.7860 22.7484 9.5437 0.0000 28.0346 0.0000
# 6 0.0000 0.0000 0.0000 20.3260 0.0000 45.6263
#
#
#
# Elastic Compliance Matrix: (Units=1/GPa)
#
#
# Indices 1 2 3 4 5 6 
#
# 1 0.037938 -0.000198 -0.004786 0.000000 -0.015513 0.000000
# 2 -0.000198 0.007356 -0.002535 0.000000 -0.005015 0.000000
# 3 -0.004786 -0.002535 0.015172 0.000000 -0.000925 0.000000
# 4 0.000000 0.000000 0.000000 0.034090 0.000000 -0.015187
# 5 -0.015513 -0.005015 -0.000925 0.000000 0.047130 0.000000
# 6 0.000000 0.000000 0.000000 -0.015187 0.000000 0.028683
#
#
# Mechanical properties :
#
#
# Convention : Reuss Voigt Hill
#
# Bulk Modulus (GPa) = 22.01335 43.94807 32.98071
# Shear Modulus (GPa) = 24.93148 36.52941 30.73044
#
# Velocity S-wave (km/s) = 3.07742 3.72507 3.41663
# Velocity P-wave (km/s) = 4.58142 5.93260 5.30025
#
# Compressibility (1/GPa) = 0.04542698
#
# Stress axis : x y z
#
# Youngs Moduli (GPa) = 26.35857 135.94465 65.91143
#
# Poissons Ratio (x) = 0.02697 0.31546
# Poissons Ratio (y) = 0.00523 0.16709
# Poissons Ratio (z) = 0.12615 0.34463
#
# Static dielectric constant tensor:
#      x y z
#    x 2.137070 0.000000 0.042010 
#    y 0.000000 2.045150 0.000000 
#    z 0.042010 0.000000 2.066960 
# 
# From -- ./inp_files/8418.got.cif
#   From: 2010.05.17/outbox.cif.g08.bks.cpg/sg14_5_cif.got.tgz:8418.got - 2010.06.03 17:49:19.
