data_PCOD9241033
_publ_section_title
;
Structure prediction by ZEFSAII (Michael W. Deem and Ramdas Pophale) SiO2 
 PCOD9241033
Probable space group: P 21/C
;
_chemical_formula_sum "Si O2"
_cell_formula_units_Z 28
_cell_length_a 5.078486
_cell_length_b 14.378753
_cell_length_c 16.089698
_cell_angle_alpha 90.000000
_cell_angle_beta 71.351595
_cell_angle_gamma 90.000000
_cell_volume 1113.222449
_symmetry_space_group_name_H-M "P 21/C"
_symmetry_group_IT_number 14
_symmetry_cell_setting 'monoclinic'
loop_
_space_group_symop_operation_xyz
x,y,z
-x,1/2+y,1/2-z
-x,-y,-z
x,1/2-y,1/2+z
loop_
_atom_site_type_symbol
_atom_site_label
_atom_site_fract_x
_atom_site_fract_y
_atom_site_fract_z
Si Si1 0.759575 0.305806 0.580256
Si Si2 0.105303 0.564434 0.566130
Si Si3 0.101648 0.849489 0.327033
Si Si4 0.187568 0.110462 0.157900
Si Si5 0.674244 0.875691 0.240747
Si Si6 0.036223 0.451838 0.907722
Si Si7 0.358728 0.582629 0.177461
O O1 0.729819 0.351269 0.493027
O O2 0.810028 0.197887 0.594534
O O3 0.485544 0.348155 0.653491
O O4 0.047827 0.341036 0.592055
O O5 0.243744 0.495208 0.619767
O O6 0.000000 0.500000 0.500000
O O7 0.856425 0.609878 0.641833
O O8 0.381266 0.831527 0.247516
O O9 0.059225 0.957638 0.346088
O O10 0.841877 0.821458 0.296499
O O11 0.921004 0.117828 0.246181
O O12 0.618541 0.978475 0.284919
O O13 0.313994 0.391515 0.863114
O O14 0.750048 0.407778 0.906038
O O15 0.000000 0.500000 0.000000
#
# Coordination Sequence:
#
# PCOD9241033 Si02
#       7
#     4   4   4   4   4   4   4
#     4  11  21  35  55  81 115 146 182 232 283 342
#     4   9  20  36  60  90 114 144 193 248 293 336
#     4  10  21  37  54  77 112 156 187 219 287 355
#     4  10  20  35  56  82 111 145 184 232 290 343
#     4   9  19  36  57  77 108 147 185 224 281 353
#     4  10  19  34  56  79 104 141 191 238 271 319
#     4   9  18  33  54  78 103 135 179 229 279 332
#
# _framework density 25.152204999999999
#
# number of rings (size 3 to 8) (size 9 to 14) (size 15 to 20)
#    0.000    2.286    0.000    2.571    0.000    9.143 
#    0.000    4.286    0.000    1.714    0.000    0.000 
#    0.000    0.000    0.000    0.000    0.000    0.000 
#
# Total GULP energy -155893.520493 kJ/mol
# GULP energy per Si atom -5567.625732 kJ/mol
# Density = 2.509496 g / cm^3
# Si number density = 25.152205 Si / 1000 Ang^3
#
#
#
# Elastic Constant Matrix: (Units=GPa)
#
#
# Indices 1 2 3 4 5 6 
#
# 1 119.1272 11.0493 8.0480 0.0000 -15.9375 0.0000
# 2 11.0493 36.2610 -19.0799 0.0000 -2.1607 0.0000
# 3 8.0480 -19.0799 63.3038 0.0000 4.6894 0.0000
# 4 0.0000 0.0000 0.0000 13.3438 0.0000 -1.3125
# 5 -15.9375 -2.1607 4.6894 0.0000 24.5328 0.0000
# 6 0.0000 0.0000 0.0000 -1.3125 0.0000 26.0484
#
#
#
# Elastic Compliance Matrix: (Units=1/GPa)
#
#
# Indices 1 2 3 4 5 6 
#
# 1 0.009873 -0.004198 -0.003011 0.000000 0.006620 0.000000
# 2 -0.004198 0.034586 0.011091 0.000000 -0.001801 0.000000
# 3 -0.003011 0.011091 0.019877 0.000000 -0.004779 0.000000
# 4 0.000000 0.000000 0.000000 0.075314 0.000000 0.003795
# 5 0.006620 -0.001801 -0.004779 0.000000 0.045817 0.000000
# 6 0.000000 0.000000 0.000000 0.003795 0.000000 0.038581
#
#
# Mechanical properties :
#
#
# Convention : Reuss Voigt Hill
#
# Bulk Modulus (GPa) = 13.86964 24.30297 19.08630
# Shear Modulus (GPa) = 20.80589 27.36330 24.08460
#
# Velocity S-wave (km/s) = 2.87923 3.30192 3.09779
# Velocity P-wave (km/s) = 4.07180 4.92141 4.51662
#
# Compressibility (1/GPa) = 0.07209993
#
# Stress axis : x y z
#
# Youngs Moduli (GPa) = 101.28843 28.91354 50.31041
#
# Poissons Ratio (x) = 0.12139 0.15148
# Poissons Ratio (y) = 0.42523 -0.55801
# Poissons Ratio (z) = 0.30497 -0.32069
#
# Static dielectric constant tensor:
#      x y z
#    x 2.020500 0.000000 0.019930 
#    y 0.000000 2.147170 0.000000 
#    z 0.019930 0.000000 2.098690 
# 
# From -- ./inp_files/53241.got.cif
#   From: 2010.05.17/outbox.cif.g08.bks.cpg/sg14_27_cif.got.tgz:53241.got - 2010.06.03 17:49:19.
