data_PCOD9241713
_publ_section_title
;
Structure prediction by ZEFSAII (Michael W. Deem and Ramdas Pophale) SiO2 
 PCOD9241713
Probable space group: P 21/C
;
_chemical_formula_sum "Si O2"
_cell_formula_units_Z 24
_cell_length_a 7.334803
_cell_length_b 14.584777
_cell_length_c 8.373372
_cell_angle_alpha 90.000000
_cell_angle_beta 86.435613
_cell_angle_gamma 90.000000
_cell_volume 894.020968
_symmetry_space_group_name_H-M "P 21/C"
_symmetry_group_IT_number 14
_symmetry_cell_setting 'monoclinic'
loop_
_space_group_symop_operation_xyz
x,y,z
-x,1/2+y,1/2-z
-x,-y,-z
x,1/2-y,1/2+z
loop_
_atom_site_type_symbol
_atom_site_label
_atom_site_fract_x
_atom_site_fract_y
_atom_site_fract_z
Si Si1 0.150054 0.882221 0.317215
Si Si2 0.489787 0.112780 0.161890
Si Si3 0.067116 0.448227 0.654235
Si Si4 0.984677 0.282744 0.863500
Si Si5 0.387619 0.280666 0.972459
Si Si6 0.447748 0.054075 0.665751
O O1 0.108677 0.835477 0.486754
O O2 0.099849 0.812157 0.182065
O O3 0.361726 0.903714 0.290302
O O4 0.043942 0.977504 0.297385
O O5 0.283748 0.075262 0.142975
O O6 0.497974 0.193451 0.031378
O O7 0.497591 0.168748 0.327248
O O8 0.607227 0.020946 0.196472
O O9 0.000000 0.500000 0.500000
O O10 0.979684 0.352283 0.712627
O O11 0.191823 0.260821 0.905582
O O12 0.339997 0.356339 0.112856
O O13 0.500000 0.000000 0.500000
#
# Coordination Sequence:
#
# PCOD9241713 Si02
#       6
#     4   4   4   4   4   4
#     4  11  22  38  59  88 120 154 197 243 292 350
#     4   9  19  35  57  83 111 150 191 235 289 345
#     4  10  20  36  57  84 120 154 190 242 296 347
#     4  11  22  37  62  91 116 154 199 245 293 346
#     4  10  19  37  60  82 113 154 193 236 290 349
#     4   9  21  39  58  80 118 158 189 235 297 351
#
# _framework density 26.845011
#
# number of rings (size 3 to 8) (size 9 to 14) (size 15 to 20)
#    0.000    2.000    0.000    5.500    0.000    2.667 
#    0.000    0.833    0.000    0.000    0.000    3.500 
#    0.000    0.000    0.000    0.000    0.000    0.000 
#
# Total GULP energy -134421.518878 kJ/mol
# GULP energy per Si atom -5600.896620 kJ/mol
# Density = 2.678391 g / cm^3
# Si number density = 26.845011 Si / 1000 Ang^3
#
#
#
# Elastic Constant Matrix: (Units=GPa)
#
#
# Indices 1 2 3 4 5 6 
#
# 1 46.5777 40.2443 27.8802 0.0000 22.3968 0.0000
# 2 40.2443 158.3477 74.4658 0.0000 21.4723 0.0000
# 3 27.8802 74.4658 117.0095 0.0000 11.4571 0.0000
# 4 0.0000 0.0000 0.0000 87.3082 0.0000 25.3714
# 5 22.3968 21.4723 11.4571 0.0000 38.0657 0.0000
# 6 0.0000 0.0000 0.0000 25.3714 0.0000 41.3137
#
#
#
# Elastic Compliance Matrix: (Units=1/GPa)
#
#
# Indices 1 2 3 4 5 6 
#
# 1 0.036568 -0.005182 -0.003704 0.000000 -0.017478 0.000000
# 2 -0.005182 0.010212 -0.005150 0.000000 -0.001161 0.000000
# 3 -0.003704 -0.005150 0.012580 0.000000 0.001298 0.000000
# 4 0.000000 0.000000 0.000000 0.013942 0.000000 -0.008562
# 5 -0.017478 -0.001161 0.001298 0.000000 0.036818 0.000000
# 6 0.000000 0.000000 0.000000 -0.008562 0.000000 0.029463
#
#
# Mechanical properties :
#
#
# Convention : Reuss Voigt Hill
#
# Bulk Modulus (GPa) = 31.96248 67.45727 49.70988
# Shear Modulus (GPa) = 28.07664 45.29382 36.68523
#
# Velocity S-wave (km/s) = 3.23751 4.11205 3.70071
# Velocity P-wave (km/s) = 5.08994 6.90856 6.06777
#
# Compressibility (1/GPa) = 0.03128668
#
# Stress axis : x y z
#
# Youngs Moduli (GPa) = 27.34616 97.92634 79.49433
#
# Poissons Ratio (x) = 0.50745 0.29445
# Poissons Ratio (y) = 0.14171 0.40943
# Poissons Ratio (z) = 0.10129 0.50436
#
# Static dielectric constant tensor:
#      x y z
#    x 2.123740 0.000000 -0.069000 
#    y 0.000000 2.100060 0.000000 
#    z -0.069000 0.000000 2.193720 
# 
# From -- ./inp_files/8534.got.cif
#   From: 2010.05.17/outbox.cif.g08.bks.cpg/sg14_5_cif.got.tgz:8534.got - 2010.06.03 17:49:19.
