data_PCOD9241549
_publ_section_title
;
Structure prediction by ZEFSAII (Michael W. Deem and Ramdas Pophale) SiO2 
 PCOD9241549
Probable space group: P 21/C
;
_chemical_formula_sum "Si O2"
_cell_formula_units_Z 32
_cell_length_a 26.674212
_cell_length_b 10.003902
_cell_length_c 14.705399
_cell_angle_alpha 90.000000
_cell_angle_beta 18.233912
_cell_angle_gamma 90.000000
_cell_volume 1227.833331
_symmetry_space_group_name_H-M "P 21/C"
_symmetry_group_IT_number 14
_symmetry_cell_setting 'monoclinic'
loop_
_space_group_symop_operation_xyz
x,y,z
-x,1/2+y,1/2-z
-x,-y,-z
x,1/2-y,1/2+z
loop_
_atom_site_type_symbol
_atom_site_label
_atom_site_fract_x
_atom_site_fract_y
_atom_site_fract_z
Si Si1 0.295657 0.216210 0.471307
Si Si2 0.239572 0.495026 0.499351
Si Si3 0.376368 0.387281 0.628568
Si Si4 0.261775 0.931104 0.544980
Si Si5 0.081855 0.660406 0.635569
Si Si6 0.555431 0.605110 0.028217
Si Si7 0.909165 0.436325 0.845333
Si Si8 0.379577 0.826628 0.513916
O O1 0.209929 0.360954 0.609392
O O2 0.213932 0.084086 0.653675
O O3 0.332775 0.168675 0.303603
O O4 0.462240 0.245279 0.235552
O O5 0.090490 0.574385 0.712933
O O6 0.367892 0.594878 0.324477
O O7 0.340924 0.441392 0.237579
O O8 0.556630 0.438089 0.307927
O O9 0.382292 0.252822 0.557550
O O10 0.754517 0.498749 0.165711
O O11 0.150902 0.897026 0.650760
O O12 0.276452 0.822530 0.599658
O O13 0.001618 0.804681 0.772134
O O14 0.263630 0.699345 0.298390
O O15 0.023736 0.562860 0.656769
O O16 0.573952 0.483960 0.066141
#
# Coordination Sequence:
#
# PCOD9241549 Si02
#       8
#     4   4   4   4   4   4   4   4
#     4   9  18  35  58  86 118 154 197 242 304 348
#     4   8  15  31  56  80 109 141 192 250 279 334
#     4  10  19  36  61  85 121 147 203 256 292 350
#     4  11  22  35  60  90 123 155 194 251 308 357
#     4  11  23  40  62  86 117 159 210 244 292 358
#     4   8  15  29  56  84 107 145 187 234 297 346
#     4  11  25  39  64  88 116 164 205 252 289 348
#     4  10  21  35  58  90 125 155 184 250 310 365
#
# _framework density 26.062169000000001
#
# number of rings (size 3 to 8) (size 9 to 14) (size 15 to 20)
#    0.000    2.250    0.000    6.000    8.750    0.500 
#    0.000    0.000    0.000    0.750    0.000    0.000 
#    0.000    0.000    0.000    0.000    0.000    0.000 
#
# Total GULP energy -178622.353903 kJ/mol
# GULP energy per Si atom -5581.948559 kJ/mol
# Density = 2.600285 g / cm^3
# Si number density = 26.062169 Si / 1000 Ang^3
#
#
#
# Elastic Constant Matrix: (Units=GPa)
#
#
# Indices 1 2 3 4 5 6 
#
# 1 55.5582 14.3845 3.9830 0.0000 -8.4808 0.0000
# 2 14.3845 162.7136 4.1018 0.0000 -8.0468 0.0000
# 3 3.9830 4.1018 51.8740 0.0000 -4.4629 0.0000
# 4 0.0000 0.0000 0.0000 27.9323 0.0000 -9.8202
# 5 -8.4808 -8.0468 -4.4629 0.0000 15.9720 0.0000
# 6 0.0000 0.0000 0.0000 -9.8202 0.0000 27.8507
#
#
#
# Elastic Compliance Matrix: (Units=1/GPa)
#
#
# Indices 1 2 3 4 5 6 
#
# 1 0.019854 -0.001259 -0.000587 0.000000 0.009744 0.000000
# 2 -0.001259 0.006385 -0.000194 0.000000 0.002495 0.000000
# 3 -0.000587 -0.000194 0.019778 0.000000 0.005117 0.000000
# 4 0.000000 0.000000 0.000000 0.040867 0.000000 0.014410
# 5 0.009744 0.002495 0.005117 0.000000 0.070470 0.000000
# 6 0.000000 0.000000 0.000000 0.014410 0.000000 0.040987
#
#
# Mechanical properties :
#
#
# Convention : Reuss Voigt Hill
#
# Bulk Modulus (GPa) = 23.84345 35.00939 29.42642
# Shear Modulus (GPa) = 23.10542 30.86276 26.98409
#
# Velocity S-wave (km/s) = 2.98073 3.44495 3.22121
# Velocity P-wave (km/s) = 4.58420 5.41163 5.01501
#
# Compressibility (1/GPa) = 0.04194023
#
# Stress axis : x y z
#
# Youngs Moduli (GPa) = 50.36648 156.61040 50.56097
#
# Poissons Ratio (x) = 0.19710 0.02966
# Poissons Ratio (y) = 0.06339 0.00979
# Poissons Ratio (z) = 0.02955 0.03033
#
# Static dielectric constant tensor:
#      x y z
#    x 2.109250 0.000000 0.014410 
#    y 0.000000 2.157710 0.000000 
#    z 0.014410 0.000000 2.064230 
# 
# From -- ./inp_files/62704.got.cif
#   From: 2010.05.17/outbox.cif.g08.bks.cpg/sg14_32_cif.got.tgz:62704.got - 2010.06.03 17:49:19.
