data_PCOD9241253
_publ_section_title
;
Structure prediction by ZEFSAII (Michael W. Deem and Ramdas Pophale) SiO2 
 PCOD9241253
Probable space group: P 21/C
;
_chemical_formula_sum "Si O2"
_cell_formula_units_Z 32
_cell_length_a 11.613585
_cell_length_b 24.296297
_cell_length_c 11.474484
_cell_angle_alpha 90.000000
_cell_angle_beta 33.484543
_cell_angle_gamma 90.000000
_cell_volume 1786.290087
_symmetry_space_group_name_H-M "P 21/C"
_symmetry_group_IT_number 14
_symmetry_cell_setting 'monoclinic'
loop_
_space_group_symop_operation_xyz
x,y,z
-x,1/2+y,1/2-z
-x,-y,-z
x,1/2-y,1/2+z
loop_
_atom_site_type_symbol
_atom_site_label
_atom_site_fract_x
_atom_site_fract_y
_atom_site_fract_z
Si Si1 0.509165 0.257894 0.860960
Si Si2 0.925121 0.286442 0.120434
Si Si3 0.167031 0.607472 0.934298
Si Si4 0.195480 0.835332 0.034531
Si Si5 0.818863 0.685755 0.693415
Si Si6 0.236694 0.444648 0.655465
Si Si7 0.587637 0.643213 0.672774
Si Si8 0.385342 0.933704 0.012400
O O1 0.692805 0.236759 0.791622
O O2 0.629898 0.293998 0.662823
O O3 0.411688 0.203575 0.886083
O O4 0.340553 0.292254 0.074660
O O5 0.951731 0.337293 0.008097
O O6 0.919631 0.308572 0.256232
O O7 0.088125 0.238842 0.953541
O O8 0.345261 0.624429 0.875483
O O9 0.281296 0.585415 0.722271
O O10 0.005894 0.562485 0.114250
O O11 0.309450 0.890489 0.981117
O O12 0.017718 0.842458 0.087016
O O13 0.695830 0.648174 0.705908
O O14 0.295669 0.399246 0.510022
O O15 0.369960 0.433741 0.661436
O O16 0.308386 0.504701 0.553336
#
# Coordination Sequence:
#
# PCOD9241253 Si02
#       8
#     4   4   4   4   4   4   4   4
#     4  10  20  34  53  76 107 142 175 215 259 310
#     4   9  19  33  51  78 107 135 175 217 260 310
#     4   9  18  33  55  80 103 131 169 217 266 309
#     4  10  21  35  52  78 107 138 175 216 261 313
#     4  11  21  33  51  75 108 146 174 208 260 314
#     4  10  19  35  58  77 102 135 168 223 273 302
#     4  10  21  33  50  80 107 134 177 210 253 318
#     4   9  20  36  55  81 102 128 177 220 264 317
#
# _framework density 17.914224000000001
#
# number of rings (size 3 to 8) (size 9 to 14) (size 15 to 20)
#    0.000    2.250    0.000    3.375    0.000    7.000 
#    0.000    0.625    0.000    1.500    0.000    0.000 
#    0.000    0.000    0.000    0.000    0.000    0.000 
#
# Total GULP energy -178575.320855 kJ/mol
# GULP energy per Si atom -5580.478777 kJ/mol
# Density = 1.787345 g / cm^3
# Si number density = 17.914224 Si / 1000 Ang^3
#
#
#
# Elastic Constant Matrix: (Units=GPa)
#
#
# Indices 1 2 3 4 5 6 
#
# 1 93.2079 47.6760 11.2032 0.0000 2.7298 0.0000
# 2 47.6760 73.3889 6.0712 0.0000 -0.0755 0.0000
# 3 11.2032 6.0712 22.3882 0.0000 2.3808 0.0000
# 4 0.0000 0.0000 0.0000 18.9888 0.0000 -7.4928
# 5 2.7298 -0.0755 2.3808 0.0000 8.2702 0.0000
# 6 0.0000 0.0000 0.0000 -7.4928 0.0000 20.2162
#
#
#
# Elastic Compliance Matrix: (Units=1/GPa)
#
#
# Indices 1 2 3 4 5 6 
#
# 1 0.016853 -0.010528 -0.005134 0.000000 -0.004181 0.000000
# 2 -0.010528 0.020528 -0.000710 0.000000 0.003867 0.000000
# 3 -0.005134 -0.000710 0.048740 0.000000 -0.012343 0.000000
# 4 0.000000 0.000000 0.000000 0.061684 0.000000 0.022862
# 5 -0.004181 0.003867 -0.012343 0.000000 0.125884 0.000000
# 6 0.000000 0.000000 0.000000 0.022862 0.000000 0.057939
#
#
# Mechanical properties :
#
#
# Convention : Reuss Voigt Hill
#
# Bulk Modulus (GPa) = 18.73414 35.43178 27.08296
# Shear Modulus (GPa) = 13.08335 17.76401 15.42368
#
# Velocity S-wave (km/s) = 2.70540 3.15241 2.93742
# Velocity P-wave (km/s) = 4.49881 5.75080 5.16290
#
# Compressibility (1/GPa) = 0.05337849
#
# Stress axis : x y z
#
# Youngs Moduli (GPa) = 59.33516 48.71354 20.51687
#
# Poissons Ratio (x) = 0.51286 0.10533
# Poissons Ratio (y) = 0.62469 0.01456
# Poissons Ratio (z) = 0.30462 0.03457
#
# Static dielectric constant tensor:
#      x y z
#    x 1.616630 0.000000 -0.016040 
#    y 0.000000 1.608420 0.000000 
#    z -0.016040 0.000000 1.609460 
# 
# From -- ./inp_files/22093.got.cif
#   From: 2010.05.17/outbox.cif.g08.bks.cpg/sg14_12_cif.got.tgz:22093.got - 2010.06.03 17:49:19.
