data_PCOD9241031
_publ_section_title
;
Structure prediction by ZEFSAII (Michael W. Deem and Ramdas Pophale) SiO2 
 PCOD9241031
Probable space group: P 21/C
;
_chemical_formula_sum "Si O2"
_cell_formula_units_Z 28
_cell_length_a 5.095680
_cell_length_b 14.664703
_cell_length_c 19.117618
_cell_angle_alpha 90.000000
_cell_angle_beta 47.978563
_cell_angle_gamma 90.000000
_cell_volume 1061.295433
_symmetry_space_group_name_H-M "P 21/C"
_symmetry_group_IT_number 14
_symmetry_cell_setting 'monoclinic'
loop_
_space_group_symop_operation_xyz
x,y,z
-x,1/2+y,1/2-z
-x,-y,-z
x,1/2-y,1/2+z
loop_
_atom_site_type_symbol
_atom_site_label
_atom_site_fract_x
_atom_site_fract_y
_atom_site_fract_z
Si Si1 0.339220 0.334849 0.906183
Si Si2 0.292315 0.921857 0.937512
Si Si3 0.902005 0.244520 0.113281
Si Si4 0.071034 0.335360 0.372371
Si Si5 0.748324 0.433479 0.303218
Si Si6 0.327882 0.337347 0.141590
Si Si7 0.236692 0.583753 0.058284
O O1 0.259122 0.258805 0.861418
O O2 0.158762 0.288108 0.007824
O O3 0.159148 0.423745 0.900835
O O4 0.700116 0.369906 0.877616
O O5 0.193023 0.857358 0.890784
O O6 0.658043 0.974423 0.860414
O O7 0.234172 0.858981 0.015625
O O8 0.000000 0.000000 0.000000
O O9 0.547555 0.304616 0.168575
O O10 0.071109 0.259204 0.158197
O O11 0.390140 0.407664 0.326876
O O12 0.861418 0.354485 0.338293
O O13 0.086043 0.426882 0.193142
O O14 0.609934 0.351112 0.030382
O O15 0.500000 0.500000 0.000000
#
# Coordination Sequence:
#
# PCOD9241031 Si02
#       7
#     4   4   4   4   4   4   4
#     4   9  18  33  54  77 102 134 178 226 272 323
#     4   9  20  36  60  89 112 143 191 245 289 333
#     4   9  19  36  57  77 106 144 183 223 279 347
#     4  10  20  35  56  82 111 145 184 229 285 338
#     4  11  21  35  55  81 115 146 180 229 279 338
#     4  10  21  37  54  77 112 154 185 218 286 352
#     4  10  19  34  56  79 103 140 188 234 266 311
#
# _framework density 26.382853000000001
#
# number of rings (size 3 to 8) (size 9 to 14) (size 15 to 20)
#    0.000    2.286    0.000    2.571    0.000    9.143 
#    0.000    4.286    0.000    3.429    0.000    0.000 
#    0.000    0.000    0.000    0.000    0.000    0.000 
#
# Total GULP energy -156303.972741 kJ/mol
# GULP energy per Si atom -5582.284741 kJ/mol
# Density = 2.632280 g / cm^3
# Si number density = 26.382853 Si / 1000 Ang^3
#
#
#
# Elastic Constant Matrix: (Units=GPa)
#
#
# Indices 1 2 3 4 5 6 
#
# 1 129.6676 0.5237 19.4104 0.0000 20.4862 0.0000
# 2 0.5237 69.6263 -0.4342 0.0000 1.8117 0.0000
# 3 19.4104 -0.4342 49.5761 0.0000 -1.6192 0.0000
# 4 0.0000 0.0000 0.0000 28.3372 0.0000 -2.9707
# 5 20.4862 1.8117 -1.6192 0.0000 34.3966 0.0000
# 6 0.0000 0.0000 0.0000 -2.9707 0.0000 33.9145
#
#
#
# Elastic Compliance Matrix: (Units=1/GPa)
#
#
# Indices 1 2 3 4 5 6 
#
# 1 0.009168 0.000054 -0.003773 0.000000 -0.005641 0.000000
# 2 0.000054 0.014383 0.000079 0.000000 -0.000786 0.000000
# 3 -0.003773 0.000079 0.021756 0.000000 0.003267 0.000000
# 4 0.000000 0.000000 0.000000 0.035616 0.000000 0.003120
# 5 -0.005641 -0.000786 0.003267 0.000000 0.032627 0.000000
# 6 0.000000 0.000000 0.000000 0.003120 0.000000 0.029759
#
#
# Mechanical properties :
#
#
# Convention : Reuss Voigt Hill
#
# Bulk Modulus (GPa) = 26.29729 31.98552 29.14140
# Shear Modulus (GPa) = 30.62512 34.62102 32.62307
#
# Velocity S-wave (km/s) = 3.41074 3.62644 3.52024
# Velocity P-wave (km/s) = 5.04976 5.44836 5.25284
#
# Compressibility (1/GPa) = 0.03802674
#
# Stress axis : x y z
#
# Youngs Moduli (GPa) = 109.07734 69.52689 45.96485
#
# Poissons Ratio (x) = -0.00377 0.17344
# Poissons Ratio (y) = -0.00592 -0.00363
# Poissons Ratio (z) = 0.41157 -0.00550
#
# Static dielectric constant tensor:
#      x y z
#    x 2.098650 0.000000 -0.016060 
#    y 0.000000 2.125910 0.000000 
#    z -0.016060 0.000000 2.205170 
# 
# From -- ./inp_files/63741.got.cif
#   From: 2010.05.17/outbox.cif.g08.bks.cpg/sg14_32_cif.got.tgz:63741.got - 2010.06.03 17:49:19.
