data_PCOD9241814
_publ_section_title
;
Structure prediction by ZEFSAII (Michael W. Deem and Ramdas Pophale) SiO2 
 PCOD9241814
Probable space group: P 21/C
;
_chemical_formula_sum "Si O2"
_cell_formula_units_Z 28
_cell_length_a 26.404337
_cell_length_b 6.843332
_cell_length_c 13.792161
_cell_angle_alpha 90.000000
_cell_angle_beta 153.120338
_cell_angle_gamma 90.000000
_cell_volume 1126.748820
_symmetry_space_group_name_H-M "P 21/C"
_symmetry_group_IT_number 14
_symmetry_cell_setting 'monoclinic'
loop_
_space_group_symop_operation_xyz
x,y,z
-x,1/2+y,1/2-z
-x,-y,-z
x,1/2-y,1/2+z
loop_
_atom_site_type_symbol
_atom_site_label
_atom_site_fract_x
_atom_site_fract_y
_atom_site_fract_z
Si Si1 0.341295 0.740827 0.853940
Si Si2 0.102366 0.637119 0.893960
Si Si3 0.084105 0.107356 0.529465
Si Si4 0.339768 0.323545 0.418176
Si Si5 0.330278 0.504778 0.024676
Si Si6 0.511677 0.284068 0.563663
Si Si7 0.096960 0.127607 0.216496
O O1 0.228150 0.785131 0.601150
O O2 0.310752 0.590457 0.885005
O O3 0.434495 0.675027 0.935439
O O4 0.368318 0.946976 0.954838
O O5 0.080026 0.603577 0.970598
O O6 0.093748 0.428441 0.823654
O O7 0.016888 0.774465 0.691734
O O8 0.205880 0.184439 0.700644
O O9 0.087321 0.158163 0.649800
O O10 0.394610 0.235962 0.414439
O O11 0.385026 0.206606 0.589735
O O12 0.216872 0.457676 0.887024
O O13 0.401105 0.668519 0.201324
O O14 0.500000 0.500000 0.500000
O O15 0.000000 0.000000 0.000000
#
# Coordination Sequence:
#
# PCOD9241814 Si02
#       7
#     4   4   4   4   4   4   4
#     4  10  22  40  64  92 120 159 210 255 309 367
#     4  10  19  37  64  86 123 160 203 257 306 373
#     4   9  20  35  60  88 118 165 201 249 311 370
#     4   9  22  40  59  90 125 159 205 255 305 361
#     4  11  22  40  68  87 122 168 203 256 314 365
#     4  10  22  41  62  91 126 163 203 258 313 362
#     4   9  19  37  61  85 122 161 197 249 320 359
#
# _framework density 24.850259000000001
#
# number of rings (size 3 to 8) (size 9 to 14) (size 15 to 20)
#    0.000    2.286    1.429    0.000   10.000    0.571 
#    0.000    3.571   18.857    0.000    0.000    0.000 
#    0.000    0.000    0.000    0.000    0.000    0.000 
#
# Total GULP energy -156172.426138 kJ/mol
# GULP energy per Si atom -5577.586648 kJ/mol
# Density = 2.479370 g / cm^3
# Si number density = 24.850259 Si / 1000 Ang^3
#
#
#
# Elastic Constant Matrix: (Units=GPa)
#
#
# Indices 1 2 3 4 5 6 
#
# 1 101.1186 2.8299 8.4293 0.0000 2.6883 0.0000
# 2 2.8299 46.3672 -5.7153 0.0000 5.5895 0.0000
# 3 8.4293 -5.7153 66.9967 0.0000 -6.6817 0.0000
# 4 0.0000 0.0000 0.0000 21.6427 0.0000 -6.9163
# 5 2.6883 5.5895 -6.6817 0.0000 33.5598 0.0000
# 6 0.0000 0.0000 0.0000 -6.9163 0.0000 40.3556
#
#
#
# Elastic Compliance Matrix: (Units=1/GPa)
#
#
# Indices 1 2 3 4 5 6 
#
# 1 0.010052 -0.000671 -0.001419 0.000000 -0.000976 0.000000
# 2 -0.000671 0.022211 0.001648 0.000000 -0.003317 0.000000
# 3 -0.001419 0.001648 0.015538 0.000000 0.002933 0.000000
# 4 0.000000 0.000000 0.000000 0.048882 0.000000 0.008378
# 5 -0.000976 -0.003317 0.002933 0.000000 0.031012 0.000000
# 6 0.000000 0.000000 0.000000 0.008378 0.000000 0.026215
#
#
# Mechanical properties :
#
#
# Convention : Reuss Voigt Hill
#
# Bulk Modulus (GPa) = 21.31399 25.06337 23.18868
# Shear Modulus (GPa) = 29.33687 33.04084 31.18885
#
# Velocity S-wave (km/s) = 3.43963 3.65032 3.54654
# Velocity P-wave (km/s) = 4.93664 5.27959 5.11099
#
# Compressibility (1/GPa) = 0.04691754
#
# Stress axis : x y z
#
# Youngs Moduli (GPa) = 99.47856 45.02272 64.35924
#
# Poissons Ratio (x) = 0.03020 0.09135
# Poissons Ratio (y) = 0.06673 -0.10608
# Poissons Ratio (z) = 0.14119 -0.07421
#
# Static dielectric constant tensor:
#      x y z
#    x 1.911420 0.000000 0.198110 
#    y 0.000000 2.058750 0.000000 
#    z 0.198110 0.000000 1.458230 
# 
# From -- ./inp_files/51785.got.cif
#   From: 2010.05.17/outbox.cif.g08.bks.cpg/sg14_26_cif.got.tgz:51785.got - 2010.06.03 17:49:19.
