data_PCOD9241148
_publ_section_title
;
Structure prediction by ZEFSAII (Michael W. Deem and Ramdas Pophale) SiO2 
 PCOD9241148
Probable space group: P 21/C
;
_chemical_formula_sum "Si O2"
_cell_formula_units_Z 32
_cell_length_a 8.837680
_cell_length_b 6.724885
_cell_length_c 27.658536
_cell_angle_alpha 90.000000
_cell_angle_beta 90.536055
_cell_angle_gamma 90.000000
_cell_volume 1643.740724
_symmetry_space_group_name_H-M "P 21/C"
_symmetry_group_IT_number 14
_symmetry_cell_setting 'monoclinic'
loop_
_space_group_symop_operation_xyz
x,y,z
-x,1/2+y,1/2-z
-x,-y,-z
x,1/2-y,1/2+z
loop_
_atom_site_type_symbol
_atom_site_label
_atom_site_fract_x
_atom_site_fract_y
_atom_site_fract_z
Si Si1 0.354817 0.656970 0.202339
Si Si2 0.775296 0.887987 0.623696
Si Si3 0.888271 0.731620 0.956399
Si Si4 0.772717 0.110597 0.528147
Si Si5 0.540282 0.951555 0.132252
Si Si6 0.130152 0.918850 0.620445
Si Si7 0.614270 0.164699 0.694259
Si Si8 0.308109 0.881990 0.050262
O O1 0.439305 0.824725 0.170203
O O2 0.204593 0.597985 0.172927
O O3 0.330677 0.738544 0.255807
O O4 0.465579 0.467186 0.204216
O O5 0.716538 0.018198 0.577975
O O6 0.733748 0.014471 0.670858
O O7 0.690522 0.678790 0.624931
O O8 0.954041 0.866159 0.618974
O O9 0.854111 0.635587 0.903817
O O10 0.070086 0.730895 0.962505
O O11 0.804392 0.938256 0.961649
O O12 0.822907 0.576513 0.995375
O O13 0.661558 0.252522 0.497706
O O14 0.450149 0.957962 0.081459
O O15 0.575165 0.162465 0.156068
O O16 0.218650 0.768822 0.585430
#
# Coordination Sequence:
#
# PCOD9241148 Si02
#       8
#     4   4   4   4   4   4   4   4
#     4  10  20  39  63  81 106 145 193 234 279 340
#     4  10  23  39  53  83 123 149 177 234 295 330
#     4   9  17  33  57  85 112 155 192 229 275 331
#     4   9  19  34  54  81 123 152 186 234 278 328
#     4  10  22  38  58  85 112 148 188 236 283 338
#     4   9  20  38  57  86 117 143 186 241 278 333
#     4  11  21  39  61  80 108 148 187 233 288 339
#     4  10  19  34  62  87 108 153 204 224 270 338
#
# _framework density 19.467791999999999
#
# number of rings (size 3 to 8) (size 9 to 14) (size 15 to 20)
#    0.000    2.250    1.250    1.875    0.000    4.500 
#    2.250    1.250    0.000    0.000    0.000    0.000 
#    0.000    0.000    0.000    0.000    0.000    0.000 
#
# Total GULP energy -178711.834965 kJ/mol
# GULP energy per Si atom -5584.744843 kJ/mol
# Density = 1.942348 g / cm^3
# Si number density = 19.467792 Si / 1000 Ang^3
#
#
#
# Elastic Constant Matrix: (Units=GPa)
#
#
# Indices 1 2 3 4 5 6 
#
# 1 15.8540 -7.8164 9.9443 0.0000 2.6844 0.0000
# 2 -7.8164 51.4697 7.8366 0.0000 7.7648 0.0000
# 3 9.9443 7.8366 78.1277 0.0000 15.9390 0.0000
# 4 0.0000 0.0000 0.0000 22.1386 0.0000 2.8784
# 5 2.6844 7.7648 15.9390 0.0000 26.8125 0.0000
# 6 0.0000 0.0000 0.0000 2.8784 0.0000 13.3302
#
#
#
# Elastic Compliance Matrix: (Units=1/GPa)
#
#
# Indices 1 2 3 4 5 6 
#
# 1 0.077371 0.014168 -0.010073 0.000000 -0.005861 0.000000
# 2 0.014168 0.022973 -0.002801 0.000000 -0.006407 0.000000
# 3 -0.010073 -0.002801 0.015922 0.000000 -0.007646 0.000000
# 4 0.000000 0.000000 0.000000 0.046475 0.000000 -0.010035
# 5 -0.005861 -0.006407 -0.007646 0.000000 0.044283 0.000000
# 6 0.000000 0.000000 0.000000 -0.010035 0.000000 0.077184
#
#
# Mechanical properties :
#
#
# Convention : Reuss Voigt Hill
#
# Bulk Modulus (GPa) = 8.41364 18.37559 13.39461
# Shear Modulus (GPa) = 15.56467 21.48874 18.52670
#
# Velocity S-wave (km/s) = 2.83063 3.32597 3.08824
# Velocity P-wave (km/s) = 3.87485 4.92025 4.42851
#
# Compressibility (1/GPa) = 0.11885469
#
# Stress axis : x y z
#
# Youngs Moduli (GPa) = 12.92467 43.52864 62.80434
#
# Poissons Ratio (x) = -0.61670 0.63266
# Poissons Ratio (y) = -0.18311 0.17589
# Poissons Ratio (z) = 0.13020 0.12191
#
# Static dielectric constant tensor:
#      x y z
#    x 1.652850 0.000000 0.011760 
#    y 0.000000 1.662240 0.000000 
#    z 0.011760 0.000000 1.691790 
# 
# From -- ./inp_files/79261.got.cif
#   From: 2010.05.17/outbox.cif.g08.bks.cpg/sg14_40_cif.got.tgz:79261.got - 2010.06.03 17:49:19.
