data_PCOD9241640
_publ_section_title
;
Structure prediction by ZEFSAII (Michael W. Deem and Ramdas Pophale) SiO2 
 PCOD9241640
Probable space group: P 21/C
;
_chemical_formula_sum "Si O2"
_cell_formula_units_Z 28
_cell_length_a 7.056123
_cell_length_b 12.557765
_cell_length_c 14.749538
_cell_angle_alpha 90.000000
_cell_angle_beta 59.427556
_cell_angle_gamma 90.000000
_cell_volume 1125.261288
_symmetry_space_group_name_H-M "P 21/C"
_symmetry_group_IT_number 14
_symmetry_cell_setting 'monoclinic'
loop_
_space_group_symop_operation_xyz
x,y,z
-x,1/2+y,1/2-z
-x,-y,-z
x,1/2-y,1/2+z
loop_
_atom_site_type_symbol
_atom_site_label
_atom_site_fract_x
_atom_site_fract_y
_atom_site_fract_z
Si Si1 0.987487 0.838736 0.869140
Si Si2 0.893679 0.506592 0.792939
Si Si3 0.749035 0.481412 0.024091
Si Si4 0.204097 0.235933 0.755437
Si Si5 0.843517 0.246441 0.497493
Si Si6 0.312747 0.514894 0.472176
Si Si7 0.616401 0.557156 0.243851
O O1 0.127309 0.070062 0.042130
O O2 0.830575 0.779008 0.837823
O O3 0.070329 0.753456 0.920614
O O4 0.143001 0.903271 0.761797
O O5 0.151763 0.487520 0.765393
O O6 0.841867 0.610999 0.746183
O O7 0.754503 0.517036 0.918859
O O8 0.615196 0.532734 0.138157
O O9 0.691800 0.356377 0.032818
O O10 0.000000 0.500000 0.000000
O O11 0.402250 0.314201 0.737960
O O12 0.026600 0.271869 0.875442
O O13 0.755152 0.363233 0.501032
O O14 0.500000 0.500000 0.500000
O O15 0.423611 0.501588 0.347501
#
# Coordination Sequence:
#
# PCOD9241640 Si02
#       7
#     4   4   4   4   4   4   4
#     4  11  22  38  65  97 122 166 218 270 308 395
#     4  10  19  36  65  89 123 161 217 264 308 384
#     4  10  19  40  62  92 126 167 220 267 316 377
#     4  11  20  36  65  92 122 167 218 255 322 381
#     4  12  23  38  69  97 123 172 228 257 320 396
#     4  12  23  43  60  94 138 165 205 272 340 386
#     4  10  21  40  60  90 130 169 207 267 327 384
#
# _framework density 24.883112000000001
#
# number of rings (size 3 to 8) (size 9 to 14) (size 15 to 20)
#    0.000    1.143    8.571    2.143    0.000    0.000 
#    2.571    0.000    3.143    1.714    0.000    0.000 
#    0.000    0.000    0.000    0.000    0.000    0.000 
#
# Total GULP energy -156424.685909 kJ/mol
# GULP energy per Si atom -5586.595925 kJ/mol
# Density = 2.482648 g / cm^3
# Si number density = 24.883112 Si / 1000 Ang^3
#
#
#
# Elastic Constant Matrix: (Units=GPa)
#
#
# Indices 1 2 3 4 5 6 
#
# 1 56.5011 13.3465 38.0428 0.0000 1.8450 0.0000
# 2 13.3465 117.9184 27.1608 0.0000 6.9690 0.0000
# 3 38.0428 27.1608 196.5745 0.0000 6.8344 0.0000
# 4 0.0000 0.0000 0.0000 45.9897 0.0000 5.3378
# 5 1.8450 6.9690 6.8344 0.0000 42.1145 0.0000
# 6 0.0000 0.0000 0.0000 5.3378 0.0000 25.6915
#
#
#
# Elastic Compliance Matrix: (Units=1/GPa)
#
#
# Indices 1 2 3 4 5 6 
#
# 1 0.020591 -0.001457 -0.003782 0.000000 -0.000047 0.000000
# 2 -0.001457 0.008929 -0.000908 0.000000 -0.001266 0.000000
# 3 -0.003782 -0.000908 0.005967 0.000000 -0.000652 0.000000
# 4 0.000000 0.000000 0.000000 0.022281 0.000000 -0.004629
# 5 -0.000047 -0.001266 -0.000652 0.000000 0.024062 0.000000
# 6 0.000000 0.000000 0.000000 -0.004629 0.000000 0.039885
#
#
# Mechanical properties :
#
#
# Convention : Reuss Voigt Hill
#
# Bulk Modulus (GPa) = 43.11397 58.67713 50.89555
# Shear Modulus (GPa) = 35.27573 42.25539 38.76556
#
# Velocity S-wave (km/s) = 3.76926 4.12534 3.95131
# Velocity P-wave (km/s) = 6.02556 6.80614 6.42771
#
# Compressibility (1/GPa) = 0.02319434
#
# Stress axis : x y z
#
# Youngs Moduli (GPa) = 48.56526 111.99131 167.58345
#
# Poissons Ratio (x) = 0.16313 0.63380
# Poissons Ratio (y) = 0.07074 0.15214
# Poissons Ratio (z) = 0.18367 0.10167
#
# Static dielectric constant tensor:
#      x y z
#    x 2.118520 0.000000 -0.022910 
#    y 0.000000 1.989490 0.000000 
#    z -0.022910 0.000000 1.944830 
# 
# From -- ./inp_files/25177.got.cif
#   From: 2010.05.17/outbox.cif.g08.bks.cpg/sg14_13_cif.got.tgz:25177.got - 2010.06.03 17:49:19.
