data_PCOD9241993
_publ_section_title
;
Structure prediction by ZEFSAII (Michael W. Deem and Ramdas Pophale) SiO2 
 PCOD9241993
Probable space group: P 21/C
;
_chemical_formula_sum "Si O2"
_cell_formula_units_Z 32
_cell_length_a 8.315558
_cell_length_b 11.517619
_cell_length_c 15.773988
_cell_angle_alpha 90.000000
_cell_angle_beta 115.876453
_cell_angle_gamma 90.000000
_cell_volume 1359.287416
_symmetry_space_group_name_H-M "P 21/C"
_symmetry_group_IT_number 14
_symmetry_cell_setting 'monoclinic'
loop_
_space_group_symop_operation_xyz
x,y,z
-x,1/2+y,1/2-z
-x,-y,-z
x,1/2-y,1/2+z
loop_
_atom_site_type_symbol
_atom_site_label
_atom_site_fract_x
_atom_site_fract_y
_atom_site_fract_z
Si Si1 0.299069 0.399965 0.103407
Si Si2 0.431576 0.713648 0.258559
Si Si3 0.066341 0.102023 0.209858
Si Si4 0.900627 0.361405 0.361146
Si Si5 0.273063 0.232678 0.878845
Si Si6 0.583072 0.128478 0.439925
Si Si7 0.956692 0.266102 0.035908
Si Si8 0.281400 0.496909 0.280745
O O1 0.424300 0.300730 0.171164
O O2 0.410952 0.489645 0.071356
O O3 0.115516 0.341230 0.029484
O O4 0.235606 0.472566 0.172027
O O5 0.238415 0.776450 0.217631
O O6 0.449030 0.678026 0.163680
O O7 0.431503 0.595416 0.312113
O O8 0.191888 0.158312 0.308764
O O9 0.027477 0.206372 0.136560
O O10 0.888496 0.051429 0.211725
O O11 0.143113 0.991800 0.176738
O O12 0.103157 0.324738 0.385739
O O13 0.888995 0.335484 0.457924
O O14 0.442912 0.294121 0.961481
O O15 0.336391 0.123069 0.836867
O O16 0.784178 0.156867 0.514121
#
# Coordination Sequence:
#
# PCOD9241993 Si02
#       8
#     4   4   4   4   4   4   4   4
#     4  11  21  40  68  94 126 173 219 265 315 385
#     4  10  19  38  64  92 122 161 218 261 309 375
#     4  11  21  40  68  91 125 169 217 264 317 378
#     4  10  23  39  64  96 130 163 214 269 319 382
#     4  11  20  43  64  95 128 170 218 265 309 379
#     4  10  22  38  62  91 130 168 208 262 323 379
#     4  11  23  43  61  96 135 169 208 264 338 377
#     4  10  21  37  64  99 119 162 218 268 307 367
#
# _framework density 23.541746
#
# number of rings (size 3 to 8) (size 9 to 14) (size 15 to 20)
#    0.000    1.500    3.750    1.500    0.000    1.000 
#    4.500    1.875    0.000    0.000    0.000    0.000 
#    0.000    0.000    0.000    0.000    0.000    0.000 
#
# Total GULP energy -178820.767484 kJ/mol
# GULP energy per Si atom -5588.148984 kJ/mol
# Density = 2.348816 g / cm^3
# Si number density = 23.541746 Si / 1000 Ang^3
#
#
#
# Elastic Constant Matrix: (Units=GPa)
#
#
# Indices 1 2 3 4 5 6 
#
# 1 73.1802 29.2504 -3.7178 0.0000 20.9969 0.0000
# 2 29.2504 111.9271 1.2441 0.0000 8.6964 0.0000
# 3 -3.7178 1.2441 13.2160 0.0000 4.4557 0.0000
# 4 0.0000 0.0000 0.0000 24.8671 0.0000 -1.1170
# 5 20.9969 8.6964 4.4557 0.0000 23.3946 0.0000
# 6 0.0000 0.0000 0.0000 -1.1170 0.0000 43.1771
#
#
#
# Elastic Compliance Matrix: (Units=1/GPa)
#
#
# Indices 1 2 3 4 5 6 
#
# 1 0.022032 -0.004295 0.013604 0.000000 -0.020768 0.000000
# 2 -0.004295 0.010039 -0.002345 0.000000 0.000570 0.000000
# 3 0.013604 -0.002345 0.089268 0.000000 -0.028340 0.000000
# 4 0.000000 0.000000 0.000000 0.040261 0.000000 0.001042
# 5 -0.020768 0.000570 -0.028340 0.000000 0.066570 0.000000
# 6 0.000000 0.000000 0.000000 0.001042 0.000000 0.023187
#
#
# Mechanical properties :
#
#
# Convention : Reuss Voigt Hill
#
# Bulk Modulus (GPa) = 7.39288 27.98628 17.68958
# Shear Modulus (GPa) = 17.69794 29.72420 23.71107
#
# Velocity S-wave (km/s) = 2.74481 3.55719 3.17707
# Velocity P-wave (km/s) = 3.63215 5.36518 4.58136
#
# Compressibility (1/GPa) = 0.13526529
#
# Stress axis : x y z
#
# Youngs Moduli (GPa) = 45.38933 99.61501 11.20217
#
# Poissons Ratio (x) = 0.42787 -0.15239
# Poissons Ratio (y) = 0.19496 0.02627
# Poissons Ratio (z) = -0.61748 0.23365
#
# Static dielectric constant tensor:
#      x y z
#    x 1.968660 0.000000 -0.054370 
#    y 0.000000 1.888620 0.000000 
#    z -0.054370 0.000000 1.882660 
# 
# From -- ./inp_files/55479.got.cif
#   From: 2010.05.17/outbox.cif.g08.bks.cpg/sg14_28_cif.got.tgz:55479.got - 2010.06.03 17:49:19.
