data_PCOD9241193
_publ_section_title
;
Structure prediction by ZEFSAII (Michael W. Deem and Ramdas Pophale) SiO2 
 PCOD9241193
Probable space group: P 21/C
;
_chemical_formula_sum "Si O2"
_cell_formula_units_Z 32
_cell_length_a 8.475589
_cell_length_b 19.890147
_cell_length_c 11.406421
_cell_angle_alpha 90.000000
_cell_angle_beta 59.766671
_cell_angle_gamma 90.000000
_cell_volume 1661.353296
_symmetry_space_group_name_H-M "P 21/C"
_symmetry_group_IT_number 14
_symmetry_cell_setting 'monoclinic'
loop_
_space_group_symop_operation_xyz
x,y,z
-x,1/2+y,1/2-z
-x,-y,-z
x,1/2-y,1/2+z
loop_
_atom_site_type_symbol
_atom_site_label
_atom_site_fract_x
_atom_site_fract_y
_atom_site_fract_z
Si Si1 0.526920 0.341802 0.403804
Si Si2 0.297818 0.701492 0.182344
Si Si3 0.662599 0.418823 0.146800
Si Si4 0.250209 0.223467 0.837370
Si Si5 0.517849 0.150559 0.182188
Si Si6 0.764132 0.934807 0.593024
Si Si7 0.626981 0.871073 0.415440
Si Si8 0.047501 0.672039 0.070629
O O1 0.669374 0.280814 0.331597
O O2 0.586359 0.404843 0.303747
O O3 0.337802 0.314347 0.416493
O O4 0.526493 0.356443 0.540774
O O5 0.304180 0.670255 0.309543
O O6 0.121799 0.682286 0.173573
O O7 0.477917 0.672295 0.045546
O O8 0.780980 0.485685 0.093539
O O9 0.496271 0.421313 0.116358
O O10 0.778190 0.352630 0.068221
O O11 0.386659 0.285375 0.757096
O O12 0.264897 0.175078 0.718348
O O13 0.057870 0.260547 0.928763
O O14 0.428035 0.085499 0.275030
O O15 0.752310 0.907769 0.464047
O O16 0.909474 0.890082 0.607981
#
# Coordination Sequence:
#
# PCOD9241193 Si02
#       8
#     4   4   4   4   4   4   4   4
#     4  10  19  35  55  77 109 144 182 229 263 328
#     4   9  18  33  52  78 107 134 180 223 282 317
#     4  10  21  35  55  81 112 150 184 215 270 327
#     4   9  18  33  55  80 109 133 181 229 282 316
#     4   9  18  33  56  76 103 146 181 230 263 317
#     4  10  20  35  55  81 111 148 185 220 264 327
#     4   9  17  34  58  80 104 139 186 230 261 319
#     4  10  21  34  52  81 110 144 168 231 277 325
#
# _framework density 19.261406000000001
#
# number of rings (size 3 to 8) (size 9 to 14) (size 15 to 20)
#    0.000    2.500    1.250    1.500    1.750    1.500 
#    2.250    0.000    0.000    0.750    0.000    0.000 
#    0.000    0.000    0.000    0.000    0.000    0.000 
#
# Total GULP energy -178373.683391 kJ/mol
# GULP energy per Si atom -5574.177606 kJ/mol
# Density = 1.921757 g / cm^3
# Si number density = 19.261406 Si / 1000 Ang^3
#
#
#
# Elastic Constant Matrix: (Units=GPa)
#
#
# Indices 1 2 3 4 5 6 
#
# 1 95.3619 23.1545 38.5938 0.0000 25.9684 0.0000
# 2 23.1545 53.2742 33.6790 0.0000 10.1989 0.0000
# 3 38.5938 33.6790 78.4406 0.0000 38.7671 0.0000
# 4 0.0000 0.0000 0.0000 19.4944 0.0000 -3.4781
# 5 25.9684 10.1989 38.7671 0.0000 28.9974 0.0000
# 6 0.0000 0.0000 0.0000 -3.4781 0.0000 18.7520
#
#
#
# Elastic Compliance Matrix: (Units=1/GPa)
#
#
# Indices 1 2 3 4 5 6 
#
# 1 0.014711 -0.004721 0.001413 0.000000 -0.013403 0.000000
# 2 -0.004721 0.030425 -0.022228 0.000000 0.023244 0.000000
# 3 0.001413 -0.022228 0.054113 0.000000 -0.065792 0.000000
# 4 0.000000 0.000000 0.000000 0.053052 0.000000 0.009840
# 5 -0.013403 0.023244 -0.065792 0.000000 0.126272 0.000000
# 6 0.000000 0.000000 0.000000 0.009840 0.000000 0.055153
#
#
# Mechanical properties :
#
#
# Convention : Reuss Voigt Hill
#
# Bulk Modulus (GPa) = 20.75708 46.43680 33.59694
# Shear Modulus (GPa) = 12.47331 22.22540 17.34935
#
# Velocity S-wave (km/s) = 2.54752 3.40057 3.00447
# Velocity P-wave (km/s) = 4.41056 6.29123 5.43289
#
# Compressibility (1/GPa) = 0.04817634
#
# Stress axis : x y z
#
# Youngs Moduli (GPa) = 67.97854 32.86754 18.47991
#
# Poissons Ratio (x) = 0.15517 -0.02612
# Poissons Ratio (y) = 0.32094 0.41077
# Poissons Ratio (z) = -0.09607 0.73059
#
# Static dielectric constant tensor:
#      x y z
#    x 1.726940 0.000000 -0.011500 
#    y 0.000000 1.677450 0.000000 
#    z -0.011500 0.000000 1.682050 
# 
# From -- ./inp_files/26441.got.cif
#   From: 2010.05.17/outbox.cif.g08.bks.cpg/sg14_14_cif.got.tgz:26441.got - 2010.06.03 17:49:19.
