data_PCOD9241236
_publ_section_title
;
Structure prediction by ZEFSAII (Michael W. Deem and Ramdas Pophale) SiO2 
 PCOD9241236
Probable space group: P 21/C
;
_chemical_formula_sum "Si O2"
_cell_formula_units_Z 28
_cell_length_a 13.130238
_cell_length_b 17.083821
_cell_length_c 16.770625
_cell_angle_alpha 90.000000
_cell_angle_beta 156.336539
_cell_angle_gamma 90.000000
_cell_volume 1509.888954
_symmetry_space_group_name_H-M "P 21/C"
_symmetry_group_IT_number 14
_symmetry_cell_setting 'monoclinic'
loop_
_space_group_symop_operation_xyz
x,y,z
-x,1/2+y,1/2-z
-x,-y,-z
x,1/2-y,1/2+z
loop_
_atom_site_type_symbol
_atom_site_label
_atom_site_fract_x
_atom_site_fract_y
_atom_site_fract_z
Si Si1 0.258570 0.212936 0.341856
Si Si2 0.190807 0.780528 0.280957
Si Si3 0.602107 0.009931 0.983757
Si Si4 0.672715 0.838151 0.976497
Si Si5 0.160074 0.767399 0.578515
Si Si6 0.858074 0.918987 0.421090
Si Si7 0.040412 0.119156 0.327777
O O1 0.525860 0.194532 0.491019
O O2 0.306353 0.295040 0.422652
O O3 0.211214 0.151159 0.378828
O O4 0.010907 0.222627 0.108938
O O5 0.177422 0.777600 0.175267
O O6 0.951041 0.830090 0.138852
O O7 0.138916 0.693104 0.277487
O O8 0.421230 0.072703 0.813199
O O9 0.880800 0.044914 0.185931
O O10 0.500000 0.000000 0.000000
O O11 0.591926 0.926955 0.932604
O O12 0.451804 0.792158 0.769354
O O13 0.010705 0.847677 0.491439
O O14 0.838303 0.904297 0.501143
O O15 0.000000 0.000000 0.500000
#
# Coordination Sequence:
#
# PCOD9241236 Si02
#       7
#     4   4   4   4   4   4   4
#     4  10  21  37  57  78 113 150 193 227 278 340
#     4   9  20  38  53  78 113 148 188 232 272 337
#     4  12  20  33  56  86 116 142 181 236 292 339
#     4  10  21  34  55  84 113 142 188 235 285 333
#     4  10  19  35  57  81 107 148 185 232 280 337
#     4  11  19  33  56  85 116 137 177 235 295 333
#     4  10  22  35  54  85 112 148 183 232 289 332
#
# _framework density 18.544411
#
# number of rings (size 3 to 8) (size 9 to 14) (size 15 to 20)
#    0.000    1.714    2.857    3.429    0.000    6.857 
#    0.000    0.714    0.000    1.714    0.000    0.000 
#    0.000    0.000    0.000    0.000    0.000    0.000 
#
# Total GULP energy -156163.723222 kJ/mol
# GULP energy per Si atom -5577.275829 kJ/mol
# Density = 1.850220 g / cm^3
# Si number density = 18.544411 Si / 1000 Ang^3
#
#
#
# Elastic Constant Matrix: (Units=GPa)
#
#
# Indices 1 2 3 4 5 6 
#
# 1 65.0032 13.5189 38.8247 0.0000 14.4740 0.0000
# 2 13.5189 35.6615 12.3067 0.0000 2.4508 0.0000
# 3 38.8247 12.3067 113.0117 0.0000 4.8166 0.0000
# 4 0.0000 0.0000 0.0000 28.9110 0.0000 -2.2205
# 5 14.4740 2.4508 4.8166 0.0000 27.1725 0.0000
# 6 0.0000 0.0000 0.0000 -2.2205 0.0000 13.5446
#
#
#
# Elastic Compliance Matrix: (Units=1/GPa)
#
#
# Indices 1 2 3 4 5 6 
#
# 1 0.022978 -0.005630 -0.006833 0.000000 -0.010521 0.000000
# 2 -0.005630 0.030633 -0.001423 0.000000 0.000488 0.000000
# 3 -0.006833 -0.001423 0.011275 0.000000 0.001769 0.000000
# 4 0.000000 0.000000 0.000000 0.035030 0.000000 0.005743
# 5 -0.010521 0.000488 0.001769 0.000000 0.042049 0.000000
# 6 0.000000 0.000000 0.000000 0.005743 0.000000 0.074772
#
#
# Mechanical properties :
#
#
# Convention : Reuss Voigt Hill
#
# Bulk Modulus (GPa) = 26.94201 38.10856 32.52529
# Shear Modulus (GPa) = 19.46439 23.86069 21.66254
#
# Velocity S-wave (km/s) = 3.24328 3.59092 3.42152
# Velocity P-wave (km/s) = 5.34650 6.14715 5.76075
#
# Compressibility (1/GPa) = 0.03711675
#
# Stress axis : x y z
#
# Youngs Moduli (GPa) = 43.51922 32.64446 88.68807
#
# Poissons Ratio (x) = 0.18379 0.60597
# Poissons Ratio (y) = 0.24501 0.12616
# Poissons Ratio (z) = 0.29735 0.04644
#
# Static dielectric constant tensor:
#      x y z
#    x 1.793040 0.000000 -0.178520 
#    y 0.000000 1.618280 0.000000 
#    z -0.178520 0.000000 1.979950 
# 
# From -- ./inp_files/33089.got.cif
#   From: 2010.05.17/outbox.cif.g08.bks.cpg/sg14_17_cif.got.tgz:33089.got - 2010.06.03 17:49:19.
