data_PCOD9241614
_publ_section_title
;
Structure prediction by ZEFSAII (Michael W. Deem and Ramdas Pophale) SiO2 
 PCOD9241614
Probable space group: P 21/C
;
_chemical_formula_sum "Si O2"
_cell_formula_units_Z 32
_cell_length_a 18.636068
_cell_length_b 15.611288
_cell_length_c 11.574233
_cell_angle_alpha 90.000000
_cell_angle_beta 152.098023
_cell_angle_gamma 90.000000
_cell_volume 1575.775202
_symmetry_space_group_name_H-M "P 21/C"
_symmetry_group_IT_number 14
_symmetry_cell_setting 'monoclinic'
loop_
_space_group_symop_operation_xyz
x,y,z
-x,1/2+y,1/2-z
-x,-y,-z
x,1/2-y,1/2+z
loop_
_atom_site_type_symbol
_atom_site_label
_atom_site_fract_x
_atom_site_fract_y
_atom_site_fract_z
Si Si1 0.536025 0.899443 0.023808
Si Si2 0.660809 0.192738 0.080837
Si Si3 0.671598 0.911941 0.772092
Si Si4 0.628829 0.395430 0.295662
Si Si5 0.223425 0.143111 0.442088
Si Si6 0.826427 0.996271 0.791122
Si Si7 0.616667 0.696392 0.403644
Si Si8 0.139368 0.830360 0.056062
O O1 0.678036 0.862942 0.302011
O O2 0.392578 0.849102 0.875343
O O3 0.575762 0.866403 0.951301
O O4 0.500000 0.000000 0.000000
O O5 0.820716 0.240023 0.329916
O O6 0.643730 0.125959 0.951606
O O7 0.541594 0.266637 0.873194
O O8 0.531165 0.873060 0.496519
O O9 0.704254 0.850975 0.924459
O O10 0.632234 0.003268 0.775137
O O11 0.804603 0.938031 0.873146
O O12 0.768286 0.344991 0.431790
O O13 0.281141 0.217711 0.437563
O O14 0.260416 0.052790 0.432629
O O15 0.042512 0.153762 0.209089
O O16 0.784500 0.092817 0.760117
O O17 0.000000 0.000000 0.000000
#
# Coordination Sequence:
#
# PCOD9241614 Si02
#       8
#     4   4   4   4   4   4   4   4
#     4  11  25  42  64  93 133 169 214 268 329 390
#     4  11  22  37  62  93 125 159 214 265 321 374
#     4  10  19  36  63  87 121 162 213 260 316 376
#     4  10  20  36  61  90 120 161 212 264 312 376
#     4  10  24  40  63  91 130 168 212 261 327 390
#     4   9  20  39  63  88 119 162 216 263 311 382
#     4  11  23  37  61  93 128 162 210 260 324 381
#     4  10  21  41  60  93 122 166 214 265 323 384
#
# _framework density 20.307465000000001
#
# number of rings (size 3 to 8) (size 9 to 14) (size 15 to 20)
#    0.000    1.750    1.250    3.000    7.000    1.000 
#    2.250    2.500    0.000    9.000    0.000    0.000 
#    0.000    0.000    0.000    0.000    0.000    0.000 
#
# Total GULP energy -178295.219955 kJ/mol
# GULP energy per Si atom -5571.725624 kJ/mol
# Density = 2.026124 g / cm^3
# Si number density = 20.307465 Si / 1000 Ang^3
#
#
#
# Elastic Constant Matrix: (Units=GPa)
#
#
# Indices 1 2 3 4 5 6 
#
# 1 98.3603 23.1380 19.3162 0.0000 12.6278 0.0000
# 2 23.1380 67.8579 26.6183 0.0000 6.6667 0.0000
# 3 19.3162 26.6183 47.1841 0.0000 13.1366 0.0000
# 4 0.0000 0.0000 0.0000 30.6965 0.0000 -5.0753
# 5 12.6278 6.6667 13.1366 0.0000 21.4169 0.0000
# 6 0.0000 0.0000 0.0000 -5.0753 0.0000 37.7922
#
#
#
# Elastic Compliance Matrix: (Units=1/GPa)
#
#
# Indices 1 2 3 4 5 6 
#
# 1 0.011832 -0.002811 -0.001881 0.000000 -0.004948 0.000000
# 2 -0.002811 0.019603 -0.010456 0.000000 0.001969 0.000000
# 3 -0.001881 -0.010456 0.032135 0.000000 -0.015347 0.000000
# 4 0.000000 0.000000 0.000000 0.033317 0.000000 0.004474
# 5 -0.004948 0.001969 -0.015347 0.000000 0.058410 0.000000
# 6 0.000000 0.000000 0.000000 0.004474 0.000000 0.027061
#
#
# Mechanical properties :
#
#
# Convention : Reuss Voigt Hill
#
# Bulk Modulus (GPa) = 30.05241 39.06081 34.55661
# Shear Modulus (GPa) = 22.34667 27.60312 24.97489
#
# Velocity S-wave (km/s) = 3.32085 3.69081 3.51071
# Velocity P-wave (km/s) = 5.43460 6.11876 5.78680
#
# Compressibility (1/GPa) = 0.03327520
#
# Stress axis : x y z
#
# Youngs Moduli (GPa) = 84.51308 51.01169 31.11851
#
# Poissons Ratio (x) = 0.14338 0.05853
# Poissons Ratio (y) = 0.23754 0.32539
# Poissons Ratio (z) = 0.15895 0.53340
#
# Static dielectric constant tensor:
#      x y z
#    x 1.796660 0.000000 -0.004280 
#    y 0.000000 1.789000 0.000000 
#    z -0.004280 0.000000 1.706220 
# 
# From -- ./inp_files/34195.got.cif
#   From: 2010.05.17/outbox.cif.g08.bks.cpg/sg14_18_cif.got.tgz:34195.got - 2010.06.03 17:49:19.
