data_PCOD9241460
_publ_section_title
;
Structure prediction by ZEFSAII (Michael W. Deem and Ramdas Pophale) SiO2 
 PCOD9241460
Probable space group: P 21/C
;
_chemical_formula_sum "Si O2"
_cell_formula_units_Z 16
_cell_length_a 12.822574
_cell_length_b 5.874276
_cell_length_c 19.655092
_cell_angle_alpha 90.000000
_cell_angle_beta 154.367694
_cell_angle_gamma 90.000000
_cell_volume 640.450118
_symmetry_space_group_name_H-M "P 21/C"
_symmetry_group_IT_number 14
_symmetry_cell_setting 'monoclinic'
loop_
_space_group_symop_operation_xyz
x,y,z
-x,1/2+y,1/2-z
-x,-y,-z
x,1/2-y,1/2+z
loop_
_atom_site_type_symbol
_atom_site_label
_atom_site_fract_x
_atom_site_fract_y
_atom_site_fract_z
Si Si1 0.306412 0.703165 0.889678
Si Si2 0.837225 0.694955 0.437758
Si Si3 0.208744 0.442344 0.217581
Si Si4 0.141661 0.933457 0.921602
O O1 0.310312 0.809997 0.966777
O O2 0.035216 0.607691 0.721403
O O3 0.336021 0.890275 0.847455
O O4 0.500000 0.500000 0.000000
O O5 0.689113 0.805259 0.288710
O O6 0.731763 0.575024 0.443095
O O7 0.000000 0.500000 0.500000
O O8 0.015275 0.884869 0.571097
O O9 0.046913 0.253185 0.160715
#
# Coordination Sequence:
#
# PCOD9241460 Si02
#       4
#     4   4   4   4
#     4  11  22  35  58  96 133 171 216 271 332 403
#     4   8  16  31  60  89 109 171 212 263 325 390
#     4   9  17  34  56  91 121 164 216 261 329 390
#     4  10  19  36  57  92 129 168 217 264 333 395
#
# _framework density 24.982430999999998
#
# number of rings (size 3 to 8) (size 9 to 14) (size 15 to 20)
#    0.000    2.500    2.500    0.000    0.000    1.000 
#    0.000    0.000    0.000    0.000  201.500    0.000 
#    0.000    0.000    0.000    0.250    0.000    0.000 
#
# Total GULP energy -89345.202501 kJ/mol
# GULP energy per Si atom -5584.075156 kJ/mol
# Density = 2.492557 g / cm^3
# Si number density = 24.982431 Si / 1000 Ang^3
#
#
#
# Elastic Constant Matrix: (Units=GPa)
#
#
# Indices 1 2 3 4 5 6 
#
# 1 141.9558 74.0089 78.7130 0.0000 -55.0497 0.0000
# 2 74.0089 133.9574 61.5975 0.0000 -34.6801 0.0000
# 3 78.7130 61.5975 127.3232 0.0000 -48.6876 0.0000
# 4 0.0000 0.0000 0.0000 72.5906 0.0000 -6.7460
# 5 -55.0497 -34.6801 -48.6876 0.0000 51.2862 0.0000
# 6 0.0000 0.0000 0.0000 -6.7460 0.0000 69.0230
#
#
#
# Elastic Compliance Matrix: (Units=1/GPa)
#
#
# Indices 1 2 3 4 5 6 
#
# 1 0.014983 -0.004095 -0.003439 0.000000 0.010049 0.000000
# 2 -0.004095 0.011083 -0.002583 0.000000 0.000647 0.000000
# 3 -0.003439 -0.002583 0.014365 0.000000 0.008199 0.000000
# 4 0.000000 0.000000 0.000000 0.013902 0.000000 0.001359
# 5 0.010049 0.000647 0.008199 0.000000 0.038506 0.000000
# 6 0.000000 0.000000 0.000000 0.001359 0.000000 0.014621
#
#
# Mechanical properties :
#
#
# Convention : Reuss Voigt Hill
#
# Bulk Modulus (GPa) = 49.51235 92.43058 70.97147
# Shear Modulus (GPa) = 37.19543 51.17442 44.18492
#
# Velocity S-wave (km/s) = 3.86277 4.53085 4.21008
# Velocity P-wave (km/s) = 6.30528 8.02808 7.21826
#
# Compressibility (1/GPa) = 0.02019698
#
# Stress axis : x y z
#
# Youngs Moduli (GPa) = 66.74142 90.23230 69.61395
#
# Poissons Ratio (x) = 0.36950 0.23941
# Poissons Ratio (y) = 0.27331 0.17979
# Poissons Ratio (z) = 0.22953 0.23304
#
# Static dielectric constant tensor:
#      x y z
#    x 1.996090 0.000000 0.006790 
#    y 0.000000 1.723060 0.000000 
#    z 0.006790 0.000000 1.823970 
# 
# From -- ./inp_files/27353.got.cif
#   From: 2010.05.17/outbox.cif.g08.bks.cpg/sg14_14_cif.got.tgz:27353.got - 2010.06.03 17:49:19.
