data_PCOD9241119
_publ_section_title
;
Structure prediction by ZEFSAII (Michael W. Deem and Ramdas Pophale) SiO2 
 PCOD9241119
Probable space group: P 21/C
;
_chemical_formula_sum "Si O2"
_cell_formula_units_Z 32
_cell_length_a 27.623518
_cell_length_b 7.845852
_cell_length_c 19.438040
_cell_angle_alpha 90.000000
_cell_angle_beta 159.242332
_cell_angle_gamma 90.000000
_cell_volume 1493.087012
_symmetry_space_group_name_H-M "P 21/C"
_symmetry_group_IT_number 14
_symmetry_cell_setting 'monoclinic'
loop_
_space_group_symop_operation_xyz
x,y,z
-x,1/2+y,1/2-z
-x,-y,-z
x,1/2-y,1/2+z
loop_
_atom_site_type_symbol
_atom_site_label
_atom_site_fract_x
_atom_site_fract_y
_atom_site_fract_z
Si Si1 0.256811 0.660859 0.304818
Si Si2 0.238040 0.767944 0.074707
Si Si3 0.026986 0.148202 0.089699
Si Si4 0.153287 0.306981 0.139971
Si Si5 0.464479 0.803311 0.475266
Si Si6 0.051990 0.225523 0.756779
Si Si7 0.760650 0.836887 0.877296
Si Si8 0.156047 0.616017 0.321386
O O1 0.246616 0.472786 0.259058
O O2 0.371407 0.772335 0.419056
O O3 0.251831 0.637144 0.381174
O O4 0.111118 0.743587 0.092974
O O5 0.380272 0.717567 0.300397
O O6 0.232498 0.968475 0.089042
O O7 0.216698 0.770477 0.964335
O O8 0.104448 0.685249 0.931771
O O9 0.145000 0.252818 0.207984
O O10 0.058695 0.118758 0.211436
O O11 0.000000 0.000000 0.000000
O O12 0.208334 0.165612 0.162055
O O13 0.996528 0.338086 0.908256
O O14 0.616389 0.744159 0.694937
O O15 0.500000 0.000000 0.500000
O O16 0.127554 0.070080 0.817705
O O17 0.127290 0.259477 0.928252
#
# Coordination Sequence:
#
# PCOD9241119 Si02
#       8
#     4   4   4   4   4   4   4   4
#     4  11  21  39  61  83 124 166 198 255 318 376
#     4  10  19  36  61  87 121 162 208 257 318 374
#     4  11  21  33  60  91 121 156 205 257 314 366
#     4  11  19  36  58  93 123 152 203 260 318 368
#     4  10  22  41  61  85 124 169 209 252 318 383
#     4  11  18  37  59  91 118 156 209 261 310 366
#     4  10  23  35  61  91 125 159 209 261 310 379
#     4  10  19  34  59  90 117 158 202 257 314 369
#
# _framework density 21.432103999999999
#
# number of rings (size 3 to 8) (size 9 to 14) (size 15 to 20)
#    0.000    1.500    5.000    1.500    1.750    0.500 
#    0.000    1.250    2.750    0.000    0.000    0.000 
#    0.000    0.000    0.000    0.000    0.000    0.000 
#
# Total GULP energy -178356.721802 kJ/mol
# GULP energy per Si atom -5573.647556 kJ/mol
# Density = 2.138332 g / cm^3
# Si number density = 21.432104 Si / 1000 Ang^3
#
#
#
# Elastic Constant Matrix: (Units=GPa)
#
#
# Indices 1 2 3 4 5 6 
#
# 1 113.9553 6.7394 23.3176 0.0000 2.3717 0.0000
# 2 6.7394 44.8765 -1.0808 0.0000 5.2418 0.0000
# 3 23.3176 -1.0808 69.4291 0.0000 2.4939 0.0000
# 4 0.0000 0.0000 0.0000 16.0122 0.0000 0.2112
# 5 2.3717 5.2418 2.4939 0.0000 31.5149 0.0000
# 6 0.0000 0.0000 0.0000 0.2112 0.0000 34.0083
#
#
#
# Elastic Compliance Matrix: (Units=1/GPa)
#
#
# Indices 1 2 3 4 5 6 
#
# 1 0.009525 -0.001483 -0.003214 0.000000 -0.000216 0.000000
# 2 -0.001483 0.022972 0.000992 0.000000 -0.003788 0.000000
# 3 -0.003214 0.000992 0.015540 0.000000 -0.001153 0.000000
# 4 0.000000 0.000000 0.000000 0.062457 0.000000 -0.000388
# 5 -0.000216 -0.003788 -0.001153 0.000000 0.032468 0.000000
# 6 0.000000 0.000000 0.000000 -0.000388 0.000000 0.029407
#
#
# Mechanical properties :
#
#
# Convention : Reuss Voigt Hill
#
# Bulk Modulus (GPa) = 24.61456 31.80149 28.20802
# Shear Modulus (GPa) = 25.86344 29.59274 27.72809
#
# Velocity S-wave (km/s) = 3.47762 3.71990 3.60080
# Velocity P-wave (km/s) = 5.25689 5.77240 5.52067
#
# Compressibility (1/GPa) = 0.04062635
#
# Stress axis : x y z
#
# Youngs Moduli (GPa) = 104.98386 43.53057 64.35190
#
# Poissons Ratio (x) = 0.06454 0.20685
# Poissons Ratio (y) = 0.15566 -0.06381
# Poissons Ratio (z) = 0.33746 -0.04317
#
# Static dielectric constant tensor:
#      x y z
#    x 1.812470 0.000000 -0.028010 
#    y 0.000000 1.910910 0.000000 
#    z -0.028010 0.000000 1.827390 
# 
# From -- ./inp_files/70720.got.cif
#   From: 2010.05.17/outbox.cif.g08.bks.cpg/sg14_36_cif.got.tgz:70720.got - 2010.06.03 17:49:19.
