data_PCOD9241930
_publ_section_title
;
Structure prediction by ZEFSAII (Michael W. Deem and Ramdas Pophale) SiO2 
 PCOD9241930
Probable space group: P 21/C
;
_chemical_formula_sum "Si O2"
_cell_formula_units_Z 20
_cell_length_a 10.454151
_cell_length_b 11.069323
_cell_length_c 11.476401
_cell_angle_alpha 90.000000
_cell_angle_beta 142.969233
_cell_angle_gamma 90.000000
_cell_volume 799.811926
_symmetry_space_group_name_H-M "P 21/C"
_symmetry_group_IT_number 14
_symmetry_cell_setting 'monoclinic'
loop_
_space_group_symop_operation_xyz
x,y,z
-x,1/2+y,1/2-z
-x,-y,-z
x,1/2-y,1/2+z
loop_
_atom_site_type_symbol
_atom_site_label
_atom_site_fract_x
_atom_site_fract_y
_atom_site_fract_z
Si Si1 0.414693 0.108792 0.267683
Si Si2 0.782445 0.022359 0.674598
Si Si3 0.728688 0.116565 0.306124
Si Si4 0.131211 0.424175 0.262923
Si Si5 0.613901 0.719659 0.939192
O O1 0.255687 0.024362 0.222921
O O2 0.535138 0.055984 0.240488
O O3 0.329313 0.233376 0.150288
O O4 0.610475 0.120129 0.502220
O O5 0.711883 0.906565 0.544430
O O6 0.015210 0.055322 0.802383
O O7 0.638345 0.252678 0.237259
O O8 0.942071 0.109534 0.536243
O O9 0.764536 0.044367 0.214001
O O10 0.286873 0.313447 0.395898
#
# Coordination Sequence:
#
# PCOD9241930 Si02
#       5
#     4   4   4   4   4
#     4   8  20  39  58  83 118 155 188 243 296 340
#     4  10  20  40  60  85 125 149 195 253 278 355
#     4   8  19  39  58  83 120 145 194 245 283 346
#     4  10  19  38  61  89 116 150 203 243 274 356
#     4  10  21  39  62  85 118 165 191 230 314 343
#
# _framework density 25.005879
#
# number of rings (size 3 to 8) (size 9 to 14) (size 15 to 20)
#    1.200    1.600    0.000    0.600    0.000    5.600 
#   14.400    0.000    0.000    0.000    0.000    0.000 
#    0.000    0.000    0.000    0.000    0.000    0.000 
#
# Total GULP energy -111474.025709 kJ/mol
# GULP energy per Si atom -5573.701285 kJ/mol
# Density = 2.494896 g / cm^3
# Si number density = 25.005879 Si / 1000 Ang^3
#
#
#
# Elastic Constant Matrix: (Units=GPa)
#
#
# Indices 1 2 3 4 5 6 
#
# 1 102.0878 -4.8985 15.0026 0.0000 -6.5364 0.0000
# 2 -4.8985 73.9574 28.9328 0.0000 -6.5504 0.0000
# 3 15.0026 28.9328 73.9996 0.0000 -14.7848 0.0000
# 4 0.0000 0.0000 0.0000 35.2892 0.0000 -11.6988
# 5 -6.5364 -6.5504 -14.7848 0.0000 37.5439 0.0000
# 6 0.0000 0.0000 0.0000 -11.6988 0.0000 25.1986
#
#
#
# Elastic Compliance Matrix: (Units=1/GPa)
#
#
# Indices 1 2 3 4 5 6 
#
# 1 0.010330 0.001788 -0.002574 0.000000 0.001097 0.000000
# 2 0.001788 0.016277 -0.006618 0.000000 0.000545 0.000000
# 3 -0.002574 -0.006618 0.017695 0.000000 0.005365 0.000000
# 4 0.000000 0.000000 0.000000 0.033492 0.000000 0.015549
# 5 0.001097 0.000545 0.005365 0.000000 0.029034 0.000000
# 6 0.000000 0.000000 0.000000 0.015549 0.000000 0.046904
#
#
# Mechanical properties :
#
#
# Convention : Reuss Voigt Hill
#
# Bulk Modulus (GPa) = 33.90474 36.45760 35.18117
# Shear Modulus (GPa) = 28.03148 33.67352 30.85250
#
# Velocity S-wave (km/s) = 3.35176 3.67362 3.51637
# Velocity P-wave (km/s) = 5.34483 5.71010 5.53048
#
# Compressibility (1/GPa) = 0.02949440
#
# Stress axis : x y z
#
# Youngs Moduli (GPa) = 96.80680 61.43654 56.51328
#
# Poissons Ratio (x) = -0.10988 0.14549
# Poissons Ratio (y) = -0.17313 0.37399
# Poissons Ratio (z) = 0.24922 0.40657
#
# Static dielectric constant tensor:
#      x y z
#    x 2.078230 0.000000 -0.019410 
#    y 0.000000 2.069100 0.000000 
#    z -0.019410 0.000000 1.989610 
# 
# From -- ./inp_files/29253.got.cif
#   From: 2010.05.17/outbox.cif.g08.bks.cpg/sg14_15_cif.got.tgz:29253.got - 2010.06.03 17:49:19.
