data_PCOD9241348
_publ_section_title
;
Structure prediction by ZEFSAII (Michael W. Deem and Ramdas Pophale) SiO2 
 PCOD9241348
Probable space group: P 21/C
;
_chemical_formula_sum "Si O2"
_cell_formula_units_Z 32
_cell_length_a 9.948795
_cell_length_b 20.124619
_cell_length_c 9.665029
_cell_angle_alpha 90.000000
_cell_angle_beta 124.005278
_cell_angle_gamma 90.000000
_cell_volume 1604.163154
_symmetry_space_group_name_H-M "P 21/C"
_symmetry_group_IT_number 14
_symmetry_cell_setting 'monoclinic'
loop_
_space_group_symop_operation_xyz
x,y,z
-x,1/2+y,1/2-z
-x,-y,-z
x,1/2-y,1/2+z
loop_
_atom_site_type_symbol
_atom_site_label
_atom_site_fract_x
_atom_site_fract_y
_atom_site_fract_z
Si Si1 0.910014 0.557409 0.037978
Si Si2 0.047087 0.304299 0.800638
Si Si3 0.925620 0.012214 0.107572
Si Si4 0.615094 0.727563 0.487516
Si Si5 0.830434 0.354083 0.452986
Si Si6 0.117470 0.831146 0.320876
Si Si7 0.784510 0.897833 0.204813
Si Si8 0.600732 0.267619 0.893741
O O1 0.975173 0.631544 0.115252
O O2 0.924791 0.525286 0.199300
O O3 0.762538 0.574586 0.848073
O O4 0.000000 0.500000 0.000000
O O5 0.226466 0.274463 0.919723
O O6 0.998648 0.324675 0.615238
O O7 0.926132 0.243206 0.759208
O O8 0.813978 0.955451 0.109819
O O9 0.815256 0.077881 0.028256
O O10 0.000000 0.000000 0.000000
O O11 0.660188 0.657541 0.583812
O O12 0.475671 0.759676 0.499599
O O13 0.543179 0.717918 0.294527
O O14 0.842873 0.368684 0.297790
O O15 0.692341 0.300090 0.402719
O O16 0.262834 0.823949 0.512058
O O17 0.959277 0.860609 0.301151
#
# Coordination Sequence:
#
# PCOD9241348 Si02
#       8
#     4   4   4   4   4   4   4   4
#     4   9  19  34  54  88 120 149 187 246 300 348
#     4   9  21  32  59  84 114 147 200 246 294 343
#     4  10  19  35  61  88 116 147 198 251 292 345
#     4  11  23  36  57  85 122 155 194 247 297 363
#     4  10  20  37  57  86 115 150 192 243 296 352
#     4  10  20  34  58  85 114 147 198 246 295 357
#     4  10  21  36  60  87 113 149 201 245 299 343
#     4  11  23  37  54  84 120 158 187 236 307 359
#
# _framework density 19.948096
#
# number of rings (size 3 to 8) (size 9 to 14) (size 15 to 20)
#    0.000    2.000    2.500    0.750    8.750    1.000 
#    0.000    0.625    0.000    6.750    0.000    0.000 
#    0.000    0.000    0.000    0.000    0.000    0.000 
#
# Total GULP energy -178165.224481 kJ/mol
# GULP energy per Si atom -5567.663265 kJ/mol
# Density = 1.990269 g / cm^3
# Si number density = 19.948096 Si / 1000 Ang^3
#
#
#
# Elastic Constant Matrix: (Units=GPa)
#
#
# Indices 1 2 3 4 5 6 
#
# 1 29.9205 -0.4511 16.8933 0.0000 1.7054 0.0000
# 2 -0.4511 52.2106 41.1585 0.0000 3.6849 0.0000
# 3 16.8933 41.1585 101.1713 0.0000 -9.1888 0.0000
# 4 0.0000 0.0000 0.0000 28.6031 0.0000 -1.4033
# 5 1.7054 3.6849 -9.1888 0.0000 36.2015 0.0000
# 6 0.0000 0.0000 0.0000 -1.4033 0.0000 12.2248
#
#
#
# Elastic Compliance Matrix: (Units=1/GPa)
#
#
# Indices 1 2 3 4 5 6 
#
# 1 0.040138 0.009474 -0.011071 0.000000 -0.005665 0.000000
# 2 0.009474 0.031727 -0.015173 0.000000 -0.007527 0.000000
# 3 -0.011071 -0.015173 0.018520 0.000000 0.006767 0.000000
# 4 0.000000 0.000000 0.000000 0.035159 0.000000 0.004036
# 5 -0.005665 -0.007527 0.006767 0.000000 0.030374 0.000000
# 6 0.000000 0.000000 0.000000 0.004036 0.000000 0.082264
#
#
# Mechanical properties :
#
#
# Convention : Reuss Voigt Hill
#
# Bulk Modulus (GPa) = 17.59130 33.16707 25.37918
# Shear Modulus (GPa) = 17.20153 23.78599 20.49376
#
# Velocity S-wave (km/s) = 2.93970 3.45685 3.20871
# Velocity P-wave (km/s) = 4.51222 5.70928 5.14568
#
# Compressibility (1/GPa) = 0.05684630
#
# Stress axis : x y z
#
# Youngs Moduli (GPa) = 24.91377 31.51848 53.99546
#
# Poissons Ratio (x) = -0.29861 0.59778
# Poissons Ratio (y) = -0.23604 0.81927
# Poissons Ratio (z) = 0.27582 0.47823
#
# Static dielectric constant tensor:
#      x y z
#    x 1.681010 0.000000 -0.012860 
#    y 0.000000 1.762520 0.000000 
#    z -0.012860 0.000000 1.741670 
# 
# From -- ./inp_files/10663.got.cif
#   From: 2010.05.17/outbox.cif.g08.bks.cpg/sg14_6_cif.got.tgz:10663.got - 2010.06.03 17:49:19.
