data_PCOD9241940
_publ_section_title
;
Structure prediction by ZEFSAII (Michael W. Deem and Ramdas Pophale) SiO2 
 PCOD9241940
Probable space group: P 21/C
;
_chemical_formula_sum "Si O2"
_cell_formula_units_Z 32
_cell_length_a 18.651992
_cell_length_b 13.177905
_cell_length_c 8.880402
_cell_angle_alpha 90.000000
_cell_angle_beta 141.409534
_cell_angle_gamma 90.000000
_cell_volume 1361.490011
_symmetry_space_group_name_H-M "P 21/C"
_symmetry_group_IT_number 14
_symmetry_cell_setting 'monoclinic'
loop_
_space_group_symop_operation_xyz
x,y,z
-x,1/2+y,1/2-z
-x,-y,-z
x,1/2-y,1/2+z
loop_
_atom_site_type_symbol
_atom_site_label
_atom_site_fract_x
_atom_site_fract_y
_atom_site_fract_z
Si Si1 0.341361 0.112193 0.852719
Si Si2 0.424549 0.630986 0.801913
Si Si3 0.194377 0.514231 0.326016
Si Si4 0.723760 0.706155 0.052108
Si Si5 0.873345 0.655502 0.571738
Si Si6 0.277023 0.828836 0.496107
Si Si7 0.874177 0.200718 0.462832
Si Si8 0.555836 0.473378 0.854135
O O1 0.229874 0.055042 0.740179
O O2 0.341285 0.139408 0.677801
O O3 0.346718 0.215155 0.960663
O O4 0.450372 0.045133 0.070608
O O5 0.315467 0.557218 0.588370
O O6 0.377267 0.741961 0.679635
O O7 0.532940 0.582935 0.891028
O O8 0.452480 0.608901 0.021498
O O9 0.129944 0.451889 0.348672
O O10 0.124660 0.611470 0.158393
O O11 0.807769 0.649623 0.306039
O O12 0.801465 0.773928 0.067038
O O13 0.998379 0.705842 0.762751
O O14 0.185878 0.794471 0.219517
O O15 0.212354 0.830530 0.547616
O O16 0.330347 0.935846 0.540354
#
# Coordination Sequence:
#
# PCOD9241940 Si02
#       8
#     4   4   4   4   4   4   4   4
#     4   9  19  35  57  87 119 155 202 257 306 375
#     4   9  20  40  62  91 128 171 209 254 317 383
#     4   9  20  39  59  84 124 159 208 263 314 374
#     4   9  19  35  58  90 117 153 208 259 311 368
#     4  10  19  38  62  86 122 167 205 262 320 374
#     4  11  22  39  61  97 128 166 212 264 307 385
#     4  11  22  38  61  89 124 164 211 256 320 375
#     4  10  20  38  65  89 129 172 210 252 321 376
#
# _framework density 23.503664000000001
#
# number of rings (size 3 to 8) (size 9 to 14) (size 15 to 20)
#    0.000    2.250    1.250    1.125    1.750    0.000 
#    4.500    6.250    0.000    0.000    0.000    0.000 
#    0.000    0.000    0.000    0.000    0.000    0.000 
#
# Total GULP energy -178962.165813 kJ/mol
# GULP energy per Si atom -5592.567682 kJ/mol
# Density = 2.345017 g / cm^3
# Si number density = 23.503664 Si / 1000 Ang^3
#
#
#
# Elastic Constant Matrix: (Units=GPa)
#
#
# Indices 1 2 3 4 5 6 
#
# 1 70.1509 30.7955 30.5338 0.0000 -24.1077 0.0000
# 2 30.7955 72.3382 4.9531 0.0000 2.6453 0.0000
# 3 30.5338 4.9531 92.4729 0.0000 -16.8706 0.0000
# 4 0.0000 0.0000 0.0000 9.8315 0.0000 -5.5397
# 5 -24.1077 2.6453 -16.8706 0.0000 30.5594 0.0000
# 6 0.0000 0.0000 0.0000 -5.5397 0.0000 23.2215
#
#
#
# Elastic Compliance Matrix: (Units=1/GPa)
#
#
# Indices 1 2 3 4 5 6 
#
# 1 0.029707 -0.013089 -0.005144 0.000000 0.021729 0.000000
# 2 -0.013089 0.019731 0.001189 0.000000 -0.011377 0.000000
# 3 -0.005144 0.001189 0.012999 0.000000 0.003015 0.000000
# 4 0.000000 0.000000 0.000000 0.117509 0.000000 0.028033
# 5 0.021729 -0.011377 0.003015 0.000000 0.052514 0.000000
# 6 0.000000 0.000000 0.000000 0.028033 0.000000 0.049751
#
#
# Mechanical properties :
#
#
# Convention : Reuss Voigt Hill
#
# Bulk Modulus (GPa) = 35.27369 40.83632 38.05500
# Shear Modulus (GPa) = 15.34932 23.96779 19.65856
#
# Velocity S-wave (km/s) = 2.55828 3.19681 2.89520
# Velocity P-wave (km/s) = 4.87511 5.57120 5.23474
#
# Compressibility (1/GPa) = 0.02834974
#
# Stress axis : x y z
#
# Youngs Moduli (GPa) = 33.66207 50.68215 76.93008
#
# Poissons Ratio (x) = 0.66339 0.39571
# Poissons Ratio (y) = 0.44061 -0.09151
# Poissons Ratio (z) = 0.17315 -0.06029
#
# Static dielectric constant tensor:
#      x y z
#    x 1.883820 0.000000 0.014730 
#    y 0.000000 1.931670 0.000000 
#    z 0.014730 0.000000 1.873950 
# 
# From -- ./inp_files/19039.got.cif
#   From: 2010.05.17/outbox.cif.g08.bks.cpg/sg14_10_cif.got.tgz:19039.got - 2010.06.03 17:49:19.
