data_PCOD9241632
_publ_section_title
;
Structure prediction by ZEFSAII (Michael W. Deem and Ramdas Pophale) SiO2 
 PCOD9241632
Probable space group: P 21/C
;
_chemical_formula_sum "Si O2"
_cell_formula_units_Z 28
_cell_length_a 8.119804
_cell_length_b 27.995673
_cell_length_c 5.569318
_cell_angle_alpha 90.000000
_cell_angle_beta 121.033321
_cell_angle_gamma 90.000000
_cell_volume 1084.806331
_symmetry_space_group_name_H-M "P 21/C"
_symmetry_group_IT_number 14
_symmetry_cell_setting 'monoclinic'
loop_
_space_group_symop_operation_xyz
x,y,z
-x,1/2+y,1/2-z
-x,-y,-z
x,1/2-y,1/2+z
loop_
_atom_site_type_symbol
_atom_site_label
_atom_site_fract_x
_atom_site_fract_y
_atom_site_fract_z
Si Si1 0.899531 0.557780 0.048223
Si Si2 0.846058 0.380252 0.122204
Si Si3 0.264320 0.983703 0.943828
Si Si4 0.900750 0.223956 0.510933
Si Si5 0.666719 0.758108 0.648887
Si Si6 0.516211 0.570891 0.286537
Si Si7 0.198542 0.364596 0.686532
O O1 0.774354 0.597522 0.081871
O O2 0.027104 0.584161 0.943226
O O3 0.057873 0.537334 0.355354
O O4 0.787870 0.515656 0.832783
O O5 0.823584 0.330066 0.965846
O O6 0.647335 0.408079 0.011246
O O7 0.975637 0.365680 0.445888
O O8 0.405130 0.943303 0.947434
O O9 0.368545 0.022175 0.190482
O O10 0.849904 0.250874 0.721453
O O11 0.138301 0.225517 0.698114
O O12 0.561021 0.748765 0.320987
O O13 0.737669 0.812356 0.700382
O O14 0.670470 0.613114 0.425094
#
# Coordination Sequence:
#
# PCOD9241632 Si02
#       7
#     4   4   4   4   4   4   4
#     4  10  21  39  68  90 121 183 210 271 329 403
#     4  11  22  41  63  91 129 165 219 263 337 391
#     4   9  20  44  62  87 136 167 219 270 339 391
#     4  10  19  36  64  93 128 172 215 271 332 399
#     4  10  20  37  67  96 129 174 217 273 333 399
#     4  10  23  42  60  95 128 167 212 281 321 397
#     4  12  23  39  67  94 127 166 224 266 333 393
#
# _framework density 25.811059
#
# number of rings (size 3 to 8) (size 9 to 14) (size 15 to 20)
#    0.000    1.714    4.286    1.714    0.000    1.143 
#    7.714    1.429    0.000    0.000    0.000    0.000 
#    0.000    0.000    0.000    0.000    0.000    0.000 
#
# Total GULP energy -156650.336282 kJ/mol
# GULP energy per Si atom -5594.654867 kJ/mol
# Density = 2.575231 g / cm^3
# Si number density = 25.811059 Si / 1000 Ang^3
#
#
#
# Elastic Constant Matrix: (Units=GPa)
#
#
# Indices 1 2 3 4 5 6 
#
# 1 77.5236 27.1922 41.9698 0.0000 4.3753 0.0000
# 2 27.1922 114.0018 28.6484 0.0000 -9.1503 0.0000
# 3 41.9698 28.6484 113.8781 0.0000 -9.8086 0.0000
# 4 0.0000 0.0000 0.0000 31.1951 0.0000 -10.7585
# 5 4.3753 -9.1503 -9.8086 0.0000 42.0019 0.0000
# 6 0.0000 0.0000 0.0000 -10.7585 0.0000 17.4469
#
#
#
# Elastic Compliance Matrix: (Units=1/GPa)
#
#
# Indices 1 2 3 4 5 6 
#
# 1 0.017403 -0.002952 -0.006003 0.000000 -0.003858 0.000000
# 2 -0.002952 0.009961 -0.001229 0.000000 0.002190 0.000000
# 3 -0.006003 -0.001229 0.011567 0.000000 0.003059 0.000000
# 4 0.000000 0.000000 0.000000 0.040715 0.000000 0.025107
# 5 -0.003858 0.002190 0.003059 0.000000 0.025402 0.000000
# 6 0.000000 0.000000 0.000000 0.025107 0.000000 0.072799
#
#
# Mechanical properties :
#
#
# Convention : Reuss Voigt Hill
#
# Bulk Modulus (GPa) = 53.87731 55.66934 54.77333
# Shear Modulus (GPa) = 24.46171 31.96832 28.21502
#
# Velocity S-wave (km/s) = 3.08185 3.52312 3.30985
# Velocity P-wave (km/s) = 5.79506 6.17776 5.98947
#
# Compressibility (1/GPa) = 0.01856069
#
# Stress axis : x y z
#
# Youngs Moduli (GPa) = 57.46281 100.39554 86.45621
#
# Poissons Ratio (x) = 0.29636 0.51903
# Poissons Ratio (y) = 0.16963 0.10627
# Poissons Ratio (z) = 0.34497 0.12341
#
# Static dielectric constant tensor:
#      x y z
#    x 2.065650 0.000000 0.027600 
#    y 0.000000 1.984320 0.000000 
#    z 0.027600 0.000000 2.119160 
# 
# From -- ./inp_files/2283.got.cif
#   From: 2010.05.17/outbox.cif.g08.bks.cpg/sg14_2_cif.got.tgz:2283.got - 2010.06.03 17:49:19.
