data_PCOD9241132
_publ_section_title
;
Structure prediction by ZEFSAII (Michael W. Deem and Ramdas Pophale) SiO2 
 PCOD9241132
Probable space group: P 21/C
;
_chemical_formula_sum "Si O2"
_cell_formula_units_Z 32
_cell_length_a 12.270465
_cell_length_b 13.672865
_cell_length_c 12.309689
_cell_angle_alpha 90.000000
_cell_angle_beta 41.285258
_cell_angle_gamma 90.000000
_cell_volume 1362.653493
_symmetry_space_group_name_H-M "P 21/C"
_symmetry_group_IT_number 14
_symmetry_cell_setting 'monoclinic'
loop_
_space_group_symop_operation_xyz
x,y,z
-x,1/2+y,1/2-z
-x,-y,-z
x,1/2-y,1/2+z
loop_
_atom_site_type_symbol
_atom_site_label
_atom_site_fract_x
_atom_site_fract_y
_atom_site_fract_z
Si Si1 0.921285 0.130005 0.831654
Si Si2 0.265653 0.452021 0.582239
Si Si3 0.299772 0.169317 0.266860
Si Si4 0.241828 0.000832 0.617183
Si Si5 0.532225 0.494551 0.235511
Si Si6 0.740877 0.388401 0.682297
Si Si7 0.569555 0.697721 0.001935
Si Si8 0.867557 0.718202 0.428229
O O1 0.083101 0.061736 0.698077
O O2 0.969572 0.232024 0.741607
O O3 0.777599 0.066466 0.883603
O O4 0.874979 0.140760 0.992848
O O5 0.232950 0.400751 0.721417
O O6 0.454729 0.441081 0.398114
O O7 0.150386 0.396214 0.580635
O O8 0.384701 0.095244 0.286358
O O9 0.425084 0.242778 0.113549
O O10 0.168616 0.237798 0.426532
O O11 0.335547 0.949008 0.446111
O O12 0.370483 0.085793 0.559898
O O13 0.199179 0.931238 0.748841
O O14 0.369837 0.526588 0.290757
O O15 0.608053 0.304730 0.809525
O O16 0.711488 0.743723 0.971975
#
# Coordination Sequence:
#
# PCOD9241132 Si02
#       8
#     4   4   4   4   4   4   4   4
#     4  10  21  40  60  88 130 158 203 254 298 373
#     4  10  24  38  64  91 115 172 205 246 322 359
#     4  11  20  37  64  86 125 155 206 252 305 366
#     4  10  19  36  58  92 117 159 199 252 303 359
#     4  10  19  38  61  89 120 152 206 257 298 362
#     4  10  19  34  60  88 118 156 201 256 304 354
#     4   9  19  34  59  86 113 153 203 247 300 349
#     4  10  21  41  60  87 126 161 204 256 297 366
#
# _framework density 23.483594
#
# number of rings (size 3 to 8) (size 9 to 14) (size 15 to 20)
#    0.000    2.000    3.750    2.250    5.250    0.500 
#    2.250    5.000    0.000    0.000    0.000    0.000 
#    0.000    0.000    0.000    0.000    0.000    0.000 
#
# Total GULP energy -178671.333695 kJ/mol
# GULP energy per Si atom -5583.479178 kJ/mol
# Density = 2.343014 g / cm^3
# Si number density = 23.483594 Si / 1000 Ang^3
#
#
#
# Elastic Constant Matrix: (Units=GPa)
#
#
# Indices 1 2 3 4 5 6 
#
# 1 41.7754 -0.1814 7.9911 0.0000 6.8219 0.0000
# 2 -0.1814 58.5078 17.0899 0.0000 1.1700 0.0000
# 3 7.9911 17.0899 139.5056 0.0000 5.9249 0.0000
# 4 0.0000 0.0000 0.0000 39.2795 0.0000 -2.0582
# 5 6.8219 1.1700 5.9249 0.0000 26.4424 0.0000
# 6 0.0000 0.0000 0.0000 -2.0582 0.0000 23.4594
#
#
#
# Elastic Compliance Matrix: (Units=1/GPa)
#
#
# Indices 1 2 3 4 5 6 
#
# 1 0.025199 0.000567 -0.001248 0.000000 -0.006247 0.000000
# 2 0.000567 0.017741 -0.002187 0.000000 -0.000441 0.000000
# 3 -0.001248 -0.002187 0.007562 0.000000 -0.001276 0.000000
# 4 0.000000 0.000000 0.000000 0.025576 0.000000 0.002244
# 5 -0.006247 -0.000441 -0.001276 0.000000 0.039735 0.000000
# 6 0.000000 0.000000 0.000000 0.002244 0.000000 0.042824
#
#
# Mechanical properties :
#
#
# Convention : Reuss Voigt Hill
#
# Bulk Modulus (GPa) = 22.33787 32.17644 27.25716
# Shear Modulus (GPa) = 27.88727 32.16222 30.02475
#
# Velocity S-wave (km/s) = 3.44978 3.70477 3.57955
# Velocity P-wave (km/s) = 5.03992 5.65967 5.35876
#
# Compressibility (1/GPa) = 0.04476703
#
# Stress axis : x y z
#
# Youngs Moduli (GPa) = 39.68460 56.36604 132.24459
#
# Poissons Ratio (x) = -0.03199 0.16499
# Poissons Ratio (y) = -0.02252 0.28923
# Poissons Ratio (z) = 0.04951 0.12328
#
# Static dielectric constant tensor:
#      x y z
#    x 1.925620 0.000000 0.014780 
#    y 0.000000 1.915770 0.000000 
#    z 0.014780 0.000000 1.927060 
# 
# From -- ./inp_files/32753.got.cif
#   From: 2010.05.17/outbox.cif.g08.bks.cpg/sg14_17_cif.got.tgz:32753.got - 2010.06.03 17:49:19.
