data_PCOD9241173
_publ_section_title
;
Structure prediction by ZEFSAII (Michael W. Deem and Ramdas Pophale) SiO2 
 PCOD9241173
Probable space group: P 21/C
;
_chemical_formula_sum "Si O2"
_cell_formula_units_Z 32
_cell_length_a 7.571597
_cell_length_b 8.753526
_cell_length_c 22.177844
_cell_angle_alpha 90.000000
_cell_angle_beta 106.829445
_cell_angle_gamma 90.000000
_cell_volume 1406.952053
_symmetry_space_group_name_H-M "P 21/C"
_symmetry_group_IT_number 14
_symmetry_cell_setting 'monoclinic'
loop_
_space_group_symop_operation_xyz
x,y,z
-x,1/2+y,1/2-z
-x,-y,-z
x,1/2-y,1/2+z
loop_
_atom_site_type_symbol
_atom_site_label
_atom_site_fract_x
_atom_site_fract_y
_atom_site_fract_z
Si Si1 0.717395 0.500044 0.062299
Si Si2 0.136254 0.330778 0.456348
Si Si3 0.819950 0.750311 0.840643
Si Si4 0.615275 0.000073 0.383059
Si Si5 0.989969 0.999903 0.705614
Si Si6 0.819910 0.249505 0.840661
Si Si7 0.651278 0.999897 0.758524
Si Si8 0.136197 0.830682 0.956332
O O1 0.756522 0.667074 0.036047
O O2 0.515197 0.500008 0.072393
O O3 0.860313 0.500067 0.133161
O O4 0.756605 0.333038 0.036046
O O5 0.000068 0.327856 0.500022
O O6 0.001182 0.330169 0.384696
O O7 0.232460 0.500059 0.467228
O O8 0.745690 0.644664 0.887239
O O9 0.001194 0.830043 0.884669
O O10 0.880619 0.645741 0.790444
O O11 0.654652 0.855946 0.802483
O O12 0.489784 0.000081 0.309924
O O13 0.745579 0.144888 0.387252
O O14 0.855565 0.999880 0.748441
O O15 0.119413 0.854095 0.709531
O O16 0.654673 0.143833 0.802491
#
# Coordination Sequence:
#
# PCOD9241173 Si02
#       8
#     4   4   4   4   4   4   4   4
#     4   9  19  37  57  81 113 144 179 226 279 321
#     4  10  20  38  62  85 105 138 189 237 273 316
#     4  10  19  35  53  79 110 144 180 224 274 322
#     4  10  22  36  51  79 118 148 175 214 272 349
#     4   8  18  31  53  77 106 138 186 229 263 322
#     4  10  19  35  53  79 110 144 180 224 274 322
#     4  11  18  32  53  79 109 144 183 219 272 322
#     4  10  20  38  62  85 105 138 189 237 273 316
#
# _framework density 22.744198999999998
#
# number of rings (size 3 to 8) (size 9 to 14) (size 15 to 20)
#    0.000    2.250    1.250    2.625    0.000    0.000 
#    2.250    2.500    0.000    3.000    0.000    0.000 
#    0.000    0.000    0.000    0.000    0.000    0.000 
#
# Total GULP energy -178484.595410 kJ/mol
# GULP energy per Si atom -5577.643607 kJ/mol
# Density = 2.269243 g / cm^3
# Si number density = 22.744199 Si / 1000 Ang^3
#
#
#
# Elastic Constant Matrix: (Units=GPa)
#
#
# Indices 1 2 3 4 5 6 
#
# 1 64.1465 39.3915 -2.8777 0.0000 -11.5051 0.0000
# 2 39.3915 187.8231 23.5826 0.0000 -12.8860 0.0000
# 3 -2.8777 23.5826 56.0090 0.0000 -0.1341 0.0000
# 4 0.0000 0.0000 0.0000 3.6888 0.0000 6.0767
# 5 -11.5051 -12.8860 -0.1341 0.0000 43.3036 0.0000
# 6 0.0000 0.0000 0.0000 6.0767 0.0000 8.6094
#
#
#
# Elastic Compliance Matrix: (Units=1/GPa)
#
#
# Indices 1 2 3 4 5 6 
#
# 1 0.018871 -0.004031 0.002676 0.000000 0.003822 0.000000
# 2 -0.004031 0.006605 -0.002986 0.000000 0.000885 0.000000
# 3 0.002676 -0.002986 0.019249 0.000000 -0.000118 0.000000
# 4 0.000000 0.000000 0.000000 -1.665807 0.000000 1.175766
# 5 0.003822 0.000885 -0.000118 0.000000 0.024371 0.000000
# 6 0.000000 0.000000 0.000000 1.175766 0.000000 -0.713731
#
#
# Mechanical properties :
#
#
# Convention : Reuss Voigt Hill
#
# Bulk Modulus (GPa) = 27.74559 47.57459 37.66009
# Shear Modulus (GPa) = -2.18365 27.64582 12.73109
#
# Velocity S-wave (km/s) = -0.98091 3.49020 2.36847
# Velocity P-wave (km/s) = 3.30795 6.09956 4.90649
#
# Compressibility (1/GPa) = 0.03604176
#
# Stress axis : x y z
#
# Youngs Moduli (GPa) = 52.99261 151.39291 51.95121
#
# Poissons Ratio (x) = 0.61033 -0.13903
# Poissons Ratio (y) = 0.21364 0.15514
# Poissons Ratio (z) = -0.14182 0.45209
#
# Static dielectric constant tensor:
#      x y z
#    x 1.796740 0.000000 0.011220 
#    y 0.000000 1.935800 0.000000 
#    z 0.011220 0.000000 1.823020 
# 
# From -- ./inp_files/71944.got.cif
#   From: 2010.05.17/outbox.cif.g08.bks.cpg/sg14_36_cif.got.tgz:71944.got - 2010.06.03 17:49:19.
