data_PCOD9241107
_publ_section_title
;
Structure prediction by ZEFSAII (Michael W. Deem and Ramdas Pophale) SiO2 
 PCOD9241107
Probable space group: P 21/C
;
_chemical_formula_sum "Si O2"
_cell_formula_units_Z 28
_cell_length_a 7.962216
_cell_length_b 11.837219
_cell_length_c 20.050847
_cell_angle_alpha 90.000000
_cell_angle_beta 139.386651
_cell_angle_gamma 90.000000
_cell_volume 1230.168846
_symmetry_space_group_name_H-M "P 21/C"
_symmetry_group_IT_number 14
_symmetry_cell_setting 'monoclinic'
loop_
_space_group_symop_operation_xyz
x,y,z
-x,1/2+y,1/2-z
-x,-y,-z
x,1/2-y,1/2+z
loop_
_atom_site_type_symbol
_atom_site_label
_atom_site_fract_x
_atom_site_fract_y
_atom_site_fract_z
Si Si1 0.040346 0.967785 0.164819
Si Si2 0.535151 0.848431 0.536067
Si Si3 0.808729 0.839849 0.363322
Si Si4 0.743522 0.346568 0.495370
Si Si5 0.264418 0.721165 0.654337
Si Si6 0.916828 0.030748 0.667695
Si Si7 0.380715 0.953354 0.631820
O O1 0.987533 0.967614 0.227834
O O2 0.333928 0.020882 0.251137
O O3 0.842295 0.043804 0.063377
O O4 0.060084 0.844426 0.137711
O O5 0.493573 0.716899 0.539175
O O6 0.813582 0.906644 0.615243
O O7 0.427892 0.908602 0.571564
O O8 0.339362 0.889593 0.419406
O O9 0.534760 0.782391 0.273543
O O10 0.021544 0.743760 0.430223
O O11 0.774439 0.930514 0.411425
O O12 0.876963 0.916824 0.319949
O O13 0.700236 0.352446 0.403187
O O14 0.239257 0.850859 0.626299
#
# Coordination Sequence:
#
# PCOD9241107 Si02
#       7
#     4   4   4   4   4   4   4
#     4  10  19  35  55  82 117 147 179 223 286 337
#     4   8  17  33  56  79 105 140 196 225 270 319
#     4  10  20  36  59  82 114 142 191 232 275 322
#     4  10  19  34  59  82 110 153 181 222 283 328
#     4  10  20  35  56  83 111 148 190 226 269 335
#     4   9  18  34  54  79 109 148 181 234 273 315
#     4   9  18  35  58  83 108 146 193 234 263 318
#
# _framework density 22.761101
#
# number of rings (size 3 to 8) (size 9 to 14) (size 15 to 20)
#    0.000    2.571    1.429    0.429    0.000    5.143 
#    5.143    0.714    0.000    1.714    0.000    0.000 
#    0.000    0.000    0.000    0.000    0.000    0.000 
#
# Total GULP energy -156307.957983 kJ/mol
# GULP energy per Si atom -5582.427071 kJ/mol
# Density = 2.270930 g / cm^3
# Si number density = 22.761101 Si / 1000 Ang^3
#
#
#
# Elastic Constant Matrix: (Units=GPa)
#
#
# Indices 1 2 3 4 5 6 
#
# 1 42.5330 10.6042 -15.5743 0.0000 5.1424 0.0000
# 2 10.6042 64.7394 3.9489 0.0000 7.7218 0.0000
# 3 -15.5743 3.9489 53.0901 0.0000 -4.7348 0.0000
# 4 0.0000 0.0000 0.0000 35.2883 0.0000 -0.8562
# 5 5.1424 7.7218 -4.7348 0.0000 17.1395 0.0000
# 6 0.0000 0.0000 0.0000 -0.8562 0.0000 13.3021
#
#
#
# Elastic Compliance Matrix: (Units=1/GPa)
#
#
# Indices 1 2 3 4 5 6 
#
# 1 0.028180 -0.004631 0.008246 0.000000 -0.004090 0.000000
# 2 -0.004631 0.017277 -0.003295 0.000000 -0.007305 0.000000
# 3 0.008246 -0.003295 0.021953 0.000000 0.005075 0.000000
# 4 0.000000 0.000000 0.000000 0.028382 0.000000 0.001827
# 5 -0.004090 -0.007305 0.005075 0.000000 0.064265 0.000000
# 6 0.000000 0.000000 0.000000 0.001827 0.000000 0.075293
#
#
# Mechanical properties :
#
#
# Convention : Reuss Voigt Hill
#
# Bulk Modulus (GPa) = 14.69495 17.59115 16.14305
# Shear Modulus (GPa) = 19.42549 23.90489 21.66519
#
# Velocity S-wave (km/s) = 2.92456 3.24427 3.08856
# Velocity P-wave (km/s) = 4.22779 4.66681 4.45272
#
# Compressibility (1/GPa) = 0.06805058
#
# Stress axis : x y z
#
# Youngs Moduli (GPa) = 35.48632 57.87921 45.55245
#
# Poissons Ratio (x) = 0.26804 -0.37564
# Poissons Ratio (y) = 0.16434 0.15010
# Poissons Ratio (z) = -0.29263 0.19072
#
# Static dielectric constant tensor:
#      x y z
#    x 1.864950 0.000000 0.006000 
#    y 0.000000 1.861630 0.000000 
#    z 0.006000 0.000000 1.854600 
# 
# From -- ./inp_files/39750.got.cif
#   From: 2010.05.17/outbox.cif.g08.bks.cpg/sg14_20_cif.got.tgz:39750.got - 2010.06.03 17:49:19.
