data_PCOD9241738
_publ_section_title
;
Structure prediction by ZEFSAII (Michael W. Deem and Ramdas Pophale) SiO2 
 PCOD9241738
Probable space group: P 21/C
;
_chemical_formula_sum "Si O2"
_cell_formula_units_Z 28
_cell_length_a 12.915682
_cell_length_b 9.389493
_cell_length_c 19.337069
_cell_angle_alpha 90.000000
_cell_angle_beta 144.250359
_cell_angle_gamma 90.000000
_cell_volume 1370.076526
_symmetry_space_group_name_H-M "P 21/C"
_symmetry_group_IT_number 14
_symmetry_cell_setting 'monoclinic'
loop_
_space_group_symop_operation_xyz
x,y,z
-x,1/2+y,1/2-z
-x,-y,-z
x,1/2-y,1/2+z
loop_
_atom_site_type_symbol
_atom_site_label
_atom_site_fract_x
_atom_site_fract_y
_atom_site_fract_z
Si Si1 0.015981 0.960923 0.396879
Si Si2 0.315126 0.525051 0.744422
Si Si3 0.905562 0.784023 0.214203
Si Si4 0.031597 0.974395 0.858973
Si Si5 0.344794 0.140605 0.517351
Si Si6 0.907003 0.283393 0.930882
Si Si7 0.728693 0.625347 0.412500
O O1 0.090868 0.843723 0.490672
O O2 0.895826 0.886946 0.274342
O O3 0.180986 0.039758 0.450272
O O4 0.910053 0.078719 0.383043
O O5 0.146710 0.459530 0.692840
O O6 0.473855 0.555202 0.882743
O O7 0.241459 0.671911 0.671554
O O8 0.372084 0.429703 0.709590
O O9 0.034748 0.656546 0.307892
O O10 0.721955 0.716353 0.088416
O O11 0.977040 0.878092 0.189047
O O12 0.196633 0.995986 0.999843
O O13 0.361915 0.261657 0.586129
O O14 0.092959 0.202382 0.018465
#
# Coordination Sequence:
#
# PCOD9241738 Si02
#       7
#     4   4   4   4   4   4   4
#     4  10  19  37  61  82 114 153 201 240 285 345
#     4  11  21  36  58  86 124 147 191 250 301 341
#     4  11  20  39  59  84 114 159 198 239 284 356
#     4  10  21  36  64  81 114 158 201 236 287 355
#     4  10  23  35  55  91 119 151 195 243 293 354
#     4   9  19  35  63  87 107 153 203 240 285 351
#     4   9  19  38  57  85 113 153 201 239 287 352
#
# _framework density 20.436813999999998
#
# number of rings (size 3 to 8) (size 9 to 14) (size 15 to 20)
#    0.000    2.000    1.429    4.286    2.000    0.571 
#    0.000    0.714    0.000    0.000    0.000    0.000 
#    0.000    0.000    0.000    0.000    0.000    0.000 
#
# Total GULP energy -156313.823860 kJ/mol
# GULP energy per Si atom -5582.636566 kJ/mol
# Density = 2.039030 g / cm^3
# Si number density = 20.436814 Si / 1000 Ang^3
#
#
#
# Elastic Constant Matrix: (Units=GPa)
#
#
# Indices 1 2 3 4 5 6 
#
# 1 25.9813 1.0595 12.8814 0.0000 -17.7180 0.0000
# 2 1.0595 63.7896 10.8220 0.0000 -17.3300 0.0000
# 3 12.8814 10.8220 64.5712 0.0000 -21.0259 0.0000
# 4 0.0000 0.0000 0.0000 35.7087 0.0000 -21.9679
# 5 -17.7180 -17.3300 -21.0259 0.0000 25.0707 0.0000
# 6 0.0000 0.0000 0.0000 -21.9679 0.0000 23.4810
#
#
#
# Elastic Compliance Matrix: (Units=1/GPa)
#
#
# Indices 1 2 3 4 5 6 
#
# 1 0.091927 0.020243 0.005475 0.000000 0.083551 0.000000
# 2 0.020243 0.023869 0.002741 0.000000 0.033104 0.000000
# 3 0.005475 0.002741 0.021752 0.000000 0.024007 0.000000
# 4 0.000000 0.000000 0.000000 0.065979 0.000000 0.061727
# 5 0.083551 0.033104 0.024007 0.000000 0.141951 0.000000
# 6 0.000000 0.000000 0.000000 0.061727 0.000000 0.100337
#
#
# Mechanical properties :
#
#
# Convention : Reuss Voigt Hill
#
# Bulk Modulus (GPa) = 5.14231 22.65201 13.89716
# Shear Modulus (GPa) = 11.02002 25.49068 18.25535
#
# Velocity S-wave (km/s) = 2.32464 3.53553 2.99198
# Velocity P-wave (km/s) = 3.11880 5.27017 4.33022
#
# Compressibility (1/GPa) = 0.19446508
#
# Stress axis : x y z
#
# Youngs Moduli (GPa) = 10.87819 41.89571 45.97205
#
# Poissons Ratio (x) = -0.84809 -0.25169
# Poissons Ratio (y) = -0.22021 -0.12599
# Poissons Ratio (z) = -0.05956 -0.11482
#
# Static dielectric constant tensor:
#      x y z
#    x 1.720990 0.000000 -0.035910 
#    y 0.000000 1.767410 0.000000 
#    z -0.035910 0.000000 1.716730 
# 
# From -- ./inp_files/66974.got.cif
#   From: 2010.05.17/outbox.cif.g08.bks.cpg/sg14_34_cif.got.tgz:66974.got - 2010.06.03 17:49:19.
