data_PCOD9241494
_publ_section_title
;
Structure prediction by ZEFSAII (Michael W. Deem and Ramdas Pophale) SiO2 
 PCOD9241494
Probable space group: P 21/C
;
_chemical_formula_sum "Si O2"
_cell_formula_units_Z 20
_cell_length_a 9.810704
_cell_length_b 10.444339
_cell_length_c 8.168344
_cell_angle_alpha 90.000000
_cell_angle_beta 106.510166
_cell_angle_gamma 90.000000
_cell_volume 802.470883
_symmetry_space_group_name_H-M "P 21/C"
_symmetry_group_IT_number 14
_symmetry_cell_setting 'monoclinic'
loop_
_space_group_symop_operation_xyz
x,y,z
-x,1/2+y,1/2-z
-x,-y,-z
x,1/2-y,1/2+z
loop_
_atom_site_type_symbol
_atom_site_label
_atom_site_fract_x
_atom_site_fract_y
_atom_site_fract_z
Si Si1 0.120255 0.707925 0.923380
Si Si2 0.205458 0.938773 0.176293
Si Si3 0.938647 0.635965 0.139099
Si Si4 0.372092 0.129777 0.603227
Si Si5 0.532940 0.897286 0.736450
O O1 0.241120 0.649024 0.848886
O O2 0.989684 0.739050 0.756589
O O3 0.161753 0.840687 0.021600
O O4 0.066488 0.618832 0.052597
O O5 0.330259 0.025817 0.150100
O O6 0.092779 0.031347 0.230695
O O7 0.794555 0.655716 0.986531
O O8 0.403490 0.997488 0.711498
O O9 0.456848 0.251957 0.701279
O O10 0.431770 0.112268 0.442389
#
# Coordination Sequence:
#
# PCOD9241494 Si02
#       5
#     4   4   4   4   4
#     4  10  21  36  58  86 120 157 197 243 295 355
#     4  10  21  37  57  86 119 156 200 245 296 354
#     4  10  19  36  59  85 118 155 195 241 296 354
#     4  10  22  41  63  90 120 157 199 249 296 354
#     4  10  23  42  64  89 120 155 202 248 299 354
#
# _framework density 24.923022
#
# number of rings (size 3 to 8) (size 9 to 14) (size 15 to 20)
#    0.000    2.000    0.000    3.600    0.000    7.200 
#    0.000    8.000    0.000    0.000    0.000    0.000 
#    0.000    0.000    0.000    0.000    0.000    0.000 
#
# Total GULP energy -111617.305679 kJ/mol
# GULP energy per Si atom -5580.865284 kJ/mol
# Density = 2.486630 g / cm^3
# Si number density = 24.923022 Si / 1000 Ang^3
#
#
#
# Elastic Constant Matrix: (Units=GPa)
#
#
# Indices 1 2 3 4 5 6 
#
# 1 68.8175 3.0857 1.4007 0.0000 7.8321 0.0000
# 2 3.0857 81.9162 2.7806 0.0000 20.0582 0.0000
# 3 1.4007 2.7806 14.8662 0.0000 3.7372 0.0000
# 4 0.0000 0.0000 0.0000 46.1746 0.0000 5.0394
# 5 7.8321 20.0582 3.7372 0.0000 15.8773 0.0000
# 6 0.0000 0.0000 0.0000 5.0394 0.0000 35.5419
#
#
#
# Elastic Compliance Matrix: (Units=1/GPa)
#
#
# Indices 1 2 3 4 5 6 
#
# 1 0.015600 0.001903 0.000758 0.000000 -0.010278 0.000000
# 2 0.001903 0.017992 0.002557 0.000000 -0.024271 0.000000
# 3 0.000758 0.002557 0.071876 0.000000 -0.020522 0.000000
# 4 0.000000 0.000000 0.000000 0.021997 0.000000 -0.003119
# 5 -0.010278 -0.024271 -0.020522 0.000000 0.103545 0.000000
# 6 0.000000 0.000000 0.000000 -0.003119 0.000000 0.028578
#
#
# Mechanical properties :
#
#
# Convention : Reuss Voigt Hill
#
# Bulk Modulus (GPa) = 8.62779 20.01488 14.32133
# Shear Modulus (GPa) = 17.37396 30.07429 23.72412
#
# Velocity S-wave (km/s) = 2.64314 3.47751 3.08863
# Velocity P-wave (km/s) = 3.57550 4.91652 4.29863
#
# Compressibility (1/GPa) = 0.11590458
#
# Stress axis : x y z
#
# Youngs Moduli (GPa) = 64.10181 55.58009 13.91287
#
# Poissons Ratio (x) = -0.10579 -0.01055
# Poissons Ratio (y) = -0.12201 -0.03557
# Poissons Ratio (z) = -0.04859 -0.14210
#
# Static dielectric constant tensor:
#      x y z
#    x 2.047180 0.000000 0.068540 
#    y 0.000000 2.135690 0.000000 
#    z 0.068540 0.000000 1.960720 
# 
# From -- ./inp_files/11895.got.cif
#   From: 2010.05.17/outbox.cif.g08.bks.cpg/sg14_6_cif.got.tgz:11895.got - 2010.06.03 17:49:19.
