data_PCOD9241983
_publ_section_title
;
Structure prediction by ZEFSAII (Michael W. Deem and Ramdas Pophale) SiO2 
 PCOD9241983
Probable space group: P 21/C
;
_chemical_formula_sum "Si O2"
_cell_formula_units_Z 32
_cell_length_a 14.406650
_cell_length_b 14.062726
_cell_length_c 21.066314
_cell_angle_alpha 90.000000
_cell_angle_beta 22.069832
_cell_angle_gamma 90.000000
_cell_volume 1603.630483
_symmetry_space_group_name_H-M "P 21/C"
_symmetry_group_IT_number 14
_symmetry_cell_setting 'monoclinic'
loop_
_space_group_symop_operation_xyz
x,y,z
-x,1/2+y,1/2-z
-x,-y,-z
x,1/2-y,1/2+z
loop_
_atom_site_type_symbol
_atom_site_label
_atom_site_fract_x
_atom_site_fract_y
_atom_site_fract_z
Si Si1 0.799959 0.502408 0.533705
Si Si2 0.857052 0.941543 0.297767
Si Si3 0.776090 0.205260 0.928435
Si Si4 0.725546 0.455628 0.171850
Si Si5 0.618856 0.952237 0.862430
Si Si6 0.142921 0.364864 0.396441
Si Si7 0.955050 0.308188 0.940530
Si Si8 0.565974 0.099949 0.535624
O O1 0.506528 0.490088 0.712676
O O2 0.855380 0.604551 0.531453
O O3 0.942494 0.489370 0.376784
O O4 0.924270 0.425212 0.501507
O O5 0.630039 0.913655 0.396504
O O6 0.976324 0.847259 0.250295
O O7 0.760677 0.015568 0.409723
O O8 0.832226 0.241245 0.964762
O O9 0.698791 0.300260 0.942291
O O10 0.567637 0.126187 0.048982
O O11 0.654351 0.460585 0.290865
O O12 0.759738 0.360517 0.109574
O O13 0.000000 0.500000 0.000000
O O14 0.872339 0.888483 0.703215
O O15 0.500000 0.000000 0.000000
O O16 0.111811 0.258695 0.389213
O O17 0.402688 0.399796 0.202417
#
# Coordination Sequence:
#
# PCOD9241983 Si02
#       8
#     4   4   4   4   4   4   4   4
#     4  10  19  38  64  87 124 162 205 268 324 377
#     4  10  21  39  64  90 126 166 215 272 320 384
#     4  12  20  39  66  91 129 171 217 260 338 392
#     4  10  22  39  62  92 128 167 215 264 328 397
#     4  11  24  42  63  90 136 172 209 270 336 391
#     4  10  19  38  64  94 117 161 218 265 324 384
#     4  11  22  39  65  95 120 169 220 264 325 401
#     4  10  21  38  63  94 120 167 220 264 314 406
#
# _framework density 19.954720999999999
#
# number of rings (size 3 to 8) (size 9 to 14) (size 15 to 20)
#    0.000    1.500    5.000    0.750    1.750    0.000 
#    2.250    0.000   11.000    0.000    0.000    0.000 
#    0.000    0.000    0.000    0.000    0.000    0.000 
#
# Total GULP energy -178242.807294 kJ/mol
# GULP energy per Si atom -5570.087728 kJ/mol
# Density = 1.990930 g / cm^3
# Si number density = 19.954721 Si / 1000 Ang^3
#
#
#
# Elastic Constant Matrix: (Units=GPa)
#
#
# Indices 1 2 3 4 5 6 
#
# 1 58.4011 38.0367 48.0523 0.0000 -1.7183 0.0000
# 2 38.0367 107.9848 59.9243 0.0000 6.3705 0.0000
# 3 48.0523 59.9243 96.5518 0.0000 -3.8738 0.0000
# 4 0.0000 0.0000 0.0000 43.8006 0.0000 -2.6451
# 5 -1.7183 6.3705 -3.8738 0.0000 25.2886 0.0000
# 6 0.0000 0.0000 0.0000 -2.6451 0.0000 32.2258
#
#
#
# Elastic Compliance Matrix: (Units=1/GPa)
#
#
# Indices 1 2 3 4 5 6 
#
# 1 0.029845 -0.003587 -0.012587 0.000000 0.001003 0.000000
# 2 -0.003587 0.015196 -0.007858 0.000000 -0.005275 0.000000
# 3 -0.012587 -0.007858 0.021677 0.000000 0.004445 0.000000
# 4 0.000000 0.000000 0.000000 0.022944 0.000000 0.001883
# 5 0.001003 -0.005275 0.004445 0.000000 0.041622 0.000000
# 6 0.000000 0.000000 0.000000 0.001883 0.000000 0.031186
#
#
# Mechanical properties :
#
#
# Convention : Reuss Voigt Hill
#
# Bulk Modulus (GPa) = 53.60673 61.66269 57.63471
# Shear Modulus (GPa) = 23.06800 28.05796 25.56298
#
# Velocity S-wave (km/s) = 3.40371 3.75384 3.58306
# Velocity P-wave (km/s) = 6.50919 7.05385 6.78699
#
# Compressibility (1/GPa) = 0.01865437
#
# Stress axis : x y z
#
# Youngs Moduli (GPa) = 33.50612 65.80807 46.13271
#
# Poissons Ratio (x) = 0.23605 0.58067
# Poissons Ratio (y) = 0.12019 0.36249
# Poissons Ratio (z) = 0.42174 0.51709
#
# Static dielectric constant tensor:
#      x y z
#    x 1.756560 0.000000 -0.035530 
#    y 0.000000 1.735640 0.000000 
#    z -0.035530 0.000000 1.732190 
# 
# From -- ./inp_files/68679.got.cif
#   From: 2010.05.17/outbox.cif.g08.bks.cpg/sg14_35_cif.got.tgz:68679.got - 2010.06.03 17:49:19.
