data_PCOD9241302
_publ_section_title
;
Structure prediction by ZEFSAII (Michael W. Deem and Ramdas Pophale) SiO2 
 PCOD9241302
Probable space group: P 21/C
;
_chemical_formula_sum "Si O2"
_cell_formula_units_Z 24
_cell_length_a 6.884370
_cell_length_b 17.447782
_cell_length_c 10.215527
_cell_angle_alpha 90.000000
_cell_angle_beta 45.621868
_cell_angle_gamma 90.000000
_cell_volume 877.027258
_symmetry_space_group_name_H-M "P 21/C"
_symmetry_group_IT_number 14
_symmetry_cell_setting 'monoclinic'
loop_
_space_group_symop_operation_xyz
x,y,z
-x,1/2+y,1/2-z
-x,-y,-z
x,1/2-y,1/2+z
loop_
_atom_site_type_symbol
_atom_site_label
_atom_site_fract_x
_atom_site_fract_y
_atom_site_fract_z
Si Si1 0.750871 0.553257 0.912707
Si Si2 0.425810 0.690964 0.974451
Si Si3 0.969802 0.340677 0.078250
Si Si4 0.645094 0.358139 0.504242
Si Si5 0.013856 0.175154 0.083633
Si Si6 0.803247 0.984209 0.966890
O O1 0.823743 0.588030 0.019732
O O2 0.999990 0.503805 0.745309
O O3 0.500000 0.500000 0.000000
O O4 0.666975 0.630485 0.874268
O O5 0.526055 0.779031 0.912240
O O6 0.220859 0.680483 0.194530
O O7 0.240707 0.666894 0.939053
O O8 0.129298 0.260388 0.013391
O O9 0.800811 0.352909 0.291886
O O10 0.855225 0.342553 0.524547
O O11 0.578383 0.448238 0.563232
O O12 0.228493 0.107566 0.013165
O O13 0.000000 0.000000 0.000000
#
# Coordination Sequence:
#
# PCOD9241302 Si02
#       6
#     4   4   4   4   4   4
#     4  11  21  36  59  90 114 148 197 248 288 338
#     4  10  19  35  59  86 116 148 197 248 284 340
#     4   9  20  36  57  85 117 154 191 240 296 348
#     4   8  17  34  55  80 114 157 186 226 294 350
#     4   9  16  34  58  81 112 159 187 229 296 349
#     4   9  17  34  61  79 115 163 186 221 303 354
#
# _framework density 27.365169999999999
#
# number of rings (size 3 to 8) (size 9 to 14) (size 15 to 20)
#    0.000    2.667    1.667    0.000    0.000    0.667 
#    0.000   30.000    0.000   10.000    0.000    0.000 
#    0.000    0.000    0.000    0.000    0.000    0.000 
#
# Total GULP energy -134164.538018 kJ/mol
# GULP energy per Si atom -5590.189084 kJ/mol
# Density = 2.730289 g / cm^3
# Si number density = 27.365170 Si / 1000 Ang^3
#
#
#
# Elastic Constant Matrix: (Units=GPa)
#
#
# Indices 1 2 3 4 5 6 
#
# 1 111.6119 44.6895 36.0721 0.0000 5.4141 0.0000
# 2 44.6895 178.5200 28.6004 0.0000 -11.8486 0.0000
# 3 36.0721 28.6004 122.3328 0.0000 16.5242 0.0000
# 4 0.0000 0.0000 0.0000 14.4901 0.0000 -1.0418
# 5 5.4141 -11.8486 16.5242 0.0000 43.2744 0.0000
# 6 0.0000 0.0000 0.0000 -1.0418 0.0000 70.2611
#
#
#
# Elastic Compliance Matrix: (Units=1/GPa)
#
#
# Indices 1 2 3 4 5 6 
#
# 1 0.010758 -0.002366 -0.002478 0.000000 -0.001048 0.000000
# 2 -0.002366 0.006551 -0.001177 0.000000 0.002539 0.000000
# 3 -0.002478 -0.001177 0.009681 0.000000 -0.003709 0.000000
# 4 0.000000 0.000000 0.000000 0.069086 0.000000 0.001024
# 5 -0.001048 0.002539 -0.003709 0.000000 0.025351 0.000000
# 6 0.000000 0.000000 0.000000 0.001024 0.000000 0.014248
#
#
# Mechanical properties :
#
#
# Convention : Reuss Voigt Hill
#
# Bulk Modulus (GPa) = 66.89090 70.13207 68.51148
# Shear Modulus (GPa) = 32.74399 45.81198 39.27798
#
# Velocity S-wave (km/s) = 3.46288 4.09601 3.79268
# Velocity P-wave (km/s) = 6.36283 6.93207 6.65354
#
# Compressibility (1/GPa) = 0.01494972
#
# Stress axis : x y z
#
# Youngs Moduli (GPa) = 92.94994 152.65037 103.29328
#
# Poissons Ratio (x) = 0.36114 0.25593
# Poissons Ratio (y) = 0.21990 0.12157
# Poissons Ratio (z) = 0.23030 0.17966
#
# Static dielectric constant tensor:
#      x y z
#    x 2.181660 0.000000 -0.008450 
#    y 0.000000 2.215340 0.000000 
#    z -0.008450 0.000000 2.209190 
# 
# From -- ./inp_files/25971.got.cif
#   From: 2010.05.17/outbox.cif.g08.bks.cpg/sg14_13_cif.got.tgz:25971.got - 2010.06.03 17:49:19.
