data_PCOD9241612
_publ_section_title
;
Structure prediction by ZEFSAII (Michael W. Deem and Ramdas Pophale) SiO2 
 PCOD9241612
Probable space group: P 21/C
;
_chemical_formula_sum "Si O2"
_cell_formula_units_Z 32
_cell_length_a 11.034390
_cell_length_b 14.175204
_cell_length_c 14.061938
_cell_angle_alpha 90.000000
_cell_angle_beta 34.563189
_cell_angle_gamma 90.000000
_cell_volume 1247.805593
_symmetry_space_group_name_H-M "P 21/C"
_symmetry_group_IT_number 14
_symmetry_cell_setting 'monoclinic'
loop_
_space_group_symop_operation_xyz
x,y,z
-x,1/2+y,1/2-z
-x,-y,-z
x,1/2-y,1/2+z
loop_
_atom_site_type_symbol
_atom_site_label
_atom_site_fract_x
_atom_site_fract_y
_atom_site_fract_z
Si Si1 0.002884 0.076373 0.671427
Si Si2 0.299615 0.315374 0.120092
Si Si3 0.621827 0.257889 0.738748
Si Si4 0.032038 0.625204 0.390861
Si Si5 0.341697 0.039799 0.745511
Si Si6 0.118004 0.372466 0.715202
Si Si7 0.583720 0.426742 0.347578
Si Si8 0.623780 0.595094 0.195007
O O1 0.114898 0.121428 0.690200
O O2 0.139237 0.113458 0.494261
O O3 0.756870 0.102451 0.814345
O O4 0.012425 0.962195 0.663895
O O5 0.411873 0.380653 0.125749
O O6 0.185018 0.219834 0.230747
O O7 0.464576 0.284181 0.930226
O O8 0.624864 0.146029 0.734724
O O9 0.517595 0.311091 0.717109
O O10 0.848609 0.301734 0.618145
O O11 0.810229 0.590600 0.579253
O O12 0.994997 0.662797 0.309068
O O13 0.186703 0.534163 0.291193
O O14 0.512594 0.973575 0.687380
O O15 0.342307 0.416324 0.534760
O O16 0.624452 0.532670 0.287715
#
# Coordination Sequence:
#
# PCOD9241612 Si02
#       8
#     4   4   4   4   4   4   4   4
#     4  11  23  39  62  87 122 167 199 249 305 369
#     4  10  22  39  60  92 123 155 207 254 302 362
#     4   9  22  37  64  89 118 165 201 251 308 356
#     4  10  19  36  63  86 119 159 199 252 304 354
#     4  10  20  37  62  91 117 149 206 257 298 353
#     4  11  22  39  60  91 123 164 202 247 311 359
#     4  11  22  43  58  87 128 163 204 246 305 368
#     4  10  22  40  62  92 119 158 203 253 303 358
#
# _framework density 25.645022000000001
#
# number of rings (size 3 to 8) (size 9 to 14) (size 15 to 20)
#    0.000    1.750    2.500    1.500    1.750    2.500 
#    2.250    0.000    0.000    0.000    0.000    0.000 
#    0.000    0.000    0.000    0.000    0.000    0.000 
#
# Total GULP energy -179181.783347 kJ/mol
# GULP energy per Si atom -5599.430730 kJ/mol
# Density = 2.558665 g / cm^3
# Si number density = 25.645022 Si / 1000 Ang^3
#
#
#
# Elastic Constant Matrix: (Units=GPa)
#
#
# Indices 1 2 3 4 5 6 
#
# 1 59.9972 6.1920 8.3287 0.0000 -13.4582 0.0000
# 2 6.1920 114.2614 5.1362 0.0000 5.2418 0.0000
# 3 8.3287 5.1362 54.5312 0.0000 -25.3535 0.0000
# 4 0.0000 0.0000 0.0000 27.2695 0.0000 3.0198
# 5 -13.4582 5.2418 -25.3535 0.0000 23.9235 0.0000
# 6 0.0000 0.0000 0.0000 3.0198 0.0000 41.5535
#
#
#
# Elastic Compliance Matrix: (Units=1/GPa)
#
#
# Indices 1 2 3 4 5 6 
#
# 1 0.020019 -0.002100 0.005106 0.000000 0.017133 0.000000
# 2 -0.002100 0.009396 -0.004082 0.000000 -0.007567 0.000000
# 3 0.005106 -0.004082 0.038823 0.000000 0.044911 0.000000
# 4 0.000000 0.000000 0.000000 0.036969 0.000000 -0.002687
# 5 0.017133 -0.007567 0.044911 0.000000 0.100691 0.000000
# 6 0.000000 0.000000 0.000000 -0.002687 0.000000 0.024261
#
#
# Mechanical properties :
#
#
# Convention : Reuss Voigt Hill
#
# Bulk Modulus (GPa) = 15.13197 29.78929 22.46063
# Shear Modulus (GPa) = 19.65870 32.49149 26.07510
#
# Velocity S-wave (km/s) = 2.77170 3.56331 3.19214
# Velocity P-wave (km/s) = 4.01951 5.34517 4.72902
#
# Compressibility (1/GPa) = 0.06608525
#
# Stress axis : x y z
#
# Youngs Moduli (GPa) = 49.95374 106.42482 25.75761
#
# Poissons Ratio (x) = 0.22353 -0.13152
# Poissons Ratio (y) = 0.10492 0.10515
# Poissons Ratio (z) = -0.25506 0.43445
#
# Static dielectric constant tensor:
#      x y z
#    x 2.036780 0.000000 0.036580 
#    y 0.000000 2.051070 0.000000 
#    z 0.036580 0.000000 1.963510 
# 
# From -- ./inp_files/57998.got.cif
#   From: 2010.05.17/outbox.cif.g08.bks.cpg/sg14_29_cif.got.tgz:57998.got - 2010.06.03 17:49:19.
