data_PCOD9241795
_publ_section_title
;
Structure prediction by ZEFSAII (Michael W. Deem and Ramdas Pophale) SiO2 
 PCOD9241795
Probable space group: P 21/C
;
_chemical_formula_sum "Si O2"
_cell_formula_units_Z 26
_cell_length_a 8.815962
_cell_length_b 7.013192
_cell_length_c 18.417418
_cell_angle_alpha 90.000000
_cell_angle_beta 87.288613
_cell_angle_gamma 90.000000
_cell_volume 1137.437953
_symmetry_space_group_name_H-M "P 21/C"
_symmetry_group_IT_number 14
_symmetry_cell_setting 'monoclinic'
loop_
_space_group_symop_operation_xyz
x,y,z
-x,1/2+y,1/2-z
-x,-y,-z
x,1/2-y,1/2+z
loop_
_atom_site_type_symbol
_atom_site_label
_atom_site_fract_x
_atom_site_fract_y
_atom_site_fract_z
Si Si1 0.592785 0.843524 0.169980
Si Si2 0.000000 0.500000 0.500000
Si Si3 0.296383 0.264939 0.981552
Si Si4 0.655110 0.457741 0.805868
Si Si5 0.878882 0.225307 0.573853
Si Si6 0.878594 0.413401 0.924491
Si Si7 0.474790 0.771830 0.902797
O O1 0.676417 0.727608 0.104810
O O2 0.465703 0.707768 0.207485
O O3 0.695337 0.936906 0.230269
O O4 0.510776 0.019067 0.131261
O O5 0.820370 0.596919 0.500461
O O6 0.962705 0.420397 0.588165
O O7 0.224644 0.453470 0.020173
O O8 0.456813 0.233856 0.017918
O O9 0.788443 0.375918 0.853661
O O10 0.569749 0.616821 0.856171
O O11 0.703880 0.226863 0.594351
O O12 0.973715 0.041255 0.594059
O O13 0.915866 0.253757 0.482523
#
# Coordination Sequence:
#
# PCOD9241795 Si02
#       7
#     4   2   4   4   4   4   4
#     4  12  22  38  63  91 125 167 203 261 308 381
#     4  10  20  32  56  92 122 150 198 260 306 370
#     4  10  21  37  63  93 118 158 213 258 310 369
#     4  11  24  40  63  91 130 163 210 255 323 378
#     4  10  19  37  63  88 124 156 205 260 310 364
#     4   9  21  39  63  90 126 160 203 267 315 373
#     4  11  22  40  66  93 120 161 214 262 306 378
#
# _framework density 22.858388999999999
#
# number of rings (size 3 to 8) (size 9 to 14) (size 15 to 20)
#    0.000    1.538    3.077    2.308    2.154    2.462 
#    0.000    0.000   16.923    0.000    0.000    0.000 
#    0.000    0.000    0.000    0.000    0.000    0.000 
#
# Total GULP energy -144890.106000 kJ/mol
# GULP energy per Si atom -5572.696385 kJ/mol
# Density = 2.280636 g / cm^3
# Si number density = 22.858389 Si / 1000 Ang^3
#
#
#
# Elastic Constant Matrix: (Units=GPa)
#
#
# Indices 1 2 3 4 5 6 
#
# 1 84.3985 4.8134 27.5294 0.0000 0.5093 0.0000
# 2 4.8134 93.8087 3.8086 0.0000 -1.7710 0.0000
# 3 27.5294 3.8086 98.0681 0.0000 17.2050 0.0000
# 4 0.0000 0.0000 0.0000 24.2691 0.0000 -3.8185
# 5 0.5093 -1.7710 17.2050 0.0000 31.8088 0.0000
# 6 0.0000 0.0000 0.0000 -3.8185 0.0000 31.2350
#
#
#
# Elastic Compliance Matrix: (Units=1/GPa)
#
#
# Indices 1 2 3 4 5 6 
#
# 1 0.013175 -0.000476 -0.004020 0.000000 0.001937 0.000000
# 2 -0.000476 0.010718 -0.000429 0.000000 0.000837 0.000000
# 3 -0.004020 -0.000429 0.012523 0.000000 -0.006733 0.000000
# 4 0.000000 0.000000 0.000000 0.042013 0.000000 0.005136
# 5 0.001937 0.000837 -0.006733 0.000000 0.035095 0.000000
# 6 0.000000 0.000000 0.000000 0.005136 0.000000 0.032643
#
#
# Mechanical properties :
#
#
# Convention : Reuss Voigt Hill
#
# Bulk Modulus (GPa) = 37.64282 38.73092 38.18687
# Shear Modulus (GPa) = 30.32627 33.47083 31.89855
#
# Velocity S-wave (km/s) = 3.64634 3.83073 3.73967
# Velocity P-wave (km/s) = 5.85076 6.04538 5.94886
#
# Compressibility (1/GPa) = 0.02656549
#
# Stress axis : x y z
#
# Youngs Moduli (GPa) = 75.90004 93.30403 79.85070
#
# Poissons Ratio (x) = 0.04444 0.32098
# Poissons Ratio (y) = 0.03615 0.03428
# Poissons Ratio (z) = 0.30510 0.04006
#
# Static dielectric constant tensor:
#      x y z
#    x 1.873910 0.000000 0.004030 
#    y 0.000000 2.120670 0.000000 
#    z 0.004030 0.000000 1.912630 
# 
# From -- ./inp_files/54608.got.cif
#   From: 2010.05.17/outbox.cif.g08.bks.cpg/sg14_28_cif.got.tgz:54608.got - 2010.06.03 17:49:19.
