data_PCOD9241603
_publ_section_title
;
Structure prediction by ZEFSAII (Michael W. Deem and Ramdas Pophale) SiO2 
 PCOD9241603
Probable space group: P 21/C
;
_chemical_formula_sum "Si O2"
_cell_formula_units_Z 28
_cell_length_a 9.848721
_cell_length_b 20.676814
_cell_length_c 8.357039
_cell_angle_alpha 90.000000
_cell_angle_beta 61.847793
_cell_angle_gamma 90.000000
_cell_volume 1500.497949
_symmetry_space_group_name_H-M "P 21/C"
_symmetry_group_IT_number 14
_symmetry_cell_setting 'monoclinic'
loop_
_space_group_symop_operation_xyz
x,y,z
-x,1/2+y,1/2-z
-x,-y,-z
x,1/2-y,1/2+z
loop_
_atom_site_type_symbol
_atom_site_label
_atom_site_fract_x
_atom_site_fract_y
_atom_site_fract_z
Si Si1 0.053333 0.317030 0.567914
Si Si2 0.632865 0.618631 0.637287
Si Si3 0.236669 0.431286 0.103532
Si Si4 0.282439 0.464699 0.725266
Si Si5 0.292289 0.610083 0.773472
Si Si6 0.021998 0.821134 0.246093
Si Si7 0.938431 0.060954 0.331258
O O1 0.236507 0.326385 0.442328
O O2 0.968201 0.316322 0.447932
O O3 0.021402 0.249794 0.670241
O O4 0.992883 0.381658 0.686575
O O5 0.664635 0.583681 0.791254
O O6 0.663089 0.576003 0.459103
O O7 0.456171 0.640014 0.726765
O O8 0.138610 0.496250 0.195559
O O9 0.114577 0.372973 0.143427
O O10 0.324895 0.442524 0.883959
O O11 0.324521 0.539603 0.678084
O O12 0.096168 0.460096 0.830163
O O13 0.181427 0.653814 0.729290
O O14 0.188928 0.591809 0.983398
#
# Coordination Sequence:
#
# PCOD9241603 Si02
#       7
#     4   4   4   4   4   4   4
#     4  10  24  39  62  87 115 166 201 254 300 374
#     4  10  24  37  58  93 128 150 201 255 307 359
#     4  10  20  38  64  89 119 168 201 250 305 363
#     4  10  19  36  62  92 123 167 192 248 300 368
#     4  11  20  38  61  90 124 153 199 257 302 352
#     4  11  21  39  64  84 118 161 212 245 299 368
#     4  10  19  37  64  91 122 158 214 246 297 371
#
# _framework density 18.660473
#
# number of rings (size 3 to 8) (size 9 to 14) (size 15 to 20)
#    0.000    1.714    2.857    2.143    4.000    4.000 
#    2.571    5.714    0.000    0.000    0.000    0.000 
#    0.000    0.000    0.000    0.000    0.000    0.000 
#
# Total GULP energy -156092.036919 kJ/mol
# GULP energy per Si atom -5574.715604 kJ/mol
# Density = 1.861800 g / cm^3
# Si number density = 18.660473 Si / 1000 Ang^3
#
#
#
# Elastic Constant Matrix: (Units=GPa)
#
#
# Indices 1 2 3 4 5 6 
#
# 1 141.9198 60.1430 85.5970 0.0000 -18.9431 0.0000
# 2 60.1430 119.1948 58.2719 0.0000 -0.1111 0.0000
# 3 85.5970 58.2719 95.2733 0.0000 -9.2299 0.0000
# 4 0.0000 0.0000 0.0000 14.9041 0.0000 9.1212
# 5 -18.9431 -0.1111 -9.2299 0.0000 40.2964 0.0000
# 6 0.0000 0.0000 0.0000 9.1212 0.0000 13.0926
#
#
#
# Elastic Compliance Matrix: (Units=1/GPa)
#
#
# Indices 1 2 3 4 5 6 
#
# 1 0.016368 -0.001836 -0.013129 0.000000 0.004682 0.000000
# 2 -0.001836 0.012287 -0.006081 0.000000 -0.002222 0.000000
# 3 -0.013129 -0.006081 0.025988 0.000000 -0.000236 0.000000
# 4 0.000000 0.000000 0.000000 0.116965 0.000000 -0.081487
# 5 0.004682 -0.002222 -0.000236 0.000000 0.026957 0.000000
# 6 0.000000 0.000000 0.000000 -0.081487 0.000000 0.133149
#
#
# Mechanical properties :
#
#
# Convention : Reuss Voigt Hill
#
# Bulk Modulus (GPa) = 79.67320 84.93463 82.30392
# Shear Modulus (GPa) = 13.22795 23.81701 18.52248
#
# Velocity S-wave (km/s) = 2.66536 3.57646 3.15398
# Velocity P-wave (km/s) = 7.22919 7.91640 7.58058
#
# Compressibility (1/GPa) = 0.01255127
#
# Stress axis : x y z
#
# Youngs Moduli (GPa) = 61.09593 81.38917 38.47971
#
# Poissons Ratio (x) = 0.14943 0.50519
# Poissons Ratio (y) = 0.11217 0.23398
# Poissons Ratio (z) = 0.80212 0.49490
#
# Static dielectric constant tensor:
#      x y z
#    x 1.645250 0.000000 0.009340 
#    y 0.000000 1.890550 0.000000 
#    z 0.009340 0.000000 1.683760 
# 
# From -- ./inp_files/9876.got.cif
#   From: 2010.05.17/outbox.cif.g08.bks.cpg/sg14_5_cif.got.tgz:9876.got - 2010.06.03 17:49:19.
