data_PCOD9241124
_publ_section_title
;
Structure prediction by ZEFSAII (Michael W. Deem and Ramdas Pophale) SiO2 
 PCOD9241124
Probable space group: P 21/C
;
_chemical_formula_sum "Si O2"
_cell_formula_units_Z 28
_cell_length_a 13.349067
_cell_length_b 16.544874
_cell_length_c 16.648857
_cell_angle_alpha 90.000000
_cell_angle_beta 24.909139
_cell_angle_gamma 90.000000
_cell_volume 1548.699086
_symmetry_space_group_name_H-M "P 21/C"
_symmetry_group_IT_number 14
_symmetry_cell_setting 'monoclinic'
loop_
_space_group_symop_operation_xyz
x,y,z
-x,1/2+y,1/2-z
-x,-y,-z
x,1/2-y,1/2+z
loop_
_atom_site_type_symbol
_atom_site_label
_atom_site_fract_x
_atom_site_fract_y
_atom_site_fract_z
Si Si1 0.830047 0.441513 0.072041
Si Si2 0.278363 0.892295 0.609121
Si Si3 0.723051 0.848089 0.384617
Si Si4 0.096450 0.518129 0.569297
Si Si5 0.439335 0.470631 0.874946
Si Si6 0.976821 0.676580 0.189059
Si Si7 0.607484 0.960931 0.001600
O O1 0.739356 0.494045 0.062038
O O2 0.603573 0.426019 0.291569
O O3 0.000000 0.500000 0.000000
O O4 0.927760 0.357179 0.965711
O O5 0.470064 0.847377 0.523620
O O6 0.176252 0.835978 0.612621
O O7 0.414800 0.966767 0.466467
O O8 0.057701 0.934756 0.816864
O O9 0.656204 0.885985 0.520460
O O10 0.856928 0.763256 0.283025
O O11 0.904496 0.910925 0.210602
O O12 0.296662 0.527316 0.355065
O O13 0.241109 0.518808 0.549075
O O14 0.779679 0.610106 0.351895
O O15 0.500000 0.000000 0.000000
#
# Coordination Sequence:
#
# PCOD9241124 Si02
#       7
#     4   4   4   4   4   4   4
#     4  10  19  36  60  84 110 150 195 234 273 335
#     4   9  20  38  55  79 110 154 188 230 287 342
#     4  11  22  35  57  85 115 149 183 237 293 337
#     4   9  19  35  58  81 109 146 193 235 273 344
#     4   9  19  36  59  84 110 144 197 233 272 349
#     4  10  22  38  53  83 122 142 185 241 285 337
#     4  10  19  34  60  82 108 153 195 228 281 335
#
# _framework density 18.079689999999999
#
# number of rings (size 3 to 8) (size 9 to 14) (size 15 to 20)
#    0.000    2.286    1.429    2.571    0.000    4.571 
#    0.000    0.000    0.000    0.000    0.000    0.000 
#    0.000    0.000    0.000    0.000    0.000    0.000 
#
# Total GULP energy -156040.187488 kJ/mol
# GULP energy per Si atom -5572.863839 kJ/mol
# Density = 1.803854 g / cm^3
# Si number density = 18.079690 Si / 1000 Ang^3
#
#
#
# Elastic Constant Matrix: (Units=GPa)
#
#
# Indices 1 2 3 4 5 6 
#
# 1 74.8267 36.5480 39.6568 0.0000 -4.4763 0.0000
# 2 36.5480 70.4451 31.9197 0.0000 1.3836 0.0000
# 3 39.6568 31.9197 116.9223 0.0000 3.5137 0.0000
# 4 0.0000 0.0000 0.0000 24.3343 0.0000 -3.1230
# 5 -4.4763 1.3836 3.5137 0.0000 28.9097 0.0000
# 6 0.0000 0.0000 0.0000 -3.1230 0.0000 13.7593
#
#
#
# Elastic Compliance Matrix: (Units=1/GPa)
#
#
# Indices 1 2 3 4 5 6 
#
# 1 0.020213 -0.008451 -0.004672 0.000000 0.004102 0.000000
# 2 -0.008451 0.019734 -0.002462 0.000000 -0.001954 0.000000
# 3 -0.004672 -0.002462 0.010867 0.000000 -0.001926 0.000000
# 4 0.000000 0.000000 0.000000 0.042327 0.000000 0.009607
# 5 0.004102 -0.001954 -0.001926 0.000000 0.035553 0.000000
# 6 0.000000 0.000000 0.000000 0.009607 0.000000 0.074859
#
#
# Mechanical properties :
#
#
# Convention : Reuss Voigt Hill
#
# Bulk Modulus (GPa) = 50.90480 53.16035 52.03257
# Shear Modulus (GPa) = 20.72352 23.67199 22.19776
#
# Velocity S-wave (km/s) = 3.38928 3.62237 3.50776
# Velocity P-wave (km/s) = 6.59797 6.85293 6.72666
#
# Compressibility (1/GPa) = 0.01964451
#
# Stress axis : x y z
#
# Youngs Moduli (GPa) = 49.47248 50.67437 92.01786
#
# Poissons Ratio (x) = 0.42822 0.42991
# Poissons Ratio (y) = 0.41807 0.22659
# Poissons Ratio (z) = 0.23114 0.12478
#
# Static dielectric constant tensor:
#      x y z
#    x 1.668640 0.000000 -0.001570 
#    y 0.000000 1.592790 0.000000 
#    z -0.001570 0.000000 1.583070 
# 
# From -- ./inp_files/45281.got.cif
#   From: 2010.05.17/outbox.cif.g08.bks.cpg/sg14_23_cif.got.tgz:45281.got - 2010.06.03 17:49:19.
