data_PCOD9241480
_publ_section_title
;
Structure prediction by ZEFSAII (Michael W. Deem and Ramdas Pophale) SiO2 
 PCOD9241480
Probable space group: P 21/C
;
_chemical_formula_sum "Si O2"
_cell_formula_units_Z 20
_cell_length_a 7.678188
_cell_length_b 12.024810
_cell_length_c 11.463797
_cell_angle_alpha 90.000000
_cell_angle_beta 130.395999
_cell_angle_gamma 90.000000
_cell_volume 806.089037
_symmetry_space_group_name_H-M "P 21/C"
_symmetry_group_IT_number 14
_symmetry_cell_setting 'monoclinic'
loop_
_space_group_symop_operation_xyz
x,y,z
-x,1/2+y,1/2-z
-x,-y,-z
x,1/2-y,1/2+z
loop_
_atom_site_type_symbol
_atom_site_label
_atom_site_fract_x
_atom_site_fract_y
_atom_site_fract_z
Si Si1 0.754644 0.335594 0.186414
Si Si2 0.650222 0.100324 0.224670
Si Si3 0.276320 0.650945 0.498899
Si Si4 0.351935 0.102806 0.648243
Si Si5 0.865565 0.839035 0.991490
O O1 0.719684 0.229859 0.261272
O O2 0.731928 0.278273 0.052282
O O3 0.544896 0.412747 0.131388
O O4 0.007458 0.369392 0.332386
O O5 0.709993 0.081390 0.115053
O O6 0.376526 0.100381 0.124022
O O7 0.754831 0.013943 0.359965
O O8 0.504065 0.633879 0.672512
O O9 0.045376 0.628092 0.469490
O O10 0.198065 0.207349 0.544581
#
# Coordination Sequence:
#
# PCOD9241480 Si02
#       5
#     4   4   4   4   4
#     4   8  20  35  51  82 105 136 179 217 258 320
#     4   9  20  36  54  82 107 132 189 213 260 316
#     4   9  20  35  52  82 102 138 185 206 264 324
#     4  10  19  36  59  76 109 143 171 225 261 309
#     4  10  20  36  57  74 113 143 164 231 265 300
#
# _framework density 24.811154999999999
#
# number of rings (size 3 to 8) (size 9 to 14) (size 15 to 20)
#    1.200    1.600    0.000    0.600    2.800    4.000 
#    3.600    0.000    0.000    4.800    0.000    0.000 
#    0.000    0.000    0.000    0.000    0.000    0.000 
#
# Total GULP energy -111596.456651 kJ/mol
# GULP energy per Si atom -5579.822833 kJ/mol
# Density = 2.475468 g / cm^3
# Si number density = 24.811155 Si / 1000 Ang^3
#
#
#
# Elastic Constant Matrix: (Units=GPa)
#
#
# Indices 1 2 3 4 5 6 
#
# 1 92.4424 5.7909 28.4506 0.0000 13.7979 0.0000
# 2 5.7909 57.8962 3.3601 0.0000 -12.8375 0.0000
# 3 28.4506 3.3601 37.5778 0.0000 15.3299 0.0000
# 4 0.0000 0.0000 0.0000 16.2627 0.0000 -9.0384
# 5 13.7979 -12.8375 15.3299 0.0000 34.0157 0.0000
# 6 0.0000 0.0000 0.0000 -9.0384 0.0000 35.6458
#
#
#
# Elastic Compliance Matrix: (Units=1/GPa)
#
#
# Indices 1 2 3 4 5 6 
#
# 1 0.014215 -0.001234 -0.009936 0.000000 -0.001754 0.000000
# 2 -0.001234 0.019978 -0.005063 0.000000 0.010322 0.000000
# 3 -0.009936 -0.005063 0.041319 0.000000 -0.016502 0.000000
# 4 0.000000 0.000000 0.000000 0.071577 0.000000 0.018149
# 5 -0.001754 0.010322 -0.016502 0.000000 0.041442 0.000000
# 6 0.000000 0.000000 0.000000 0.018149 0.000000 0.032656
#
#
# Mechanical properties :
#
#
# Convention : Reuss Voigt Hill
#
# Bulk Modulus (GPa) = 23.23143 29.23550 26.23347
# Shear Modulus (GPa) = 18.65655 27.20582 22.93119
#
# Velocity S-wave (km/s) = 2.74513 3.31496 3.04341
# Velocity P-wave (km/s) = 4.40809 5.14400 4.79020
#
# Compressibility (1/GPa) = 0.04304513
#
# Stress axis : x y z
#
# Youngs Moduli (GPa) = 70.34990 50.05425 24.20196
#
# Poissons Ratio (x) = 0.06176 0.24048
# Poissons Ratio (y) = 0.08681 0.12254
# Poissons Ratio (z) = 0.69902 0.25343
#
# Static dielectric constant tensor:
#      x y z
#    x 1.968480 0.000000 -0.002810 
#    y 0.000000 2.114490 0.000000 
#    z -0.002810 0.000000 1.943920 
# 
# From -- ./inp_files/24431.got.cif
#   From: 2010.05.17/outbox.cif.g08.bks.cpg/sg14_13_cif.got.tgz:24431.got - 2010.06.03 17:49:19.
