data_PCOD9241235
_publ_section_title
;
Structure prediction by ZEFSAII (Michael W. Deem and Ramdas Pophale) SiO2 
 PCOD9241235
Probable space group: P 21/C
;
_chemical_formula_sum "Si O2"
_cell_formula_units_Z 32
_cell_length_a 24.448817
_cell_length_b 5.149920
_cell_length_c 18.110377
_cell_angle_alpha 90.000000
_cell_angle_beta 134.987965
_cell_angle_gamma 90.000000
_cell_volume 1612.731357
_symmetry_space_group_name_H-M "P 21/C"
_symmetry_group_IT_number 14
_symmetry_cell_setting 'monoclinic'
loop_
_space_group_symop_operation_xyz
x,y,z
-x,1/2+y,1/2-z
-x,-y,-z
x,1/2-y,1/2+z
loop_
_atom_site_type_symbol
_atom_site_label
_atom_site_fract_x
_atom_site_fract_y
_atom_site_fract_z
Si Si1 0.219749 0.983261 0.324270
Si Si2 0.065435 0.576869 0.738532
Si Si3 0.256661 0.320670 0.018450
Si Si4 0.374127 0.474065 0.253541
Si Si5 0.468645 0.526746 0.794008
Si Si6 0.598297 0.885221 0.919264
Si Si7 0.904425 0.580200 0.632489
Si Si8 0.689107 0.510836 0.642408
O O1 0.127623 0.934095 0.232325
O O2 0.264888 0.751814 0.329056
O O3 0.235640 0.998069 0.428242
O O4 0.254124 0.250654 0.325133
O O5 0.074553 0.301360 0.787866
O O6 0.973245 0.600501 0.638139
O O7 0.090002 0.807742 0.818646
O O8 0.302986 0.459361 0.127842
O O9 0.319231 0.128351 0.042130
O O10 0.181517 0.162237 0.973342
O O11 0.422029 0.734721 0.285379
O O12 0.340731 0.463001 0.303495
O O13 0.430786 0.230634 0.291533
O O14 0.558483 0.601504 0.890189
O O15 0.453355 0.527413 0.691126
O O16 0.615930 0.989351 0.016678
#
# Coordination Sequence:
#
# PCOD9241235 Si02
#       8
#     4   4   4   4   4   4   4   4
#     4  10  19  35  57  81 107 142 183 221 261 314
#     4   9  16  29  49  79 110 134 172 221 268 309
#     4   9  19  35  57  80 107 140 181 221 264 317
#     4  11  24  39  55  80 112 144 178 222 272 319
#     4  11  23  39  58  80 108 142 180 224 270 318
#     4  10  21  38  60  82 106 139 183 223 266 319
#     4   9  17  28  49  80 109 135 169 222 270 309
#     4  11  23  37  57  81 109 144 180 221 267 317
#
# _framework density 19.842116000000001
#
# number of rings (size 3 to 8) (size 9 to 14) (size 15 to 20)
#    0.000    2.000    0.000    5.250    0.000    7.000 
#    0.000    0.000    0.000    1.500    0.000    0.000 
#    0.000    0.000    0.000    0.000    0.000    0.000 
#
# Total GULP energy -178482.699008 kJ/mol
# GULP energy per Si atom -5577.584344 kJ/mol
# Density = 1.979695 g / cm^3
# Si number density = 19.842116 Si / 1000 Ang^3
#
#
#
# Elastic Constant Matrix: (Units=GPa)
#
#
# Indices 1 2 3 4 5 6 
#
# 1 116.8941 23.8779 42.0916 0.0000 4.2096 0.0000
# 2 23.8779 95.3928 -2.3998 0.0000 5.8251 0.0000
# 3 42.0916 -2.3998 40.6142 0.0000 8.7955 0.0000
# 4 0.0000 0.0000 0.0000 3.1899 0.0000 -37.7221
# 5 4.2096 5.8251 8.7955 0.0000 41.0303 0.0000
# 6 0.0000 0.0000 0.0000 -37.7221 0.0000 -260.4162
#
#
#
# Elastic Compliance Matrix: (Units=1/GPa)
#
#
# Indices 1 2 3 4 5 6 
#
# 1 0.015426 -0.004447 -0.016825 0.000000 0.002655 0.000000
# 2 -0.004447 0.011895 0.005850 0.000000 -0.002487 0.000000
# 3 -0.016825 0.005850 0.044265 0.000000 -0.008593 0.000000
# 4 0.000000 0.000000 0.000000 0.115553 0.000000 -0.016738
# 5 0.002655 -0.002487 -0.008593 0.000000 0.026295 0.000000
# 6 0.000000 0.000000 0.000000 -0.016738 0.000000 -0.001415
#
#
# Mechanical properties :
#
#
# Convention : Reuss Voigt Hill
#
# Bulk Modulus (GPa) = 24.54418 42.22671 33.38544
# Shear Modulus (GPa) = 19.49757 -30.61711 -5.55977
#
# Velocity S-wave (km/s) = 3.13810 -3.93241 -1.67573
# Velocity P-wave (km/s) = 5.05241 0.84206 3.62187
#
# Compressibility (1/GPa) = 0.04074286
#
# Stress axis : x y z
#
# Youngs Moduli (GPa) = 64.82697 84.06891 22.59111
#
# Poissons Ratio (x) = 0.37382 0.38009
# Poissons Ratio (y) = 0.28826 -0.13215
# Poissons Ratio (z) = 1.09069 -0.49178
#
# Static dielectric constant tensor:
#      x y z
#    x 1.764780 0.000000 0.028650 
#    y 0.000000 1.731420 0.000000 
#    z 0.028650 0.000000 1.784070 
# 
# From -- ./inp_files/61599.got.cif
#   From: 2010.05.17/outbox.cif.g08.bks.cpg/sg14_31_cif.got.tgz:61599.got - 2010.06.03 17:49:19.
