data_PCOD9241435
_publ_section_title
;
Structure prediction by ZEFSAII (Michael W. Deem and Ramdas Pophale) SiO2 
 PCOD9241435
Probable space group: P 21/C
;
_chemical_formula_sum "Si O2"
_cell_formula_units_Z 24
_cell_length_a 14.892656
_cell_length_b 5.608832
_cell_length_c 20.017858
_cell_angle_alpha 90.000000
_cell_angle_beta 38.742018
_cell_angle_gamma 90.000000
_cell_volume 1046.424831
_symmetry_space_group_name_H-M "P 21/C"
_symmetry_group_IT_number 14
_symmetry_cell_setting 'monoclinic'
loop_
_space_group_symop_operation_xyz
x,y,z
-x,1/2+y,1/2-z
-x,-y,-z
x,1/2-y,1/2+z
loop_
_atom_site_type_symbol
_atom_site_label
_atom_site_fract_x
_atom_site_fract_y
_atom_site_fract_z
Si Si1 0.317684 0.762768 0.882293
Si Si2 0.803693 0.608671 0.147965
Si Si3 0.552127 0.517533 0.812647
Si Si4 0.035230 0.884348 0.072408
Si Si5 0.926378 0.345443 0.810988
Si Si6 0.772428 0.282773 0.775167
O O1 0.227886 0.564066 0.894686
O O2 0.400060 0.648424 0.896855
O O3 0.434906 0.847380 0.759867
O O4 0.197625 0.967591 0.963349
O O5 0.671370 0.784035 0.231330
O O6 0.798679 0.462069 0.220727
O O7 0.952162 0.752576 0.060613
O O8 0.619723 0.378979 0.836419
O O9 0.073571 0.703779 0.110625
O O10 0.911426 0.061144 0.170463
O O11 0.786746 0.292784 0.846519
O O12 0.972749 0.621287 0.772721
#
# Coordination Sequence:
#
# PCOD9241435 Si02
#       6
#     4   4   4   4   4   4
#     4  11  21  36  54  84 115 151 195 227 294 347
#     4  10  19  36  56  81 112 147 184 237 293 346
#     4  10  21  36  55  78 116 160 184 233 288 362
#     4  10  21  34  58  88 111 144 193 249 281 346
#     4  10  19  38  61  88 120 152 196 246 303 345
#     4   9  20  36  57  83 112 150 190 239 296 345
#
# _framework density 22.935237000000001
#
# number of rings (size 3 to 8) (size 9 to 14) (size 15 to 20)
#    0.000    2.000    3.333    0.500    0.000    7.333 
#    0.000    0.833    0.000    1.000    0.000    0.000 
#    0.000    0.000    0.000    0.000    0.000    0.000 
#
# Total GULP energy -133700.868217 kJ/mol
# GULP energy per Si atom -5570.869509 kJ/mol
# Density = 2.288304 g / cm^3
# Si number density = 22.935237 Si / 1000 Ang^3
#
#
#
# Elastic Constant Matrix: (Units=GPa)
#
#
# Indices 1 2 3 4 5 6 
#
# 1 153.4294 13.7372 21.6839 0.0000 -22.3620 0.0000
# 2 13.7372 52.3969 2.5523 0.0000 -10.1269 0.0000
# 3 21.6839 2.5523 40.3546 0.0000 -18.5472 0.0000
# 4 0.0000 0.0000 0.0000 12.4214 0.0000 -5.1128
# 5 -22.3620 -10.1269 -18.5472 0.0000 35.0273 0.0000
# 6 0.0000 0.0000 0.0000 -5.1128 0.0000 45.2433
#
#
#
# Elastic Compliance Matrix: (Units=1/GPa)
#
#
# Indices 1 2 3 4 5 6 
#
# 1 0.007428 -0.001234 -0.002508 0.000000 0.003057 0.000000
# 2 -0.001234 0.020526 0.002287 0.000000 0.006357 0.000000
# 3 -0.002508 0.002287 0.033770 0.000000 0.016941 0.000000
# 4 0.000000 0.000000 0.000000 0.084433 0.000000 0.009541
# 5 0.003057 0.006357 0.016941 0.000000 0.041310 0.000000
# 6 0.000000 0.000000 0.000000 0.009541 0.000000 0.023181
#
#
# Mechanical properties :
#
#
# Convention : Reuss Voigt Hill
#
# Bulk Modulus (GPa) = 17.00316 35.79197 26.39756
# Shear Modulus (GPa) = 21.44418 32.41890 26.93154
#
# Velocity S-wave (km/s) = 3.06108 3.76373 3.43044
# Velocity P-wave (km/s) = 4.46354 5.87598 5.21777
#
# Compressibility (1/GPa) = 0.05881260
#
# Stress axis : x y z
#
# Youngs Moduli (GPa) = 134.62111 48.71861 29.61232
#
# Poissons Ratio (x) = 0.06014 0.07427
# Poissons Ratio (y) = 0.16618 -0.06772
# Poissons Ratio (z) = 0.33766 -0.11142
#
# Static dielectric constant tensor:
#      x y z
#    x 1.873000 0.000000 0.018620 
#    y 0.000000 1.920510 0.000000 
#    z 0.018620 0.000000 1.906990 
# 
# From -- ./inp_files/45792.got.cif
#   From: 2010.05.17/outbox.cif.g08.bks.cpg/sg14_23_cif.got.tgz:45792.got - 2010.06.03 17:49:19.
