data_PCOD9241622
_publ_section_title
;
Structure prediction by ZEFSAII (Michael W. Deem and Ramdas Pophale) SiO2 
 PCOD9241622
Probable space group: P 21/C
;
_chemical_formula_sum "Si O2"
_cell_formula_units_Z 32
_cell_length_a 8.053498
_cell_length_b 9.534578
_cell_length_c 22.814020
_cell_angle_alpha 90.000000
_cell_angle_beta 60.806899
_cell_angle_gamma 90.000000
_cell_volume 1529.299506
_symmetry_space_group_name_H-M "P 21/C"
_symmetry_group_IT_number 14
_symmetry_cell_setting 'monoclinic'
loop_
_space_group_symop_operation_xyz
x,y,z
-x,1/2+y,1/2-z
-x,-y,-z
x,1/2-y,1/2+z
loop_
_atom_site_type_symbol
_atom_site_label
_atom_site_fract_x
_atom_site_fract_y
_atom_site_fract_z
Si Si1 0.946607 0.577036 0.186002
Si Si2 0.435494 0.735873 0.888094
Si Si3 0.397072 0.997640 0.186136
Si Si4 0.753056 0.535107 0.783914
Si Si5 0.859063 0.506936 0.077140
Si Si6 0.484615 0.285837 0.871299
Si Si7 0.396111 0.651575 0.523919
Si Si8 0.065069 0.605906 0.655737
O O1 0.723928 0.553104 0.238286
O O2 0.978067 0.536473 0.114311
O O3 0.067373 0.470842 0.203835
O O4 0.017417 0.735121 0.185129
O O5 0.621175 0.662662 0.827226
O O6 0.263244 0.635776 0.899435
O O7 0.447495 0.891758 0.861006
O O8 0.434098 0.757268 0.958952
O O9 0.496678 0.848304 0.173732
O O10 0.230708 0.973151 0.165089
O O11 0.631504 0.398519 0.820071
O O12 0.859933 0.534932 0.702701
O O13 0.714837 0.636343 0.094427
O O14 0.000000 0.500000 0.000000
O O15 0.534393 0.233975 0.929110
O O16 0.500000 0.500000 0.500000
O O17 0.171120 0.622142 0.575148
#
# Coordination Sequence:
#
# PCOD9241622 Si02
#       8
#     4   4   4   4   4   4   4   4
#     4  11  21  39  64  93 131 162 209 261 327 373
#     4  11  22  40  68  94 128 163 219 262 322 382
#     4  10  20  39  67  94 124 159 213 269 314 373
#     4  10  21  37  67  95 121 165 214 274 309 373
#     4  11  27  42  59  89 134 173 209 259 319 393
#     4  10  22  42  63  92 127 166 217 260 323 384
#     4  11  20  37  67  96 124 166 208 268 322 370
#     4  10  19  36  63  98 125 159 213 273 313 372
#
# _framework density 20.924613999999998
#
# number of rings (size 3 to 8) (size 9 to 14) (size 15 to 20)
#    0.000    1.500    6.250    0.750    1.750    2.000 
#    0.000    0.625    2.750    0.000    0.000    0.000 
#    0.000    0.000    0.000    0.000    0.000    0.000 
#
# Total GULP energy -178412.462941 kJ/mol
# GULP energy per Si atom -5575.389467 kJ/mol
# Density = 2.087699 g / cm^3
# Si number density = 20.924614 Si / 1000 Ang^3
#
#
#
# Elastic Constant Matrix: (Units=GPa)
#
#
# Indices 1 2 3 4 5 6 
#
# 1 31.8402 8.3075 9.9335 0.0000 -14.6465 0.0000
# 2 8.3075 101.8765 21.0905 0.0000 -11.9008 0.0000
# 3 9.9335 21.0905 104.0678 0.0000 -35.0617 0.0000
# 4 0.0000 0.0000 0.0000 27.9977 0.0000 -0.1699
# 5 -14.6465 -11.9008 -35.0617 0.0000 36.8389 0.0000
# 6 0.0000 0.0000 0.0000 -0.1699 0.0000 8.9855
#
#
#
# Elastic Compliance Matrix: (Units=1/GPa)
#
#
# Indices 1 2 3 4 5 6 
#
# 1 0.039042 -0.001667 0.002443 0.000000 0.017309 0.000000
# 2 -0.001667 0.010414 -0.001533 0.000000 0.001243 0.000000
# 3 0.002443 -0.001533 0.014495 0.000000 0.014272 0.000000
# 4 0.000000 0.000000 0.000000 0.035721 0.000000 0.000675
# 5 0.017309 0.001243 0.014272 0.000000 0.048011 0.000000
# 6 0.000000 0.000000 0.000000 0.000675 0.000000 0.111303
#
#
# Mechanical properties :
#
#
# Convention : Reuss Voigt Hill
#
# Bulk Modulus (GPa) = 16.01639 35.16083 25.58861
# Shear Modulus (GPa) = 17.77375 27.99461 22.88418
#
# Velocity S-wave (km/s) = 2.91764 3.66167 3.31062
# Velocity P-wave (km/s) = 4.36132 5.89213 5.18355
#
# Compressibility (1/GPa) = 0.06243604
#
# Stress axis : x y z
#
# Youngs Moduli (GPa) = 25.61361 96.02230 68.98975
#
# Poissons Ratio (x) = 0.16011 -0.16853
# Poissons Ratio (y) = 0.04271 0.10575
# Poissons Ratio (z) = -0.06257 0.14718
#
# Static dielectric constant tensor:
#      x y z
#    x 1.778500 0.000000 0.010160 
#    y 0.000000 1.768250 0.000000 
#    z 0.010160 0.000000 1.816770 
# 
# From -- ./inp_files/72067.got.cif
#   From: 2010.05.17/outbox.cif.g08.bks.cpg/sg14_37_cif.got.tgz:72067.got - 2010.06.03 17:49:19.
