data_PCOD9241881
_publ_section_title
;
Structure prediction by ZEFSAII (Michael W. Deem and Ramdas Pophale) SiO2 
 PCOD9241881
Probable space group: P 21/C
;
_chemical_formula_sum "Si O2"
_cell_formula_units_Z 24
_cell_length_a 16.192042
_cell_length_b 16.027761
_cell_length_c 9.268389
_cell_angle_alpha 90.000000
_cell_angle_beta 28.499982
_cell_angle_gamma 90.000000
_cell_volume 1147.734358
_symmetry_space_group_name_H-M "P 21/C"
_symmetry_group_IT_number 14
_symmetry_cell_setting 'monoclinic'
loop_
_space_group_symop_operation_xyz
x,y,z
-x,1/2+y,1/2-z
-x,-y,-z
x,1/2-y,1/2+z
loop_
_atom_site_type_symbol
_atom_site_label
_atom_site_fract_x
_atom_site_fract_y
_atom_site_fract_z
Si Si1 0.921649 0.833728 0.354136
Si Si2 0.909516 0.411813 0.149901
Si Si3 0.750669 0.920124 0.364011
Si Si4 0.052085 0.844334 0.715525
Si Si5 0.447538 0.593530 0.126509
Si Si6 0.742191 0.381820 0.846648
O O1 0.948459 0.859595 0.478217
O O2 0.942094 0.734850 0.331587
O O3 0.772846 0.874414 0.484322
O O4 0.089838 0.869099 0.011828
O O5 0.730653 0.411180 0.511311
O O6 0.875442 0.382420 0.041008
O O7 0.000000 0.500000 0.000000
O O8 0.597031 0.879663 0.506092
O O9 0.725921 0.020332 0.416357
O O10 0.921868 0.904872 0.002660
O O11 0.209115 0.827803 0.587092
O O12 0.412510 0.639447 0.027145
O O13 0.500000 0.500000 0.000000
#
# Coordination Sequence:
#
# PCOD9241881 Si02
#       6
#     4   4   4   4   4   4
#     4  10  20  34  54  81 110 143 179 226 278 328
#     4  11  20  34  57  84 107 140 191 232 260 321
#     4  10  19  38  58  77 107 148 183 218 281 336
#     4  11  20  34  56  82 107 140 186 230 265 321
#     4   9  19  36  57  81 110 144 182 227 280 327
#     4   9  18  36  58  75 103 149 184 213 267 337
#
# _framework density 20.910762999999999
#
# number of rings (size 3 to 8) (size 9 to 14) (size 15 to 20)
#    0.000    2.000    0.000    8.000    0.000    0.000 
#    0.000   15.833    0.000    2.000    0.000    0.000 
#    0.000    0.000    0.000    0.000    0.000    0.000 
#
# Total GULP energy -133657.695828 kJ/mol
# GULP energy per Si atom -5569.070659 kJ/mol
# Density = 2.086317 g / cm^3
# Si number density = 20.910763 Si / 1000 Ang^3
#
#
#
# Elastic Constant Matrix: (Units=GPa)
#
#
# Indices 1 2 3 4 5 6 
#
# 1 164.0405 -17.5664 28.7861 0.0000 0.6812 0.0000
# 2 -17.5664 24.5547 -4.1635 0.0000 2.6242 0.0000
# 3 28.7861 -4.1635 41.0173 0.0000 12.4195 0.0000
# 4 0.0000 0.0000 0.0000 -11.5010 0.0000 5.8584
# 5 0.6812 2.6242 12.4195 0.0000 27.0919 0.0000
# 6 0.0000 0.0000 0.0000 5.8584 0.0000 26.0500
#
#
#
# Elastic Compliance Matrix: (Units=1/GPa)
#
#
# Indices 1 2 3 4 5 6 
#
# 1 0.007489 0.004243 -0.005392 0.000000 0.001872 0.000000
# 2 0.004243 0.044984 0.003414 0.000000 -0.006029 0.000000
# 3 -0.005392 0.003414 0.033174 0.000000 -0.015403 0.000000
# 4 0.000000 0.000000 0.000000 -0.078012 0.000000 0.017544
# 5 0.001872 -0.006029 -0.015403 0.000000 0.044509 0.000000
# 6 0.000000 0.000000 0.000000 0.017544 0.000000 0.034442
#
#
# Mechanical properties :
#
#
# Convention : Reuss Voigt Hill
#
# Bulk Modulus (GPa) = 11.08928 27.08056 19.08492
# Shear Modulus (GPa) = 44.59678 23.16527 33.88103
#
# Velocity S-wave (km/s) = 4.62315 3.33200 4.02962
# Velocity P-wave (km/s) = 5.81486 5.27082 5.54952
#
# Compressibility (1/GPa) = 0.09017714
#
# Stress axis : x y z
#
# Youngs Moduli (GPa) = 133.53181 22.23010 30.14372
#
# Poissons Ratio (x) = -0.09433 0.16253
# Poissons Ratio (y) = -0.56659 -0.10290
# Poissons Ratio (z) = 0.72000 -0.07589
#
# Static dielectric constant tensor:
#      x y z
#    x 1.847700 0.000000 -0.033040 
#    y 0.000000 1.812770 0.000000 
#    z -0.033040 0.000000 1.735750 
# 
# From -- ./inp_files/16482.got.cif
#   From: 2010.05.17/outbox.cif.g08.bks.cpg/sg14_9_cif.got.tgz:16482.got - 2010.06.03 17:49:19.
