data_PCOD9241647
_publ_section_title
;
Structure prediction by ZEFSAII (Michael W. Deem and Ramdas Pophale) SiO2 
 PCOD9241647
Probable space group: P 21/C
;
_chemical_formula_sum "Si O2"
_cell_formula_units_Z 24
_cell_length_a 14.694199
_cell_length_b 13.639580
_cell_length_c 12.026545
_cell_angle_alpha 90.000000
_cell_angle_beta 27.428734
_cell_angle_gamma 90.000000
_cell_volume 1110.335249
_symmetry_space_group_name_H-M "P 21/C"
_symmetry_group_IT_number 14
_symmetry_cell_setting 'monoclinic'
loop_
_space_group_symop_operation_xyz
x,y,z
-x,1/2+y,1/2-z
-x,-y,-z
x,1/2-y,1/2+z
loop_
_atom_site_type_symbol
_atom_site_label
_atom_site_fract_x
_atom_site_fract_y
_atom_site_fract_z
Si Si1 0.661256 0.087520 0.334014
Si Si2 0.984048 0.071622 0.410787
Si Si3 0.560237 0.347771 0.720581
Si Si4 0.576548 0.869129 0.076590
Si Si5 0.365884 0.815078 0.105770
Si Si6 0.250987 0.501263 0.043846
O O1 0.705594 0.106754 0.156011
O O2 0.593696 0.198062 0.441774
O O3 0.803617 0.051264 0.278850
O O4 0.500000 0.000000 0.500000
O O5 0.832290 0.157068 0.612844
O O6 0.898581 0.017347 0.394482
O O7 0.194374 0.117092 0.152845
O O8 0.000000 0.000000 0.500000
O O9 0.645821 0.355814 0.505266
O O10 0.339851 0.394144 0.967432
O O11 0.519487 0.234501 0.788747
O O12 0.535243 0.873465 0.989030
O O13 0.451314 0.945653 0.283018
#
# Coordination Sequence:
#
# PCOD9241647 Si02
#       6
#     4   4   4   4   4   4
#     4   9  19  37  62  88 118 163 207 253 309 370
#     4  11  23  39  61  94 126 160 209 258 313 373
#     4  10  19  36  66  87 118 164 204 252 314 366
#     4  10  21  39  61  90 120 159 207 254 308 372
#     4  10  20  39  63  88 119 163 207 258 311 369
#     4  10  20  40  61  89 126 157 204 258 310 367
#
# _framework density 21.615093000000002
#
# number of rings (size 3 to 8) (size 9 to 14) (size 15 to 20)
#    0.000    2.000    1.667    2.000    0.000    2.667 
#    6.000    5.000    0.000   13.000    0.000    0.000 
#    0.000    0.000    0.000    0.000    0.000    0.000 
#
# Total GULP energy -133807.664229 kJ/mol
# GULP energy per Si atom -5575.319343 kJ/mol
# Density = 2.156590 g / cm^3
# Si number density = 21.615093 Si / 1000 Ang^3
#
#
#
# Elastic Constant Matrix: (Units=GPa)
#
#
# Indices 1 2 3 4 5 6 
#
# 1 171.1546 7.0104 30.7606 0.0000 24.7499 0.0000
# 2 7.0104 79.3020 1.3305 0.0000 -0.7780 0.0000
# 3 30.7606 1.3305 55.6034 0.0000 -8.1695 0.0000
# 4 0.0000 0.0000 0.0000 10.5158 0.0000 5.1234
# 5 24.7499 -0.7780 -8.1695 0.0000 36.7872 0.0000
# 6 0.0000 0.0000 0.0000 5.1234 0.0000 30.4021
#
#
#
# Elastic Compliance Matrix: (Units=1/GPa)
#
#
# Indices 1 2 3 4 5 6 
#
# 1 0.007723 -0.000658 -0.005191 0.000000 -0.006363 0.000000
# 2 -0.000658 0.012673 0.000171 0.000000 0.000749 0.000000
# 3 -0.005191 0.000171 0.022087 0.000000 0.008401 0.000000
# 4 0.000000 0.000000 0.000000 0.103601 0.000000 -0.017459
# 5 -0.006363 0.000749 0.008401 0.000000 0.033346 0.000000
# 6 0.000000 0.000000 0.000000 -0.017459 0.000000 0.035835
#
#
# Mechanical properties :
#
#
# Convention : Reuss Voigt Hill
#
# Bulk Modulus (GPa) = 32.12869 42.69592 37.41230
# Shear Modulus (GPa) = 21.09748 33.33825 27.21787
#
# Velocity S-wave (km/s) = 3.12757 3.93155 3.55238
# Velocity P-wave (km/s) = 5.28570 6.35650 5.84567
#
# Compressibility (1/GPa) = 0.03112483
#
# Stress axis : x y z
#
# Youngs Moduli (GPa) = 129.48852 78.90998 45.27611
#
# Poissons Ratio (x) = 0.05192 0.23505
# Poissons Ratio (y) = 0.08521 -0.00773
# Poissons Ratio (z) = 0.67222 -0.01348
#
# Static dielectric constant tensor:
#      x y z
#    x 1.870280 0.000000 0.029470 
#    y 0.000000 1.790940 0.000000 
#    z 0.029470 0.000000 1.758170 
# 
# From -- ./inp_files/32520.got.cif
#   From: 2010.05.17/outbox.cif.g08.bks.cpg/sg14_17_cif.got.tgz:32520.got - 2010.06.03 17:49:19.
