data_PCOD9241015
_publ_section_title
;
Structure prediction by ZEFSAII (Michael W. Deem and Ramdas Pophale) SiO2 
 PCOD9241015
Probable space group: P 21/C
;
_chemical_formula_sum "Si O2"
_cell_formula_units_Z 32
_cell_length_a 5.892712
_cell_length_b 18.865090
_cell_length_c 16.983304
_cell_angle_alpha 90.000000
_cell_angle_beta 126.695995
_cell_angle_gamma 90.000000
_cell_volume 1513.811382
_symmetry_space_group_name_H-M "P 21/C"
_symmetry_group_IT_number 14
_symmetry_cell_setting 'monoclinic'
loop_
_space_group_symop_operation_xyz
x,y,z
-x,1/2+y,1/2-z
-x,-y,-z
x,1/2-y,1/2+z
loop_
_atom_site_type_symbol
_atom_site_label
_atom_site_fract_x
_atom_site_fract_y
_atom_site_fract_z
Si Si1 0.856893 0.954887 0.350633
Si Si2 0.105203 0.284630 0.305183
Si Si3 0.724933 0.404076 0.291674
Si Si4 0.137300 0.319916 0.674171
Si Si5 0.222740 0.686044 0.155970
Si Si6 0.302523 0.936426 0.554960
Si Si7 0.724997 0.176526 0.941980
Si Si8 0.909070 0.543690 0.235882
O O1 0.615642 0.899361 0.280846
O O2 0.168111 0.930101 0.440928
O O3 0.754785 0.990182 0.411232
O O4 0.875347 0.009968 0.282261
O O5 0.863178 0.343004 0.267396
O O6 0.109964 0.252051 0.219084
O O7 0.023831 0.215062 0.339621
O O8 0.392378 0.322287 0.395504
O O9 0.799915 0.387271 0.397753
O O10 0.820587 0.479906 0.277035
O O11 0.952720 0.317319 0.557640
O O12 0.479343 0.329709 0.737473
O O13 0.017537 0.387681 0.697899
O O14 0.169285 0.621045 0.086692
O O15 0.268650 0.752464 0.108419
O O16 0.639026 0.931256 0.628343
#
# Coordination Sequence:
#
# PCOD9241015 Si02
#       8
#     4   4   4   4   4   4   4   4
#     4  10  19  34  55  82 115 149 186 231 288 345
#     4  10  21  39  59  83 116 150 189 238 289 342
#     4  10  22  37  55  82 118 151 191 241 284 339
#     4  10  22  39  61  85 113 151 193 237 285 343
#     4   9  20  37  56  82 113 143 186 237 284 341
#     4   9  19  33  55  85 113 145 185 233 288 346
#     4  10  22  38  56  82 112 149 194 234 285 344
#     4  10  20  37  58  83 116 153 192 237 285 338
#
# _framework density 21.138695999999999
#
# number of rings (size 3 to 8) (size 9 to 14) (size 15 to 20)
#    0.000    2.250    0.000    1.875    0.000    7.500 
#    0.000    5.000    0.000    0.000    0.000    0.000 
#    0.000    0.000    0.000    0.000    0.000    0.000 
#
# Total GULP energy -178384.763105 kJ/mol
# GULP energy per Si atom -5574.523847 kJ/mol
# Density = 2.109058 g / cm^3
# Si number density = 21.138696 Si / 1000 Ang^3
#
#
#
# Elastic Constant Matrix: (Units=GPa)
#
#
# Indices 1 2 3 4 5 6 
#
# 1 50.3624 18.0065 24.5896 0.0000 -4.5639 0.0000
# 2 18.0065 80.5292 29.5116 0.0000 0.8203 0.0000
# 3 24.5896 29.5116 140.2081 0.0000 11.4907 0.0000
# 4 0.0000 0.0000 0.0000 24.4105 0.0000 -3.9354
# 5 -4.5639 0.8203 11.4907 0.0000 12.4115 0.0000
# 6 0.0000 0.0000 0.0000 -3.9354 0.0000 41.5599
#
#
#
# Elastic Compliance Matrix: (Units=1/GPa)
#
#
# Indices 1 2 3 4 5 6 
#
# 1 0.024777 -0.003984 -0.004626 0.000000 0.013657 0.000000
# 2 -0.003984 0.014137 -0.002251 0.000000 -0.000315 0.000000
# 3 -0.004626 -0.002251 0.009246 0.000000 -0.010112 0.000000
# 4 0.000000 0.000000 0.000000 0.041601 0.000000 0.003939
# 5 0.013657 -0.000315 -0.010112 0.000000 0.094975 0.000000
# 6 0.000000 0.000000 0.000000 0.003939 0.000000 0.024435
#
#
# Mechanical properties :
#
#
# Convention : Reuss Voigt Hill
#
# Bulk Modulus (GPa) = 37.82477 46.14613 41.98545
# Shear Modulus (GPa) = 20.85892 28.94250 24.90071
#
# Velocity S-wave (km/s) = 3.14469 3.70425 3.43588
# Velocity P-wave (km/s) = 5.57834 6.33820 5.97037
#
# Compressibility (1/GPa) = 0.02643770
#
# Stress axis : x y z
#
# Youngs Moduli (GPa) = 40.36036 70.73718 108.15345
#
# Poissons Ratio (x) = 0.28182 0.50032
# Poissons Ratio (y) = 0.16079 0.24346
# Poissons Ratio (z) = 0.18671 0.15923
#
# Static dielectric constant tensor:
#      x y z
#    x 1.882880 0.000000 0.014430 
#    y 0.000000 1.790600 0.000000 
#    z 0.014430 0.000000 1.767450 
# 
# From -- ./inp_files/38084.got.cif
#   From: 2010.05.17/outbox.cif.g08.bks.cpg/sg14_20_cif.got.tgz:38084.got - 2010.06.03 17:49:19.
