data_PCOD9241598
_publ_section_title
;
Structure prediction by ZEFSAII (Michael W. Deem and Ramdas Pophale) SiO2 
 PCOD9241598
Probable space group: P 21/C
;
_chemical_formula_sum "Si O2"
_cell_formula_units_Z 24
_cell_length_a 28.625784
_cell_length_b 4.929008
_cell_length_c 22.094661
_cell_angle_alpha 90.000000
_cell_angle_beta 162.158493
_cell_angle_gamma 90.000000
_cell_volume 955.150320
_symmetry_space_group_name_H-M "P 21/C"
_symmetry_group_IT_number 14
_symmetry_cell_setting 'monoclinic'
loop_
_space_group_symop_operation_xyz
x,y,z
-x,1/2+y,1/2-z
-x,-y,-z
x,1/2-y,1/2+z
loop_
_atom_site_type_symbol
_atom_site_label
_atom_site_fract_x
_atom_site_fract_y
_atom_site_fract_z
Si Si1 0.331736 0.777799 0.752099
Si Si2 0.852212 0.029650 0.703682
Si Si3 0.238893 0.474728 0.333111
Si Si4 0.308157 0.223249 0.297503
Si Si5 0.541366 0.141292 0.266923
Si Si6 0.934428 0.476866 0.636348
O O1 0.292877 0.592031 0.762953
O O2 0.233641 0.646888 0.577860
O O3 0.288371 0.084597 0.714387
O O4 0.511530 0.754218 0.965109
O O5 0.823756 0.234550 0.724291
O O6 0.719897 0.086929 0.490745
O O7 0.831325 0.731457 0.704462
O O8 0.006470 0.063170 0.857236
O O9 0.213574 0.349983 0.235875
O O10 0.422651 0.467051 0.571183
O O11 0.513457 0.459415 0.242719
O O12 0.958687 0.728397 0.710204
#
# Coordination Sequence:
#
# PCOD9241598 Si02
#       6
#     4   4   4   4   4   4
#     4  10  23  43  62  94 127 166 221 265 306 387
#     4  10  21  38  56  91 128 157 211 261 311 391
#     4  10  19  36  62  91 120 163 208 260 326 367
#     4  10  21  41  68  91 125 166 215 273 316 369
#     4   8  16  30  50  80 117 150 189 247 299 360
#     4  12  26  44  65  91 130 178 212 258 328 395
#
# _framework density 25.126936000000001
#
# number of rings (size 3 to 8) (size 9 to 14) (size 15 to 20)
#    0.000    2.000    0.000    3.000    2.333    0.000 
#    9.000    5.000    0.000    0.000    0.000    0.000 
#    0.000    0.000    0.000    0.000    0.000    0.000 
#
# Total GULP energy -134184.320944 kJ/mol
# GULP energy per Si atom -5591.013373 kJ/mol
# Density = 2.506975 g / cm^3
# Si number density = 25.126936 Si / 1000 Ang^3
#
#
#
# Elastic Constant Matrix: (Units=GPa)
#
#
# Indices 1 2 3 4 5 6 
#
# 1 53.7020 2.2982 4.7678 0.0000 -0.4760 0.0000
# 2 2.2982 109.7409 7.5941 0.0000 3.0898 0.0000
# 3 4.7678 7.5941 63.5981 0.0000 9.5116 0.0000
# 4 0.0000 0.0000 0.0000 26.3959 0.0000 -6.7855
# 5 -0.4760 3.0898 9.5116 0.0000 15.8669 0.0000
# 6 0.0000 0.0000 0.0000 -6.7855 0.0000 21.5147
#
#
#
# Elastic Compliance Matrix: (Units=1/GPa)
#
#
# Indices 1 2 3 4 5 6 
#
# 1 0.018792 -0.000327 -0.001608 0.000000 0.001591 0.000000
# 2 -0.000327 0.009216 -0.000885 0.000000 -0.001274 0.000000
# 3 -0.001608 -0.000885 0.017500 0.000000 -0.010367 0.000000
# 4 0.000000 0.000000 0.000000 0.041227 0.000000 0.013003
# 5 0.001591 -0.001274 -0.010367 0.000000 0.069535 0.000000
# 6 0.000000 0.000000 0.000000 0.013003 0.000000 0.050581
#
#
# Mechanical properties :
#
#
# Convention : Reuss Voigt Hill
#
# Bulk Modulus (GPa) = 25.08255 28.48455 26.78355
# Shear Modulus (GPa) = 22.14529 26.91423 24.52976
#
# Velocity S-wave (km/s) = 2.97195 3.27636 3.12786
# Velocity P-wave (km/s) = 4.66698 5.06691 4.87105
#
# Compressibility (1/GPa) = 0.03986836
#
# Stress axis : x y z
#
# Youngs Moduli (GPa) = 53.21376 108.50273 57.14147
#
# Poissons Ratio (x) = 0.03549 0.09187
# Poissons Ratio (y) = 0.01741 0.05060
# Poissons Ratio (z) = 0.08555 0.09608
#
# Static dielectric constant tensor:
#      x y z
#    x 1.987720 0.000000 -0.059400 
#    y 0.000000 1.884150 0.000000 
#    z -0.059400 0.000000 2.055990 
# 
# From -- ./inp_files/75268.got.cif
#   From: 2010.05.17/outbox.cif.g08.bks.cpg/sg14_38_cif.got.tgz:75268.got - 2010.06.03 17:49:19.
