data_PCOD9241969
_publ_section_title
;
Structure prediction by ZEFSAII (Michael W. Deem and Ramdas Pophale) SiO2 
 PCOD9241969
Probable space group: P 21/C
;
_chemical_formula_sum "Si O2"
_cell_formula_units_Z 28
_cell_length_a 6.947337
_cell_length_b 16.316090
_cell_length_c 12.934785
_cell_angle_alpha 90.000000
_cell_angle_beta 46.055322
_cell_angle_gamma 90.000000
_cell_volume 1055.680057
_symmetry_space_group_name_H-M "P 21/C"
_symmetry_group_IT_number 14
_symmetry_cell_setting 'monoclinic'
loop_
_space_group_symop_operation_xyz
x,y,z
-x,1/2+y,1/2-z
-x,-y,-z
x,1/2-y,1/2+z
loop_
_atom_site_type_symbol
_atom_site_label
_atom_site_fract_x
_atom_site_fract_y
_atom_site_fract_z
Si Si1 0.328251 0.358066 0.434050
Si Si2 0.898969 0.399823 0.973498
Si Si3 0.310853 0.166073 0.491100
Si Si4 0.655178 0.002738 0.746869
Si Si5 0.877538 0.679015 0.718301
Si Si6 0.617316 0.267357 0.576033
Si Si7 0.241958 0.884949 0.806754
O O1 0.356672 0.264569 0.462557
O O2 0.573226 0.420677 0.346915
O O3 0.249050 0.355417 0.340780
O O4 0.070543 0.397107 0.585447
O O5 0.704424 0.325546 0.020028
O O6 0.109627 0.358865 0.975037
O O7 0.084938 0.448535 0.823789
O O8 0.730429 0.463193 0.104867
O O9 0.178593 0.141208 0.648927
O O10 0.585861 0.120687 0.360422
O O11 0.394415 0.946314 0.827607
O O12 0.189330 0.686091 0.575416
O O13 0.704262 0.764337 0.796443
O O14 0.720001 0.297073 0.649541
#
# Coordination Sequence:
#
# PCOD9241969 Si02
#       7
#     4   4   4   4   4   4   4
#     4  11  21  39  60  91 128 162 202 271 311 370
#     4  10  19  38  63  88 123 165 210 250 312 383
#     4  11  22  38  64  96 116 163 216 258 301 384
#     4  10  20  34  64  89 120 169 203 251 323 375
#     4  11  23  35  65  94 126 159 215 263 309 361
#     4  11  20  41  62  91 123 168 211 263 306 375
#     4  10  20  37  61  90 122 160 209 251 317 370
#
# _framework density 26.523188000000001
#
# number of rings (size 3 to 8) (size 9 to 14) (size 15 to 20)
#    0.000    1.429    5.714    1.286    2.000    0.000 
#    0.000    2.857    0.000   15.429    0.000    0.000 
#    0.000    0.000    0.000    0.000    0.000    0.000 
#
# Total GULP energy -156482.020578 kJ/mol
# GULP energy per Si atom -5588.643592 kJ/mol
# Density = 2.646282 g / cm^3
# Si number density = 26.523188 Si / 1000 Ang^3
#
#
#
# Elastic Constant Matrix: (Units=GPa)
#
#
# Indices 1 2 3 4 5 6 
#
# 1 44.6609 3.3761 22.1751 0.0000 9.4406 0.0000
# 2 3.3761 97.5899 17.6201 0.0000 -10.2717 0.0000
# 3 22.1751 17.6201 175.6406 0.0000 5.3735 0.0000
# 4 0.0000 0.0000 0.0000 48.6808 0.0000 -15.3090
# 5 9.4406 -10.2717 5.3735 0.0000 39.0901 0.0000
# 6 0.0000 0.0000 0.0000 -15.3090 0.0000 24.4187
#
#
#
# Elastic Compliance Matrix: (Units=1/GPa)
#
#
# Indices 1 2 3 4 5 6 
#
# 1 0.025157 -0.000972 -0.002897 0.000000 -0.005933 0.000000
# 2 -0.000972 0.010811 -0.001060 0.000000 0.003221 0.000000
# 3 -0.002897 -0.001060 0.006179 0.000000 -0.000428 0.000000
# 4 0.000000 0.000000 0.000000 0.025587 0.000000 0.016041
# 5 -0.005933 0.003221 -0.000428 0.000000 0.027920 0.000000
# 6 0.000000 0.000000 0.000000 0.016041 0.000000 0.051009
#
#
# Mechanical properties :
#
#
# Convention : Reuss Voigt Hill
#
# Bulk Modulus (GPa) = 30.97097 44.91490 37.94294
# Shear Modulus (GPa) = 29.88932 40.75259 35.32096
#
# Velocity S-wave (km/s) = 3.36059 3.92406 3.65321
# Velocity P-wave (km/s) = 5.17305 6.12388 5.66844
#
# Compressibility (1/GPa) = 0.03228830
#
# Stress axis : x y z
#
# Youngs Moduli (GPa) = 39.75034 92.49759 161.84624
#
# Poissons Ratio (x) = 0.08988 0.46890
# Poissons Ratio (y) = 0.03862 0.17163
# Poissons Ratio (z) = 0.11516 0.09809
#
# Static dielectric constant tensor:
#      x y z
#    x 2.119080 0.000000 -0.000890 
#    y 0.000000 2.096280 0.000000 
#    z -0.000890 0.000000 2.085260 
# 
# From -- ./inp_files/41776.got.cif
#   From: 2010.05.17/outbox.cif.g08.bks.cpg/sg14_21_cif.got.tgz:41776.got - 2010.06.03 17:49:19.
