data_PCOD9241233
_publ_section_title
;
Structure prediction by ZEFSAII (Michael W. Deem and Ramdas Pophale) SiO2 
 PCOD9241233
Probable space group: P 21/C
;
_chemical_formula_sum "Si O2"
_cell_formula_units_Z 28
_cell_length_a 8.908143
_cell_length_b 18.498867
_cell_length_c 11.992156
_cell_angle_alpha 90.000000
_cell_angle_beta 132.608301
_cell_angle_gamma 90.000000
_cell_volume 1454.476845
_symmetry_space_group_name_H-M "P 21/C"
_symmetry_group_IT_number 14
_symmetry_cell_setting 'monoclinic'
loop_
_space_group_symop_operation_xyz
x,y,z
-x,1/2+y,1/2-z
-x,-y,-z
x,1/2-y,1/2+z
loop_
_atom_site_type_symbol
_atom_site_label
_atom_site_fract_x
_atom_site_fract_y
_atom_site_fract_z
Si Si1 0.150984 0.811672 0.723239
Si Si2 0.915306 0.540713 0.065527
Si Si3 0.485499 0.664123 0.204912
Si Si4 0.490738 0.807553 0.079383
Si Si5 0.666109 0.438820 0.061348
Si Si6 0.521155 0.861833 0.336615
Si Si7 0.240600 0.213269 0.980322
O O1 0.299249 0.811389 0.690739
O O2 0.291499 0.806948 0.902614
O O3 0.048888 0.890969 0.670103
O O4 0.984643 0.747341 0.634310
O O5 0.874836 0.480614 0.140127
O O6 0.699558 0.578523 0.928632
O O7 0.000000 0.500000 0.000000
O O8 0.685207 0.659373 0.384039
O O9 0.534303 0.727242 0.143637
O O10 0.406904 0.599324 0.089484
O O11 0.683250 0.823586 0.095858
O O12 0.460672 0.852728 0.177174
O O13 0.648848 0.385635 0.158809
O O14 0.500000 0.500000 0.000000
O O15 0.621628 0.785928 0.427531
#
# Coordination Sequence:
#
# PCOD9241233 Si02
#       7
#     4   4   4   4   4   4   4
#     4  10  21  36  56  86 111 145 187 241 289 336
#     4  10  19  35  57  79 108 148 201 229 272 340
#     4  10  19  35  58  83 112 145 188 234 285 339
#     4  10  20  36  58  80 117 143 182 240 291 341
#     4  10  19  35  59  79 113 157 191 226 279 343
#     4   9  19  35  55  81 107 150 185 229 286 339
#     4   9  19  35  57  82 110 143 182 232 293 337
#
# _framework density 19.250907999999999
#
# number of rings (size 3 to 8) (size 9 to 14) (size 15 to 20)
#    0.000    2.286    2.857    0.000    0.000    3.429 
#    0.000    1.429    0.000    0.000    0.000    0.000 
#    0.000    0.000    0.000    0.000    0.000    0.000 
#
# Total GULP energy -155945.227090 kJ/mol
# GULP energy per Si atom -5569.472396 kJ/mol
# Density = 1.920709 g / cm^3
# Si number density = 19.250908 Si / 1000 Ang^3
#
#
#
# Elastic Constant Matrix: (Units=GPa)
#
#
# Indices 1 2 3 4 5 6 
#
# 1 92.6628 13.1996 49.6198 0.0000 -14.5260 0.0000
# 2 13.1996 31.3198 9.1985 0.0000 -3.0909 0.0000
# 3 49.6198 9.1985 86.0563 0.0000 -19.1889 0.0000
# 4 0.0000 0.0000 0.0000 20.5500 0.0000 -2.2035
# 5 -14.5260 -3.0909 -19.1889 0.0000 29.1306 0.0000
# 6 0.0000 0.0000 0.0000 -2.2035 0.0000 34.3576
#
#
#
# Elastic Compliance Matrix: (Units=1/GPa)
#
#
# Indices 1 2 3 4 5 6 
#
# 1 0.016237 -0.004155 -0.008453 0.000000 0.002088 0.000000
# 2 -0.004155 0.034074 -0.001058 0.000000 0.000847 0.000000
# 3 -0.008453 -0.001058 0.018335 0.000000 0.007751 0.000000
# 4 0.000000 0.000000 0.000000 0.048999 0.000000 0.003142
# 5 0.002088 0.000847 0.007751 0.000000 0.040565 0.000000
# 6 0.000000 0.000000 0.000000 0.003142 0.000000 0.029307
#
#
# Mechanical properties :
#
#
# Convention : Reuss Voigt Hill
#
# Bulk Modulus (GPa) = 24.20341 39.34163 31.77252
# Shear Modulus (GPa) = 21.87041 26.00904 23.93972
#
# Velocity S-wave (km/s) = 3.37422 3.67966 3.53025
# Velocity P-wave (km/s) = 5.27071 6.20756 5.75822
#
# Compressibility (1/GPa) = 0.04131649
#
# Stress axis : x y z
#
# Youngs Moduli (GPa) = 61.58680 29.34799 54.53926
#
# Poissons Ratio (x) = 0.12193 0.46100
# Poissons Ratio (y) = 0.25586 0.05769
# Poissons Ratio (z) = 0.52057 0.03104
#
# Static dielectric constant tensor:
#      x y z
#    x 1.727070 0.000000 -0.010680 
#    y 0.000000 1.772380 0.000000 
#    z -0.010680 0.000000 1.675390 
# 
# From -- ./inp_files/26593.got.cif
#   From: 2010.05.17/outbox.cif.g08.bks.cpg/sg14_14_cif.got.tgz:26593.got - 2010.06.03 17:49:19.
