data_PCOD9241609
_publ_section_title
;
Structure prediction by ZEFSAII (Michael W. Deem and Ramdas Pophale) SiO2 
 PCOD9241609
Probable space group: P 21/C
;
_chemical_formula_sum "Si O2"
_cell_formula_units_Z 24
_cell_length_a 24.757829
_cell_length_b 9.367013
_cell_length_c 18.071103
_cell_angle_alpha 90.000000
_cell_angle_beta 162.896095
_cell_angle_gamma 90.000000
_cell_volume 1232.541186
_symmetry_space_group_name_H-M "P 21/C"
_symmetry_group_IT_number 14
_symmetry_cell_setting 'monoclinic'
loop_
_space_group_symop_operation_xyz
x,y,z
-x,1/2+y,1/2-z
-x,-y,-z
x,1/2-y,1/2+z
loop_
_atom_site_type_symbol
_atom_site_label
_atom_site_fract_x
_atom_site_fract_y
_atom_site_fract_z
Si Si1 0.338069 0.187476 0.763594
Si Si2 0.257356 0.877954 0.053430
Si Si3 0.430603 0.595260 0.303422
Si Si4 0.722450 0.333099 0.036787
Si Si5 0.088433 0.441052 0.451416
Si Si6 0.602307 0.080218 0.538751
O O1 0.154033 0.279239 0.521736
O O2 0.352225 0.054701 0.727145
O O3 0.391528 0.129622 0.914796
O O4 0.493631 0.300306 0.942266
O O5 0.284999 0.723157 0.128358
O O6 0.107002 0.970190 0.899690
O O7 0.448495 0.963620 0.314388
O O8 0.238001 0.826269 0.943144
O O9 0.446727 0.611372 0.236158
O O10 0.683068 0.349660 0.070601
O O11 0.893264 0.431433 0.235222
O O12 0.239719 0.508951 0.704886
#
# Coordination Sequence:
#
# PCOD9241609 Si02
#       6
#     4   4   4   4   4   4
#     4  10  19  36  63  73 106 148 186 210 265 328
#     4   9  20  38  53  77 105 144 186 209 261 338
#     4   9  19  35  55  85 101 143 188 218 248 328
#     4  10  23  30  57  84 113 126 184 231 272 296
#     4  11  19  37  57  80 108 147 176 219 273 325
#     4  11  19  37  57  80 108 147 176 219 273 325
#
# _framework density 19.471965999999998
#
# number of rings (size 3 to 8) (size 9 to 14) (size 15 to 20)
#    1.000    1.000    3.333    1.500    4.667    0.000 
#    0.000    0.000    0.000    4.000    0.000    0.000 
#    0.000    0.000    0.000    0.000    0.000    0.000 
#
# Total GULP energy -133651.627253 kJ/mol
# GULP energy per Si atom -5568.817802 kJ/mol
# Density = 1.942765 g / cm^3
# Si number density = 19.471966 Si / 1000 Ang^3
#
#
#
# Elastic Constant Matrix: (Units=GPa)
#
#
# Indices 1 2 3 4 5 6 
#
# 1 98.5326 13.6701 17.3258 0.0000 -5.1332 0.0000
# 2 13.6701 85.0413 14.0491 0.0000 -9.5012 0.0000
# 3 17.3258 14.0491 37.4452 0.0000 5.0008 0.0000
# 4 0.0000 0.0000 0.0000 19.7975 0.0000 -8.3756
# 5 -5.1332 -9.5012 5.0008 0.0000 15.2231 0.0000
# 6 0.0000 0.0000 0.0000 -8.3756 0.0000 17.9112
#
#
#
# Elastic Compliance Matrix: (Units=1/GPa)
#
#
# Indices 1 2 3 4 5 6 
#
# 1 0.011537 -0.000219 -0.006021 0.000000 0.005731 0.000000
# 2 -0.000219 0.014113 -0.006652 0.000000 0.010920 0.000000
# 3 -0.006021 -0.006652 0.034319 0.000000 -0.017456 0.000000
# 4 0.000000 0.000000 0.000000 0.062969 0.000000 0.029445
# 5 0.005731 0.010920 -0.017456 0.000000 0.080172 0.000000
# 6 0.000000 0.000000 0.000000 0.029445 0.000000 0.069600
#
#
# Mechanical properties :
#
#
# Convention : Reuss Voigt Hill
#
# Bulk Modulus (GPa) = 29.25382 34.56769 31.91075
# Shear Modulus (GPa) = 16.13483 22.31796 19.22640
#
# Velocity S-wave (km/s) = 2.88170 3.38917 3.14568
# Velocity P-wave (km/s) = 5.11159 5.75381 5.44219
#
# Compressibility (1/GPa) = 0.03418357
#
# Stress axis : x y z
#
# Youngs Moduli (GPa) = 86.68012 70.85574 29.13872
#
# Poissons Ratio (x) = 0.01555 0.17545
# Poissons Ratio (y) = 0.01902 0.19383
# Poissons Ratio (z) = 0.52190 0.47133
#
# Static dielectric constant tensor:
#      x y z
#    x 1.673340 0.000000 -0.042600 
#    y 0.000000 1.702050 0.000000 
#    z -0.042600 0.000000 1.723600 
# 
# From -- ./inp_files/25975.got.cif
#   From: 2010.05.17/outbox.cif.g08.bks.cpg/sg14_13_cif.got.tgz:25975.got - 2010.06.03 17:49:19.
