data_PCOD9241978
_publ_section_title
;
Structure prediction by ZEFSAII (Michael W. Deem and Ramdas Pophale) SiO2 
 PCOD9241978
Probable space group: P 21/C
;
_chemical_formula_sum "Si O2"
_cell_formula_units_Z 32
_cell_length_a 12.234770
_cell_length_b 15.566331
_cell_length_c 14.740548
_cell_angle_alpha 90.000000
_cell_angle_beta 150.827241
_cell_angle_gamma 90.000000
_cell_volume 1368.424822
_symmetry_space_group_name_H-M "P 21/C"
_symmetry_group_IT_number 14
_symmetry_cell_setting 'monoclinic'
loop_
_space_group_symop_operation_xyz
x,y,z
-x,1/2+y,1/2-z
-x,-y,-z
x,1/2-y,1/2+z
loop_
_atom_site_type_symbol
_atom_site_label
_atom_site_fract_x
_atom_site_fract_y
_atom_site_fract_z
Si Si1 0.270429 0.900104 0.273180
Si Si2 0.892825 0.133853 0.163579
Si Si3 0.532672 0.334081 0.256871
Si Si4 0.147193 0.467665 0.237510
Si Si5 0.046422 0.670499 0.780498
Si Si6 0.740586 0.904876 0.720373
Si Si7 0.333983 0.004258 0.684722
Si Si8 0.470552 0.153132 0.264370
O O1 0.294008 0.846306 0.199368
O O2 0.086511 0.873694 0.212790
O O3 0.511212 0.893400 0.497698
O O4 0.246389 0.999226 0.231918
O O5 0.980073 0.227997 0.256034
O O6 0.062374 0.106157 0.207372
O O7 0.859654 0.056038 0.209587
O O8 0.660127 0.153129 0.944189
O O9 0.361057 0.413205 0.138268
O O10 0.440387 0.238675 0.184898
O O11 0.327586 0.473134 0.286924
O O12 0.136922 0.383001 0.294246
O O13 0.907675 0.464323 0.012536
O O14 0.284783 0.659313 0.007851
O O15 0.712627 0.847025 0.788575
O O16 0.514956 0.933405 0.784560
#
# Coordination Sequence:
#
# PCOD9241978 Si02
#       8
#     4   4   4   4   4   4   4   4
#     4  10  19  38  64  81 107 153 199 232 274 344
#     4  11  23  37  57  88 122 146 182 244 298 330
#     4  11  23  37  57  88 122 146 182 244 298 330
#     4  10  21  40  63  82 110 157 202 230 270 346
#     4   9  20  38  57  83 116 151 188 234 285 335
#     4  10  19  38  64  81 107 153 199 232 274 344
#     4  10  21  40  63  82 110 157 202 230 270 346
#     4   9  20  38  57  83 116 151 188 234 285 335
#
# _framework density 23.384550999999998
#
# number of rings (size 3 to 8) (size 9 to 14) (size 15 to 20)
#    0.000    2.000    2.500    0.750    3.500    1.000 
#    0.000    3.750    0.000    0.000    0.000    0.000 
#    0.000    0.000    0.000    0.000    0.000    0.000 
#
# Total GULP energy -178768.640625 kJ/mol
# GULP energy per Si atom -5586.520020 kJ/mol
# Density = 2.333133 g / cm^3
# Si number density = 23.384551 Si / 1000 Ang^3
#
#
#
# Elastic Constant Matrix: (Units=GPa)
#
#
# Indices 1 2 3 4 5 6 
#
# 1 148.7842 51.5028 -4.9814 0.0000 -5.7632 0.0000
# 2 51.5028 111.2019 -10.4917 0.0000 -7.6079 0.0000
# 3 -4.9814 -10.4917 53.1926 0.0000 -5.2801 0.0000
# 4 0.0000 0.0000 0.0000 11.4717 0.0000 -3.6064
# 5 -5.7632 -7.6079 -5.2801 0.0000 17.7882 0.0000
# 6 0.0000 0.0000 0.0000 -3.6064 0.0000 34.4668
#
#
#
# Elastic Compliance Matrix: (Units=1/GPa)
#
#
# Indices 1 2 3 4 5 6 
#
# 1 0.008024 -0.003628 0.000144 0.000000 0.001091 0.000000
# 2 -0.003628 0.011183 0.002291 0.000000 0.004287 0.000000
# 3 0.000144 0.002291 0.019955 0.000000 0.006950 0.000000
# 4 0.000000 0.000000 0.000000 0.090136 0.000000 0.009431
# 5 0.001091 0.004287 0.006950 0.000000 0.060467 0.000000
# 6 0.000000 0.000000 0.000000 0.009431 0.000000 0.030000
#
#
# Mechanical properties :
#
#
# Convention : Reuss Voigt Hill
#
# Bulk Modulus (GPa) = 27.19128 42.80422 34.99775
# Shear Modulus (GPa) = 21.33027 31.22195 26.27611
#
# Velocity S-wave (km/s) = 3.02346 3.65794 3.35573
# Velocity P-wave (km/s) = 4.88278 6.01539 5.47843
#
# Compressibility (1/GPa) = 0.03677649
#
# Stress axis : x y z
#
# Youngs Moduli (GPa) = 124.62423 89.42525 50.11286
#
# Poissons Ratio (x) = 0.32445 -0.00722
# Poissons Ratio (y) = 0.45215 -0.11483
# Poissons Ratio (z) = -0.01796 -0.20491
#
# Static dielectric constant tensor:
#      x y z
#    x 1.830040 0.000000 0.003260 
#    y 0.000000 1.897940 0.000000 
#    z 0.003260 0.000000 1.981300 
# 
# From -- ./inp_files/45122.got.cif
#   From: 2010.05.17/outbox.cif.g08.bks.cpg/sg14_23_cif.got.tgz:45122.got - 2010.06.03 17:49:19.
