data_PCOD9241114
_publ_section_title
;
Structure prediction by ZEFSAII (Michael W. Deem and Ramdas Pophale) SiO2 
 PCOD9241114
Probable space group: P 21/C
;
_chemical_formula_sum "Si O2"
_cell_formula_units_Z 24
_cell_length_a 12.965098
_cell_length_b 5.248880
_cell_length_c 18.554448
_cell_angle_alpha 90.000000
_cell_angle_beta 77.964283
_cell_angle_gamma 90.000000
_cell_volume 1234.915514
_symmetry_space_group_name_H-M "P 21/C"
_symmetry_group_IT_number 14
_symmetry_cell_setting 'monoclinic'
loop_
_space_group_symop_operation_xyz
x,y,z
-x,1/2+y,1/2-z
-x,-y,-z
x,1/2-y,1/2+z
loop_
_atom_site_type_symbol
_atom_site_label
_atom_site_fract_x
_atom_site_fract_y
_atom_site_fract_z
Si Si1 0.954536 0.254698 0.290356
Si Si2 0.917012 0.043101 0.447357
Si Si3 0.271190 0.352259 0.341072
Si Si4 0.125173 0.456579 0.496041
Si Si5 0.497153 0.648725 0.700465
Si Si6 0.266402 0.647234 0.741054
O O1 0.971531 0.144196 0.367517
O O2 0.832660 0.323915 0.296358
O O3 0.016375 0.516217 0.265548
O O4 0.838397 0.265532 0.483813
O O5 0.865878 0.766043 0.446230
O O6 0.000000 0.000000 0.500000
O O7 0.186246 0.367543 0.416591
O O8 0.390646 0.341048 0.355879
O O9 0.263829 0.608448 0.294525
O O10 0.255918 0.107505 0.291453
O O11 0.000000 0.500000 0.500000
O O12 0.500976 0.395086 0.748334
O O13 0.379947 0.645450 0.684610
#
# Coordination Sequence:
#
# PCOD9241114 Si02
#       6
#     4   4   4   4   4   4
#     4  12  26  38  58  84 118 155 194 237 295 338
#     4  10  23  39  54  76 116 155 192 231 277 345
#     4  10  19  34  59  86 110 149 191 238 286 340
#     4  10  21  33  56  78 112 149 192 226 279 337
#     4   8  16  32  52  82 110 141 184 240 288 332
#     4  10  21  34  57  82 117 143 190 244 292 332
#
# _framework density 19.434526000000002
#
# number of rings (size 3 to 8) (size 9 to 14) (size 15 to 20)
#    0.000    2.000    0.000    3.000   14.000    0.000 
#    0.000    0.000    0.000    2.000    0.000    0.000 
#    0.000    0.000    0.000    0.000    0.000    0.000 
#
# Total GULP energy -133740.941160 kJ/mol
# GULP energy per Si atom -5572.539215 kJ/mol
# Density = 1.939029 g / cm^3
# Si number density = 19.434526 Si / 1000 Ang^3
#
#
#
# Elastic Constant Matrix: (Units=GPa)
#
#
# Indices 1 2 3 4 5 6 
#
# 1 131.4947 16.8432 38.9180 0.0000 -19.2331 0.0000
# 2 16.8432 164.4107 14.1907 0.0000 -2.8089 0.0000
# 3 38.9180 14.1907 59.1636 0.0000 -11.2563 0.0000
# 4 0.0000 0.0000 0.0000 25.0838 0.0000 -4.8337
# 5 -19.2331 -2.8089 -11.2563 0.0000 21.3295 0.0000
# 6 0.0000 0.0000 0.0000 -4.8337 0.0000 21.2956
#
#
#
# Elastic Compliance Matrix: (Units=1/GPa)
#
#
# Indices 1 2 3 4 5 6 
#
# 1 0.010177 -0.000470 -0.005389 0.000000 0.006271 0.000000
# 2 -0.000470 0.006233 -0.001234 0.000000 -0.000255 0.000000
# 3 -0.005389 -0.001234 0.021996 0.000000 0.006587 0.000000
# 4 0.000000 0.000000 0.000000 0.041690 0.000000 0.009463
# 5 0.006271 -0.000255 0.006587 0.000000 0.055981 0.000000
# 6 0.000000 0.000000 0.000000 0.009463 0.000000 0.049106
#
#
# Mechanical properties :
#
#
# Convention : Reuss Voigt Hill
#
# Bulk Modulus (GPa) = 41.28812 54.99697 48.14255
# Shear Modulus (GPa) = 24.10316 32.54961 28.32638
#
# Velocity S-wave (km/s) = 3.52550 4.09691 3.82190
# Velocity P-wave (km/s) = 6.15330 7.12318 6.65593
#
# Compressibility (1/GPa) = 0.02422004
#
# Stress axis : x y z
#
# Youngs Moduli (GPa) = 98.25852 160.44485 45.46270
#
# Poissons Ratio (x) = 0.07547 0.24498
# Poissons Ratio (y) = 0.04622 0.05610
# Poissons Ratio (z) = 0.52948 0.19798
#
# Static dielectric constant tensor:
#      x y z
#    x 0.339040 0.000000 -0.733440 
#    y 0.000000 2.144460 0.000000 
#    z -0.733440 0.000000 1.294560 
# 
# From -- ./inp_files/56588.got.cif
#   From: 2010.05.17/outbox.cif.g08.bks.cpg/sg14_29_cif.got.tgz:56588.got - 2010.06.03 17:49:19.
