data_PCOD9241922
_publ_section_title
;
Structure prediction by ZEFSAII (Michael W. Deem and Ramdas Pophale) SiO2 
 PCOD9241922
Probable space group: P 21/C
;
_chemical_formula_sum "Si O2"
_cell_formula_units_Z 32
_cell_length_a 16.633525
_cell_length_b 9.495936
_cell_length_c 12.397439
_cell_angle_alpha 90.000000
_cell_angle_beta 130.742019
_cell_angle_gamma 90.000000
_cell_volume 1483.631568
_symmetry_space_group_name_H-M "P 21/C"
_symmetry_group_IT_number 14
_symmetry_cell_setting 'monoclinic'
loop_
_space_group_symop_operation_xyz
x,y,z
-x,1/2+y,1/2-z
-x,-y,-z
x,1/2-y,1/2+z
loop_
_atom_site_type_symbol
_atom_site_label
_atom_site_fract_x
_atom_site_fract_y
_atom_site_fract_z
Si Si1 0.461347 0.289540 0.021586
Si Si2 0.705682 0.246213 0.054448
Si Si3 0.168168 0.585824 0.674095
Si Si4 0.904300 0.974825 0.656125
Si Si5 0.377704 0.479710 0.763693
Si Si6 0.913558 0.290549 0.605423
Si Si7 0.329684 0.448861 0.080548
Si Si8 0.466827 0.512381 0.608525
O O1 0.431112 0.359645 0.882527
O O2 0.566517 0.371234 0.154905
O O3 0.371955 0.343005 0.027084
O O4 0.467036 0.122350 0.031503
O O5 0.767344 0.282966 0.217983
O O6 0.795244 0.189250 0.050821
O O7 0.666879 0.394342 0.969615
O O8 0.609455 0.141639 0.986668
O O9 0.122940 0.511568 0.741746
O O10 0.255230 0.490193 0.689640
O O11 0.087451 0.643468 0.514674
O O12 0.000068 0.866458 0.744332
O O13 0.932776 0.123308 0.625963
O O14 0.794273 0.922232 0.506788
O O15 0.409811 0.457195 0.669235
O O16 0.413868 0.448244 0.250699
#
# Coordination Sequence:
#
# PCOD9241922 Si02
#       8
#     4   4   4   4   4   4   4   4
#     4  10  20  34  58  89 122 159 203 241 285 369
#     4  10  21  38  61  91 122 160 203 247 297 372
#     4  10  19  40  65  85 115 168 202 232 313 382
#     4  10  22  38  62  89 114 156 213 249 294 369
#     4  10  19  38  61  81 123 171 194 231 312 362
#     4  10  21  40  64  86 115 158 201 252 309 354
#     4   9  18  36  58  83 121 163 194 236 300 368
#     4  11  21  34  62  94 124 153 205 256 292 343
#
# _framework density 21.568697
#
# number of rings (size 3 to 8) (size 9 to 14) (size 15 to 20)
#    0.000    2.250    3.750    1.875    1.750    1.000 
#    0.000    5.625    0.000    0.000    0.000    0.000 
#    0.000    0.000    0.000    0.000    0.000    0.000 
#
# Total GULP energy -178845.767746 kJ/mol
# GULP energy per Si atom -5588.930242 kJ/mol
# Density = 2.151961 g / cm^3
# Si number density = 21.568697 Si / 1000 Ang^3
#
#
#
# Elastic Constant Matrix: (Units=GPa)
#
#
# Indices 1 2 3 4 5 6 
#
# 1 26.5623 16.2643 11.2562 0.0000 2.3450 0.0000
# 2 16.2643 84.3178 27.6145 0.0000 28.1042 0.0000
# 3 11.2562 27.6145 85.9257 0.0000 16.1537 0.0000
# 4 0.0000 0.0000 0.0000 19.3376 0.0000 7.3614
# 5 2.3450 28.1042 16.1537 0.0000 30.7463 0.0000
# 6 0.0000 0.0000 0.0000 7.3614 0.0000 27.4208
#
#
#
# Elastic Compliance Matrix: (Units=1/GPa)
#
#
# Indices 1 2 3 4 5 6 
#
# 1 0.044765 -0.009871 -0.004157 0.000000 0.007792 0.000000
# 2 -0.009871 0.019877 -0.002020 0.000000 -0.016354 0.000000
# 3 -0.004157 -0.002020 0.013787 0.000000 -0.005080 0.000000
# 4 0.000000 0.000000 0.000000 0.057599 0.000000 -0.015463
# 5 0.007792 -0.016354 -0.005080 0.000000 0.049548 0.000000
# 6 0.000000 0.000000 0.000000 -0.015463 0.000000 0.040620
#
#
# Mechanical properties :
#
#
# Convention : Reuss Voigt Hill
#
# Bulk Modulus (GPa) = 21.58308 34.11951 27.85130
# Shear Modulus (GPa) = 18.26587 24.94568 21.60577
#
# Velocity S-wave (km/s) = 2.91326 3.40453 3.16843
# Velocity P-wave (km/s) = 4.62001 5.59533 5.13090
#
# Compressibility (1/GPa) = 0.04633258
#
# Stress axis : x y z
#
# Youngs Moduli (GPa) = 22.33903 50.31038 72.53356
#
# Poissons Ratio (x) = 0.49659 0.30151
# Poissons Ratio (y) = 0.22050 0.14654
# Poissons Ratio (z) = 0.09286 0.10164
#
# Static dielectric constant tensor:
#      x y z
#    x 1.838780 0.000000 -0.025860 
#    y 0.000000 1.781780 0.000000 
#    z -0.025860 0.000000 1.792360 
# 
# From -- ./inp_files/48426.got.cif
#   From: 2010.05.17/outbox.cif.g08.bks.cpg/sg14_25_cif.got.tgz:48426.got - 2010.06.03 17:49:19.
