data_PCOD9241507
_publ_section_title
;
Structure prediction by ZEFSAII (Michael W. Deem and Ramdas Pophale) SiO2 
 PCOD9241507
Probable space group: P 21/C
;
_chemical_formula_sum "Si O2"
_cell_formula_units_Z 32
_cell_length_a 22.774707
_cell_length_b 10.191424
_cell_length_c 13.409456
_cell_angle_alpha 90.000000
_cell_angle_beta 27.683511
_cell_angle_gamma 90.000000
_cell_volume 1445.992660
_symmetry_space_group_name_H-M "P 21/C"
_symmetry_group_IT_number 14
_symmetry_cell_setting 'monoclinic'
loop_
_space_group_symop_operation_xyz
x,y,z
-x,1/2+y,1/2-z
-x,-y,-z
x,1/2-y,1/2+z
loop_
_atom_site_type_symbol
_atom_site_label
_atom_site_fract_x
_atom_site_fract_y
_atom_site_fract_z
Si Si1 0.876624 0.835784 0.019819
Si Si2 0.044555 0.682078 0.897381
Si Si3 0.529588 0.206287 0.366095
Si Si4 0.683182 0.407084 0.264395
Si Si5 0.315022 0.561336 0.515141
Si Si6 0.023659 0.933216 0.628669
Si Si7 0.321840 0.241046 0.029415
Si Si8 0.680698 0.693980 0.192225
O O1 0.766709 0.833084 0.268344
O O2 0.817021 0.726243 0.034749
O O3 0.922162 0.941307 0.870199
O O4 0.999674 0.804651 0.900956
O O5 0.192169 0.649797 0.678741
O O6 0.982090 0.563921 0.928299
O O7 0.998258 0.677501 0.081639
O O8 0.631750 0.297071 0.267421
O O9 0.592630 0.081979 0.217435
O O10 0.456043 0.271554 0.383116
O O11 0.417537 0.198551 0.615973
O O12 0.635347 0.393360 0.450744
O O13 0.642955 0.550841 0.287530
O O14 0.835756 0.407233 0.042500
O O15 0.276269 0.409458 0.586656
O O16 0.323976 0.301034 0.917921
#
# Coordination Sequence:
#
# PCOD9241507 Si02
#       8
#     4   4   4   4   4   4   4   4
#     4  11  19  37  62  95 122 166 210 256 316 382
#     4  10  19  36  59  91 123 164 200 262 316 373
#     4  11  24  37  64  92 120 170 215 268 312 386
#     4  11  21  42  65  92 124 172 209 262 327 379
#     4  11  22  41  63  93 128 162 219 259 325 383
#     4  10  20  35  65  90 124 164 215 253 315 388
#     4  11  24  39  62  93 125 170 212 270 318 378
#     4  11  22  40  63  91 127 170 217 256 326 383
#
# _framework density 22.130127000000002
#
# number of rings (size 3 to 8) (size 9 to 14) (size 15 to 20)
#    0.000    1.250    3.750    4.875    1.750    0.500 
#    0.000    0.625    8.250    0.000    0.000    0.000 
#    0.000    0.000    0.000    0.000    0.000    0.000 
#
# Total GULP energy -178413.009990 kJ/mol
# GULP energy per Si atom -5575.406562 kJ/mol
# Density = 2.207976 g / cm^3
# Si number density = 22.130127 Si / 1000 Ang^3
#
#
#
# Elastic Constant Matrix: (Units=GPa)
#
#
# Indices 1 2 3 4 5 6 
#
# 1 165.0912 21.2599 56.7409 0.0000 16.4804 0.0000
# 2 21.2599 12.7680 24.1824 0.0000 13.6963 0.0000
# 3 56.7409 24.1824 105.5368 0.0000 32.5948 0.0000
# 4 0.0000 0.0000 0.0000 23.2227 0.0000 6.1452
# 5 16.4804 13.6963 32.5948 0.0000 32.6633 0.0000
# 6 0.0000 0.0000 0.0000 6.1452 0.0000 24.8021
#
#
#
# Elastic Compliance Matrix: (Units=1/GPa)
#
#
# Indices 1 2 3 4 5 6 
#
# 1 0.008245 -0.012787 -0.002709 0.000000 0.003905 0.000000
# 2 -0.012787 0.201301 -0.021934 0.000000 -0.056070 0.000000
# 3 -0.002709 -0.021934 0.018351 0.000000 -0.007748 0.000000
# 4 0.000000 0.000000 0.000000 0.046083 0.000000 -0.011418
# 5 0.003905 -0.056070 -0.007748 0.000000 0.059888 0.000000
# 6 0.000000 0.000000 0.000000 -0.011418 0.000000 0.043148
#
#
# Mechanical properties :
#
#
# Convention : Reuss Voigt Hill
#
# Bulk Modulus (GPa) = 6.53435 54.19583 30.36509
# Shear Modulus (GPa) = 9.94257 28.21848 19.08052
#
# Velocity S-wave (km/s) = 2.12192 3.57475 2.93950
# Velocity P-wave (km/s) = 2.99374 6.44835 5.02711
#
# Compressibility (1/GPa) = 0.15303743
#
# Stress axis : x y z
#
# Youngs Moduli (GPa) = 121.28275 4.96768 54.49396
#
# Poissons Ratio (x) = 0.06352 0.14762
# Poissons Ratio (y) = 1.55087 1.19525
# Poissons Ratio (z) = 0.32856 0.10896
#
# Static dielectric constant tensor:
#      x y z
#    x 1.823040 0.000000 -0.026570 
#    y 0.000000 1.839290 0.000000 
#    z -0.026570 0.000000 1.902070 
# 
# From -- ./inp_files/35235.got.cif
#   From: 2010.05.17/outbox.cif.g08.bks.cpg/sg14_18_cif.got.tgz:35235.got - 2010.06.03 17:49:19.
