data_PCOD9241527
_publ_section_title
;
Structure prediction by ZEFSAII (Michael W. Deem and Ramdas Pophale) SiO2 
 PCOD9241527
Probable space group: P 21/C
;
_chemical_formula_sum "Si O2"
_cell_formula_units_Z 24
_cell_length_a 12.227295
_cell_length_b 19.063292
_cell_length_c 8.979189
_cell_angle_alpha 90.000000
_cell_angle_beta 33.443995
_cell_angle_gamma 90.000000
_cell_volume 1153.487396
_symmetry_space_group_name_H-M "P 21/C"
_symmetry_group_IT_number 14
_symmetry_cell_setting 'monoclinic'
loop_
_space_group_symop_operation_xyz
x,y,z
-x,1/2+y,1/2-z
-x,-y,-z
x,1/2-y,1/2+z
loop_
_atom_site_type_symbol
_atom_site_label
_atom_site_fract_x
_atom_site_fract_y
_atom_site_fract_z
Si Si1 0.369034 0.617846 0.344860
Si Si2 0.717278 0.972060 0.358398
Si Si3 0.095238 0.711655 0.451355
Si Si4 0.771647 0.849985 0.513442
Si Si5 0.940965 0.370122 0.065820
Si Si6 0.962131 0.090763 0.206728
O O1 0.266059 0.670094 0.346075
O O2 0.202807 0.593443 0.650386
O O3 0.490809 0.555017 0.125656
O O4 0.540114 0.657947 0.244452
O O5 0.818145 0.922098 0.371725
O O6 0.778442 0.048512 0.342573
O O7 0.838619 0.948200 0.075628
O O8 0.903983 0.707207 0.777894
O O9 0.141848 0.791441 0.363422
O O10 0.043717 0.667655 0.361586
O O11 0.846998 0.859174 0.594645
O O12 0.949807 0.406405 0.897289
#
# Coordination Sequence:
#
# PCOD9241527 Si02
#       6
#     4   4   4   4   4   4
#     4   9  20  40  53  80 113 149 185 235 285 332
#     4   8  19  39  57  81 111 155 192 226 287 331
#     4  10  20  37  58  81 115 151 185 232 289 339
#     4   8  19  39  54  76 115 151 177 234 292 322
#     4  11  21  35  59  86 113 146 189 234 286 337
#     4  10  19  36  60  86 111 147 198 232 274 345
#
# _framework density 20.806467999999999
#
# number of rings (size 3 to 8) (size 9 to 14) (size 15 to 20)
#    1.000    1.667    0.000    2.000    0.000    3.333 
#    6.000    0.000    0.000    0.000    0.000    0.000 
#    0.000    0.000    0.000    0.000    0.000    0.000 
#
# Total GULP energy -133795.636230 kJ/mol
# GULP energy per Si atom -5574.818176 kJ/mol
# Density = 2.075911 g / cm^3
# Si number density = 20.806468 Si / 1000 Ang^3
#
#
#
# Elastic Constant Matrix: (Units=GPa)
#
#
# Indices 1 2 3 4 5 6 
#
# 1 98.0125 -1.3066 49.4952 0.0000 -6.5658 0.0000
# 2 -1.3066 47.3892 12.7584 0.0000 9.9693 0.0000
# 3 49.4952 12.7584 59.7716 0.0000 -0.8127 0.0000
# 4 0.0000 0.0000 0.0000 14.7093 0.0000 0.6872
# 5 -6.5658 9.9693 -0.8127 0.0000 33.4195 0.0000
# 6 0.0000 0.0000 0.0000 0.6872 0.0000 22.9210
#
#
#
# Elastic Compliance Matrix: (Units=1/GPa)
#
#
# Indices 1 2 3 4 5 6 
#
# 1 0.018677 0.004528 -0.016406 0.000000 0.001920 0.000000
# 2 0.004528 0.025144 -0.009209 0.000000 -0.006835 0.000000
# 3 -0.016406 -0.009209 0.032286 0.000000 0.000309 0.000000
# 4 0.000000 0.000000 0.000000 0.068080 0.000000 -0.002041
# 5 0.001920 -0.006835 0.000309 0.000000 0.032346 0.000000
# 6 0.000000 0.000000 0.000000 -0.002041 0.000000 0.043689
#
#
# Mechanical properties :
#
#
# Convention : Reuss Voigt Hill
#
# Bulk Modulus (GPa) = 29.47128 36.34081 32.90605
# Shear Modulus (GPa) = 18.26772 23.82505 21.04639
#
# Velocity S-wave (km/s) = 2.96629 3.38757 3.18391
# Velocity P-wave (km/s) = 5.09186 5.72756 5.41904
#
# Compressibility (1/GPa) = 0.03393134
#
# Stress axis : x y z
#
# Youngs Moduli (GPa) = 53.54300 39.77092 30.97349
#
# Poissons Ratio (x) = -0.18008 0.50815
# Poissons Ratio (y) = -0.24244 0.28525
# Poissons Ratio (z) = 0.87842 0.36627
#
# Static dielectric constant tensor:
#      x y z
#    x 1.758630 0.000000 -0.004440 
#    y 0.000000 1.760460 0.000000 
#    z -0.004440 0.000000 1.747000 
# 
# From -- ./inp_files/14085.got.cif
#   From: 2010.05.17/outbox.cif.g08.bks.cpg/sg14_8_cif.got.tgz:14085.got - 2010.06.03 17:49:19.
