data_PCOD9241948
_publ_section_title
;
Structure prediction by ZEFSAII (Michael W. Deem and Ramdas Pophale) SiO2 
 PCOD9241948
Probable space group: P 21/C
;
_chemical_formula_sum "Si O2"
_cell_formula_units_Z 24
_cell_length_a 8.204304
_cell_length_b 8.050728
_cell_length_c 20.007784
_cell_angle_alpha 90.000000
_cell_angle_beta 135.321395
_cell_angle_gamma 90.000000
_cell_volume 929.203939
_symmetry_space_group_name_H-M "P 21/C"
_symmetry_group_IT_number 14
_symmetry_cell_setting 'monoclinic'
loop_
_space_group_symop_operation_xyz
x,y,z
-x,1/2+y,1/2-z
-x,-y,-z
x,1/2-y,1/2+z
loop_
_atom_site_type_symbol
_atom_site_label
_atom_site_fract_x
_atom_site_fract_y
_atom_site_fract_z
Si Si1 0.118129 0.460402 0.104842
Si Si2 0.067745 0.622168 0.444892
Si Si3 0.573939 0.176121 0.049967
Si Si4 0.731968 0.350567 0.217419
Si Si5 0.745425 0.321980 0.364384
Si Si6 0.176458 0.379392 0.864986
O O1 0.135259 0.259825 0.105544
O O2 0.947507 0.502287 0.116930
O O3 0.275463 0.625728 0.153720
O O4 0.000000 0.500000 0.000000
O O5 0.165578 0.668527 0.401417
O O6 0.270665 0.651583 0.560230
O O7 0.984121 0.432366 0.426337
O O8 0.406529 0.306767 0.965550
O O9 0.580645 0.221468 0.129611
O O10 0.500000 0.000000 0.000000
O O11 0.629984 0.384069 0.261560
O O12 0.757341 0.515593 0.180861
O O13 0.985853 0.264385 0.296727
#
# Coordination Sequence:
#
# PCOD9241948 Si02
#       6
#     4   4   4   4   4   4
#     4   9  18  34  60  88 115 159 203 245 309 378
#     4  10  19  38  62  89 123 168 203 251 324 372
#     4  12  24  40  63  90 127 165 211 264 318 375
#     4  11  22  39  62  91 122 159 214 260 311 377
#     4   9  20  37  61  91 124 159 210 258 306 380
#     4  11  22  38  63  91 123 163 204 264 317 374
#
# _framework density 25.828558000000001
#
# number of rings (size 3 to 8) (size 9 to 14) (size 15 to 20)
#    0.000    1.667    1.667    4.500    0.000    0.000 
#    0.000    1.667    7.333    0.000    0.000    0.000 
#    0.000    0.000    0.000    0.000    0.000    0.000 
#
# Total GULP energy -133627.635801 kJ/mol
# GULP energy per Si atom -5567.818158 kJ/mol
# Density = 2.576977 g / cm^3
# Si number density = 25.828558 Si / 1000 Ang^3
#
#
#
# Elastic Constant Matrix: (Units=GPa)
#
#
# Indices 1 2 3 4 5 6 
#
# 1 30.1294 14.8716 26.4583 0.0000 -11.8073 0.0000
# 2 14.8716 124.3120 41.6880 0.0000 2.2705 0.0000
# 3 26.4583 41.6880 129.4400 0.0000 -34.5467 0.0000
# 4 0.0000 0.0000 0.0000 56.5454 0.0000 0.5406
# 5 -11.8073 2.2705 -34.5467 0.0000 40.6484 0.0000
# 6 0.0000 0.0000 0.0000 0.5406 0.0000 31.6059
#
#
#
# Elastic Compliance Matrix: (Units=1/GPa)
#
#
# Indices 1 2 3 4 5 6 
#
# 1 0.042849 -0.003411 -0.005545 0.000000 0.007924 0.000000
# 2 -0.003411 0.009780 -0.003702 0.000000 -0.004684 0.000000
# 3 -0.005545 -0.003702 0.012516 0.000000 0.009233 0.000000
# 4 0.000000 0.000000 0.000000 0.017688 0.000000 -0.000303
# 5 0.007924 -0.004684 0.009233 0.000000 0.035012 0.000000
# 6 0.000000 0.000000 0.000000 -0.000303 0.000000 0.031645
#
#
# Mechanical properties :
#
#
# Convention : Reuss Voigt Hill
#
# Bulk Modulus (GPa) = 25.10881 49.99079 37.54980
# Shear Modulus (GPa) = 26.58430 39.15085 32.86757
#
# Velocity S-wave (km/s) = 3.21169 3.89755 3.57112
# Velocity P-wave (km/s) = 4.84724 6.29693 5.61903
#
# Compressibility (1/GPa) = 0.03982665
#
# Stress axis : x y z
#
# Youngs Moduli (GPa) = 23.33797 102.25442 79.89991
#
# Poissons Ratio (x) = 0.34882 0.44303
# Poissons Ratio (y) = 0.07961 0.29582
# Poissons Ratio (z) = 0.12941 0.37859
#
# Static dielectric constant tensor:
#      x y z
#    x 2.196360 0.000000 0.044640 
#    y 0.000000 2.115530 0.000000 
#    z 0.044640 0.000000 2.091960 
# 
# From -- ./inp_files/66936.got.cif
#   From: 2010.05.17/outbox.cif.g08.bks.cpg/sg14_34_cif.got.tgz:66936.got - 2010.06.03 17:49:19.
