data_PCOD9241988
_publ_section_title
;
Structure prediction by ZEFSAII (Michael W. Deem and Ramdas Pophale) SiO2 
 PCOD9241988
Probable space group: P 21/C
;
_chemical_formula_sum "Si O2"
_cell_formula_units_Z 32
_cell_length_a 15.434286
_cell_length_b 11.517731
_cell_length_c 18.574989
_cell_angle_alpha 90.000000
_cell_angle_beta 150.918264
_cell_angle_gamma 90.000000
_cell_volume 1604.978011
_symmetry_space_group_name_H-M "P 21/C"
_symmetry_group_IT_number 14
_symmetry_cell_setting 'monoclinic'
loop_
_space_group_symop_operation_xyz
x,y,z
-x,1/2+y,1/2-z
-x,-y,-z
x,1/2-y,1/2+z
loop_
_atom_site_type_symbol
_atom_site_label
_atom_site_fract_x
_atom_site_fract_y
_atom_site_fract_z
Si Si1 0.389421 0.880208 0.424131
Si Si2 0.628948 0.749009 0.492030
Si Si3 0.012386 0.668818 0.316818
Si Si4 0.310899 0.172517 0.163773
Si Si5 0.306825 0.487954 0.531472
Si Si6 0.712017 0.132523 0.482425
Si Si7 0.373291 0.395046 0.147239
Si Si8 0.856149 0.969438 0.837103
O O1 0.515819 0.783660 0.480255
O O2 0.316634 0.865407 0.451854
O O3 0.500000 0.000000 0.500000
O O4 0.227658 0.912421 0.253860
O O5 0.628184 0.611850 0.475731
O O6 0.554691 0.822962 0.369995
O O7 0.835178 0.791449 0.646303
O O8 0.157210 0.575176 0.392115
O O9 0.126868 0.782608 0.417955
O O10 0.935880 0.604647 0.330773
O O11 0.234264 0.089163 0.046032
O O12 0.525491 0.175169 0.313388
O O13 0.255409 0.303829 0.107054
O O14 0.277404 0.114400 0.216035
O O15 0.469334 0.558050 0.686682
O O16 0.729316 0.003921 0.462274
O O17 0.000000 0.000000 0.000000
#
# Coordination Sequence:
#
# PCOD9241988 Si02
#       8
#     4   4   4   4   4   4   4   4
#     4  12  21  41  64  90 119 169 214 263 306 383
#     4  11  24  38  66  94 130 162 220 264 321 376
#     4  12  24  39  62  98 130 167 208 274 321 375
#     4  10  19  38  64  91 123 161 211 265 313 374
#     4  10  22  38  61  96 124 163 212 263 318 379
#     4  11  22  37  64  92 126 166 212 258 322 377
#     4  10  20  39  64  91 123 167 207 261 318 384
#     4  12  24  38  67  95 126 158 223 268 312 374
#
# _framework density 19.937968999999999
#
# number of rings (size 3 to 8) (size 9 to 14) (size 15 to 20)
#    0.000    1.000    6.250    0.750    3.500    0.000 
#    0.000    1.250    0.000    0.000    0.000    0.000 
#    0.000    0.000    0.000    0.000    0.000    0.000 
#
# Total GULP energy -178483.639173 kJ/mol
# GULP energy per Si atom -5577.613724 kJ/mol
# Density = 1.989259 g / cm^3
# Si number density = 19.937969 Si / 1000 Ang^3
#
#
#
# Elastic Constant Matrix: (Units=GPa)
#
#
# Indices 1 2 3 4 5 6 
#
# 1 21.2511 9.4461 -2.9869 0.0000 1.9948 0.0000
# 2 9.4461 114.8079 20.7157 0.0000 3.4461 0.0000
# 3 -2.9869 20.7157 92.3648 0.0000 -3.0814 0.0000
# 4 0.0000 0.0000 0.0000 31.9477 0.0000 -7.9876
# 5 1.9948 3.4461 -3.0814 0.0000 22.3415 0.0000
# 6 0.0000 0.0000 0.0000 -7.9876 0.0000 29.0231
#
#
#
# Elastic Compliance Matrix: (Units=1/GPa)
#
#
# Indices 1 2 3 4 5 6 
#
# 1 0.049698 -0.004436 0.002488 0.000000 -0.003410 0.000000
# 2 -0.004436 0.009537 -0.002329 0.000000 -0.001396 0.000000
# 3 0.002488 -0.002329 0.011487 0.000000 0.001721 0.000000
# 4 0.000000 0.000000 0.000000 0.033614 0.000000 0.009251
# 5 -0.003410 -0.001396 0.001721 0.000000 0.045517 0.000000
# 6 0.000000 0.000000 0.000000 0.009251 0.000000 0.037001
#
#
# Mechanical properties :
#
#
# Convention : Reuss Voigt Hill
#
# Bulk Modulus (GPa) = 16.08516 31.41930 23.75223
# Shear Modulus (GPa) = 23.13415 30.07903 26.60659
#
# Velocity S-wave (km/s) = 3.41002 3.88832 3.65700
# Velocity P-wave (km/s) = 4.85690 5.99596 5.45623
#
# Compressibility (1/GPa) = 0.06216912
#
# Stress axis : x y z
#
# Youngs Moduli (GPa) = 20.12157 104.85125 87.05570
#
# Poissons Ratio (x) = 0.46508 -0.21661
# Poissons Ratio (y) = 0.08925 0.20276
# Poissons Ratio (z) = -0.05007 0.24421
#
# Static dielectric constant tensor:
#      x y z
#    x 1.711120 0.000000 0.013020 
#    y 0.000000 1.779480 0.000000 
#    z 0.013020 0.000000 1.792040 
# 
# From -- ./inp_files/59486.got.cif
#   From: 2010.05.17/outbox.cif.g08.bks.cpg/sg14_30_cif.got.tgz:59486.got - 2010.06.03 17:49:19.
