data_PCOD9241915
_publ_section_title
;
Structure prediction by ZEFSAII (Michael W. Deem and Ramdas Pophale) SiO2 
 PCOD9241915
Probable space group: P 21/C
;
_chemical_formula_sum "Si O2"
_cell_formula_units_Z 24
_cell_length_a 8.680706
_cell_length_b 21.332288
_cell_length_c 9.191798
_cell_angle_alpha 90.000000
_cell_angle_beta 43.902219
_cell_angle_gamma 90.000000
_cell_volume 1180.308182
_symmetry_space_group_name_H-M "P 21/C"
_symmetry_group_IT_number 14
_symmetry_cell_setting 'monoclinic'
loop_
_space_group_symop_operation_xyz
x,y,z
-x,1/2+y,1/2-z
-x,-y,-z
x,1/2-y,1/2+z
loop_
_atom_site_type_symbol
_atom_site_label
_atom_site_fract_x
_atom_site_fract_y
_atom_site_fract_z
Si Si1 0.029653 0.726507 0.862763
Si Si2 0.546608 0.438276 0.630288
Si Si3 0.251119 0.160914 0.940491
Si Si4 0.142343 0.667232 0.479553
Si Si5 0.928832 0.609103 0.134781
Si Si6 0.614960 0.431663 0.241817
O O1 0.795752 0.764800 0.008475
O O2 0.119298 0.701233 0.650156
O O3 0.186538 0.720358 0.327831
O O4 0.997795 0.669818 0.994969
O O5 0.683633 0.388562 0.629703
O O6 0.288624 0.419795 0.790981
O O7 0.637448 0.434106 0.402309
O O8 0.544084 0.509708 0.685843
O O9 0.138736 0.129698 0.158287
O O10 0.103108 0.143575 0.901026
O O11 0.495680 0.132540 0.773646
O O12 0.141853 0.564577 0.990820
#
# Coordination Sequence:
#
# PCOD9241915 Si02
#       6
#     4   4   4   4   4   4
#     4  10  19  38  60  89 119 152 196 248 306 350
#     4  10  22  38  62  92 120 161 206 242 298 359
#     4   9  21  39  59  90 119 155 199 247 300 352
#     4  10  20  41  60  91 119 154 202 252 301 357
#     4  11  20  39  61  89 122 158 201 243 297 361
#     4  10  21  39  63  87 124 165 196 248 297 355
#
# _framework density 20.333673000000001
#
# number of rings (size 3 to 8) (size 9 to 14) (size 15 to 20)
#    1.000    1.000    3.333    0.500    0.000    2.000 
#    3.000    0.833    0.000    0.000    0.000    0.000 
#    0.000    0.000    0.000    0.000    0.000    0.000 
#
# Total GULP energy -133787.740518 kJ/mol
# GULP energy per Si atom -5574.489188 kJ/mol
# Density = 2.028739 g / cm^3
# Si number density = 20.333673 Si / 1000 Ang^3
#
#
#
# Elastic Constant Matrix: (Units=GPa)
#
#
# Indices 1 2 3 4 5 6 
#
# 1 38.6762 10.2357 23.3211 0.0000 2.1588 0.0000
# 2 10.2357 67.6810 -4.7799 0.0000 4.3715 0.0000
# 3 23.3211 -4.7799 33.6745 0.0000 -6.8154 0.0000
# 4 0.0000 0.0000 0.0000 -2.0919 0.0000 -12.4126
# 5 2.1588 4.3715 -6.8154 0.0000 17.3868 0.0000
# 6 0.0000 0.0000 0.0000 -12.4126 0.0000 40.5796
#
#
#
# Elastic Compliance Matrix: (Units=1/GPa)
#
#
# Indices 1 2 3 4 5 6 
#
# 1 0.057582 -0.010498 -0.045924 0.000000 -0.022512 0.000000
# 2 -0.010498 0.017002 0.009865 0.000000 0.000896 0.000000
# 3 -0.045924 0.009865 0.069030 0.000000 0.030281 0.000000
# 4 0.000000 0.000000 0.000000 -0.169816 0.000000 -0.051944
# 5 -0.022512 0.000896 0.030281 0.000000 0.071954 0.000000
# 6 0.000000 0.000000 0.000000 -0.051944 0.000000 0.008754
#
#
# Mechanical properties :
#
#
# Convention : Reuss Voigt Hill
#
# Bulk Modulus (GPa) = 19.80263 21.95393 20.87828
# Shear Modulus (GPa) = 30.40368 18.59190 24.49779
#
# Velocity S-wave (km/s) = 3.87103 3.02709 3.47477
# Velocity P-wave (km/s) = 5.45342 4.79979 5.13701
#
# Compressibility (1/GPa) = 0.05049835
#
# Stress axis : x y z
#
# Youngs Moduli (GPa) = 17.36654 58.81787 14.48655
#
# Poissons Ratio (x) = 0.61745 0.66529
# Poissons Ratio (y) = 0.18231 -0.14291
# Poissons Ratio (z) = 0.79755 -0.58022
#
# Static dielectric constant tensor:
#      x y z
#    x 1.744320 0.000000 -0.026240 
#    y 0.000000 1.775410 0.000000 
#    z -0.026240 0.000000 1.710060 
# 
# From -- ./inp_files/10301.got.cif
#   From: 2010.05.17/outbox.cif.g08.bks.cpg/sg14_6_cif.got.tgz:10301.got - 2010.06.03 17:49:19.
