data_PCOD9241779
_publ_section_title
;
Structure prediction by ZEFSAII (Michael W. Deem and Ramdas Pophale) SiO2 
 PCOD9241779
Probable space group: P 21/C
;
_chemical_formula_sum "Si O2"
_cell_formula_units_Z 20
_cell_length_a 5.035338
_cell_length_b 7.755907
_cell_length_c 19.236698
_cell_angle_alpha 90.000000
_cell_angle_beta 105.615632
_cell_angle_gamma 90.000000
_cell_volume 723.532833
_symmetry_space_group_name_H-M "P 21/C"
_symmetry_group_IT_number 14
_symmetry_cell_setting 'monoclinic'
loop_
_space_group_symop_operation_xyz
x,y,z
-x,1/2+y,1/2-z
-x,-y,-z
x,1/2-y,1/2+z
loop_
_atom_site_type_symbol
_atom_site_label
_atom_site_fract_x
_atom_site_fract_y
_atom_site_fract_z
Si Si1 0.177633 0.205891 0.753476
Si Si2 0.911916 0.634079 0.932592
Si Si3 0.636692 0.956202 0.613775
Si Si4 0.334590 0.641868 0.531503
Si Si5 0.282274 0.973014 0.187174
O O1 0.323989 0.344375 0.815216
O O2 0.398623 0.051620 0.768191
O O3 0.169389 0.331466 0.686038
O O4 0.906877 0.143660 0.775204
O O5 0.588667 0.606887 0.899769
O O6 0.073620 0.544378 0.880626
O O7 0.000000 0.500000 0.000000
O O8 0.058912 0.804420 0.971391
O O9 0.528790 0.813163 0.551299
O O10 0.500000 0.500000 0.500000
O O11 0.269741 0.589976 0.606445
#
# Coordination Sequence:
#
# PCOD9241779 Si02
#       5
#     4   4   4   4   4
#     4  11  23  45  69  99 134 178 235 291 338 406
#     4  10  19  37  62  89 125 175 216 260 333 412
#     4  10  21  40  63  89 127 176 221 268 332 412
#     4  10  22  41  65 100 139 171 221 291 346 399
#     4  11  25  45  69  99 136 180 229 286 345 407
#
# _framework density 27.642146
#
# number of rings (size 3 to 8) (size 9 to 14) (size 15 to 20)
#    0.000    1.600    0.000    7.200    0.000    3.200 
#    0.000   33.000    0.000    0.000    0.000    0.000 
#    0.000    0.000    0.000    0.000    0.000    0.000 
#
# Total GULP energy -112182.350051 kJ/mol
# GULP energy per Si atom -5609.117503 kJ/mol
# Density = 2.757923 g / cm^3
# Si number density = 27.642146 Si / 1000 Ang^3
#
#
#
# Elastic Constant Matrix: (Units=GPa)
#
#
# Indices 1 2 3 4 5 6 
#
# 1 144.9272 54.7878 21.2910 0.0000 -15.5060 0.0000
# 2 54.7878 156.3094 30.8793 0.0000 -13.8840 0.0000
# 3 21.2910 30.8793 71.8881 0.0000 -11.5709 0.0000
# 4 0.0000 0.0000 0.0000 53.3784 0.0000 0.8261
# 5 -15.5060 -13.8840 -11.5709 0.0000 53.8327 0.0000
# 6 0.0000 0.0000 0.0000 0.8261 0.0000 82.7933
#
#
#
# Elastic Compliance Matrix: (Units=1/GPa)
#
#
# Indices 1 2 3 4 5 6 
#
# 1 0.008170 -0.002515 -0.001103 0.000000 0.001467 0.000000
# 2 -0.002515 0.007841 -0.002501 0.000000 0.000760 0.000000
# 3 -0.001103 -0.002501 0.015700 0.000000 0.002412 0.000000
# 4 0.000000 0.000000 0.000000 0.018737 0.000000 -0.000187
# 5 0.001467 0.000760 0.002412 0.000000 0.019713 0.000000
# 6 0.000000 0.000000 0.000000 -0.000187 0.000000 0.012080
#
#
# Mechanical properties :
#
#
# Convention : Reuss Voigt Hill
#
# Bulk Modulus (GPa) = 51.35536 65.22678 58.29107
# Shear Modulus (GPa) = 49.51989 55.74531 52.63260
#
# Velocity S-wave (km/s) = 4.23716 4.49562 4.36830
# Velocity P-wave (km/s) = 6.52357 7.11305 6.82468
#
# Compressibility (1/GPa) = 0.01947216
#
# Stress axis : x y z
#
# Youngs Moduli (GPa) = 122.39940 127.53856 63.69616
#
# Poissons Ratio (x) = 0.32081 0.07026
# Poissons Ratio (y) = 0.30788 0.15928
# Poissons Ratio (z) = 0.13501 0.31893
#
# Static dielectric constant tensor:
#      x y z
#    x 2.068270 0.000000 -0.030530 
#    y 0.000000 2.240860 0.000000 
#    z -0.030530 0.000000 2.448420 
# 
# From -- ./inp_files/63129.got.cif
#   From: 2010.05.17/outbox.cif.g08.bks.cpg/sg14_32_cif.got.tgz:63129.got - 2010.06.03 17:49:19.
