data_PCOD9241593
_publ_section_title
;
Structure prediction by ZEFSAII (Michael W. Deem and Ramdas Pophale) SiO2 
 PCOD9241593
Probable space group: P 21/C
;
_chemical_formula_sum "Si O2"
_cell_formula_units_Z 32
_cell_length_a 8.533742
_cell_length_b 27.616850
_cell_length_c 11.597281
_cell_angle_alpha 90.000000
_cell_angle_beta 36.275403
_cell_angle_gamma 90.000000
_cell_volume 1617.138737
_symmetry_space_group_name_H-M "P 21/C"
_symmetry_group_IT_number 14
_symmetry_cell_setting 'monoclinic'
loop_
_space_group_symop_operation_xyz
x,y,z
-x,1/2+y,1/2-z
-x,-y,-z
x,1/2-y,1/2+z
loop_
_atom_site_type_symbol
_atom_site_label
_atom_site_fract_x
_atom_site_fract_y
_atom_site_fract_z
Si Si1 0.191691 0.478714 0.056808
Si Si2 0.066722 0.439707 0.677963
Si Si3 0.925025 0.123864 0.482445
Si Si4 0.365340 0.960197 0.241339
Si Si5 0.798045 0.215330 0.404993
Si Si6 0.926224 0.348722 0.607416
Si Si7 0.668009 0.871664 0.550951
Si Si8 0.201184 0.201134 0.732373
O O1 0.147811 0.517014 0.185409
O O2 0.893324 0.470834 0.182831
O O3 0.352632 0.503450 0.857006
O O4 0.310549 0.426323 0.010599
O O5 0.043930 0.411242 0.813024
O O6 0.357213 0.461269 0.486927
O O7 0.014237 0.399352 0.612428
O O8 0.140512 0.131903 0.453303
O O9 0.684378 0.093772 0.680162
O O10 0.834125 0.173136 0.478069
O O11 0.896844 0.191047 0.226846
O O12 0.486266 0.226445 0.581272
O O13 0.976060 0.260474 0.334080
O O14 0.629755 0.358322 0.737701
O O15 0.114036 0.328499 0.396928
O O16 0.758243 0.835688 0.397098
#
# Coordination Sequence:
#
# PCOD9241593 Si02
#       8
#     4   4   4   4   4   4   4   4
#     4   9  19  34  56  86 124 160 198 253 296 355
#     4  10  19  36  62  88 118 163 205 245 300 365
#     4   9  20  38  61  89 121 155 200 257 301 351
#     4   9  17  33  57  89 119 156 205 248 300 358
#     4  10  24  43  64  90 119 158 200 255 308 365
#     4  10  24  42  60  89 124 159 201 252 307 371
#     4  10  23  41  58  92 128 160 202 255 302 359
#     4  11  25  43  65  89 124 159 203 253 310 369
#
# _framework density 19.788036000000002
#
# number of rings (size 3 to 8) (size 9 to 14) (size 15 to 20)
#    0.000    2.250    0.000    1.875    3.500    5.500 
#    4.500    1.250    0.000    0.000    0.000    0.000 
#    0.000    0.000    0.000    0.000    0.000    0.000 
#
# Total GULP energy -178767.483170 kJ/mol
# GULP energy per Si atom -5586.483849 kJ/mol
# Density = 1.974300 g / cm^3
# Si number density = 19.788036 Si / 1000 Ang^3
#
#
#
# Elastic Constant Matrix: (Units=GPa)
#
#
# Indices 1 2 3 4 5 6 
#
# 1 68.4826 31.8565 20.8873 0.0000 -10.2468 0.0000
# 2 31.8565 79.2544 22.1370 0.0000 -10.6567 0.0000
# 3 20.8873 22.1370 77.9508 0.0000 -17.0413 0.0000
# 4 0.0000 0.0000 0.0000 16.6401 0.0000 -3.0808
# 5 -10.2468 -10.6567 -17.0413 0.0000 12.4474 0.0000
# 6 0.0000 0.0000 0.0000 -3.0808 0.0000 27.6181
#
#
#
# Elastic Compliance Matrix: (Units=1/GPa)
#
#
# Indices 1 2 3 4 5 6 
#
# 1 0.019196 -0.006151 -0.001561 0.000000 0.008400 0.000000
# 2 -0.006151 0.016445 -0.001500 0.000000 0.006962 0.000000
# 3 -0.001561 -0.001500 0.018712 0.000000 0.023048 0.000000
# 4 0.000000 0.000000 0.000000 0.061363 0.000000 0.006845
# 5 0.008400 0.006962 0.023048 0.000000 0.124769 0.000000
# 6 0.000000 0.000000 0.000000 0.006845 0.000000 0.036972
#
#
# Mechanical properties :
#
#
# Convention : Reuss Voigt Hill
#
# Bulk Modulus (GPa) = 27.83160 41.71660 34.77410
# Shear Modulus (GPa) = 16.24138 21.39491 18.81815
#
# Velocity S-wave (km/s) = 2.86801 3.29173 3.08715
# Velocity P-wave (km/s) = 5.00627 5.96447 5.50625
#
# Compressibility (1/GPa) = 0.03593038
#
# Stress axis : x y z
#
# Youngs Moduli (GPa) = 52.09363 60.80891 53.44302
#
# Poissons Ratio (x) = 0.37401 0.08341
# Poissons Ratio (y) = 0.32040 0.08016
# Poissons Ratio (z) = 0.08130 0.09121
#
# Static dielectric constant tensor:
#      x y z
#    x 1.698870 0.000000 -0.001500 
#    y 0.000000 1.697780 0.000000 
#    z -0.001500 0.000000 1.659880 
# 
# From -- ./inp_files/27010.got.cif
#   From: 2010.05.17/outbox.cif.g08.bks.cpg/sg14_14_cif.got.tgz:27010.got - 2010.06.03 17:49:19.
