data_PCOD9241903
_publ_section_title
;
Structure prediction by ZEFSAII (Michael W. Deem and Ramdas Pophale) SiO2 
 PCOD9241903
Probable space group: P 21/C
;
_chemical_formula_sum "Si O2"
_cell_formula_units_Z 28
_cell_length_a 9.040295
_cell_length_b 16.004309
_cell_length_c 17.445358
_cell_angle_alpha 90.000000
_cell_angle_beta 151.575794
_cell_angle_gamma 90.000000
_cell_volume 1201.441234
_symmetry_space_group_name_H-M "P 21/C"
_symmetry_group_IT_number 14
_symmetry_cell_setting 'monoclinic'
loop_
_space_group_symop_operation_xyz
x,y,z
-x,1/2+y,1/2-z
-x,-y,-z
x,1/2-y,1/2+z
loop_
_atom_site_type_symbol
_atom_site_label
_atom_site_fract_x
_atom_site_fract_y
_atom_site_fract_z
Si Si1 0.566089 0.381786 0.527270
Si Si2 0.657073 0.399258 0.333980
Si Si3 0.435304 0.454065 0.084364
Si Si4 0.003091 0.523530 0.766254
Si Si5 0.371853 0.079100 0.110161
Si Si6 0.116013 0.772039 0.935777
Si Si7 0.529858 0.360934 0.838145
O O1 0.470824 0.390094 0.572195
O O2 0.712158 0.296609 0.564324
O O3 0.825310 0.454197 0.633261
O O4 0.256308 0.406574 0.340363
O O5 0.436680 0.393478 0.158478
O O6 0.567213 0.482194 0.340878
O O7 0.709073 0.324484 0.416883
O O8 0.001223 0.411925 0.454005
O O9 0.703098 0.437110 0.143740
O O10 0.521131 0.544773 0.157937
O O11 0.124377 0.472043 0.894839
O O12 0.540608 0.134296 0.251681
O O13 0.170159 0.677413 0.984769
O O14 0.768353 0.806101 0.774615
#
# Coordination Sequence:
#
# PCOD9241903 Si02
#       7
#     4   4   4   4   4   4   4
#     4  11  20  37  58  93 113 154 191 253 290 360
#     4   9  17  36  62  84 112 157 195 241 292 347
#     4  10  19  38  59  91 117 156 194 254 293 350
#     4  10  20  32  61  91 121 140 194 251 301 339
#     4   9  18  36  62  86 113 148 201 244 288 343
#     4  11  23  40  61  83 122 161 199 235 304 362
#     4  10  23  42  59  82 120 166 192 240 298 367
#
# _framework density 23.305342
#
# number of rings (size 3 to 8) (size 9 to 14) (size 15 to 20)
#    0.000    2.000    2.857    2.571    2.000    0.000 
#    2.571    7.857    0.000    0.000    0.000    0.000 
#    0.000    0.000    0.000    0.000    0.000    0.000 
#
# Total GULP energy -156489.673341 kJ/mol
# GULP energy per Si atom -5588.916905 kJ/mol
# Density = 2.325230 g / cm^3
# Si number density = 23.305342 Si / 1000 Ang^3
#
#
#
# Elastic Constant Matrix: (Units=GPa)
#
#
# Indices 1 2 3 4 5 6 
#
# 1 121.3607 5.2229 20.3788 0.0000 -9.8500 0.0000
# 2 5.2229 19.3924 -5.8407 0.0000 7.8910 0.0000
# 3 20.3788 -5.8407 106.1096 0.0000 -14.0585 0.0000
# 4 0.0000 0.0000 0.0000 33.8138 0.0000 -10.3276
# 5 -9.8500 7.8910 -14.0585 0.0000 28.8097 0.0000
# 6 0.0000 0.0000 0.0000 -10.3276 0.0000 15.6413
#
#
#
# Elastic Compliance Matrix: (Units=1/GPa)
#
#
# Indices 1 2 3 4 5 6 
#
# 1 0.008960 -0.004291 -0.001492 0.000000 0.003511 0.000000
# 2 -0.004291 0.060225 0.001881 0.000000 -0.017045 0.000000
# 3 -0.001492 0.001881 0.010347 0.000000 0.004024 0.000000
# 4 0.000000 0.000000 0.000000 0.037044 0.000000 0.024459
# 5 0.003511 -0.017045 0.004024 0.000000 0.042543 0.000000
# 6 0.000000 0.000000 0.000000 0.024459 0.000000 0.080083
#
#
# Mechanical properties :
#
#
# Convention : Reuss Voigt Hill
#
# Bulk Modulus (GPa) = 13.94159 31.82050 22.88105
# Shear Modulus (GPa) = 18.45590 30.79306 24.62448
#
# Velocity S-wave (km/s) = 2.81716 3.63890 3.25407
# Velocity P-wave (km/s) = 4.07148 5.59811 4.89468
#
# Compressibility (1/GPa) = 0.07172781
#
# Stress axis : x y z
#
# Youngs Moduli (GPa) = 111.60679 16.60453 96.64245
#
# Poissons Ratio (x) = 0.07125 0.14418
# Poissons Ratio (y) = 0.47891 -0.18177
# Poissons Ratio (z) = 0.16650 -0.03123
#
# Static dielectric constant tensor:
#      x y z
#    x 1.890010 0.000000 -0.033760 
#    y 0.000000 1.865130 0.000000 
#    z -0.033760 0.000000 1.920410 
# 
# From -- ./inp_files/56166.got.cif
#   From: 2010.05.17/outbox.cif.g08.bks.cpg/sg14_29_cif.got.tgz:56166.got - 2010.06.03 17:49:19.
