data_PCOD9241508
_publ_section_title
;
Structure prediction by ZEFSAII (Michael W. Deem and Ramdas Pophale) SiO2 
 PCOD9241508
Probable space group: P 21/C
;
_chemical_formula_sum "Si O2"
_cell_formula_units_Z 28
_cell_length_a 17.598959
_cell_length_b 11.265418
_cell_length_c 14.735996
_cell_angle_alpha 90.000000
_cell_angle_beta 30.626885
_cell_angle_gamma 90.000000
_cell_volume 1488.371345
_symmetry_space_group_name_H-M "P 21/C"
_symmetry_group_IT_number 14
_symmetry_cell_setting 'monoclinic'
loop_
_space_group_symop_operation_xyz
x,y,z
-x,1/2+y,1/2-z
-x,-y,-z
x,1/2-y,1/2+z
loop_
_atom_site_type_symbol
_atom_site_label
_atom_site_fract_x
_atom_site_fract_y
_atom_site_fract_z
Si Si1 0.100789 0.006903 0.806756
Si Si2 0.561757 0.076223 0.022292
Si Si3 0.245715 0.113676 0.093770
Si Si4 0.280155 0.294639 0.895077
Si Si5 0.843212 0.730731 0.660452
Si Si6 0.159869 0.758844 0.251359
Si Si7 0.008660 0.935329 0.272959
O O1 0.197838 0.120189 0.733545
O O2 0.999652 0.044135 0.825740
O O3 0.181382 0.881251 0.709561
O O4 0.000000 0.000000 0.000000
O O5 0.434108 0.152665 0.201855
O O6 0.698881 0.166473 0.858480
O O7 0.500000 0.000000 0.000000
O O8 0.627623 0.985324 0.029315
O O9 0.229006 0.160145 0.213328
O O10 0.088700 0.051067 0.230699
O O11 0.280405 0.215672 0.985324
O O12 0.217423 0.213495 0.877853
O O13 0.160791 0.402163 0.026770
O O14 0.019264 0.758733 0.465615
O O15 0.102022 0.825693 0.219623
#
# Coordination Sequence:
#
# PCOD9241508 Si02
#       7
#     4   4   4   4   4   4   4
#     4  10  19  36  59  91 124 154 201 260 310 357
#     4  11  24  42  63  88 126 168 207 253 310 374
#     4  11  22  40  62  92 122 159 205 259 305 361
#     4  11  23  41  62  94 125 165 207 254 312 376
#     4  10  20  38  65  87 124 159 208 258 308 353
#     4   9  22  37  59  93 120 157 208 254 302 372
#     4  10  20  35  65  89 118 156 204 259 305 353
#
# _framework density 18.81251
#
# number of rings (size 3 to 8) (size 9 to 14) (size 15 to 20)
#    0.000    1.714    2.857    2.571    2.000    2.857 
#    0.000    7.857    0.000    0.000    0.000    0.000 
#    0.000    0.000    0.000    0.000    0.000    0.000 
#
# Total GULP energy -155884.306150 kJ/mol
# GULP energy per Si atom -5567.296648 kJ/mol
# Density = 1.876969 g / cm^3
# Si number density = 18.812510 Si / 1000 Ang^3
#
#
#
# Elastic Constant Matrix: (Units=GPa)
#
#
# Indices 1 2 3 4 5 6 
#
# 1 85.6617 37.9309 29.2324 0.0000 8.0284 0.0000
# 2 37.9309 101.2321 52.9810 0.0000 -3.2717 0.0000
# 3 29.2324 52.9810 77.2054 0.0000 -17.0218 0.0000
# 4 0.0000 0.0000 0.0000 23.9116 0.0000 9.9152
# 5 8.0284 -3.2717 -17.0218 0.0000 29.4837 0.0000
# 6 0.0000 0.0000 0.0000 9.9152 0.0000 25.0304
#
#
#
# Elastic Compliance Matrix: (Units=1/GPa)
#
#
# Indices 1 2 3 4 5 6 
#
# 1 0.015705 -0.003322 -0.005375 0.000000 -0.007748 0.000000
# 2 -0.003322 0.016799 -0.011069 0.000000 -0.003622 0.000000
# 3 -0.005375 -0.011069 0.025937 0.000000 0.015209 0.000000
# 4 0.000000 0.000000 0.000000 0.050040 0.000000 -0.019822
# 5 -0.007748 -0.003622 0.015209 0.000000 0.044406 0.000000
# 6 0.000000 0.000000 0.000000 -0.019822 0.000000 0.047804
#
#
# Mechanical properties :
#
#
# Convention : Reuss Voigt Hill
#
# Bulk Modulus (GPa) = 52.88423 56.04309 54.46366
# Shear Modulus (GPa) = 20.28191 25.28213 22.78202
#
# Velocity S-wave (km/s) = 3.28702 3.66990 3.48372
# Velocity P-wave (km/s) = 6.52520 6.91466 6.72275
#
# Compressibility (1/GPa) = 0.01890923
#
# Stress axis : x y z
#
# Youngs Moduli (GPa) = 63.67288 59.52802 38.55548
#
# Poissons Ratio (x) = 0.19774 0.20725
# Poissons Ratio (y) = 0.21151 0.42676
# Poissons Ratio (z) = 0.34226 0.65889
#
# Static dielectric constant tensor:
#      x y z
#    x 1.671800 0.000000 -0.012800 
#    y 0.000000 1.776360 0.000000 
#    z -0.012800 0.000000 1.637700 
# 
# From -- ./inp_files/48773.got.cif
#   From: 2010.05.17/outbox.cif.g08.bks.cpg/sg14_25_cif.got.tgz:48773.got - 2010.06.03 17:49:19.
