data_PCOD9241498
_publ_section_title
;
Structure prediction by ZEFSAII (Michael W. Deem and Ramdas Pophale) SiO2 
 PCOD9241498
Probable space group: P 21/C
;
_chemical_formula_sum "Si O2"
_cell_formula_units_Z 28
_cell_length_a 12.548003
_cell_length_b 12.706392
_cell_length_c 9.518562
_cell_angle_alpha 90.000000
_cell_angle_beta 47.959917
_cell_angle_gamma 90.000000
_cell_volume 1127.114165
_symmetry_space_group_name_H-M "P 21/C"
_symmetry_group_IT_number 14
_symmetry_cell_setting 'monoclinic'
loop_
_space_group_symop_operation_xyz
x,y,z
-x,1/2+y,1/2-z
-x,-y,-z
x,1/2-y,1/2+z
loop_
_atom_site_type_symbol
_atom_site_label
_atom_site_fract_x
_atom_site_fract_y
_atom_site_fract_z
Si Si1 0.358919 0.417636 0.277910
Si Si2 0.904717 0.200836 0.184421
Si Si3 0.122036 0.393513 0.292801
Si Si4 0.865922 0.659281 0.289665
Si Si5 0.423715 0.726847 0.080005
Si Si6 0.076353 0.928186 0.281755
Si Si7 0.388979 0.879013 0.894567
O O1 0.246903 0.457140 0.257789
O O2 0.256424 0.361832 0.483233
O O3 0.440370 0.512020 0.283557
O O4 0.466260 0.345796 0.098237
O O5 0.735571 0.194801 0.329680
O O6 0.938537 0.322879 0.112243
O O7 0.985151 0.184270 0.260465
O O8 0.984238 0.119631 0.013774
O O9 0.176230 0.271129 0.239509
O O10 0.062441 0.432421 0.196812
O O11 0.884411 0.544903 0.198461
O O12 0.424557 0.708881 0.245819
O O13 0.445947 0.843249 0.995843
O O14 0.217710 0.896411 0.064799
#
# Coordination Sequence:
#
# PCOD9241498 Si02
#       7
#     4   4   4   4   4   4   4
#     4  10  23  38  61  87 120 160 205 249 305 368
#     4   9  19  34  56  83 112 157 197 246 296 356
#     4  10  19  36  59  86 118 155 205 245 304 357
#     4   9  20  35  56  84 117 154 193 256 301 351
#     4  11  22  40  62  88 122 158 205 251 303 363
#     4   9  18  35  58  85 118 153 203 249 301 358
#     4  10  22  40  64  89 119 164 202 253 301 367
#
# _framework density 24.842202
#
# number of rings (size 3 to 8) (size 9 to 14) (size 15 to 20)
#    0.000    2.286    1.429    0.429    4.000    2.286 
#    0.000    0.714    3.143    0.000    0.000    0.000 
#    0.000    0.000    0.000    0.000    0.000    0.000 
#
# Total GULP energy -156437.852409 kJ/mol
# GULP energy per Si atom -5587.066157 kJ/mol
# Density = 2.478566 g / cm^3
# Si number density = 24.842202 Si / 1000 Ang^3
#
#
#
# Elastic Constant Matrix: (Units=GPa)
#
#
# Indices 1 2 3 4 5 6 
#
# 1 28.6443 13.7812 20.4597 0.0000 2.2073 0.0000
# 2 13.7812 126.9648 24.6326 0.0000 5.0752 0.0000
# 3 20.4597 24.6326 47.7486 0.0000 -8.7022 0.0000
# 4 0.0000 0.0000 0.0000 33.6888 0.0000 5.3188
# 5 2.2073 5.0752 -8.7022 0.0000 25.1801 0.0000
# 6 0.0000 0.0000 0.0000 5.3188 0.0000 22.7422
#
#
#
# Elastic Compliance Matrix: (Units=1/GPa)
#
#
# Indices 1 2 3 4 5 6 
#
# 1 0.054413 -0.000404 -0.025572 0.000000 -0.013526 0.000000
# 2 -0.000404 0.009063 -0.005153 0.000000 -0.003572 0.000000
# 3 -0.025572 -0.005153 0.037520 0.000000 0.016247 0.000000
# 4 0.000000 0.000000 0.000000 0.030821 0.000000 -0.007208
# 5 -0.013526 -0.003572 0.016247 0.000000 0.047234 0.000000
# 6 0.000000 0.000000 0.000000 -0.007208 0.000000 0.045657
#
#
# Mechanical properties :
#
#
# Convention : Reuss Voigt Hill
#
# Bulk Modulus (GPa) = 25.81521 35.67831 30.74676
# Shear Modulus (GPa) = 16.67339 25.95450 21.31395
#
# Velocity S-wave (km/s) = 2.59351 3.23580 2.93230
# Velocity P-wave (km/s) = 4.40257 5.32482 4.88551
#
# Compressibility (1/GPa) = 0.03873685
#
# Stress axis : x y z
#
# Youngs Moduli (GPa) = 18.37797 110.34346 26.65264
#
# Poissons Ratio (x) = 0.04461 0.68156
# Poissons Ratio (y) = 0.00743 0.13734
# Poissons Ratio (z) = 0.46996 0.56860
#
# Static dielectric constant tensor:
#      x y z
#    x 1.919340 0.000000 0.048750 
#    y 0.000000 2.078080 0.000000 
#    z 0.048750 0.000000 2.021130 
# 
# From -- ./inp_files/32573.got.cif
#   From: 2010.05.17/outbox.cif.g08.bks.cpg/sg14_17_cif.got.tgz:32573.got - 2010.06.03 17:49:19.
