data_PCOD9241947
_publ_section_title
;
Structure prediction by ZEFSAII (Michael W. Deem and Ramdas Pophale) SiO2 
 PCOD9241947
Probable space group: P 21/C
;
_chemical_formula_sum "Si O2"
_cell_formula_units_Z 30
_cell_length_a 10.838704
_cell_length_b 21.366850
_cell_length_c 4.885662
_cell_angle_alpha 90.000000
_cell_angle_beta 93.645639
_cell_angle_gamma 90.000000
_cell_volume 1129.175756
_symmetry_space_group_name_H-M "P 21/C"
_symmetry_group_IT_number 14
_symmetry_cell_setting 'monoclinic'
loop_
_space_group_symop_operation_xyz
x,y,z
-x,1/2+y,1/2-z
-x,-y,-z
x,1/2-y,1/2+z
loop_
_atom_site_type_symbol
_atom_site_label
_atom_site_fract_x
_atom_site_fract_y
_atom_site_fract_z
Si Si1 0.194000 0.494112 0.557858
Si Si2 0.675567 0.116461 0.164895
Si Si3 0.107035 0.896892 0.420574
Si Si4 0.547220 0.541767 0.256111
Si Si5 0.548766 0.206422 0.780204
Si Si6 0.981272 0.794111 0.078482
Si Si7 0.000000 0.000000 0.500000
Si Si8 0.704761 0.707273 0.572917
O O1 0.271133 0.553228 0.456404
O O2 0.128180 0.528774 0.814994
O O3 0.304805 0.449443 0.686116
O O4 0.101724 0.478133 0.301333
O O5 0.777499 0.130687 0.404819
O O6 0.541386 0.101853 0.272883
O O7 0.655005 0.163819 0.916480
O O8 0.068395 0.849716 0.183983
O O9 0.002238 0.923608 0.606087
O O10 0.500000 0.500000 0.500000
O O11 0.500000 0.500000 0.000000
O O12 0.555866 0.267640 0.978050
O O13 0.416870 0.173523 0.831515
O O14 0.998615 0.733481 0.279331
O O15 0.842097 0.817665 0.121593
O O16 0.697846 0.770302 0.759639
#
# Coordination Sequence:
#
# PCOD9241947 Si02
#       8
#     4   4   4   4   4   4   2   4
#     4   9  21  41  62  90 129 167 222 276 328 397
#     4  11  23  38  67  95 136 176 218 281 339 403
#     4  10  22  40  63  91 134 169 217 276 329 398
#     4  10  19  38  62  89 122 169 215 270 331 385
#     4  10  23  39  63  94 133 174 218 267 332 403
#     4  10  22  39  64  94 128 172 220 266 327 395
#     4   8  20  42  62  88 128 176 222 276 336 384
#     4   8  16  37  58  81 120 163 215 270 308 377
#
# _framework density 26.568052999999999
#
# number of rings (size 3 to 8) (size 9 to 14) (size 15 to 20)
#    0.800    1.600    1.333    0.000    3.733    1.600 
#    0.000   14.667    0.000    0.000    0.000    0.000 
#    0.000    0.000    0.000    0.000    0.000    0.000 
#
# Total GULP energy -167332.049155 kJ/mol
# GULP energy per Si atom -5577.734972 kJ/mol
# Density = 2.650758 g / cm^3
# Si number density = 26.568053 Si / 1000 Ang^3
#
#
#
# Elastic Constant Matrix: (Units=GPa)
#
#
# Indices 1 2 3 4 5 6 
#
# 1 132.2568 19.9029 34.7815 0.0000 34.8460 0.0000
# 2 19.9029 40.0275 6.4546 0.0000 14.2144 0.0000
# 3 34.7815 6.4546 135.9545 0.0000 21.1284 0.0000
# 4 0.0000 0.0000 0.0000 36.1866 0.0000 14.2619
# 5 34.8460 14.2144 21.1284 0.0000 53.7782 0.0000
# 6 0.0000 0.0000 0.0000 14.2619 0.0000 29.5821
#
#
#
# Elastic Compliance Matrix: (Units=1/GPa)
#
#
# Indices 1 2 3 4 5 6 
#
# 1 0.009697 -0.002821 -0.001583 0.000000 -0.004916 0.000000
# 2 -0.002821 0.028396 0.000273 0.000000 -0.005785 0.000000
# 3 -0.001583 0.000273 0.008093 0.000000 -0.002226 0.000000
# 4 0.000000 0.000000 0.000000 0.034117 0.000000 -0.016448
# 5 -0.004916 -0.005785 -0.002226 0.000000 0.024184 0.000000
# 6 0.000000 0.000000 0.000000 -0.016448 0.000000 0.041734
#
#
# Mechanical properties :
#
#
# Convention : Reuss Voigt Hill
#
# Bulk Modulus (GPa) = 26.36867 47.83520 37.10194
# Shear Modulus (GPa) = 29.91780 40.38269 35.15024
#
# Velocity S-wave (km/s) = 3.35935 3.90291 3.64129
# Velocity P-wave (km/s) = 4.99935 6.19307 5.62795
#
# Compressibility (1/GPa) = 0.03792379
#
# Stress axis : x y z
#
# Youngs Moduli (GPa) = 103.12483 35.21661 123.55779
#
# Poissons Ratio (x) = 0.09934 0.19558
# Poissons Ratio (y) = 0.29088 -0.03367
# Poissons Ratio (z) = 0.16324 -0.00960
#
# Static dielectric constant tensor:
#      x y z
#    x 2.208060 0.000000 -0.007470 
#    y 0.000000 2.125690 0.000000 
#    z -0.007470 0.000000 2.127990 
# 
# From -- ./inp_files/2981.got.cif
#   From: 2010.05.17/outbox.cif.g08.bks.cpg/sg14_2_cif.got.tgz:2981.got - 2010.06.03 17:49:19.
