data_PCOD9241536
_publ_section_title
;
Structure prediction by ZEFSAII (Michael W. Deem and Ramdas Pophale) SiO2 
 PCOD9241536
Probable space group: P 21/C
;
_chemical_formula_sum "Si O2"
_cell_formula_units_Z 24
_cell_length_a 7.617776
_cell_length_b 22.333242
_cell_length_c 5.463837
_cell_angle_alpha 90.000000
_cell_angle_beta 92.685193
_cell_angle_gamma 90.000000
_cell_volume 928.539951
_symmetry_space_group_name_H-M "P 21/C"
_symmetry_group_IT_number 14
_symmetry_cell_setting 'monoclinic'
loop_
_space_group_symop_operation_xyz
x,y,z
-x,1/2+y,1/2-z
-x,-y,-z
x,1/2-y,1/2+z
loop_
_atom_site_type_symbol
_atom_site_label
_atom_site_fract_x
_atom_site_fract_y
_atom_site_fract_z
Si Si1 0.152526 0.258690 0.734788
Si Si2 0.843057 0.931882 0.263997
Si Si3 0.481261 0.600088 0.822646
Si Si4 0.240023 0.784053 0.296197
Si Si5 0.994506 0.390924 0.727385
Si Si6 0.355678 0.943469 0.812250
O O1 0.254147 0.250586 0.491073
O O2 0.077429 0.325640 0.732673
O O3 0.976650 0.216001 0.720491
O O4 0.682148 0.884538 0.271771
O O5 0.952905 0.923417 0.517503
O O6 0.753930 0.996980 0.251673
O O7 0.943251 0.923154 0.016550
O O8 0.341921 0.653465 0.810886
O O9 0.427048 0.556749 0.593236
O O10 0.482905 0.570194 0.092558
O O11 0.285965 0.748912 0.546862
O O12 0.785350 0.389522 0.703701
#
# Coordination Sequence:
#
# PCOD9241536 Si02
#       6
#     4   4   4   4   4   4
#     4  10  19  36  60  88 115 158 217 266 309 377
#     4  12  26  43  63 101 141 170 211 275 339 381
#     4  12  24  43  69  98 131 172 220 273 324 386
#     4  10  20  37  62  92 119 157 217 270 308 373
#     4  12  24  42  66  95 133 173 217 273 327 390
#     4  12  23  43  70  96 129 182 226 259 313 401
#
# _framework density 25.847031999999999
#
# number of rings (size 3 to 8) (size 9 to 14) (size 15 to 20)
#    0.000    0.667    0.000   11.000    0.000    0.000 
#    0.000    5.000    0.000    0.000    0.000    0.000 
#    0.000    0.000    0.000    0.000    0.000    0.000 
#
# Total GULP energy -134527.660609 kJ/mol
# GULP energy per Si atom -5605.319192 kJ/mol
# Density = 2.578820 g / cm^3
# Si number density = 25.847032 Si / 1000 Ang^3
#
#
#
# Elastic Constant Matrix: (Units=GPa)
#
#
# Indices 1 2 3 4 5 6 
#
# 1 59.3071 -3.8510 26.0954 0.0000 -5.0065 0.0000
# 2 -3.8510 65.5341 47.7601 0.0000 -7.5982 0.0000
# 3 26.0954 47.7601 257.6850 0.0000 -10.4598 0.0000
# 4 0.0000 0.0000 0.0000 30.7264 0.0000 1.1222
# 5 -5.0065 -7.5982 -10.4598 0.0000 32.4546 0.0000
# 6 0.0000 0.0000 0.0000 1.1222 0.0000 23.4454
#
#
#
# Elastic Compliance Matrix: (Units=1/GPa)
#
#
# Indices 1 2 3 4 5 6 
#
# 1 0.018316 0.003087 -0.002313 0.000000 0.002803 0.000000
# 2 0.003087 0.018479 -0.003590 0.000000 0.003646 0.000000
# 3 -0.002313 -0.003590 0.004794 0.000000 0.000348 0.000000
# 4 0.000000 0.000000 0.000000 0.032602 0.000000 -0.001560
# 5 0.002803 0.003646 0.000348 0.000000 0.032210 0.000000
# 6 0.000000 0.000000 0.000000 -0.001560 0.000000 0.042727
#
#
# Mechanical properties :
#
#
# Convention : Reuss Voigt Hill
#
# Bulk Modulus (GPa) = 27.80984 58.05948 42.93466
# Shear Modulus (GPa) = 29.98548 38.16007 34.07277
#
# Velocity S-wave (km/s) = 3.40974 3.84654 3.63471
# Velocity P-wave (km/s) = 5.12684 6.49918 5.85337
#
# Compressibility (1/GPa) = 0.03595850
#
# Stress axis : x y z
#
# Youngs Moduli (GPa) = 54.59621 54.11427 208.57603
#
# Poissons Ratio (x) = -0.16706 0.48249
# Poissons Ratio (y) = -0.16855 0.74872
# Poissons Ratio (z) = 0.12630 0.19425
#
# Static dielectric constant tensor:
#      x y z
#    x 2.011090 0.000000 0.002300 
#    y 0.000000 2.078320 0.000000 
#    z 0.002300 0.000000 2.075230 
# 
# From -- ./inp_files/1650.got.cif
#   From: 2010.05.17/outbox.cif.g08.bks.cpg/sg14_1_cif.got.tgz:1650.got - 2010.06.03 17:49:19.
