data_PCOD9241165
_publ_section_title
;
Structure prediction by ZEFSAII (Michael W. Deem and Ramdas Pophale) SiO2 
 PCOD9241165
Probable space group: P 21/C
;
_chemical_formula_sum "Si O2"
_cell_formula_units_Z 28
_cell_length_a 21.104482
_cell_length_b 11.347682
_cell_length_c 15.585689
_cell_angle_alpha 90.000000
_cell_angle_beta 157.721983
_cell_angle_gamma 90.000000
_cell_volume 1415.021254
_symmetry_space_group_name_H-M "P 21/C"
_symmetry_group_IT_number 14
_symmetry_cell_setting 'monoclinic'
loop_
_space_group_symop_operation_xyz
x,y,z
-x,1/2+y,1/2-z
-x,-y,-z
x,1/2-y,1/2+z
loop_
_atom_site_type_symbol
_atom_site_label
_atom_site_fract_x
_atom_site_fract_y
_atom_site_fract_z
Si Si1 0.298511 0.398813 0.223628
Si Si2 0.999076 0.745981 0.722923
Si Si3 0.658636 0.162060 0.168326
Si Si4 0.691514 0.708705 0.127276
Si Si5 0.956530 0.300421 0.523945
Si Si6 0.799793 0.533149 0.400798
Si Si7 0.652975 0.335831 0.324866
O O1 0.288814 0.538018 0.223663
O O2 0.474676 0.362596 0.399744
O O3 0.311754 0.337777 0.334040
O O4 0.138821 0.341180 0.979123
O O5 0.004095 0.748389 0.832220
O O6 0.938994 0.620712 0.612918
O O7 0.183981 0.784140 0.924300
O O8 0.639119 0.257437 0.220182
O O9 0.809130 0.217414 0.301652
O O10 0.872527 0.694674 0.312888
O O11 0.685065 0.614146 0.197109
O O12 0.531096 0.680981 0.867421
O O13 0.884108 0.430511 0.450229
O O14 0.700400 0.466435 0.351927
#
# Coordination Sequence:
#
# PCOD9241165 Si02
#       7
#     4   4   4   4   4   4   4
#     4   9  17  33  57  73  99 136 178 203 245 311
#     4   9  19  32  53  75  99 135 177 203 250 306
#     4   8  17  32  53  77  95 138 172 203 244 312
#     4  10  19  35  50  81 105 130 169 214 264 296
#     4  10  21  32  54  77 107 131 165 225 259 292
#     4   9  18  35  56  72  94 145 174 207 242 318
#     4   9  19  31  55  76 103 133 170 211 249 306
#
# _framework density 19.787689
#
# number of rings (size 3 to 8) (size 9 to 14) (size 15 to 20)
#    0.000    3.143    0.000    0.857    8.000    1.714 
#    0.000    4.286    0.000    0.000    0.000    0.000 
#    0.000    0.000    0.000    0.000    0.000    0.000 
#
# Total GULP energy -155924.938031 kJ/mol
# GULP energy per Si atom -5568.747787 kJ/mol
# Density = 1.974265 g / cm^3
# Si number density = 19.787689 Si / 1000 Ang^3
#
#
#
# Elastic Constant Matrix: (Units=GPa)
#
#
# Indices 1 2 3 4 5 6 
#
# 1 16.0711 13.8295 13.9094 0.0000 12.9973 0.0000
# 2 13.8295 118.3584 49.2690 0.0000 12.0918 0.0000
# 3 13.9094 49.2690 134.4354 0.0000 24.0612 0.0000
# 4 0.0000 0.0000 0.0000 20.7460 0.0000 -3.6990
# 5 12.9973 12.0918 24.0612 0.0000 29.1261 0.0000
# 6 0.0000 0.0000 0.0000 -3.6990 0.0000 8.0018
#
#
#
# Elastic Compliance Matrix: (Units=1/GPa)
#
#
# Indices 1 2 3 4 5 6 
#
# 1 0.103702 -0.007628 -0.000256 0.000000 -0.042898 0.000000
# 2 -0.007628 0.010574 -0.003414 0.000000 0.001835 0.000000
# 3 -0.000256 -0.003414 0.009907 0.000000 -0.006652 0.000000
# 4 0.000000 0.000000 0.000000 0.052532 0.000000 0.024284
# 5 -0.042898 0.001835 -0.006652 0.000000 0.058210 0.000000
# 6 0.000000 0.000000 0.000000 0.024284 0.000000 0.136197
#
#
# Mechanical properties :
#
#
# Convention : Reuss Voigt Hill
#
# Bulk Modulus (GPa) = 9.84383 46.98673 28.41528
# Shear Modulus (GPa) = 11.69366 24.36524 18.02945
#
# Velocity S-wave (km/s) = 2.43360 3.51284 3.02179
# Velocity P-wave (km/s) = 3.58916 6.34432 5.15424
#
# Compressibility (1/GPa) = 0.10158647
#
# Stress axis : x y z
#
# Youngs Moduli (GPa) = 9.64299 94.57111 100.93858
#
# Poissons Ratio (x) = 0.72136 0.02587
# Poissons Ratio (y) = 0.07355 0.34465
# Poissons Ratio (z) = 0.00247 0.32290
#
# Static dielectric constant tensor:
#      x y z
#    x 1.737100 0.000000 0.045080 
#    y 0.000000 1.680350 0.000000 
#    z 0.045080 0.000000 1.794990 
# 
# From -- ./inp_files/61941.got.cif
#   From: 2010.05.17/outbox.cif.g08.bks.cpg/sg14_31_cif.got.tgz:61941.got - 2010.06.03 17:49:19.
