data_PCOD9241088
_publ_section_title
;
Structure prediction by ZEFSAII (Michael W. Deem and Ramdas Pophale) SiO2 
 PCOD9241088
Probable space group: P 21/C
;
_chemical_formula_sum "Si O2"
_cell_formula_units_Z 24
_cell_length_a 12.088028
_cell_length_b 6.939702
_cell_length_c 21.290130
_cell_angle_alpha 90.000000
_cell_angle_beta 34.693030
_cell_angle_gamma 90.000000
_cell_volume 1016.538535
_symmetry_space_group_name_H-M "P 21/C"
_symmetry_group_IT_number 14
_symmetry_cell_setting 'monoclinic'
loop_
_space_group_symop_operation_xyz
x,y,z
-x,1/2+y,1/2-z
-x,-y,-z
x,1/2-y,1/2+z
loop_
_atom_site_type_symbol
_atom_site_label
_atom_site_fract_x
_atom_site_fract_y
_atom_site_fract_z
Si Si1 0.648437 0.836742 0.253967
Si Si2 0.028493 0.182417 0.811812
Si Si3 0.271267 0.176613 0.572998
Si Si4 0.003889 0.578731 0.893852
Si Si5 0.725364 0.486508 0.134728
Si Si6 0.587967 0.259723 0.515225
O O1 0.829768 0.928275 0.206102
O O2 0.733828 0.695068 0.162128
O O3 0.529124 0.721499 0.364758
O O4 0.488952 0.957318 0.291404
O O5 0.123346 0.154095 0.699975
O O6 0.053549 0.407378 0.821680
O O7 0.799144 0.143340 0.917127
O O8 0.449838 0.295808 0.519292
O O9 0.363657 0.969940 0.511548
O O10 0.135041 0.227491 0.577567
O O11 0.189855 0.643839 0.847815
O O12 0.867063 0.475902 0.009519
#
# Coordination Sequence:
#
# PCOD9241088 Si02
#       6
#     4   4   4   4   4   4
#     4  10  19  34  58  81 108 153 187 225 281 329
#     4   9  17  31  57  79 106 144 183 229 283 319
#     4   9  16  30  56  78  98 144 187 212 277 334
#     4   9  18  35  55  77 112 151 180 229 284 322
#     4  10  19  35  59  79 113 151 187 223 279 330
#     4   9  17  33  54  76 108 141 178 234 272 322
#
# _framework density 23.609532999999999
#
# number of rings (size 3 to 8) (size 9 to 14) (size 15 to 20)
#    0.000    2.667    3.333    0.000    0.000    0.000 
#    3.000    0.833    7.333    9.000    0.000    0.000 
#    0.000    0.000    0.000    0.000    0.000    0.000 
#
# Total GULP energy -133780.994558 kJ/mol
# GULP energy per Si atom -5574.208107 kJ/mol
# Density = 2.355580 g / cm^3
# Si number density = 23.609533 Si / 1000 Ang^3
#
#
#
# Elastic Constant Matrix: (Units=GPa)
#
#
# Indices 1 2 3 4 5 6 
#
# 1 281.4138 5.1138 56.8841 0.0000 -62.0847 0.0000
# 2 5.1138 49.9379 -4.1036 0.0000 18.6215 0.0000
# 3 56.8841 -4.1036 123.6672 0.0000 -49.7191 0.0000
# 4 0.0000 0.0000 0.0000 20.6521 0.0000 -8.3252
# 5 -62.0847 18.6215 -49.7191 0.0000 84.3763 0.0000
# 6 0.0000 0.0000 0.0000 -8.3252 0.0000 26.3308
#
#
#
# Elastic Compliance Matrix: (Units=1/GPa)
#
#
# Indices 1 2 3 4 5 6 
#
# 1 0.004450 -0.001702 -0.000833 0.000000 0.003159 0.000000
# 2 -0.001702 0.022712 -0.001287 0.000000 -0.007023 0.000000
# 3 -0.000833 -0.001287 0.010870 0.000000 0.006076 0.000000
# 4 0.000000 0.000000 0.000000 0.055494 0.000000 0.017546
# 5 0.003159 -0.007023 0.006076 0.000000 0.019306 0.000000
# 6 0.000000 0.000000 0.000000 0.017546 0.000000 0.043526
#
#
# Mechanical properties :
#
#
# Convention : Reuss Voigt Hill
#
# Bulk Modulus (GPa) = 32.90909 63.42304 48.16607
# Shear Modulus (GPa) = 28.71386 52.74680 40.73033
#
# Velocity S-wave (km/s) = 3.49119 4.73179 4.15802
# Velocity P-wave (km/s) = 5.49730 7.53490 6.59527
#
# Compressibility (1/GPa) = 0.03038674
#
# Stress axis : x y z
#
# Youngs Moduli (GPa) = 224.73276 44.02893 92.00024
#
# Poissons Ratio (x) = 0.07494 0.07667
# Poissons Ratio (y) = 0.38250 0.11841
# Poissons Ratio (z) = 0.18727 0.05667
#
# Static dielectric constant tensor:
#      x y z
#    x 2.019230 0.000000 -0.080130 
#    y 0.000000 1.946400 0.000000 
#    z -0.080130 0.000000 1.825730 
# 
# From -- ./inp_files/28710.got.cif
#   From: 2010.05.17/outbox.cif.g08.bks.cpg/sg14_15_cif.got.tgz:28710.got - 2010.06.03 17:49:19.
