data_PCOD9241179
_publ_section_title
;
Structure prediction by ZEFSAII (Michael W. Deem and Ramdas Pophale) SiO2 
 PCOD9241179
Probable space group: P 21/C
;
_chemical_formula_sum "Si O2"
_cell_formula_units_Z 32
_cell_length_a 11.768180
_cell_length_b 9.284306
_cell_length_c 21.258161
_cell_angle_alpha 90.000000
_cell_angle_beta 34.946568
_cell_angle_gamma 90.000000
_cell_volume 1330.444481
_symmetry_space_group_name_H-M "P 21/C"
_symmetry_group_IT_number 14
_symmetry_cell_setting 'monoclinic'
loop_
_space_group_symop_operation_xyz
x,y,z
-x,1/2+y,1/2-z
-x,-y,-z
x,1/2-y,1/2+z
loop_
_atom_site_type_symbol
_atom_site_label
_atom_site_fract_x
_atom_site_fract_y
_atom_site_fract_z
Si Si1 0.494082 0.869323 0.952636
Si Si2 0.062819 0.152115 0.389350
Si Si3 0.518010 0.272056 0.679071
Si Si4 0.970563 0.753811 0.335884
Si Si5 0.052966 0.426459 0.764897
Si Si6 0.489395 0.359434 0.961588
Si Si7 0.537830 0.926529 0.667199
Si Si8 0.997761 0.671336 0.954245
O O1 0.413301 0.853598 0.917282
O O2 0.728939 0.857937 0.832799
O O3 0.405203 0.750794 0.039291
O O4 0.500000 0.000000 0.000000
O O5 0.275979 0.223150 0.287532
O O6 0.953573 0.138859 0.372557
O O7 0.948161 0.219671 0.500323
O O8 0.095029 0.982918 0.393358
O O9 0.561922 0.355980 0.725230
O O10 0.556759 0.100022 0.662243
O O11 0.025551 0.622432 0.266340
O O12 0.735585 0.795049 0.441920
O O13 0.031121 0.727842 0.380122
O O14 0.062497 0.903154 0.269296
O O15 0.500000 0.500000 0.000000
O O16 0.550473 0.385863 0.861624
O O17 0.762064 0.862527 0.563705
#
# Coordination Sequence:
#
# PCOD9241179 Si02
#       8
#     4   4   4   4   4   4   4   4
#     4  10  21  35  53  77 106 140 174 214 263 311
#     4   8  15  31  55  69  93 130 170 206 244 298
#     4  10  20  34  53  77 105 134 173 217 261 306
#     4   9  18  31  52  75  99 129 169 211 251 303
#     4   9  18  33  51  76 100 128 170 211 256 303
#     4  10  19  35  54  75 104 140 174 210 261 311
#     4  10  20  33  54  79 105 137 174 216 256 311
#     4   8  15  31  54  74  94 133 175 203 247 311
#
# _framework density 24.052111
#
# number of rings (size 3 to 8) (size 9 to 14) (size 15 to 20)
#    0.000    2.750    1.250    0.000    1.750    1.000 
#    2.250    0.000    2.750    1.500    0.000    0.000 
#    0.000    0.000    0.000    0.000    0.000    0.000 
#
# Total GULP energy -178224.584527 kJ/mol
# GULP energy per Si atom -5569.518266 kJ/mol
# Density = 2.399737 g / cm^3
# Si number density = 24.052111 Si / 1000 Ang^3
#
#
#
# Elastic Constant Matrix: (Units=GPa)
#
#
# Indices 1 2 3 4 5 6 
#
# 1 99.9754 20.9587 63.7073 0.0000 51.9257 0.0000
# 2 20.9587 61.5545 52.6251 0.0000 47.0344 0.0000
# 3 63.7073 52.6251 139.4509 0.0000 61.1086 0.0000
# 4 0.0000 0.0000 0.0000 30.9148 0.0000 5.4931
# 5 51.9257 47.0344 61.1086 0.0000 75.1922 0.0000
# 6 0.0000 0.0000 0.0000 5.4931 0.0000 19.7800
#
#
#
# Elastic Compliance Matrix: (Units=1/GPa)
#
#
# Indices 1 2 3 4 5 6 
#
# 1 0.019436 0.009757 -0.006221 0.000000 -0.014470 0.000000
# 2 0.009757 0.038428 -0.008500 0.000000 -0.023867 0.000000
# 3 -0.006221 -0.008500 0.013991 0.000000 -0.001757 0.000000
# 4 0.000000 0.000000 0.000000 0.034026 0.000000 -0.009449
# 5 -0.014470 -0.023867 -0.001757 0.000000 0.039650 0.000000
# 6 0.000000 0.000000 0.000000 -0.009449 0.000000 0.053180
#
#
# Mechanical properties :
#
#
# Convention : Reuss Voigt Hill
#
# Bulk Modulus (GPa) = 16.14793 63.95145 40.04969
# Shear Modulus (GPa) = 21.80728 36.09006 28.94867
#
# Velocity S-wave (km/s) = 3.01436 3.87782 3.47303
# Velocity P-wave (km/s) = 4.34090 6.83348 5.72450
#
# Compressibility (1/GPa) = 0.06192744
#
# Stress axis : x y z
#
# Youngs Moduli (GPa) = 51.44973 26.02266 71.47625
#
# Poissons Ratio (x) = -0.25390 0.44462
# Poissons Ratio (y) = -0.50199 0.60757
# Poissons Ratio (z) = 0.32005 0.22120
#
# Static dielectric constant tensor:
#      x y z
#    x 2.041590 0.000000 0.049490 
#    y 0.000000 2.062530 0.000000 
#    z 0.049490 0.000000 2.037060 
# 
# From -- ./inp_files/68081.got.cif
#   From: 2010.05.17/outbox.cif.g08.bks.cpg/sg14_35_cif.got.tgz:68081.got - 2010.06.03 17:49:19.
