data_PCOD9241291
_publ_section_title
;
Structure prediction by ZEFSAII (Michael W. Deem and Ramdas Pophale) SiO2 
 PCOD9241291
Probable space group: P 21/C
;
_chemical_formula_sum "Si O2"
_cell_formula_units_Z 28
_cell_length_a 14.778453
_cell_length_b 13.659703
_cell_length_c 17.454171
_cell_angle_alpha 90.000000
_cell_angle_beta 21.898305
_cell_angle_gamma 90.000000
_cell_volume 1314.111158
_symmetry_space_group_name_H-M "P 21/C"
_symmetry_group_IT_number 14
_symmetry_cell_setting 'monoclinic'
loop_
_space_group_symop_operation_xyz
x,y,z
-x,1/2+y,1/2-z
-x,-y,-z
x,1/2-y,1/2+z
loop_
_atom_site_type_symbol
_atom_site_label
_atom_site_fract_x
_atom_site_fract_y
_atom_site_fract_z
Si Si1 0.060844 0.587943 0.620548
Si Si2 0.465533 0.472817 0.938789
Si Si3 0.131620 0.689819 0.409569
Si Si4 0.411312 0.566772 0.475035
Si Si5 0.113203 0.044092 0.333365
Si Si6 0.631738 0.126258 0.720622
Si Si7 0.274609 0.111831 0.877860
O O1 0.037762 0.664032 0.568913
O O2 0.264735 0.618573 0.522286
O O3 0.140684 0.482951 0.520902
O O4 0.803328 0.568163 0.862151
O O5 0.664237 0.390993 0.765338
O O6 0.536303 0.564613 0.830631
O O7 0.500000 0.500000 0.000000
O O8 0.263640 0.793360 0.304559
O O9 0.919653 0.675723 0.514826
O O10 0.656740 0.609965 0.320058
O O11 0.227744 0.534721 0.686086
O O12 0.509146 0.465296 0.359989
O O13 0.875912 0.093422 0.483722
O O14 0.000000 0.000000 0.500000
O O15 0.428070 0.165141 0.822883
#
# Coordination Sequence:
#
# PCOD9241291 Si02
#       7
#     4   4   4   4   4   4   4
#     4  10  19  35  59  84 108 142 193 241 276 337
#     4  11  18  35  62  81 105 149 196 236 281 333
#     4  11  22  35  55  86 117 144 189 238 288 340
#     4   9  19  36  60  85 109 150 199 226 278 350
#     4   9  18  37  59  79 109 152 190 226 273 336
#     4  10  22  36  55  82 122 150 179 237 293 338
#     4  10  20  37  56  81 110 150 190 231 282 343
#
# _framework density 21.307178
#
# number of rings (size 3 to 8) (size 9 to 14) (size 15 to 20)
#    0.000    2.000    2.857    1.714    0.000    3.429 
#    0.000    4.286    3.143    0.000    0.000    0.000 
#    0.000    0.000    0.000    0.000    0.000    0.000 
#
# Total GULP energy -156203.354263 kJ/mol
# GULP energy per Si atom -5578.691224 kJ/mol
# Density = 2.125868 g / cm^3
# Si number density = 21.307178 Si / 1000 Ang^3
#
#
#
# Elastic Constant Matrix: (Units=GPa)
#
#
# Indices 1 2 3 4 5 6 
#
# 1 101.9326 3.6609 39.1360 0.0000 -33.1261 0.0000
# 2 3.6609 30.2846 8.0012 0.0000 -8.6643 0.0000
# 3 39.1360 8.0012 105.5083 0.0000 -8.5265 0.0000
# 4 0.0000 0.0000 0.0000 12.4296 0.0000 -7.2263
# 5 -33.1261 -8.6643 -8.5265 0.0000 37.8047 0.0000
# 6 0.0000 0.0000 0.0000 -7.2263 0.0000 13.3740
#
#
#
# Elastic Compliance Matrix: (Units=1/GPa)
#
#
# Indices 1 2 3 4 5 6 
#
# 1 0.016121 0.003334 -0.005123 0.000000 0.013735 0.000000
# 2 0.003334 0.036473 -0.003148 0.000000 0.010571 0.000000
# 3 -0.005123 -0.003148 0.011404 0.000000 -0.002638 0.000000
# 4 0.000000 0.000000 0.000000 0.117302 0.000000 0.063382
# 5 0.013735 0.010571 -0.002638 0.000000 0.040314 0.000000
# 6 0.000000 0.000000 0.000000 0.063382 0.000000 0.109019
#
#
# Mechanical properties :
#
#
# Convention : Reuss Voigt Hill
#
# Bulk Modulus (GPa) = 18.47619 37.70240 28.08929
# Shear Modulus (GPa) = 13.94513 25.18349 19.56431
#
# Velocity S-wave (km/s) = 2.56106 3.44164 3.03347
# Velocity P-wave (km/s) = 4.17559 5.79019 5.04786
#
# Compressibility (1/GPa) = 0.05412373
#
# Stress axis : x y z
#
# Youngs Moduli (GPa) = 62.03121 27.41755 87.69161
#
# Poissons Ratio (x) = -0.09141 0.44921
# Poissons Ratio (y) = -0.20682 0.27609
# Poissons Ratio (z) = 0.31776 0.08632
#
# Static dielectric constant tensor:
#      x y z
#    x 1.826480 0.000000 -0.012160 
#    y 0.000000 1.824080 0.000000 
#    z -0.012160 0.000000 1.797520 
# 
# From -- ./inp_files/59677.got.cif
#   From: 2010.05.17/outbox.cif.g08.bks.cpg/sg14_30_cif.got.tgz:59677.got - 2010.06.03 17:49:19.
