data_PCOD9241548
_publ_section_title
;
Structure prediction by ZEFSAII (Michael W. Deem and Ramdas Pophale) SiO2 
 PCOD9241548
Probable space group: P 21/C
;
_chemical_formula_sum "Si O2"
_cell_formula_units_Z 32
_cell_length_a 11.962998
_cell_length_b 9.041787
_cell_length_c 28.069348
_cell_angle_alpha 90.000000
_cell_angle_beta 29.809645
_cell_angle_gamma 90.000000
_cell_volume 1509.342809
_symmetry_space_group_name_H-M "P 21/C"
_symmetry_group_IT_number 14
_symmetry_cell_setting 'monoclinic'
loop_
_space_group_symop_operation_xyz
x,y,z
-x,1/2+y,1/2-z
-x,-y,-z
x,1/2-y,1/2+z
loop_
_atom_site_type_symbol
_atom_site_label
_atom_site_fract_x
_atom_site_fract_y
_atom_site_fract_z
Si Si1 0.007059 0.498319 0.416354
Si Si2 0.617405 0.484977 0.257176
Si Si3 0.819886 0.981727 0.780327
Si Si4 0.672983 0.349961 0.767708
Si Si5 0.820104 0.167980 0.066039
Si Si6 0.412732 0.092532 0.987497
Si Si7 0.895740 0.752181 0.333043
Si Si8 0.266200 0.506503 0.893835
O O1 0.970384 0.358529 0.463839
O O2 0.790325 0.510444 0.463655
O O3 0.225409 0.520037 0.303461
O O4 0.023762 0.639431 0.445914
O O5 0.767626 0.550179 0.244614
O O6 0.644759 0.307594 0.251602
O O7 0.365733 0.538600 0.361625
O O8 0.683404 0.533266 0.179816
O O9 0.043671 0.079731 0.700699
O O10 0.618718 0.088768 0.874556
O O11 0.829001 0.840227 0.810972
O O12 0.873657 0.320860 0.731008
O O13 0.422121 0.407697 0.870616
O O14 0.688675 0.320020 0.115150
O O15 0.294467 0.233985 0.055720
O O16 0.500000 0.000000 0.000000
O O17 0.000000 0.500000 0.000000
#
# Coordination Sequence:
#
# PCOD9241548 Si02
#       8
#     4   4   4   4   4   4   4   4
#     4  10  19  36  61  85 110 155 202 239 290 354
#     4  11  21  41  64  86 115 166 202 242 299 366
#     4  10  20  39  64  87 119 155 202 247 299 356
#     4  10  22  40  61  86 122 156 202 244 301 355
#     4  11  23  35  62  86 117 159 202 242 296 360
#     4   9  18  36  60  87 114 153 203 240 287 355
#     4   9  21  38  62  90 115 159 194 252 297 352
#     4  12  26  39  55  91 130 155 197 253 302 354
#
# _framework density 21.201280000000001
#
# number of rings (size 3 to 8) (size 9 to 14) (size 15 to 20)
#    0.000    1.750    3.750    0.000    3.500    2.000 
#    0.000    3.125    0.000    0.000    0.000    0.000 
#    0.000    0.000    0.000    0.000    0.000    0.000 
#
# Total GULP energy -178404.262702 kJ/mol
# GULP energy per Si atom -5575.133209 kJ/mol
# Density = 2.115302 g / cm^3
# Si number density = 21.201280 Si / 1000 Ang^3
#
#
#
# Elastic Constant Matrix: (Units=GPa)
#
#
# Indices 1 2 3 4 5 6 
#
# 1 71.9498 13.2339 2.5328 0.0000 -6.0499 0.0000
# 2 13.2339 20.1238 -0.7534 0.0000 -4.4219 0.0000
# 3 2.5328 -0.7534 67.1961 0.0000 -7.9262 0.0000
# 4 0.0000 0.0000 0.0000 31.7240 0.0000 -4.7221
# 5 -6.0499 -4.4219 -7.9262 0.0000 26.5720 0.0000
# 6 0.0000 0.0000 0.0000 -4.7221 0.0000 18.6772
#
#
#
# Elastic Compliance Matrix: (Units=1/GPa)
#
#
# Indices 1 2 3 4 5 6 
#
# 1 0.015924 -0.010096 -0.000502 0.000000 0.001796 0.000000
# 2 -0.010096 0.058157 0.001972 0.000000 0.007967 0.000000
# 3 -0.000502 0.001972 0.015493 0.000000 0.004836 0.000000
# 4 0.000000 0.000000 0.000000 0.032755 0.000000 0.008281
# 5 0.001796 0.007967 0.004836 0.000000 0.040811 0.000000
# 6 0.000000 0.000000 0.000000 0.008281 0.000000 0.055635
#
#
# Mechanical properties :
#
#
# Convention : Reuss Voigt Hill
#
# Bulk Modulus (GPa) = 13.82686 21.03291 17.42988
# Shear Modulus (GPa) = 19.22094 25.01174 22.11634
#
# Velocity S-wave (km/s) = 3.01424 3.43844 3.23330
# Velocity P-wave (km/s) = 4.31857 5.07011 4.70935
#
# Compressibility (1/GPa) = 0.07232302
#
# Stress axis : x y z
#
# Youngs Moduli (GPa) = 62.79714 17.19496 64.54435
#
# Poissons Ratio (x) = 0.17361 0.03237
# Poissons Ratio (y) = 0.63402 -0.12731
# Poissons Ratio (z) = 0.03150 -0.03391
#
# Static dielectric constant tensor:
#      x y z
#    x 1.786960 0.000000 0.009470 
#    y 0.000000 1.710020 0.000000 
#    z 0.009470 0.000000 1.803010 
# 
# From -- ./inp_files/79940.got.cif
#   From: 2010.05.17/outbox.cif.g08.bks.cpg/sg14_40_cif.got.tgz:79940.got - 2010.06.03 17:49:19.
