data_PCOD9241923
_publ_section_title
;
Structure prediction by ZEFSAII (Michael W. Deem and Ramdas Pophale) SiO2 
 PCOD9241923
Probable space group: P 21/C
;
_chemical_formula_sum "Si O2"
_cell_formula_units_Z 32
_cell_length_a 26.805105
_cell_length_b 9.974956
_cell_length_c 20.802233
_cell_angle_alpha 90.000000
_cell_angle_beta 17.265217
_cell_angle_gamma 90.000000
_cell_volume 1650.803338
_symmetry_space_group_name_H-M "P 21/C"
_symmetry_group_IT_number 14
_symmetry_cell_setting 'monoclinic'
loop_
_space_group_symop_operation_xyz
x,y,z
-x,1/2+y,1/2-z
-x,-y,-z
x,1/2-y,1/2+z
loop_
_atom_site_type_symbol
_atom_site_label
_atom_site_fract_x
_atom_site_fract_y
_atom_site_fract_z
Si Si1 0.015009 0.103319 0.887941
Si Si2 0.363269 0.469956 0.895620
Si Si3 0.462547 0.956608 0.680024
Si Si4 0.694115 0.730164 0.618736
Si Si5 0.800050 0.630788 0.702985
Si Si6 0.767198 0.219850 0.501387
Si Si7 0.988259 0.133605 0.346811
Si Si8 0.073116 0.167442 0.552089
O O1 0.165885 0.051908 0.656480
O O2 0.098724 0.127753 0.854402
O O3 0.947724 0.241929 0.942609
O O4 0.874746 0.990205 0.068268
O O5 0.464506 0.464222 0.837060
O O6 0.405285 0.347000 0.796470
O O7 0.372257 0.616442 0.852733
O O8 0.607451 0.896512 0.456850
O O9 0.308779 0.853521 0.873682
O O10 0.413400 0.107478 0.721269
O O11 0.807632 0.799699 0.533572
O O12 0.821273 0.658497 0.411799
O O13 0.840740 0.765983 0.615222
O O14 0.873929 0.143926 0.424200
O O15 0.894635 0.263346 0.288289
O O16 0.959798 0.989911 0.412772
#
# Coordination Sequence:
#
# PCOD9241923 Si02
#       8
#     4   4   4   4   4   4   4   4
#     4   9  20  39  61  86 114 156 198 231 283 354
#     4  10  19  38  61  85 120 147 192 248 287 344
#     4  11  23  37  58  88 120 152 193 241 297 341
#     4  10  21  36  58  91 114 147 196 246 294 340
#     4  10  22  39  60  85 118 160 194 234 289 352
#     4  11  21  37  61  91 113 151 197 245 292 341
#     4  10  21  37  62  86 115 148 199 248 282 338
#     4  11  21  37  62  86 116 155 196 242 286 352
#
# _framework density 19.384502000000001
#
# number of rings (size 3 to 8) (size 9 to 14) (size 15 to 20)
#    0.000    1.750    3.750    0.750    1.750    1.000 
#    0.000    1.875    0.000    0.000    0.000    0.000 
#    0.000    0.000    0.000    0.000    0.000    0.000 
#
# Total GULP energy -178721.758618 kJ/mol
# GULP energy per Si atom -5585.054957 kJ/mol
# Density = 1.934038 g / cm^3
# Si number density = 19.384502 Si / 1000 Ang^3
#
#
#
# Elastic Constant Matrix: (Units=GPa)
#
#
# Indices 1 2 3 4 5 6 
#
# 1 14.0230 14.3385 -3.5194 0.0000 6.7095 0.0000
# 2 14.3385 91.4180 -13.8916 0.0000 0.5504 0.0000
# 3 -3.5194 -13.8916 27.2414 0.0000 1.3931 0.0000
# 4 0.0000 0.0000 0.0000 22.4238 0.0000 0.3457
# 5 6.7095 0.5504 1.3931 0.0000 18.5406 0.0000
# 6 0.0000 0.0000 0.0000 0.3457 0.0000 36.7657
#
#
#
# Elastic Compliance Matrix: (Units=1/GPa)
#
#
# Indices 1 2 3 4 5 6 
#
# 1 0.107897 -0.015463 0.008059 0.000000 -0.039192 0.000000
# 2 -0.015463 0.014086 0.004939 0.000000 0.004806 0.000000
# 3 0.008059 0.004939 0.040581 0.000000 -0.006112 0.000000
# 4 0.000000 0.000000 0.000000 0.044602 0.000000 -0.000419
# 5 -0.039192 0.004806 -0.006112 0.000000 0.068435 0.000000
# 6 0.000000 0.000000 0.000000 -0.000419 0.000000 0.027203
#
#
# Mechanical properties :
#
#
# Convention : Reuss Voigt Hill
#
# Bulk Modulus (GPa) = 6.34377 14.05971 10.20174
# Shear Modulus (GPa) = 13.87817 24.59633 19.23725
#
# Velocity S-wave (km/s) = 2.67861 3.56598 3.15366
# Velocity P-wave (km/s) = 3.58418 4.92176 4.30523
#
# Compressibility (1/GPa) = 0.15763496
#
# Stress axis : x y z
#
# Youngs Moduli (GPa) = 9.26812 70.99438 24.64185
#
# Poissons Ratio (x) = 1.09775 -0.19858
# Poissons Ratio (y) = 0.14331 -0.12172
# Poissons Ratio (z) = -0.07469 -0.35067
#
# Static dielectric constant tensor:
#      x y z
#    x 1.669950 0.000000 -0.004520 
#    y 0.000000 1.677620 0.000000 
#    z -0.004520 0.000000 1.666640 
# 
# From -- ./inp_files/69131.got.cif
#   From: 2010.05.17/outbox.cif.g08.bks.cpg/sg14_35_cif.got.tgz:69131.got - 2010.06.03 17:49:19.
