data_PCOD9241083
_publ_section_title
;
Structure prediction by ZEFSAII (Michael W. Deem and Ramdas Pophale) SiO2 
 PCOD9241083
Probable space group: P 21/C
;
_chemical_formula_sum "Si O2"
_cell_formula_units_Z 28
_cell_length_a 5.499324
_cell_length_b 23.182528
_cell_length_c 8.671013
_cell_angle_alpha 90.000000
_cell_angle_beta 83.535453
_cell_angle_gamma 90.000000
_cell_volume 1098.423340
_symmetry_space_group_name_H-M "P 21/C"
_symmetry_group_IT_number 14
_symmetry_cell_setting 'monoclinic'
loop_
_space_group_symop_operation_xyz
x,y,z
-x,1/2+y,1/2-z
-x,-y,-z
x,1/2-y,1/2+z
loop_
_atom_site_type_symbol
_atom_site_label
_atom_site_fract_x
_atom_site_fract_y
_atom_site_fract_z
Si Si1 0.408230 0.264608 0.055643
Si Si2 0.828474 0.058134 0.161342
Si Si3 0.967699 0.822472 0.974731
Si Si4 0.804320 0.623464 0.999909
Si Si5 0.693474 0.429620 0.036489
Si Si6 0.240488 0.742706 0.709735
Si Si7 0.692293 0.964533 0.763871
O O1 0.202995 0.307972 0.009766
O O2 0.514037 0.276008 0.216565
O O3 0.311420 0.199315 0.035404
O O4 0.641580 0.279700 0.935016
O O5 0.938691 0.113614 0.067066
O O6 0.751485 0.066864 0.349112
O O7 0.559367 0.040213 0.124820
O O8 0.067224 0.017827 0.157594
O O9 0.100592 0.783995 0.834878
O O10 0.068244 0.802733 0.134934
O O11 0.566384 0.601406 0.923607
O O12 0.062189 0.601151 0.920210
O O13 0.755716 0.596779 0.174231
O O14 0.676993 0.490627 0.123436
#
# Coordination Sequence:
#
# PCOD9241083 Si02
#       7
#     4   4   4   4   4   4   4
#     4  11  24  39  61  90 126 175 214 261 309 386
#     4  10  20  31  56  83 122 156 196 249 324 370
#     4  11  24  39  61  90 126 175 214 261 309 386
#     4  10  20  31  56  83 122 156 196 249 324 370
#     4  10  19  34  57  90 122 154 205 269 324 370
#     4  10  24  40  60  82 130 162 224 256 312 360
#     4  10  19  34  57  90 122 154 205 269 324 370
#
# _framework density 25.491081999999999
#
# number of rings (size 3 to 8) (size 9 to 14) (size 15 to 20)
#    0.000    1.714    0.000    6.857   16.000    0.000 
#    0.000    0.000    0.000    0.000    0.000   11.000 
#    0.000    0.000    0.000    0.000    0.000    0.000 
#
# Total GULP energy -156375.077741 kJ/mol
# GULP energy per Si atom -5584.824205 kJ/mol
# Density = 2.543306 g / cm^3
# Si number density = 25.491082 Si / 1000 Ang^3
#
#
#
# Elastic Constant Matrix: (Units=GPa)
#
#
# Indices 1 2 3 4 5 6 
#
# 1 183.8464 11.0402 15.5394 0.0000 1.1575 0.0000
# 2 11.0402 47.2992 13.4881 0.0000 8.3098 0.0000
# 3 15.5394 13.4881 71.8503 0.0000 12.5247 0.0000
# 4 0.0000 0.0000 0.0000 33.5377 0.0000 1.5684
# 5 1.1575 8.3098 12.5247 0.0000 36.3203 0.0000
# 6 0.0000 0.0000 0.0000 1.5684 0.0000 32.4831
#
#
#
# Elastic Compliance Matrix: (Units=1/GPa)
#
#
# Indices 1 2 3 4 5 6 
#
# 1 0.005593 -0.001074 -0.001085 0.000000 0.000442 0.000000
# 2 -0.001074 0.023075 -0.003389 0.000000 -0.004077 0.000000
# 3 -0.001085 -0.003389 0.015584 0.000000 -0.004564 0.000000
# 4 0.000000 0.000000 0.000000 0.029885 0.000000 -0.001443
# 5 0.000442 -0.004077 -0.004564 0.000000 0.030025 0.000000
# 6 0.000000 0.000000 0.000000 -0.001443 0.000000 0.030855
#
#
# Mechanical properties :
#
#
# Convention : Reuss Voigt Hill
#
# Bulk Modulus (GPa) = 30.15948 42.57017 36.36482
# Shear Modulus (GPa) = 31.81374 37.99674 34.90524
#
# Velocity S-wave (km/s) = 3.53659 3.86500 3.70444
# Velocity P-wave (km/s) = 5.34169 6.05425 5.70910
#
# Compressibility (1/GPa) = 0.03315708
#
# Stress axis : x y z
#
# Youngs Moduli (GPa) = 178.80388 43.33653 64.16714
#
# Poissons Ratio (x) = 0.04653 0.06962
# Poissons Ratio (y) = 0.19196 0.21746
# Poissons Ratio (z) = 0.19400 0.14687
#
# Static dielectric constant tensor:
#      x y z
#    x 2.151260 0.000000 0.077110 
#    y 0.000000 2.069670 0.000000 
#    z 0.077110 0.000000 2.062390 
# 
# From -- ./inp_files/6525.got.cif
#   From: 2010.05.17/outbox.cif.g08.bks.cpg/sg14_4_cif.got.tgz:6525.got - 2010.06.03 17:49:19.
