data_PCOD9241910
_publ_section_title
;
Structure prediction by ZEFSAII (Michael W. Deem and Ramdas Pophale) SiO2 
 PCOD9241910
Probable space group: P 21/C
;
_chemical_formula_sum "Si O2"
_cell_formula_units_Z 28
_cell_length_a 24.522915
_cell_length_b 11.792560
_cell_length_c 14.464703
_cell_angle_alpha 90.000000
_cell_angle_beta 19.466298
_cell_angle_gamma 90.000000
_cell_volume 1394.000412
_symmetry_space_group_name_H-M "P 21/C"
_symmetry_group_IT_number 14
_symmetry_cell_setting 'monoclinic'
loop_
_space_group_symop_operation_xyz
x,y,z
-x,1/2+y,1/2-z
-x,-y,-z
x,1/2-y,1/2+z
loop_
_atom_site_type_symbol
_atom_site_label
_atom_site_fract_x
_atom_site_fract_y
_atom_site_fract_z
Si Si1 0.623057 0.290809 0.415022
Si Si2 0.647464 0.737437 0.304564
Si Si3 0.649436 0.672643 0.004232
Si Si4 0.175550 0.044596 0.024170
Si Si5 0.732993 0.911883 0.922699
Si Si6 0.650360 0.054642 0.417521
Si Si7 0.814368 0.510143 0.087540
O O1 0.500611 0.249188 0.530032
O O2 0.504526 0.342472 0.682713
O O3 0.713823 0.183405 0.315739
O O4 0.738555 0.387270 0.191277
O O5 0.597131 0.773879 0.488803
O O6 0.714170 0.609550 0.197722
O O7 0.794134 0.822569 0.043957
O O8 0.755232 0.774682 0.879707
O O9 0.721310 0.548562 0.865873
O O10 0.005539 0.995338 0.259811
O O11 0.184433 0.033595 0.119886
O O12 0.319788 0.986216 0.735218
O O13 0.538901 0.932144 0.249902
O O14 0.791854 0.963795 0.732677
#
# Coordination Sequence:
#
# PCOD9241910 Si02
#       7
#     4   4   4   4   4   4   4
#     4  11  21  38  64  84 118 162 202 241 297 357
#     4  10  22  39  60  88 119 159 198 244 298 357
#     4   9  19  35  60  88 112 146 206 248 278 344
#     4  11  22  37  62  86 122 156 197 252 305 344
#     4  10  19  38  60  86 114 161 198 242 292 359
#     4  10  20  35  60  87 113 154 207 238 281 361
#     4  11  24  37  59  91 123 151 198 253 299 354
#
# _framework density 20.086075999999998
#
# number of rings (size 3 to 8) (size 9 to 14) (size 15 to 20)
#    0.000    1.714    4.286    1.286    4.000    0.000 
#    0.000    0.000    0.000    4.286    0.000    0.000 
#    0.000    0.000    0.000    0.000    0.000    0.000 
#
# Total GULP energy -156047.548252 kJ/mol
# GULP energy per Si atom -5573.126723 kJ/mol
# Density = 2.004036 g / cm^3
# Si number density = 20.086076 Si / 1000 Ang^3
#
#
#
# Elastic Constant Matrix: (Units=GPa)
#
#
# Indices 1 2 3 4 5 6 
#
# 1 34.6045 -3.2802 11.6683 0.0000 15.6028 0.0000
# 2 -3.2802 102.5797 13.7766 0.0000 -1.1326 0.0000
# 3 11.6683 13.7766 57.2651 0.0000 4.1314 0.0000
# 4 0.0000 0.0000 0.0000 18.1602 0.0000 1.0184
# 5 15.6028 -1.1326 4.1314 0.0000 20.2738 0.0000
# 6 0.0000 0.0000 0.0000 1.0184 0.0000 18.5502
#
#
#
# Elastic Compliance Matrix: (Units=1/GPa)
#
#
# Indices 1 2 3 4 5 6 
#
# 1 0.047363 0.002160 -0.007662 0.000000 -0.034769 0.000000
# 2 0.002160 0.010196 -0.002856 0.000000 -0.000510 0.000000
# 3 -0.007662 -0.002856 0.019585 0.000000 0.001746 0.000000
# 4 0.000000 0.000000 0.000000 0.055236 0.000000 -0.003032
# 5 -0.034769 -0.000510 0.001746 0.000000 0.075698 0.000000
# 6 0.000000 0.000000 0.000000 -0.003032 0.000000 0.054074
#
#
# Mechanical properties :
#
#
# Convention : Reuss Voigt Hill
#
# Bulk Modulus (GPa) = 16.54891 26.53099 21.53995
# Shear Modulus (GPa) = 16.72184 22.88248 19.80216
#
# Velocity S-wave (km/s) = 2.88845 3.37890 3.14325
# Velocity P-wave (km/s) = 4.40240 5.33478 4.89086
#
# Compressibility (1/GPa) = 0.06042693
#
# Stress axis : x y z
#
# Youngs Moduli (GPa) = 21.11359 98.08246 51.05965
#
# Poissons Ratio (x) = -0.21182 0.39121
# Poissons Ratio (y) = -0.04560 0.14583
# Poissons Ratio (z) = 0.16177 0.28012
#
# Static dielectric constant tensor:
#      x y z
#    x 1.709360 0.000000 0.016360 
#    y 0.000000 1.771390 0.000000 
#    z 0.016360 0.000000 1.685950 
# 
# From -- ./inp_files/51974.got.cif
#   From: 2010.05.17/outbox.cif.g08.bks.cpg/sg14_26_cif.got.tgz:51974.got - 2010.06.03 17:49:19.
