data_PCOD9241522
_publ_section_title
;
Structure prediction by ZEFSAII (Michael W. Deem and Ramdas Pophale) SiO2 
 PCOD9241522
Probable space group: P 21/C
;
_chemical_formula_sum "Si O2"
_cell_formula_units_Z 24
_cell_length_a 10.145705
_cell_length_b 18.952006
_cell_length_c 15.763757
_cell_angle_alpha 90.000000
_cell_angle_beta 23.922358
_cell_angle_gamma 90.000000
_cell_volume 1229.097126
_symmetry_space_group_name_H-M "P 21/C"
_symmetry_group_IT_number 14
_symmetry_cell_setting 'monoclinic'
loop_
_space_group_symop_operation_xyz
x,y,z
-x,1/2+y,1/2-z
-x,-y,-z
x,1/2-y,1/2+z
loop_
_atom_site_type_symbol
_atom_site_label
_atom_site_fract_x
_atom_site_fract_y
_atom_site_fract_z
Si Si1 0.528408 0.670710 0.638662
Si Si2 0.638540 0.078227 0.925973
Si Si3 0.638540 0.921773 0.425973
Si Si4 0.720877 0.794037 0.801358
Si Si5 0.279124 0.794037 0.698642
Si Si6 0.528407 0.329290 0.138662
O O1 0.323164 0.743052 0.752578
O O2 0.500000 0.641305 0.750000
O O3 0.401718 0.883599 0.141966
O O4 0.902165 0.693056 0.401194
O O5 1.000000 0.076908 0.750000
O O6 0.436204 0.128934 0.108090
O O7 0.500000 0.000000 0.000000
O O8 0.436205 0.871066 0.608090
O O9 0.598282 0.883599 0.358034
O O10 0.500000 0.000000 0.500000
O O11 0.676837 0.743052 0.747422
O O12 0.097835 0.806944 0.598806
O O13 0.500000 0.750000 1.000000
#
# Coordination Sequence:
#
# PCOD9241522 Si02
#       6
#     4   4   4   4   4   4
#     4  11  22  38  60  91 121 151 197 255 298 338
#     4  11  22  40  61  84 115 159 201 239 294 369
#     4  11  22  40  61  84 115 159 201 239 294 369
#     4  10  19  36  60  85 115 156 196 236 289 357
#     4  10  19  36  60  85 115 156 196 236 289 357
#     4  11  22  38  60  91 121 151 197 255 298 338
#
# _framework density 19.526527999999999
#
# number of rings (size 3 to 8) (size 9 to 14) (size 15 to 20)
#    0.000    1.333    0.000   11.000    0.000    0.000 
#    0.000    8.333    0.000    0.000    0.000    0.000 
#    0.000    0.000    0.000    0.000    0.000    0.000 
#
# Total GULP energy -133817.798165 kJ/mol
# GULP energy per Si atom -5575.741590 kJ/mol
# Density = 1.948209 g / cm^3
# Si number density = 19.526528 Si / 1000 Ang^3
#
#
#
# Elastic Constant Matrix: (Units=GPa)
#
#
# Indices 1 2 3 4 5 6 
#
# 1 152.0660 68.3410 68.0035 0.0000 -28.8753 0.0000
# 2 68.3410 177.6416 44.9501 0.0000 -26.4424 0.0000
# 3 68.0035 44.9501 124.8738 0.0000 -40.3210 0.0000
# 4 0.0000 0.0000 0.0000 21.9167 0.0000 -15.0242
# 5 -28.8753 -26.4424 -40.3210 0.0000 50.6504 0.0000
# 6 0.0000 0.0000 0.0000 -15.0242 0.0000 27.8223
#
#
#
# Elastic Compliance Matrix: (Units=1/GPa)
#
#
# Indices 1 2 3 4 5 6 
#
# 1 0.009732 -0.002572 -0.004060 0.000000 0.000974 0.000000
# 2 -0.002572 0.007022 -0.000561 0.000000 0.001753 0.000000
# 3 -0.004060 -0.000561 0.012893 0.000000 0.007656 0.000000
# 4 0.000000 0.000000 0.000000 0.072445 0.000000 0.039121
# 5 0.000974 0.001753 0.007656 0.000000 0.027309 0.000000
# 6 0.000000 0.000000 0.000000 0.039121 0.000000 0.057068
#
#
# Mechanical properties :
#
#
# Convention : Reuss Voigt Hill
#
# Bulk Modulus (GPa) = 65.52299 90.79673 78.15986
# Shear Modulus (GPa) = 24.27875 38.29700 31.28787
#
# Velocity S-wave (km/s) = 3.52997 4.43344 4.00725
# Velocity P-wave (km/s) = 7.08823 8.53272 7.84380
#
# Compressibility (1/GPa) = 0.01526182
#
# Stress axis : x y z
#
# Youngs Moduli (GPa) = 102.74941 142.41709 77.56080
#
# Poissons Ratio (x) = 0.36629 0.31488
# Poissons Ratio (y) = 0.26427 0.04350
# Poissons Ratio (z) = 0.41714 0.07988
#
# Static dielectric constant tensor:
#      x y z
#    x 1.778730 0.000000 0.017840 
#    y 0.000000 1.673680 0.000000 
#    z 0.017840 0.000000 1.672220 
# 
# From -- ./inp_files/58139.got.cif
#   From: 2010.05.17/outbox.cif.g08.bks.cpg/sg14_30_cif.got.tgz:58139.got - 2010.06.03 17:49:19.
