data_PCOD9241689
_publ_section_title
;
Structure prediction by ZEFSAII (Michael W. Deem and Ramdas Pophale) SiO2 
 PCOD9241689
Probable space group: P 21/C
;
_chemical_formula_sum "Si O2"
_cell_formula_units_Z 32
_cell_length_a 18.060533
_cell_length_b 11.810715
_cell_length_c 11.602479
_cell_angle_alpha 90.000000
_cell_angle_beta 150.467724
_cell_angle_gamma 90.000000
_cell_volume 1219.911982
_symmetry_space_group_name_H-M "P 21/C"
_symmetry_group_IT_number 14
_symmetry_cell_setting 'monoclinic'
loop_
_space_group_symop_operation_xyz
x,y,z
-x,1/2+y,1/2-z
-x,-y,-z
x,1/2-y,1/2+z
loop_
_atom_site_type_symbol
_atom_site_label
_atom_site_fract_x
_atom_site_fract_y
_atom_site_fract_z
Si Si1 0.552730 0.123713 0.532222
Si Si2 0.095462 0.437477 0.229134
Si Si3 0.150973 0.716873 0.845210
Si Si4 0.349659 0.204706 0.844220
Si Si5 0.587818 0.065300 0.318656
Si Si6 0.362047 0.601701 0.596726
Si Si7 0.879283 0.682576 0.319650
Si Si8 0.068119 0.405252 0.842524
O O1 0.435216 0.226423 0.361148
O O2 0.613811 0.100690 0.487702
O O3 0.627571 0.151507 0.758087
O O4 0.500000 0.000000 0.500000
O O5 0.261359 0.488762 0.463461
O O6 0.102736 0.306439 0.214132
O O7 0.011399 0.479392 0.228668
O O8 0.000000 0.500000 0.000000
O O9 0.021520 0.664094 0.591639
O O10 0.055140 0.804824 0.796959
O O11 0.262501 0.617223 0.038784
O O12 0.251164 0.802134 0.898461
O O13 0.214426 0.126793 0.615790
O O14 0.270154 0.305173 0.808588
O O15 0.459731 0.132743 0.073429
O O16 0.511781 0.939562 0.232677
O O17 0.879338 0.596647 0.216508
#
# Coordination Sequence:
#
# PCOD9241689 Si02
#       8
#     4   4   4   4   4   4   4   4
#     4  10  23  37  59  92 122 161 205 253 316 379
#     4  11  18  38  63  89 117 167 215 254 316 380
#     4  10  22  37  61  90 124 163 206 257 323 381
#     4  11  20  38  62  91 120 161 217 258 310 379
#     4  11  21  36  64  89 122 163 205 262 310 375
#     4  10  19  37  58  88 120 157 210 253 304 387
#     4  11  22  39  64  92 127 164 212 269 318 376
#     4  10  23  38  62  94 125 165 215 265 318 380
#
# _framework density 26.231401000000002
#
# number of rings (size 3 to 8) (size 9 to 14) (size 15 to 20)
#    0.000    1.500    6.250    0.750    5.250    0.000 
#    0.000    2.500    0.000    9.000    0.000    0.000 
#    0.000    0.000    0.000    0.000    0.000    0.000 
#
# Total GULP energy -178707.021423 kJ/mol
# GULP energy per Si atom -5584.594419 kJ/mol
# Density = 2.617170 g / cm^3
# Si number density = 26.231401 Si / 1000 Ang^3
#
#
#
# Elastic Constant Matrix: (Units=GPa)
#
#
# Indices 1 2 3 4 5 6 
#
# 1 55.6802 16.2371 0.0921 0.0000 4.0049 0.0000
# 2 16.2371 98.4365 32.1372 0.0000 2.1584 0.0000
# 3 0.0921 32.1372 95.8681 0.0000 27.8582 0.0000
# 4 0.0000 0.0000 0.0000 39.3078 0.0000 5.9429
# 5 4.0049 2.1584 27.8582 0.0000 24.6792 0.0000
# 6 0.0000 0.0000 0.0000 5.9429 0.0000 46.1287
#
#
#
# Elastic Compliance Matrix: (Units=1/GPa)
#
#
# Indices 1 2 3 4 5 6 
#
# 1 0.019637 -0.004164 0.003270 0.000000 -0.006513 0.000000
# 2 -0.004164 0.012710 -0.006146 0.000000 0.006502 0.000000
# 3 0.003270 -0.006146 0.018581 0.000000 -0.020968 0.000000
# 4 0.000000 0.000000 0.000000 0.025946 0.000000 -0.003343
# 5 -0.006513 0.006502 -0.020968 0.000000 0.064677 0.000000
# 6 0.000000 0.000000 0.000000 -0.003343 0.000000 0.022109
#
#
# Mechanical properties :
#
#
# Convention : Reuss Voigt Hill
#
# Bulk Modulus (GPa) = 27.13881 38.54640 32.84260
# Shear Modulus (GPa) = 26.31282 35.45770 30.88526
#
# Velocity S-wave (km/s) = 3.17062 3.68057 3.43507
# Velocity P-wave (km/s) = 4.87567 5.72615 5.31794
#
# Compressibility (1/GPa) = 0.03684760
#
# Stress axis : x y z
#
# Youngs Moduli (GPa) = 50.92431 78.68096 53.81834
#
# Poissons Ratio (x) = 0.32761 -0.17597
# Poissons Ratio (y) = 0.21204 0.33076
# Poissons Ratio (z) = -0.16650 0.48356
#
# Static dielectric constant tensor:
#      x y z
#    x 2.175430 0.000000 -0.026300 
#    y 0.000000 2.110560 0.000000 
#    z -0.026300 0.000000 2.194920 
# 
# From -- ./inp_files/34229.got.cif
#   From: 2010.05.17/outbox.cif.g08.bks.cpg/sg14_18_cif.got.tgz:34229.got - 2010.06.03 17:49:19.
