data_PCOD9241250
_publ_section_title
;
Structure prediction by ZEFSAII (Michael W. Deem and Ramdas Pophale) SiO2 
 PCOD9241250
Probable space group: P 21/C
;
_chemical_formula_sum "Si O2"
_cell_formula_units_Z 32
_cell_length_a 24.502375
_cell_length_b 12.910108
_cell_length_c 11.867755
_cell_angle_alpha 90.000000
_cell_angle_beta 19.891748
_cell_angle_gamma 90.000000
_cell_volume 1277.312790
_symmetry_space_group_name_H-M "P 21/C"
_symmetry_group_IT_number 14
_symmetry_cell_setting 'monoclinic'
loop_
_space_group_symop_operation_xyz
x,y,z
-x,1/2+y,1/2-z
-x,-y,-z
x,1/2-y,1/2+z
loop_
_atom_site_type_symbol
_atom_site_label
_atom_site_fract_x
_atom_site_fract_y
_atom_site_fract_z
Si Si1 0.738170 0.225489 0.635241
Si Si2 0.109593 0.947535 0.130927
Si Si3 0.557235 0.662305 0.127049
Si Si4 0.193981 0.373052 0.630946
Si Si5 0.889638 0.011467 0.365862
Si Si6 0.584938 0.542342 0.619197
Si Si7 0.240617 0.364055 0.059082
Si Si8 0.471471 0.841000 0.149079
O O1 0.787610 0.342996 0.560306
O O2 0.678512 0.207262 0.622867
O O3 0.872379 0.136180 0.392709
O O4 0.589804 0.199680 0.006508
O O5 0.952682 0.915716 0.508924
O O6 0.043672 0.973534 0.135188
O O7 0.187701 0.049457 0.036736
O O8 0.482892 0.565313 0.206902
O O9 0.712941 0.642127 0.900115
O O10 0.580783 0.752759 0.993182
O O11 0.354085 0.388727 0.396246
O O12 0.176211 0.249939 0.650161
O O13 0.737194 0.977969 0.741307
O O14 0.863151 0.951595 0.299792
O O15 0.449186 0.583187 0.796705
O O16 0.415883 0.388276 0.664843
#
# Coordination Sequence:
#
# PCOD9241250 Si02
#       8
#     4   4   4   4   4   4   4   4
#     4  10  21  38  58  84 114 148 196 229 283 349
#     4  10  22  38  59  82 113 158 193 232 278 333
#     4  10  19  35  59  85 114 148 179 237 290 336
#     4  10  20  38  60  84 113 152 195 233 278 339
#     4   9  20  36  58  80 108 152 190 233 273 334
#     4   9  17  34  58  82 109 145 190 222 284 341
#     4  10  20  36  60  86 112 146 191 231 287 338
#     4  10  19  35  57  86 114 145 179 235 289 336
#
# _framework density 25.052595
#
# number of rings (size 3 to 8) (size 9 to 14) (size 15 to 20)
#    0.000    2.250    1.250    1.500    1.750    4.000 
#    2.250    2.500    0.000    0.000    0.000    0.000 
#    0.000    0.000    0.000    0.000    0.000    0.000 
#
# Total GULP energy -178927.557975 kJ/mol
# GULP energy per Si atom -5591.486187 kJ/mol
# Density = 2.499557 g / cm^3
# Si number density = 25.052595 Si / 1000 Ang^3
#
#
#
# Elastic Constant Matrix: (Units=GPa)
#
#
# Indices 1 2 3 4 5 6 
#
# 1 109.1897 22.6569 37.7965 0.0000 -22.9334 0.0000
# 2 22.6569 121.5665 41.6487 0.0000 -13.4171 0.0000
# 3 37.7965 41.6487 52.2087 0.0000 -19.3069 0.0000
# 4 0.0000 0.0000 0.0000 38.9826 0.0000 -13.3017
# 5 -22.9334 -13.4171 -19.3069 0.0000 23.5716 0.0000
# 6 0.0000 0.0000 0.0000 -13.3017 0.0000 37.0556
#
#
#
# Elastic Compliance Matrix: (Units=1/GPa)
#
#
# Indices 1 2 3 4 5 6 
#
# 1 0.013076 0.000952 -0.007632 0.000000 0.007012 0.000000
# 2 0.000952 0.011420 -0.010117 0.000000 -0.000861 0.000000
# 3 -0.007632 -0.010117 0.039986 0.000000 0.019567 0.000000
# 4 0.000000 0.000000 0.000000 0.029233 0.000000 0.010494
# 5 0.007012 -0.000861 0.019567 0.000000 0.064783 0.000000
# 6 0.000000 0.000000 0.000000 0.010494 0.000000 0.030753
#
#
# Mechanical properties :
#
#
# Convention : Reuss Voigt Hill
#
# Bulk Modulus (GPa) = 32.37716 54.12990 43.25353
# Shear Modulus (GPa) = 21.44617 31.97948 26.71283
#
# Velocity S-wave (km/s) = 2.92900 3.57668 3.26892
# Velocity P-wave (km/s) = 4.93867 6.22176 5.61697
#
# Compressibility (1/GPa) = 0.03088597
#
# Stress axis : x y z
#
# Youngs Moduli (GPa) = 76.47868 87.56769 25.00866
#
# Poissons Ratio (x) = -0.08334 0.19087
# Poissons Ratio (y) = -0.07279 0.25302
# Poissons Ratio (z) = 0.58371 0.88594
#
# Static dielectric constant tensor:
#      x y z
#    x 1.950240 0.000000 0.034210 
#    y 0.000000 1.988960 0.000000 
#    z 0.034210 0.000000 2.036020 
# 
# From -- ./inp_files/44377.got.cif
#   From: 2010.05.17/outbox.cif.g08.bks.cpg/sg14_23_cif.got.tgz:44377.got - 2010.06.03 17:49:19.
