data_PCOD9241457
_publ_section_title
;
Structure prediction by ZEFSAII (Michael W. Deem and Ramdas Pophale) SiO2 
 PCOD9241457
Probable space group: P 21/C
;
_chemical_formula_sum "Si O2"
_cell_formula_units_Z 30
_cell_length_a 21.928833
_cell_length_b 5.133740
_cell_length_c 19.698992
_cell_angle_alpha 90.000000
_cell_angle_beta 147.514332
_cell_angle_gamma 90.000000
_cell_volume 1191.075657
_symmetry_space_group_name_H-M "P 21/C"
_symmetry_group_IT_number 14
_symmetry_cell_setting 'monoclinic'
loop_
_space_group_symop_operation_xyz
x,y,z
-x,1/2+y,1/2-z
-x,-y,-z
x,1/2-y,1/2+z
loop_
_atom_site_type_symbol
_atom_site_label
_atom_site_fract_x
_atom_site_fract_y
_atom_site_fract_z
Si Si1 0.500000 0.500000 0.000000
Si Si2 0.473217 0.982673 0.876206
Si Si3 0.565368 0.053197 0.828881
Si Si4 0.704778 0.411681 0.229959
Si Si5 0.273482 0.286667 0.618497
Si Si6 0.058197 0.755202 0.588911
Si Si7 0.133792 0.077036 0.366689
Si Si8 0.097140 0.915785 0.775886
O O1 0.497052 0.774311 0.049068
O O2 0.638546 0.576638 0.112310
O O3 0.363990 0.078394 0.730512
O O4 0.568964 0.949730 0.909275
O O5 0.420482 0.716175 0.861549
O O6 0.471772 0.853075 0.708243
O O7 0.669026 0.995920 0.877109
O O8 0.759183 0.565886 0.343526
O O9 0.806042 0.240061 0.298168
O O10 0.185268 0.148980 0.487374
O O11 0.048479 0.798910 0.660569
O O12 0.000000 0.500000 0.500000
O O13 0.000000 0.000000 0.500000
O O14 0.149243 0.297997 0.324337
O O15 0.000475 0.042910 0.258673
O O16 0.179198 0.804958 0.381799
#
# Coordination Sequence:
#
# PCOD9241457 Si02
#       8
#     2   4   4   4   4   4   4   4
#     4   8  20  40  60  92 134 188 224 284 348 426
#     4   9  21  39  61  95 135 178 232 281 353 419
#     4  10  19  36  57  89 125 157 216 279 327 399
#     4  10  23  42  65  96 138 183 234 281 358 424
#     4  11  22  37  69  96 128 183 232 289 354 426
#     4  12  27  45  73 103 141 185 237 295 347 437
#     4  10  23  40  67  89 131 167 222 285 349 410
#     4  10  23  43  60  97 128 170 220 283 350 407
#
# _framework density 25.187318000000001
#
# number of rings (size 3 to 8) (size 9 to 14) (size 15 to 20)
#    0.800    1.067    1.333    1.600    5.600    2.667 
#    0.000    2.667    0.000    0.000    0.000    0.000 
#    0.000    0.000    0.000    0.000    0.000    0.000 
#
# Total GULP energy -167067.331436 kJ/mol
# GULP energy per Si atom -5568.911048 kJ/mol
# Density = 2.512999 g / cm^3
# Si number density = 25.187318 Si / 1000 Ang^3
#
#
#
# Elastic Constant Matrix: (Units=GPa)
#
#
# Indices 1 2 3 4 5 6 
#
# 1 64.9388 26.7679 9.0318 0.0000 -1.8571 0.0000
# 2 26.7679 100.1152 20.2084 0.0000 -20.8922 0.0000
# 3 9.0318 20.2084 86.3877 0.0000 -15.6757 0.0000
# 4 0.0000 0.0000 0.0000 39.8119 0.0000 -9.3184
# 5 -1.8571 -20.8922 -15.6757 0.0000 35.7970 0.0000
# 6 0.0000 0.0000 0.0000 -9.3184 0.0000 27.8577
#
#
#
# Elastic Compliance Matrix: (Units=1/GPa)
#
#
# Indices 1 2 3 4 5 6 
#
# 1 0.017537 -0.004982 -0.001120 0.000000 -0.002488 0.000000
# 2 -0.004982 0.012992 -0.001292 0.000000 0.006758 0.000000
# 3 -0.001120 -0.001292 0.012870 0.000000 0.004824 0.000000
# 4 0.000000 0.000000 0.000000 0.027252 0.000000 0.009116
# 5 -0.002488 0.006758 0.004824 0.000000 0.033863 0.000000
# 6 0.000000 0.000000 0.000000 0.009116 0.000000 0.038946
#
#
# Mechanical properties :
#
#
# Convention : Reuss Voigt Hill
#
# Bulk Modulus (GPa) = 34.95042 40.38421 37.66731
# Shear Modulus (GPa) = 29.80014 33.72224 31.76119
#
# Velocity S-wave (km/s) = 3.44341 3.66301 3.55491
# Velocity P-wave (km/s) = 5.45122 5.82740 5.64244
#
# Compressibility (1/GPa) = 0.02861196
#
# Stress axis : x y z
#
# Youngs Moduli (GPa) = 57.02122 76.97244 77.69824
#
# Poissons Ratio (x) = 0.38349 0.08699
# Poissons Ratio (y) = 0.28409 0.10038
# Poissons Ratio (z) = 0.06384 0.09944
#
# Static dielectric constant tensor:
#      x y z
#    x 2.127880 0.000000 -0.003830 
#    y 0.000000 2.094740 0.000000 
#    z -0.003830 0.000000 2.156420 
# 
# From -- ./inp_files/70067.got.cif
#   From: 2010.05.17/outbox.cif.g08.bks.cpg/sg14_36_cif.got.tgz:70067.got - 2010.06.03 17:49:19.
