data_PCOD9241568
_publ_section_title
;
Structure prediction by ZEFSAII (Michael W. Deem and Ramdas Pophale) SiO2 
 PCOD9241568
Probable space group: P 21/C
;
_chemical_formula_sum "Si O2"
_cell_formula_units_Z 24
_cell_length_a 18.343408
_cell_length_b 6.870895
_cell_length_c 18.552078
_cell_angle_alpha 90.000000
_cell_angle_beta 23.459284
_cell_angle_gamma 90.000000
_cell_volume 930.840153
_symmetry_space_group_name_H-M "P 21/C"
_symmetry_group_IT_number 14
_symmetry_cell_setting 'monoclinic'
loop_
_space_group_symop_operation_xyz
x,y,z
-x,1/2+y,1/2-z
-x,-y,-z
x,1/2-y,1/2+z
loop_
_atom_site_type_symbol
_atom_site_label
_atom_site_fract_x
_atom_site_fract_y
_atom_site_fract_z
Si Si1 0.248196 0.642905 0.484937
Si Si2 0.064365 0.725817 0.013224
Si Si3 0.348232 0.086193 0.427292
Si Si4 0.342889 0.250494 0.095289
Si Si5 0.991150 0.844195 0.342725
Si Si6 0.702345 0.203782 0.841967
O O1 0.157898 0.640817 0.488349
O O2 0.456142 0.576022 0.289294
O O3 0.104125 0.565654 0.673546
O O4 0.269255 0.870001 0.489586
O O5 0.193884 0.703985 0.827995
O O6 0.050179 0.511468 0.061484
O O7 0.856063 0.793823 0.190174
O O8 0.363463 0.160490 0.496121
O O9 0.203687 0.217665 0.512983
O O10 0.344412 0.013809 0.087152
O O11 0.506482 0.296697 0.002471
O O12 0.143370 0.712704 0.244409
#
# Coordination Sequence:
#
# PCOD9241568 Si02
#       6
#     4   4   4   4   4   4
#     4  11  24  38  62  92 128 165 213 254 315 375
#     4  10  20  38  64  93 120 161 212 260 306 371
#     4  11  24  39  63  90 130 168 208 255 314 376
#     4  10  19  36  61  91 122 158 205 264 304 358
#     4  10  22  37  60  93 123 159 208 261 311 362
#     4  10  21  36  66  96 121 158 218 259 305 373
#
# _framework density 25.783158
#
# number of rings (size 3 to 8) (size 9 to 14) (size 15 to 20)
#    0.000    1.667    3.333    2.000    4.667    2.667 
#    0.000    0.833    0.000    5.000    0.000    0.000 
#    0.000    0.000    0.000    0.000    0.000    0.000 
#
# Total GULP energy -134250.271791 kJ/mol
# GULP energy per Si atom -5593.761325 kJ/mol
# Density = 2.572447 g / cm^3
# Si number density = 25.783158 Si / 1000 Ang^3
#
#
#
# Elastic Constant Matrix: (Units=GPa)
#
#
# Indices 1 2 3 4 5 6 
#
# 1 110.7525 -19.1183 61.1793 0.0000 -33.3184 0.0000
# 2 -19.1183 63.4127 11.8131 0.0000 -2.5412 0.0000
# 3 61.1793 11.8131 168.9976 0.0000 -31.6960 0.0000
# 4 0.0000 0.0000 0.0000 19.4040 0.0000 10.2503
# 5 -33.3184 -2.5412 -31.6960 0.0000 70.3712 0.0000
# 6 0.0000 0.0000 0.0000 10.2503 0.0000 23.3720
#
#
#
# Elastic Compliance Matrix: (Units=1/GPa)
#
#
# Indices 1 2 3 4 5 6 
#
# 1 0.013818 0.005190 -0.004481 0.000000 0.004711 0.000000
# 2 0.005190 0.017927 -0.002785 0.000000 0.001850 0.000000
# 3 -0.004481 -0.002785 0.007993 0.000000 0.001378 0.000000
# 4 0.000000 0.000000 0.000000 0.067076 0.000000 -0.029418
# 5 0.004711 0.001850 0.001378 0.000000 0.017128 0.000000
# 6 0.000000 0.000000 0.000000 -0.029418 0.000000 0.055688
#
#
# Mechanical properties :
#
#
# Convention : Reuss Voigt Hill
#
# Bulk Modulus (GPa) = 28.10230 50.10124 39.10177
# Shear Modulus (GPa) = 25.55660 41.91535 33.73598
#
# Velocity S-wave (km/s) = 3.15177 4.03636 3.62117
# Velocity P-wave (km/s) = 4.91610 6.41848 5.71685
#
# Compressibility (1/GPa) = 0.03558427
#
# Stress axis : x y z
#
# Youngs Moduli (GPa) = 72.37069 55.78110 125.11585
#
# Poissons Ratio (x) = -0.28948 0.56069
# Poissons Ratio (y) = -0.37557 0.34842
# Poissons Ratio (z) = 0.32432 0.15534
#
# Static dielectric constant tensor:
#      x y z
#    x 2.061420 0.000000 -0.077090 
#    y 0.000000 2.150930 0.000000 
#    z -0.077090 0.000000 1.945270 
# 
# From -- ./inp_files/69210.got.cif
#   From: 2010.05.17/outbox.cif.g08.bks.cpg/sg14_35_cif.got.tgz:69210.got - 2010.06.03 17:49:19.
