data_PCOD9241285
_publ_section_title
;
Structure prediction by ZEFSAII (Michael W. Deem and Ramdas Pophale) SiO2 
 PCOD9241285
Probable space group: P 21/C
;
_chemical_formula_sum "Si O2"
_cell_formula_units_Z 28
_cell_length_a 9.919028
_cell_length_b 12.796532
_cell_length_c 15.554551
_cell_angle_alpha 90.000000
_cell_angle_beta 143.492377
_cell_angle_gamma 90.000000
_cell_volume 1174.585285
_symmetry_space_group_name_H-M "P 21/C"
_symmetry_group_IT_number 14
_symmetry_cell_setting 'monoclinic'
loop_
_space_group_symop_operation_xyz
x,y,z
-x,1/2+y,1/2-z
-x,-y,-z
x,1/2-y,1/2+z
loop_
_atom_site_type_symbol
_atom_site_label
_atom_site_fract_x
_atom_site_fract_y
_atom_site_fract_z
Si Si1 0.848264 0.104972 0.590475
Si Si2 0.048728 0.203967 0.273583
Si Si3 0.294542 0.403369 0.210826
Si Si4 0.615527 0.827564 0.706926
Si Si5 0.192716 0.562913 0.672779
Si Si6 0.215620 0.944393 0.989208
Si Si7 0.333330 0.403096 0.038403
O O1 0.653694 0.164453 0.437823
O O2 0.935417 0.184615 0.705638
O O3 0.068740 0.078094 0.647993
O O4 0.727406 0.998585 0.556875
O O5 0.274001 0.196950 0.329429
O O6 0.144409 0.180075 0.416132
O O7 0.878945 0.123244 0.138550
O O8 0.322114 0.277729 0.211047
O O9 0.512697 0.449443 0.372760
O O10 0.290347 0.445497 0.112317
O O11 0.712754 0.941100 0.783012
O O12 0.176998 0.603005 0.566358
O O13 0.945265 0.546439 0.586798
O O14 0.400335 0.622187 0.825464
#
# Coordination Sequence:
#
# PCOD9241285 Si02
#       7
#     4   4   4   4   4   4   4
#     4  10  20  37  60  80 113 158 190 223 294 348
#     4  10  20  36  59  81 114 147 187 240 286 329
#     4  10  19  35  59  81 113 151 191 234 276 344
#     4   9  18  34  58  80 108 150 193 227 281 341
#     4   8  17  31  55  84 104 141 190 225 270 331
#     4   9  16  32  55  78 109 143 179 229 278 328
#     4  10  21  37  57  86 113 147 192 240 282 335
#
# _framework density 23.838200000000001
#
# number of rings (size 3 to 8) (size 9 to 14) (size 15 to 20)
#    0.000    2.571    1.429    0.429    0.000    5.143 
#    2.571    2.143    0.000    0.000    0.000    0.000 
#    0.000    0.000    0.000    0.000    0.000    0.000 
#
# Total GULP energy -156159.982570 kJ/mol
# GULP energy per Si atom -5577.142235 kJ/mol
# Density = 2.378394 g / cm^3
# Si number density = 23.838200 Si / 1000 Ang^3
#
#
#
# Elastic Constant Matrix: (Units=GPa)
#
#
# Indices 1 2 3 4 5 6 
#
# 1 57.6351 -0.9058 51.5336 0.0000 24.4758 0.0000
# 2 -0.9058 35.3457 17.9625 0.0000 -6.0719 0.0000
# 3 51.5336 17.9625 191.2402 0.0000 19.9925 0.0000
# 4 0.0000 0.0000 0.0000 31.2847 0.0000 -4.8547
# 5 24.4758 -6.0719 19.9925 0.0000 40.4720 0.0000
# 6 0.0000 0.0000 0.0000 -4.8547 0.0000 21.4482
#
#
#
# Elastic Compliance Matrix: (Units=1/GPa)
#
#
# Indices 1 2 3 4 5 6 
#
# 1 0.029278 0.001639 -0.006557 0.000000 -0.014221 0.000000
# 2 0.001639 0.031330 -0.003978 0.000000 0.005674 0.000000
# 3 -0.006557 -0.003978 0.007399 0.000000 -0.000287 0.000000
# 4 0.000000 0.000000 0.000000 0.033128 0.000000 0.007498
# 5 -0.014221 0.005674 -0.000287 0.000000 0.034302 0.000000
# 6 0.000000 0.000000 0.000000 0.007498 0.000000 0.048321
#
#
# Mechanical properties :
#
#
# Convention : Reuss Voigt Hill
#
# Bulk Modulus (GPa) = 19.91328 46.82240 33.36784
# Shear Modulus (GPa) = 22.90544 33.01636 27.96090
#
# Velocity S-wave (km/s) = 3.10316 3.72562 3.42854
# Velocity P-wave (km/s) = 4.60555 6.17992 5.44988
#
# Compressibility (1/GPa) = 0.05021775
#
# Stress axis : x y z
#
# Youngs Moduli (GPa) = 34.15477 31.91822 135.14432
#
# Poissons Ratio (x) = -0.05233 0.88613
# Poissons Ratio (y) = -0.05599 0.53756
# Poissons Ratio (z) = 0.22395 0.12696
#
# Static dielectric constant tensor:
#      x y z
#    x 1.923260 0.000000 -0.005260 
#    y 0.000000 1.994580 0.000000 
#    z -0.005260 0.000000 1.950000 
# 
# From -- ./inp_files/57889.got.cif
#   From: 2010.05.17/outbox.cif.g08.bks.cpg/sg14_29_cif.got.tgz:57889.got - 2010.06.03 17:49:19.
