data_PCOD9241447
_publ_section_title
;
Structure prediction by ZEFSAII (Michael W. Deem and Ramdas Pophale) SiO2 
 PCOD9241447
Probable space group: P 21/C
;
_chemical_formula_sum "Si O2"
_cell_formula_units_Z 32
_cell_length_a 7.762581
_cell_length_b 14.527656
_cell_length_c 12.321613
_cell_angle_alpha 90.000000
_cell_angle_beta 78.145738
_cell_angle_gamma 90.000000
_cell_volume 1359.900047
_symmetry_space_group_name_H-M "P 21/C"
_symmetry_group_IT_number 14
_symmetry_cell_setting 'monoclinic'
loop_
_space_group_symop_operation_xyz
x,y,z
-x,1/2+y,1/2-z
-x,-y,-z
x,1/2-y,1/2+z
loop_
_atom_site_type_symbol
_atom_site_label
_atom_site_fract_x
_atom_site_fract_y
_atom_site_fract_z
Si Si1 0.035674 0.141788 0.416045
Si Si2 0.609858 0.712054 0.082221
Si Si3 0.567845 0.375282 0.079155
Si Si4 0.388075 0.391355 0.311079
Si Si5 0.714701 0.046084 0.875103
Si Si6 0.798888 0.293330 0.518224
Si Si7 0.907208 0.443977 0.137706
Si Si8 0.160376 0.137447 0.031019
O O1 0.233447 0.171208 0.366358
O O2 0.899278 0.224357 0.419852
O O3 0.026007 0.120209 0.547326
O O4 0.004861 0.043930 0.366080
O O5 0.494480 0.636901 0.036241
O O6 0.709467 0.775027 0.977243
O O7 0.525313 0.792591 0.164553
O O8 0.407184 0.396747 0.180523
O O9 0.659828 0.275535 0.089962
O O10 0.725348 0.445347 0.088892
O O11 0.520344 0.463265 0.349593
O O12 0.203621 0.391929 0.398767
O O13 0.841676 0.083981 0.763705
O O14 0.785430 0.948272 0.904788
O O15 0.713223 0.119905 0.971353
O O16 0.959818 0.332214 0.568663
#
# Coordination Sequence:
#
# PCOD9241447 Si02
#       8
#     4   4   4   4   4   4   4   4
#     4   9  19  40  53  79 115 150 194 232 286 339
#     4   9  19  35  57  80 106 153 185 235 280 342
#     4  10  19  36  57  80 116 151 190 237 290 334
#     4   9  20  35  53  82 114 151 188 231 283 342
#     4  11  19  36  57  84 115 151 188 237 297 331
#     4  10  19  36  58  81 114 152 186 242 282 348
#     4   9  21  36  56  80 114 152 190 240 284 341
#     4   9  20  35  54  82 116 144 191 235 287 340
#
# _framework density 23.531141000000002
#
# number of rings (size 3 to 8) (size 9 to 14) (size 15 to 20)
#    0.750    1.750    1.250    0.750    0.000    2.500 
#    9.000    1.250    0.000    0.000    0.000    0.000 
#    0.000    0.000    0.000    0.000    0.000    0.000 
#
# Total GULP energy -178231.219517 kJ/mol
# GULP energy per Si atom -5569.725610 kJ/mol
# Density = 2.347758 g / cm^3
# Si number density = 23.531141 Si / 1000 Ang^3
#
#
#
# Elastic Constant Matrix: (Units=GPa)
#
#
# Indices 1 2 3 4 5 6 
#
# 1 37.0740 -3.4790 2.0648 0.0000 -2.6898 0.0000
# 2 -3.4790 66.0990 -1.4159 0.0000 1.8184 0.0000
# 3 2.0648 -1.4159 41.7188 0.0000 -15.2856 0.0000
# 4 0.0000 0.0000 0.0000 12.9750 0.0000 -0.2156
# 5 -2.6898 1.8184 -15.2856 0.0000 15.9695 0.0000
# 6 0.0000 0.0000 0.0000 -0.2156 0.0000 24.8034
#
#
#
# Elastic Compliance Matrix: (Units=1/GPa)
#
#
# Indices 1 2 3 4 5 6 
#
# 1 0.027428 0.001318 0.000500 0.000000 0.004949 0.000000
# 2 0.001318 0.015241 -0.000158 0.000000 -0.001664 0.000000
# 3 0.000500 -0.000158 0.036928 0.000000 0.035449 0.000000
# 4 0.000000 0.000000 0.000000 0.077082 0.000000 0.000670
# 5 0.004949 -0.001664 0.035449 0.000000 0.097574 0.000000
# 6 0.000000 0.000000 0.000000 0.000670 0.000000 0.040323
#
#
# Mechanical properties :
#
#
# Convention : Reuss Voigt Hill
#
# Bulk Modulus (GPa) = 12.06002 15.47017 13.76509
# Shear Modulus (GPa) = 15.67920 20.59771 18.13846
#
# Velocity S-wave (km/s) = 2.58411 2.96182 2.77939
# Velocity P-wave (km/s) = 3.74697 4.27611 4.02025
#
# Compressibility (1/GPa) = 0.08291862
#
# Stress axis : x y z
#
# Youngs Moduli (GPa) = 36.45918 65.61417 27.07945
#
# Poissons Ratio (x) = -0.08649 -0.01355
# Poissons Ratio (y) = -0.04806 0.00427
# Poissons Ratio (z) = -0.01825 0.01035
#
# Static dielectric constant tensor:
#      x y z
#    x 1.936410 0.000000 -0.000540 
#    y 0.000000 1.879860 0.000000 
#    z -0.000540 0.000000 1.862120 
# 
# From -- ./inp_files/40930.got.cif
#   From: 2010.05.17/outbox.cif.g08.bks.cpg/sg14_21_cif.got.tgz:40930.got - 2010.06.03 17:49:19.
