data_PCOD9241747
_publ_section_title
;
Structure prediction by ZEFSAII (Michael W. Deem and Ramdas Pophale) SiO2 
 PCOD9241747
Probable space group: P 21/C
;
_chemical_formula_sum "Si O2"
_cell_formula_units_Z 32
_cell_length_a 9.918278
_cell_length_b 21.136485
_cell_length_c 8.510297
_cell_angle_alpha 90.000000
_cell_angle_beta 51.156082
_cell_angle_gamma 90.000000
_cell_volume 1389.542165
_symmetry_space_group_name_H-M "P 21/C"
_symmetry_group_IT_number 14
_symmetry_cell_setting 'monoclinic'
loop_
_space_group_symop_operation_xyz
x,y,z
-x,1/2+y,1/2-z
-x,-y,-z
x,1/2-y,1/2+z
loop_
_atom_site_type_symbol
_atom_site_label
_atom_site_fract_x
_atom_site_fract_y
_atom_site_fract_z
Si Si1 0.503692 0.791750 0.880574
Si Si2 0.283531 0.534064 0.369378
Si Si3 0.541691 0.065227 0.697798
Si Si4 0.252902 0.390581 0.661167
Si Si5 0.029519 0.553074 0.312705
Si Si6 0.232662 0.615359 0.709500
Si Si7 0.444503 0.159173 0.507321
Si Si8 0.847580 0.922818 0.438029
O O1 0.674112 0.825256 0.827613
O O2 0.541281 0.718670 0.885079
O O3 0.487385 0.814386 0.710930
O O4 0.337602 0.820006 0.096579
O O5 0.471260 0.504154 0.202212
O O6 0.172622 0.576678 0.330176
O O7 0.297513 0.568253 0.524839
O O8 0.142463 0.477196 0.481056
O O9 0.714030 0.083968 0.664738
O O10 0.533944 0.105675 0.546485
O O11 0.398679 0.086531 0.932788
O O12 0.063717 0.393625 0.722558
O O13 0.239495 0.432862 0.827799
O O14 0.109221 0.491686 0.165307
O O15 0.027358 0.613949 0.839025
O O16 0.266692 0.123232 0.587642
#
# Coordination Sequence:
#
# PCOD9241747 Si02
#       8
#     4   4   4   4   4   4   4   4
#     4  10  22  41  61  88 113 163 199 246 302 362
#     4   9  17  31  56  89 123 163 195 237 296 354
#     4  10  19  37  61  86 123 166 195 240 299 359
#     4   9  19  33  60  87 124 161 197 232 293 357
#     4   9  16  31  56  91 126 160 193 244 289 347
#     4  10  21  37  58  90 128 152 194 251 302 342
#     4  11  22  43  68  81 113 159 210 241 296 368
#     4  10  20  37  62  95 119 154 206 248 286 352
#
# _framework density 23.029167999999999
#
# number of rings (size 3 to 8) (size 9 to 14) (size 15 to 20)
#    0.000    2.250    1.250    2.250    1.750    1.000 
#    2.250    5.625    0.000    0.000    0.000    0.000 
#    0.000    0.000    0.000    0.000    0.000    0.000 
#
# Total GULP energy -178479.873215 kJ/mol
# GULP energy per Si atom -5577.496038 kJ/mol
# Density = 2.297675 g / cm^3
# Si number density = 23.029168 Si / 1000 Ang^3
#
#
#
# Elastic Constant Matrix: (Units=GPa)
#
#
# Indices 1 2 3 4 5 6 
#
# 1 170.2837 33.6372 29.9304 0.0000 19.0943 0.0000
# 2 33.6372 52.7049 19.6004 0.0000 5.5901 0.0000
# 3 29.9304 19.6004 83.8452 0.0000 -1.7647 0.0000
# 4 0.0000 0.0000 0.0000 21.4004 0.0000 8.3908
# 5 19.0943 5.5901 -1.7647 0.0000 30.5496 0.0000
# 6 0.0000 0.0000 0.0000 8.3908 0.0000 28.3012
#
#
#
# Elastic Compliance Matrix: (Units=1/GPa)
#
#
# Indices 1 2 3 4 5 6 
#
# 1 0.007363 -0.003570 -0.001879 0.000000 -0.004057 0.000000
# 2 -0.003570 0.023034 -0.004157 0.000000 -0.002224 0.000000
# 3 -0.001879 -0.004157 0.013627 0.000000 0.002722 0.000000
# 4 0.000000 0.000000 0.000000 0.052874 0.000000 -0.015676
# 5 -0.004057 -0.002224 0.002722 0.000000 0.035834 0.000000
# 6 0.000000 0.000000 0.000000 -0.015676 0.000000 0.039982
#
#
# Mechanical properties :
#
#
# Convention : Reuss Voigt Hill
#
# Bulk Modulus (GPa) = 40.30467 52.57440 46.43954
# Shear Modulus (GPa) = 24.97546 30.96130 27.96838
#
# Velocity S-wave (km/s) = 3.29677 3.67064 3.48871
# Velocity P-wave (km/s) = 5.65961 6.39092 6.03635
#
# Compressibility (1/GPa) = 0.02481102
#
# Stress axis : x y z
#
# Youngs Moduli (GPa) = 135.81367 43.41449 73.38558
#
# Poissons Ratio (x) = 0.15499 0.13791
# Poissons Ratio (y) = 0.48485 0.30506
# Poissons Ratio (z) = 0.25523 0.18047
#
# Static dielectric constant tensor:
#      x y z
#    x 1.932120 0.000000 0.014770 
#    y 0.000000 1.864280 0.000000 
#    z 0.014770 0.000000 1.970790 
# 
# From -- ./inp_files/10804.got.cif
#   From: 2010.05.17/outbox.cif.g08.bks.cpg/sg14_6_cif.got.tgz:10804.got - 2010.06.03 17:49:19.
