data_PCOD9241388
_publ_section_title
;
Structure prediction by ZEFSAII (Michael W. Deem and Ramdas Pophale) SiO2 
 PCOD9241388
Probable space group: P 21/C
;
_chemical_formula_sum "Si O2"
_cell_formula_units_Z 32
_cell_length_a 16.475381
_cell_length_b 11.951078
_cell_length_c 13.781322
_cell_angle_alpha 90.000000
_cell_angle_beta 145.066537
_cell_angle_gamma 90.000000
_cell_volume 1553.830218
_symmetry_space_group_name_H-M "P 21/C"
_symmetry_group_IT_number 14
_symmetry_cell_setting 'monoclinic'
loop_
_space_group_symop_operation_xyz
x,y,z
-x,1/2+y,1/2-z
-x,-y,-z
x,1/2-y,1/2+z
loop_
_atom_site_type_symbol
_atom_site_label
_atom_site_fract_x
_atom_site_fract_y
_atom_site_fract_z
Si Si1 0.694477 0.699317 0.052779
Si Si2 0.642977 0.660183 0.215962
Si Si3 0.618879 0.936257 0.893626
Si Si4 0.375333 0.095820 0.720178
Si Si5 0.074969 0.537347 0.336945
Si Si6 0.976669 0.892608 0.046817
Si Si7 0.903285 0.490201 0.998643
Si Si8 0.970144 0.261876 0.573224
O O1 0.624248 0.647831 0.081621
O O2 0.860541 0.724914 0.239567
O O3 0.623474 0.816498 0.951600
O O4 0.681253 0.622764 0.944471
O O5 0.581139 0.583166 0.241914
O O6 0.601344 0.785889 0.204548
O O7 0.812629 0.642823 0.394730
O O8 0.512424 0.020488 0.840175
O O9 0.777415 0.985494 0.051907
O O10 0.256315 0.030887 0.664673
O O11 0.989812 0.443237 0.315847
O O12 0.978390 0.567448 0.152309
O O13 0.101363 0.643581 0.430837
O O14 0.052354 0.794093 0.062248
O O15 0.000000 0.000000 0.000000
O O16 0.915333 0.360841 0.040393
O O17 0.000000 0.500000 0.000000
#
# Coordination Sequence:
#
# PCOD9241388 Si02
#       8
#     4   4   4   4   4   4   4   4
#     4  10  19  39  63  84 118 169 199 245 311 363
#     4   9  20  38  62  85 120 164 205 238 306 369
#     4  10  22  39  62  89 122 162 203 247 305 372
#     4  11  24  39  61  89 126 157 201 255 309 365
#     4  10  20  38  63  87 119 160 203 249 305 360
#     4   8  16  32  59  90 112 150 202 247 289 356
#     4  12  24  38  60  92 121 155 204 257 300 361
#     4  10  19  35  63  89 119 156 209 249 302 361
#
# _framework density 20.594269000000001
#
# number of rings (size 3 to 8) (size 9 to 14) (size 15 to 20)
#    0.000    2.000    2.500    1.500    0.000    4.000 
#    0.000    0.000    2.750    0.000    0.000    0.000 
#    0.000    0.000    0.000    0.000    0.000    0.000 
#
# Total GULP energy -178459.516476 kJ/mol
# GULP energy per Si atom -5576.859890 kJ/mol
# Density = 2.054740 g / cm^3
# Si number density = 20.594269 Si / 1000 Ang^3
#
#
#
# Elastic Constant Matrix: (Units=GPa)
#
#
# Indices 1 2 3 4 5 6 
#
# 1 86.1372 -3.6444 5.5610 0.0000 0.9663 0.0000
# 2 -3.6444 45.6343 -9.8260 0.0000 13.2828 0.0000
# 3 5.5610 -9.8260 13.6900 0.0000 2.0820 0.0000
# 4 0.0000 0.0000 0.0000 19.7507 0.0000 7.9815
# 5 0.9663 13.2828 2.0820 0.0000 28.0874 0.0000
# 6 0.0000 0.0000 0.0000 7.9815 0.0000 40.0987
#
#
#
# Elastic Compliance Matrix: (Units=1/GPa)
#
#
# Indices 1 2 3 4 5 6 
#
# 1 0.011922 -0.000110 -0.004923 0.000000 0.000007 0.000000
# 2 -0.000110 0.032555 0.026045 0.000000 -0.017322 0.000000
# 3 -0.004923 0.026045 0.096677 0.000000 -0.019314 0.000000
# 4 0.000000 0.000000 0.000000 0.055060 0.000000 -0.010960
# 5 0.000007 -0.017322 -0.019314 0.000000 0.045226 0.000000
# 6 0.000000 0.000000 0.000000 -0.010960 0.000000 0.027120
#
#
# Mechanical properties :
#
#
# Convention : Reuss Voigt Hill
#
# Bulk Modulus (GPa) = 5.45911 14.40472 9.93192
# Shear Modulus (GPa) = 17.38553 27.81209 22.59881
#
# Velocity S-wave (km/s) = 2.90865 3.67887 3.31620
# Velocity P-wave (km/s) = 3.73321 5.00551 4.41543
#
# Compressibility (1/GPa) = 0.18317994
#
# Stress axis : x y z
#
# Youngs Moduli (GPa) = 83.87518 30.71757 10.34368
#
# Poissons Ratio (x) = 0.00337 0.05092
# Poissons Ratio (y) = 0.00921 -0.26940
# Poissons Ratio (z) = 0.41290 -0.80005
#
# Static dielectric constant tensor:
#      x y z
#    x 1.761070 0.000000 -0.059720 
#    y 0.000000 1.731840 0.000000 
#    z -0.059720 0.000000 1.735790 
# 
# From -- ./inp_files/47176.got.cif
#   From: 2010.05.17/outbox.cif.g08.bks.cpg/sg14_24_cif.got.tgz:47176.got - 2010.06.03 17:49:19.
