data_PCOD9241451
_publ_section_title
;
Structure prediction by ZEFSAII (Michael W. Deem and Ramdas Pophale) SiO2 
 PCOD9241451
Probable space group: P 21/C
;
_chemical_formula_sum "Si O2"
_cell_formula_units_Z 20
_cell_length_a 12.400920
_cell_length_b 9.802347
_cell_length_c 12.922045
_cell_angle_alpha 90.000000
_cell_angle_beta 149.451609
_cell_angle_gamma 90.000000
_cell_volume 798.373659
_symmetry_space_group_name_H-M "P 21/C"
_symmetry_group_IT_number 14
_symmetry_cell_setting 'monoclinic'
loop_
_space_group_symop_operation_xyz
x,y,z
-x,1/2+y,1/2-z
-x,-y,-z
x,1/2-y,1/2+z
loop_
_atom_site_type_symbol
_atom_site_label
_atom_site_fract_x
_atom_site_fract_y
_atom_site_fract_z
Si Si1 0.726862 0.142292 0.220087
Si Si2 0.197559 0.670288 0.992654
Si Si3 0.720273 0.878846 0.076448
Si Si4 0.801699 0.435505 0.222799
Si Si5 0.724278 0.031343 0.882020
O O1 0.791133 0.095013 0.387589
O O2 0.851474 0.277508 0.293785
O O3 0.754187 0.024736 0.160102
O O4 0.477225 0.183113 0.024338
O O5 0.271420 0.580567 0.956237
O O6 0.315395 0.815279 0.108255
O O7 0.945030 0.695293 0.763993
O O8 0.651703 0.916993 0.903123
O O9 0.673888 0.483743 0.218739
O O10 0.019935 0.517320 0.401988
#
# Coordination Sequence:
#
# PCOD9241451 Si02
#       5
#     4   4   4   4   4
#     4  10  20  36  57  82 110 146 184 234 276 333
#     4  10  19  36  57  82 109 149 184 223 281 338
#     4  10  20  36  57  82 112 144 184 235 278 328
#     4   9  18  35  58  80 110 147 183 225 279 326
#     4   9  18  35  59  81 114 148 182 233 276 327
#
# _framework density 25.050924999999999
#
# number of rings (size 3 to 8) (size 9 to 14) (size 15 to 20)
#    0.000    2.400    2.000    0.600    0.000    0.000 
#    0.000   20.000    0.000    0.000    0.000    0.000 
#    0.000    0.000    0.000    0.000    0.000    0.000 
#
# Total GULP energy -111673.040088 kJ/mol
# GULP energy per Si atom -5583.652004 kJ/mol
# Density = 2.499391 g / cm^3
# Si number density = 25.050925 Si / 1000 Ang^3
#
#
#
# Elastic Constant Matrix: (Units=GPa)
#
#
# Indices 1 2 3 4 5 6 
#
# 1 112.9884 25.9747 30.4580 0.0000 -24.0151 0.0000
# 2 25.9747 59.8740 1.7761 0.0000 6.6833 0.0000
# 3 30.4580 1.7761 93.0254 0.0000 -32.2894 0.0000
# 4 0.0000 0.0000 0.0000 6.7899 0.0000 -3.7809
# 5 -24.0151 6.6833 -32.2894 0.0000 60.7546 0.0000
# 6 0.0000 0.0000 0.0000 -3.7809 0.0000 34.3623
#
#
#
# Elastic Compliance Matrix: (Units=1/GPa)
#
#
# Indices 1 2 3 4 5 6 
#
# 1 0.011545 -0.005378 -0.002315 0.000000 0.003925 0.000000
# 2 -0.005378 0.019522 -0.000117 0.000000 -0.004335 0.000000
# 3 -0.002315 -0.000117 0.013730 0.000000 0.006395 0.000000
# 4 0.000000 0.000000 0.000000 0.156890 0.000000 0.017263
# 5 0.003925 -0.004335 0.006395 0.000000 0.021887 0.000000
# 6 0.000000 0.000000 0.000000 0.017263 0.000000 0.031001
#
#
# Mechanical properties :
#
#
# Convention : Reuss Voigt Hill
#
# Bulk Modulus (GPa) = 34.27311 42.47838 38.37575
# Shear Modulus (GPa) = 17.86231 34.22663 26.04447
#
# Velocity S-wave (km/s) = 2.67318 3.70034 3.22788
# Velocity P-wave (km/s) = 4.82068 5.93719 5.40783
#
# Compressibility (1/GPa) = 0.02917739
#
# Stress axis : x y z
#
# Youngs Moduli (GPa) = 86.61735 51.22380 72.83549
#
# Poissons Ratio (x) = 0.27548 0.16862
# Poissons Ratio (y) = 0.46582 0.00850
# Poissons Ratio (z) = 0.20053 0.00598
#
# Static dielectric constant tensor:
#      x y z
#    x 2.013320 0.000000 0.000900 
#    y 0.000000 1.873900 0.000000 
#    z 0.000900 0.000000 2.016040 
# 
# From -- ./inp_files/23400.got.cif
#   From: 2010.05.17/outbox.cif.g08.bks.cpg/sg14_12_cif.got.tgz:23400.got - 2010.06.03 17:49:19.
