data_PCOD9241194
_publ_section_title
;
Structure prediction by ZEFSAII (Michael W. Deem and Ramdas Pophale) SiO2 
 PCOD9241194
Probable space group: P 21/C
;
_chemical_formula_sum "Si O2"
_cell_formula_units_Z 20
_cell_length_a 17.656661
_cell_length_b 8.137471
_cell_length_c 18.104593
_cell_angle_alpha 90.000000
_cell_angle_beta 20.730207
_cell_angle_gamma 90.000000
_cell_volume 920.769163
_symmetry_space_group_name_H-M "P 21/C"
_symmetry_group_IT_number 14
_symmetry_cell_setting 'monoclinic'
loop_
_space_group_symop_operation_xyz
x,y,z
-x,1/2+y,1/2-z
-x,-y,-z
x,1/2-y,1/2+z
loop_
_atom_site_type_symbol
_atom_site_label
_atom_site_fract_x
_atom_site_fract_y
_atom_site_fract_z
Si Si1 0.619888 0.581580 0.530860
Si Si2 0.306185 0.722304 0.221300
Si Si3 0.634375 0.457625 0.975237
Si Si4 0.593351 0.260146 0.649845
Si Si5 0.986266 0.761736 0.133547
O O1 0.451478 0.631744 0.621204
O O2 0.564665 0.414651 0.622602
O O3 0.589918 0.717732 0.623650
O O4 0.852296 0.603968 0.283073
O O5 0.321479 0.694245 0.120468
O O6 0.075915 0.744058 0.468561
O O7 0.417485 0.554099 0.150881
O O8 0.825470 0.586114 0.788250
O O9 0.619502 0.393166 0.071251
O O10 0.807985 0.282500 0.502052
#
# Coordination Sequence:
#
# PCOD9241194 Si02
#       5
#     4   4   4   4   4
#     4  10  21  35  53  78 107 139 179 220 265 314
#     4   9  20  37  56  79 107 142 178 216 261 318
#     4  10  20  36  58  80 107 142 178 215 264 316
#     4  11  21  35  55  80 107 140 178 222 266 312
#     4  10  19  35  55  78 107 141 178 217 261 316
#
# _framework density 21.720970000000001
#
# number of rings (size 3 to 8) (size 9 to 14) (size 15 to 20)
#    0.000    2.000    0.000    5.400    0.000    2.400 
#    0.000    1.000    0.000    0.000    0.000    0.000 
#    0.000    0.000    0.000    0.000    0.000    0.000 
#
# Total GULP energy -111716.669964 kJ/mol
# GULP energy per Si atom -5585.833498 kJ/mol
# Density = 2.167153 g / cm^3
# Si number density = 21.720970 Si / 1000 Ang^3
#
#
#
# Elastic Constant Matrix: (Units=GPa)
#
#
# Indices 1 2 3 4 5 6 
#
# 1 50.3656 -13.2413 11.0058 0.0000 21.3893 0.0000
# 2 -13.2413 44.1375 -1.3868 0.0000 2.9598 0.0000
# 3 11.0058 -1.3868 114.8241 0.0000 27.9223 0.0000
# 4 0.0000 0.0000 0.0000 17.3296 0.0000 9.2515
# 5 21.3893 2.9598 27.9223 0.0000 26.9007 0.0000
# 6 0.0000 0.0000 0.0000 9.2515 0.0000 17.5509
#
#
#
# Elastic Compliance Matrix: (Units=1/GPa)
#
#
# Indices 1 2 3 4 5 6 
#
# 1 0.038619 0.014335 0.005781 0.000000 -0.038285 0.000000
# 2 0.014335 0.028267 0.003338 0.000000 -0.017973 0.000000
# 3 0.005781 0.003338 0.012577 0.000000 -0.018019 0.000000
# 4 0.000000 0.000000 0.000000 0.080302 0.000000 -0.042329
# 5 -0.038285 -0.017973 -0.018019 0.000000 0.088296 0.000000
# 6 0.000000 0.000000 0.000000 -0.042329 0.000000 0.079290
#
#
# Mechanical properties :
#
#
# Convention : Reuss Voigt Hill
#
# Bulk Modulus (GPa) = 7.91317 22.45364 15.18341
# Shear Modulus (GPa) = 15.50070 26.55288 21.02679
#
# Velocity S-wave (km/s) = 2.67428 3.50015 3.11471
# Velocity P-wave (km/s) = 3.63135 5.16667 4.46549
#
# Compressibility (1/GPa) = 0.12637161
#
# Stress axis : x y z
#
# Youngs Moduli (GPa) = 25.89387 35.37687 79.51137
#
# Poissons Ratio (x) = -0.50712 -0.45969
# Poissons Ratio (y) = -0.37118 -0.26540
# Poissons Ratio (z) = -0.14971 -0.11809
#
# Static dielectric constant tensor:
#      x y z
#    x 1.772120 0.000000 0.012440 
#    y 0.000000 1.847390 0.000000 
#    z 0.012440 0.000000 1.779550 
# 
# From -- ./inp_files/52512.got.cif
#   From: 2010.05.17/outbox.cif.g08.bks.cpg/sg14_27_cif.got.tgz:52512.got - 2010.06.03 17:49:19.
