data_PCOD9241899
_publ_section_title
;
Structure prediction by ZEFSAII (Michael W. Deem and Ramdas Pophale) SiO2 
 PCOD9241899
Probable space group: P 21/C
;
_chemical_formula_sum "Si O2"
_cell_formula_units_Z 28
_cell_length_a 11.251035
_cell_length_b 10.661712
_cell_length_c 19.665185
_cell_angle_alpha 90.000000
_cell_angle_beta 37.357597
_cell_angle_gamma 90.000000
_cell_volume 1431.377754
_symmetry_space_group_name_H-M "P 21/C"
_symmetry_group_IT_number 14
_symmetry_cell_setting 'monoclinic'
loop_
_space_group_symop_operation_xyz
x,y,z
-x,1/2+y,1/2-z
-x,-y,-z
x,1/2-y,1/2+z
loop_
_atom_site_type_symbol
_atom_site_label
_atom_site_fract_x
_atom_site_fract_y
_atom_site_fract_z
Si Si1 0.231874 0.927485 0.175534
Si Si2 0.483080 0.209635 0.697480
Si Si3 0.505465 0.543722 0.110341
Si Si4 0.228700 0.050854 0.633680
Si Si5 0.800890 0.376887 0.150998
Si Si6 0.227476 0.149967 0.408832
Si Si7 0.455821 0.189517 0.064755
O O1 0.248045 0.888574 0.247346
O O2 0.002205 0.930946 0.261294
O O3 0.316933 0.067778 0.127005
O O4 0.363987 0.838860 0.067511
O O5 0.461330 0.068820 0.681370
O O6 0.658249 0.210107 0.671751
O O7 0.286875 0.253866 0.823672
O O8 0.523419 0.290669 0.611863
O O9 0.314740 0.547909 0.149502
O O10 0.600623 0.650760 0.112768
O O11 0.684511 0.506925 0.978192
O O12 0.336714 0.184571 0.598635
O O13 0.784173 0.514940 0.123750
O O14 0.022315 0.331072 0.039136
#
# Coordination Sequence:
#
# PCOD9241899 Si02
#       7
#     4   4   4   4   4   4   4
#     4  11  22  41  62  92 128 165 211 263 311 381
#     4  10  21  37  61  87 122 159 201 259 307 370
#     4   9  20  36  58  90 115 158 207 255 303 375
#     4  10  21  39  63  90 123 162 211 258 313 375
#     4  10  21  35  65  88 112 166 207 251 303 381
#     4  10  19  38  59  86 120 153 211 253 307 364
#     4  10  24  40  60  92 130 165 206 261 325 366
#
# _framework density 19.561572000000002
#
# number of rings (size 3 to 8) (size 9 to 14) (size 15 to 20)
#    0.000    2.000    2.857    0.000    2.000    5.714 
#    0.000    0.000    0.000    2.571    0.000    0.000 
#    0.000    0.000    0.000    0.000    0.000    0.000 
#
# Total GULP energy -156148.447076 kJ/mol
# GULP energy per Si atom -5576.730253 kJ/mol
# Density = 1.951705 g / cm^3
# Si number density = 19.561572 Si / 1000 Ang^3
#
#
#
# Elastic Constant Matrix: (Units=GPa)
#
#
# Indices 1 2 3 4 5 6 
#
# 1 82.3311 8.0589 48.6238 0.0000 -5.7640 0.0000
# 2 8.0589 44.6517 31.7365 0.0000 -9.9940 0.0000
# 3 48.6238 31.7365 129.9310 0.0000 1.5159 0.0000
# 4 0.0000 0.0000 0.0000 22.9342 0.0000 -3.7068
# 5 -5.7640 -9.9940 1.5159 0.0000 35.0807 0.0000
# 6 0.0000 0.0000 0.0000 -3.7068 0.0000 16.3651
#
#
#
# Elastic Compliance Matrix: (Units=1/GPa)
#
#
# Indices 1 2 3 4 5 6 
#
# 1 0.016120 0.002710 -0.006738 0.000000 0.003712 0.000000
# 2 0.002710 0.030010 -0.008454 0.000000 0.009360 0.000000
# 3 -0.006738 -0.008454 0.012330 0.000000 -0.004048 0.000000
# 4 0.000000 0.000000 0.000000 0.045260 0.000000 0.010252
# 5 0.003712 0.009360 -0.004048 0.000000 0.031957 0.000000
# 6 0.000000 0.000000 0.000000 0.010252 0.000000 0.063428
#
#
# Mechanical properties :
#
#
# Convention : Reuss Voigt Hill
#
# Bulk Modulus (GPa) = 29.85288 48.19470 39.02379
# Shear Modulus (GPa) = 21.25554 26.10897 23.68225
#
# Velocity S-wave (km/s) = 3.29993 3.65733 3.48322
# Velocity P-wave (km/s) = 5.46018 6.52117 6.01412
#
# Compressibility (1/GPa) = 0.03349760
#
# Stress axis : x y z
#
# Youngs Moduli (GPa) = 62.03485 33.32240 81.10307
#
# Poissons Ratio (x) = -0.09032 0.54646
# Poissons Ratio (y) = -0.16814 0.68562
# Poissons Ratio (z) = 0.41798 0.28170
#
# Static dielectric constant tensor:
#      x y z
#    x 1.723870 0.000000 0.010980 
#    y 0.000000 1.704560 0.000000 
#    z 0.010980 0.000000 1.655800 
# 
# From -- ./inp_files/67325.got.cif
#   From: 2010.05.17/outbox.cif.g08.bks.cpg/sg14_34_cif.got.tgz:67325.got - 2010.06.03 17:49:19.
