data_PCOD9241981
_publ_section_title
;
Structure prediction by ZEFSAII (Michael W. Deem and Ramdas Pophale) SiO2 
 PCOD9241981
Probable space group: P 21/C
;
_chemical_formula_sum "Si O2"
_cell_formula_units_Z 24
_cell_length_a 7.136875
_cell_length_b 9.137810
_cell_length_c 26.346514
_cell_angle_alpha 90.000000
_cell_angle_beta 36.182215
_cell_angle_gamma 90.000000
_cell_volume 1014.347429
_symmetry_space_group_name_H-M "P 21/C"
_symmetry_group_IT_number 14
_symmetry_cell_setting 'monoclinic'
loop_
_space_group_symop_operation_xyz
x,y,z
-x,1/2+y,1/2-z
-x,-y,-z
x,1/2-y,1/2+z
loop_
_atom_site_type_symbol
_atom_site_label
_atom_site_fract_x
_atom_site_fract_y
_atom_site_fract_z
Si Si1 0.886741 0.720778 0.165024
Si Si2 0.759267 0.116628 0.792784
Si Si3 0.329746 0.567831 0.152542
Si Si4 0.187816 0.995720 0.531229
Si Si5 0.748509 0.513013 0.399661
Si Si6 0.188612 0.716614 0.823460
O O1 0.522404 0.707523 0.260393
O O2 0.113456 0.640034 0.155629
O O3 0.991698 0.648406 0.088838
O O4 0.992764 0.888891 0.144042
O O5 0.653754 0.286114 0.818036
O O6 0.725846 0.099710 0.739558
O O7 0.612150 0.029391 0.873100
O O8 0.128533 0.066379 0.719146
O O9 0.656231 0.512737 0.057714
O O10 0.964983 0.130107 0.596313
O O11 0.500000 0.000000 0.500000
O O12 0.500000 0.500000 0.500000
O O13 0.919017 0.670269 0.363302
#
# Coordination Sequence:
#
# PCOD9241981 Si02
#       6
#     4   4   4   4   4   4
#     4  10  22  37  63  91 120 159 198 249 313 353
#     4  11  21  37  63  89 117 162 209 249 299 359
#     4  10  21  39  63  86 118 162 210 246 296 377
#     4  10  19  38  64  85 115 164 206 237 297 374
#     4  11  24  40  63  89 120 165 210 244 301 371
#     4  12  21  38  63  91 123 153 200 261 302 353
#
# _framework density 23.660533999999998
#
# number of rings (size 3 to 8) (size 9 to 14) (size 15 to 20)
#    0.000    1.333    5.000    4.000    0.000    0.000 
#    0.000    1.667   11.000    0.000    0.000    0.000 
#    0.000    0.000    0.000    0.000    0.000    0.000 
#
# Total GULP energy -133802.560689 kJ/mol
# GULP energy per Si atom -5575.106695 kJ/mol
# Density = 2.360668 g / cm^3
# Si number density = 23.660534 Si / 1000 Ang^3
#
#
#
# Elastic Constant Matrix: (Units=GPa)
#
#
# Indices 1 2 3 4 5 6 
#
# 1 37.8641 13.9538 38.8941 0.0000 -8.6769 0.0000
# 2 13.9538 86.8013 23.7586 0.0000 1.9355 0.0000
# 3 38.8941 23.7586 179.4838 0.0000 6.8396 0.0000
# 4 0.0000 0.0000 0.0000 52.6090 0.0000 1.9822
# 5 -8.6769 1.9355 6.8396 0.0000 33.5128 0.0000
# 6 0.0000 0.0000 0.0000 1.9822 0.0000 24.3962
#
#
#
# Elastic Compliance Matrix: (Units=1/GPa)
#
#
# Indices 1 2 3 4 5 6 
#
# 1 0.039467 -0.004304 -0.008447 0.000000 0.012191 0.000000
# 2 -0.004304 0.012428 -0.000648 0.000000 -0.001700 0.000000
# 3 -0.008447 -0.000648 0.007629 0.000000 -0.003707 0.000000
# 4 0.000000 0.000000 0.000000 0.019067 0.000000 -0.001549
# 5 0.012191 -0.001700 -0.003707 0.000000 0.033850 0.000000
# 6 0.000000 0.000000 0.000000 -0.001549 0.000000 0.041116
#
#
# Mechanical properties :
#
#
# Convention : Reuss Voigt Hill
#
# Bulk Modulus (GPa) = 30.55711 50.81801 40.68756
# Shear Modulus (GPa) = 26.14193 37.27313 31.70753
#
# Velocity S-wave (km/s) = 3.32757 3.97335 3.66471
# Velocity P-wave (km/s) = 5.26369 6.52492 5.92794
#
# Compressibility (1/GPa) = 0.03272561
#
# Stress axis : x y z
#
# Youngs Moduli (GPa) = 25.33745 80.46568 131.07804
#
# Poissons Ratio (x) = 0.34635 1.10726
# Poissons Ratio (y) = 0.10906 0.08488
# Poissons Ratio (z) = 0.21403 0.05211
#
# Static dielectric constant tensor:
#      x y z
#    x 2.081300 0.000000 0.111400 
#    y 0.000000 -0.636880 0.000000 
#    z 0.111400 0.000000 1.948020 
# 
# From -- ./inp_files/79441.got.cif
#   From: 2010.05.17/outbox.cif.g08.bks.cpg/sg14_40_cif.got.tgz:79441.got - 2010.06.03 17:49:19.
