data_PCOD9241545
_publ_section_title
;
Structure prediction by ZEFSAII (Michael W. Deem and Ramdas Pophale) SiO2 
 PCOD9241545
Probable space group: P 21/C
;
_chemical_formula_sum "Si O2"
_cell_formula_units_Z 28
_cell_length_a 21.240215
_cell_length_b 8.834771
_cell_length_c 24.883717
_cell_angle_alpha 90.000000
_cell_angle_beta 18.710634
_cell_angle_gamma 90.000000
_cell_volume 1497.920059
_symmetry_space_group_name_H-M "P 21/C"
_symmetry_group_IT_number 14
_symmetry_cell_setting 'monoclinic'
loop_
_space_group_symop_operation_xyz
x,y,z
-x,1/2+y,1/2-z
-x,-y,-z
x,1/2-y,1/2+z
loop_
_atom_site_type_symbol
_atom_site_label
_atom_site_fract_x
_atom_site_fract_y
_atom_site_fract_z
Si Si1 0.616263 0.824631 0.254476
Si Si2 0.982924 0.355349 0.052019
Si Si3 0.631283 0.706482 0.618988
Si Si4 0.728760 0.419748 0.473970
Si Si5 0.175664 0.901610 0.881874
Si Si6 0.813359 0.280100 0.512477
Si Si7 0.971493 0.555961 0.864167
O O1 0.645695 0.860576 0.167534
O O2 0.426665 0.716064 0.411689
O O3 0.636449 0.987144 0.266985
O O4 0.804278 0.726689 0.120684
O O5 0.950134 0.391007 0.141082
O O6 0.817534 0.245762 0.160900
O O7 0.000000 0.500000 0.000000
O O8 0.633561 0.575331 0.572681
O O9 0.420781 0.784978 0.789131
O O10 0.806640 0.827628 0.475274
O O11 0.856847 0.367218 0.422098
O O12 0.859157 0.450553 0.316837
O O13 0.107361 0.848116 0.996388
O O14 0.000000 0.000000 0.000000
O O15 0.874697 0.106942 0.453450
#
# Coordination Sequence:
#
# PCOD9241545 Si02
#       7
#     4   4   4   4   4   4   4
#     4   9  20  36  58  85 111 154 200 245 292 366
#     4  10  19  36  61  82 110 153 212 243 284 363
#     4  10  20  36  59  88 114 151 201 244 296 374
#     4  11  22  37  58  88 127 151 187 258 321 358
#     4  10  20  36  61  86 111 155 216 247 281 355
#     4  11  20  37  64  87 115 160 203 244 300 366
#     4  11  23  37  57  92 122 152 192 258 317 354
#
# _framework density 18.692585999999999
#
# number of rings (size 3 to 8) (size 9 to 14) (size 15 to 20)
#    0.000    1.714    2.857    3.429    2.000    0.000 
#    0.000    1.429    0.000    0.000    0.000    0.000 
#    0.000    0.000    0.000    0.000    0.000    0.000 
#
# Total GULP energy -156101.614274 kJ/mol
# GULP energy per Si atom -5575.057653 kJ/mol
# Density = 1.865004 g / cm^3
# Si number density = 18.692586 Si / 1000 Ang^3
#
#
#
# Elastic Constant Matrix: (Units=GPa)
#
#
# Indices 1 2 3 4 5 6 
#
# 1 108.3189 46.2535 36.2937 0.0000 10.2188 0.0000
# 2 46.2535 103.0431 30.8774 0.0000 6.4824 0.0000
# 3 36.2937 30.8774 68.1277 0.0000 14.2444 0.0000
# 4 0.0000 0.0000 0.0000 13.0984 0.0000 -0.1442
# 5 10.2188 6.4824 14.2444 0.0000 20.8429 0.0000
# 6 0.0000 0.0000 0.0000 -0.1442 0.0000 44.3710
#
#
#
# Elastic Compliance Matrix: (Units=1/GPa)
#
#
# Indices 1 2 3 4 5 6 
#
# 1 0.012719 -0.004256 -0.004456 0.000000 -0.001866 0.000000
# 2 -0.004256 0.012654 -0.003595 0.000000 0.000608 0.000000
# 3 -0.004456 -0.003595 0.020990 0.000000 -0.011042 0.000000
# 4 0.000000 0.000000 0.000000 0.076348 0.000000 0.000248
# 5 -0.001866 0.000608 -0.011042 0.000000 0.056250 0.000000
# 6 0.000000 0.000000 0.000000 0.000248 0.000000 0.022538
#
#
# Mechanical properties :
#
#
# Convention : Reuss Voigt Hill
#
# Bulk Modulus (GPa) = 45.98071 56.25989 51.12030
# Shear Modulus (GPa) = 21.42573 26.73347 24.07960
#
# Velocity S-wave (km/s) = 3.38925 3.78585 3.59303
# Velocity P-wave (km/s) = 6.32201 7.01947 6.67985
#
# Compressibility (1/GPa) = 0.02174825
#
# Stress axis : x y z
#
# Youngs Moduli (GPa) = 78.62412 79.02494 47.64076
#
# Poissons Ratio (x) = 0.33636 0.21230
# Poissons Ratio (y) = 0.33465 0.17126
# Poissons Ratio (z) = 0.35037 0.28409
#
# Static dielectric constant tensor:
#      x y z
#    x 1.689130 0.000000 -0.026560 
#    y 0.000000 1.710550 0.000000 
#    z -0.026560 0.000000 1.611030 
# 
# From -- ./inp_files/74616.got.cif
#   From: 2010.05.17/outbox.cif.g08.bks.cpg/sg14_38_cif.got.tgz:74616.got - 2010.06.03 17:49:19.
