data_PCOD9241587
_publ_section_title
;
Structure prediction by ZEFSAII (Michael W. Deem and Ramdas Pophale) SiO2 
 PCOD9241587
Probable space group: P 21/C
;
_chemical_formula_sum "Si O2"
_cell_formula_units_Z 32
_cell_length_a 7.557473
_cell_length_b 11.766959
_cell_length_c 17.026947
_cell_angle_alpha 90.000000
_cell_angle_beta 112.425767
_cell_angle_gamma 90.000000
_cell_volume 1399.669877
_symmetry_space_group_name_H-M "P 21/C"
_symmetry_group_IT_number 14
_symmetry_cell_setting 'monoclinic'
loop_
_space_group_symop_operation_xyz
x,y,z
-x,1/2+y,1/2-z
-x,-y,-z
x,1/2-y,1/2+z
loop_
_atom_site_type_symbol
_atom_site_label
_atom_site_fract_x
_atom_site_fract_y
_atom_site_fract_z
Si Si1 0.438967 0.256939 0.422161
Si Si2 0.540540 0.306504 0.097697
Si Si3 0.901586 0.973550 0.832574
Si Si4 0.496628 0.542080 0.178203
Si Si5 0.053989 0.733864 0.909664
Si Si6 0.741933 0.187145 0.263964
Si Si7 0.194981 0.668245 0.575339
Si Si8 0.087719 0.164566 0.763059
O O1 0.395492 0.230645 0.505387
O O2 0.487720 0.137664 0.387336
O O3 0.622577 0.340079 0.450339
O O4 0.277154 0.314205 0.343356
O O5 0.492096 0.421062 0.135125
O O6 0.745161 0.319436 0.086495
O O7 0.588073 0.211732 0.170335
O O8 0.892932 0.053694 0.907713
O O9 0.996502 0.048669 0.779658
O O10 0.688633 0.947410 0.764093
O O11 0.021213 0.864467 0.878219
O O12 0.315354 0.570778 0.203303
O O13 0.899908 0.670439 0.828948
O O14 0.058903 0.744531 0.004619
O O15 0.720172 0.276968 0.331097
O O16 0.946174 0.229640 0.264889
#
# Coordination Sequence:
#
# PCOD9241587 Si02
#       8
#     4   4   4   4   4   4   4   4
#     4  10  21  37  63  91 114 158 203 248 303 362
#     4  10  20  41  60  86 121 157 203 255 296 366
#     4  11  20  38  61  85 122 159 196 251 305 356
#     4  11  19  37  65  84 115 164 200 246 311 358
#     4  10  19  36  62  86 114 161 199 247 298 354
#     4   9  20  38  57  83 123 157 191 252 303 354
#     4   9  19  37  56  86 122 151 198 242 303 365
#     4  10  20  40  57  85 121 150 201 255 294 357
#
# _framework density 22.862535000000001
#
# number of rings (size 3 to 8) (size 9 to 14) (size 15 to 20)
#    0.000    2.000    5.000    0.750    0.000    0.000 
#   11.250    1.875    2.750    0.000    0.000    0.000 
#    0.000    0.000    0.000    0.000    0.000    0.000 
#
# Total GULP energy -178422.387761 kJ/mol
# GULP energy per Si atom -5575.699618 kJ/mol
# Density = 2.281050 g / cm^3
# Si number density = 22.862535 Si / 1000 Ang^3
#
#
#
# Elastic Constant Matrix: (Units=GPa)
#
#
# Indices 1 2 3 4 5 6 
#
# 1 39.8537 9.5013 -5.2611 0.0000 1.0225 0.0000
# 2 9.5013 42.8840 -9.4496 0.0000 -6.9753 0.0000
# 3 -5.2611 -9.4496 125.0504 0.0000 -0.1250 0.0000
# 4 0.0000 0.0000 0.0000 -112.0858 0.0000 31.1397
# 5 1.0225 -6.9753 -0.1250 0.0000 27.5260 0.0000
# 6 0.0000 0.0000 0.0000 31.1397 0.0000 29.2442
#
#
#
# Elastic Compliance Matrix: (Units=1/GPa)
#
#
# Indices 1 2 3 4 5 6 
#
# 1 0.026720 -0.006192 0.000654 0.000000 -0.002559 0.000000
# 2 -0.006192 0.026189 0.001725 0.000000 0.006874 0.000000
# 3 0.000654 0.001725 0.008155 0.000000 0.000450 0.000000
# 4 0.000000 0.000000 0.000000 -0.006885 0.000000 0.007331
# 5 -0.002559 0.006874 0.000450 0.000000 0.038168 0.000000
# 6 0.000000 0.000000 0.000000 0.007331 0.000000 0.026388
#
#
# Mechanical properties :
#
#
# Convention : Reuss Voigt Hill
#
# Bulk Modulus (GPa) = 18.71336 21.92992 20.32164
# Shear Modulus (GPa) = 34.68012 3.13671 18.90841
#
# Velocity S-wave (km/s) = 3.89896 1.17259 2.87896
# Velocity P-wave (km/s) = 5.33593 3.38322 4.46757
#
# Compressibility (1/GPa) = 0.05343777
#
# Stress axis : x y z
#
# Youngs Moduli (GPa) = 37.42517 38.18398 122.62253
#
# Poissons Ratio (x) = 0.23644 -0.08015
# Poissons Ratio (y) = 0.23174 -0.21157
# Poissons Ratio (z) = -0.02446 -0.06588
#
# Static dielectric constant tensor:
#      x y z
#    x 1.928900 0.000000 -0.017380 
#    y 0.000000 1.865140 0.000000 
#    z -0.017380 0.000000 1.927660 
# 
# From -- ./inp_files/55607.got.cif
#   From: 2010.05.17/outbox.cif.g08.bks.cpg/sg14_28_cif.got.tgz:55607.got - 2010.06.03 17:49:19.
