data_PCOD9241660
_publ_section_title
;
Structure prediction by ZEFSAII (Michael W. Deem and Ramdas Pophale) SiO2 
 PCOD9241660
Probable space group: P 21/C
;
_chemical_formula_sum "Si O2"
_cell_formula_units_Z 32
_cell_length_a 14.350817
_cell_length_b 21.885998
_cell_length_c 5.331192
_cell_angle_alpha 90.000000
_cell_angle_beta 79.758196
_cell_angle_gamma 90.000000
_cell_volume 1647.751042
_symmetry_space_group_name_H-M "P 21/C"
_symmetry_group_IT_number 14
_symmetry_cell_setting 'monoclinic'
loop_
_space_group_symop_operation_xyz
x,y,z
-x,1/2+y,1/2-z
-x,-y,-z
x,1/2-y,1/2+z
loop_
_atom_site_type_symbol
_atom_site_label
_atom_site_fract_x
_atom_site_fract_y
_atom_site_fract_z
Si Si1 0.132102 0.708754 0.710447
Si Si2 0.384123 0.334762 0.532626
Si Si3 0.166305 0.182824 0.199463
Si Si4 0.292867 0.606194 0.630929
Si Si5 0.571286 0.909433 0.490329
Si Si6 0.086193 0.320967 0.237811
Si Si7 0.422206 0.717922 0.505551
Si Si8 0.354875 0.954446 0.601619
O O1 0.144233 0.748256 0.959193
O O2 0.205673 0.653145 0.668095
O O3 0.025330 0.682718 0.753411
O O4 0.277281 0.311411 0.597932
O O5 0.398788 0.381397 0.757326
O O6 0.464427 0.284093 0.538320
O O7 0.403459 0.365729 0.254536
O O8 0.121810 0.250555 0.243536
O O9 0.141163 0.151629 0.474718
O O10 0.116182 0.150811 0.988019
O O11 0.384170 0.650793 0.578951
O O12 0.301088 0.564784 0.380189
O O13 0.299407 0.567996 0.882458
O O14 0.458380 0.921802 0.550129
O O15 0.622668 0.973944 0.421956
O O16 0.388581 0.760675 0.749039
#
# Coordination Sequence:
#
# PCOD9241660 Si02
#       8
#     4   4   4   4   4   4   4   4
#     4  12  21  38  60  86 123 157 196 239 287 352
#     4  12  23  37  59  88 117 162 200 232 302 356
#     4  10  20  33  55  79 117 146 191 239 276 336
#     4  12  23  39  57  88 117 160 200 237 299 356
#     4  11  22  41  62  84 116 155 205 258 294 338
#     4  10  19  37  53  83 114 151 195 239 271 337
#     4  12  24  36  49  80 127 162 186 218 277 359
#     4  11  22  41  62  84 116 155 203 262 292 338
#
# _framework density 19.420408999999999
#
# number of rings (size 3 to 8) (size 9 to 14) (size 15 to 20)
#    0.000    0.750    5.000    4.500    3.500    2.000 
#    0.000    0.000    0.000    0.000    0.000   17.500 
#    0.000    0.000    0.000    0.000    0.000    0.000 
#
# Total GULP energy -178858.535685 kJ/mol
# GULP energy per Si atom -5589.329240 kJ/mol
# Density = 1.937621 g / cm^3
# Si number density = 19.420409 Si / 1000 Ang^3
#
#
#
# Elastic Constant Matrix: (Units=GPa)
#
#
# Indices 1 2 3 4 5 6 
#
# 1 59.1366 -4.8592 -0.7334 0.0000 -11.4098 0.0000
# 2 -4.8592 16.5428 7.6372 0.0000 3.9630 0.0000
# 3 -0.7334 7.6372 75.4767 0.0000 14.1504 0.0000
# 4 0.0000 0.0000 0.0000 29.8499 0.0000 -2.3986
# 5 -11.4098 3.9630 14.1504 0.0000 26.3379 0.0000
# 6 0.0000 0.0000 0.0000 -2.3986 0.0000 27.8443
#
#
#
# Elastic Compliance Matrix: (Units=1/GPa)
#
#
# Indices 1 2 3 4 5 6 
#
# 1 0.018890 0.004364 -0.001856 0.000000 0.008524 0.000000
# 2 0.004364 0.065526 -0.005664 0.000000 -0.004926 0.000000
# 3 -0.001856 -0.005664 0.015340 0.000000 -0.008194 0.000000
# 4 0.000000 0.000000 0.000000 0.033735 0.000000 0.002906
# 5 0.008524 -0.004926 -0.008194 0.000000 0.046804 0.000000
# 6 0.000000 0.000000 0.000000 0.002906 0.000000 0.036164
#
#
# Mechanical properties :
#
#
# Convention : Reuss Voigt Hill
#
# Bulk Modulus (GPa) = 10.70170 17.24946 13.97558
# Shear Modulus (GPa) = 19.69116 26.74719 23.21918
#
# Velocity S-wave (km/s) = 3.18770 3.71519 3.46151
# Velocity P-wave (km/s) = 4.36704 5.22541 4.81539
#
# Compressibility (1/GPa) = 0.09344307
#
# Stress axis : x y z
#
# Youngs Moduli (GPa) = 52.93766 15.26105 65.18743
#
# Poissons Ratio (x) = -0.06659 0.12099
# Poissons Ratio (y) = -0.23100 0.36925
# Poissons Ratio (z) = 0.09825 0.08645
#
# Static dielectric constant tensor:
#      x y z
#    x 1.685310 0.000000 0.025550 
#    y 0.000000 1.545820 0.000000 
#    z 0.025550 0.000000 1.751050 
# 
# From -- ./inp_files/3908.got.cif
#   From: 2010.05.17/outbox.cif.g08.bks.cpg/sg14_2_cif.got.tgz:3908.got - 2010.06.03 17:49:19.
