data_PCOD9241512
_publ_section_title
;
Structure prediction by ZEFSAII (Michael W. Deem and Ramdas Pophale) SiO2 
 PCOD9241512
Probable space group: P 21/C
;
_chemical_formula_sum "Si O2"
_cell_formula_units_Z 24
_cell_length_a 16.164597
_cell_length_b 11.249070
_cell_length_c 12.839021
_cell_angle_alpha 90.000000
_cell_angle_beta 28.300370
_cell_angle_gamma 90.000000
_cell_volume 1106.821975
_symmetry_space_group_name_H-M "P 21/C"
_symmetry_group_IT_number 14
_symmetry_cell_setting 'monoclinic'
loop_
_space_group_symop_operation_xyz
x,y,z
-x,1/2+y,1/2-z
-x,-y,-z
x,1/2-y,1/2+z
loop_
_atom_site_type_symbol
_atom_site_label
_atom_site_fract_x
_atom_site_fract_y
_atom_site_fract_z
Si Si1 0.556320 0.624369 0.487898
Si Si2 0.710244 0.054756 0.341573
Si Si3 0.972925 0.200268 0.177928
Si Si4 0.223773 0.740709 0.419240
Si Si5 0.939484 0.874125 0.608816
Si Si6 0.341484 0.152364 0.749441
O O1 0.500000 0.500000 0.500000
O O2 0.401651 0.685246 0.723572
O O3 0.733805 0.617249 0.356453
O O4 0.595990 0.715969 0.349538
O O5 0.854258 0.091903 0.266305
O O6 0.748993 0.135041 0.194401
O O7 0.515416 0.086697 0.596900
O O8 0.706538 0.920747 0.303680
O O9 0.851772 0.284886 0.383347
O O10 0.029802 0.278665 0.016640
O O11 0.160823 0.156658 0.012218
O O12 0.072734 0.829670 0.547487
O O13 0.000000 0.000000 0.500000
#
# Coordination Sequence:
#
# PCOD9241512 Si02
#       6
#     4   4   4   4   4   4
#     4  10  19  36  60  82 113 152 193 237 296 350
#     4   9  19  38  59  79 119 154 190 241 290 350
#     4  10  21  35  57  88 117 148 199 243 291 348
#     4  10  21  36  57  89 116 152 196 241 291 349
#     4  10  20  37  59  82 116 160 191 239 296 352
#     4   9  19  36  60  80 110 154 191 236 297 344
#
# _framework density 21.683703000000001
#
# number of rings (size 3 to 8) (size 9 to 14) (size 15 to 20)
#    0.000    2.333    1.667    0.500    0.000    2.667 
#    0.000    3.333    0.000    0.000    0.000    0.000 
#    0.000    0.000    0.000    0.000    0.000    0.000 
#
# Total GULP energy -133834.458385 kJ/mol
# GULP energy per Si atom -5576.435766 kJ/mol
# Density = 2.163435 g / cm^3
# Si number density = 21.683703 Si / 1000 Ang^3
#
#
#
# Elastic Constant Matrix: (Units=GPa)
#
#
# Indices 1 2 3 4 5 6 
#
# 1 37.1451 7.7596 40.3962 0.0000 -26.8211 0.0000
# 2 7.7596 93.0183 12.1477 0.0000 -13.2495 0.0000
# 3 40.3962 12.1477 170.4650 0.0000 -36.3135 0.0000
# 4 0.0000 0.0000 0.0000 17.6446 0.0000 -16.3242
# 5 -26.8211 -13.2495 -36.3135 0.0000 32.8888 0.0000
# 6 0.0000 0.0000 0.0000 -16.3242 0.0000 19.8517
#
#
#
# Elastic Compliance Matrix: (Units=1/GPa)
#
#
# Indices 1 2 3 4 5 6 
#
# 1 0.069986 0.002268 -0.005745 0.000000 0.051645 0.000000
# 2 0.002268 0.011485 0.000031 0.000000 0.006511 0.000000
# 3 -0.005745 0.000031 0.008146 0.000000 0.004322 0.000000
# 4 0.000000 0.000000 0.000000 0.236910 0.000000 0.194814
# 5 0.051645 0.006511 0.004322 0.000000 0.079917 0.000000
# 6 0.000000 0.000000 0.000000 0.194814 0.000000 0.210571
#
#
# Mechanical properties :
#
#
# Convention : Reuss Voigt Hill
#
# Bulk Modulus (GPa) = 12.08816 46.80394 29.44605
# Shear Modulus (GPa) = 7.67481 30.09866 18.88674
#
# Velocity S-wave (km/s) = 1.88338 3.72973 2.95449
# Velocity P-wave (km/s) = 3.21191 6.33874 5.02474
#
# Compressibility (1/GPa) = 0.08272557
#
# Stress axis : x y z
#
# Youngs Moduli (GPa) = 14.28853 87.07250 122.75650
#
# Poissons Ratio (x) = -0.19750 0.70524
# Poissons Ratio (y) = -0.03241 -0.00381
# Poissons Ratio (z) = 0.08209 -0.00270
#
# Static dielectric constant tensor:
#      x y z
#    x 2.196940 0.000000 0.107830 
#    y 0.000000 1.716960 0.000000 
#    z 0.107830 0.000000 1.899400 
# 
# From -- ./inp_files/47004.got.cif
#   From: 2010.05.17/outbox.cif.g08.bks.cpg/sg14_24_cif.got.tgz:47004.got - 2010.06.03 17:49:19.
