data_PCOD9241095
_publ_section_title
;
Structure prediction by ZEFSAII (Michael W. Deem and Ramdas Pophale) SiO2 
 PCOD9241095
Probable space group: P 21/C
;
_chemical_formula_sum "Si O2"
_cell_formula_units_Z 32
_cell_length_a 7.704868
_cell_length_b 23.178827
_cell_length_c 8.014097
_cell_angle_alpha 90.000000
_cell_angle_beta 106.767770
_cell_angle_gamma 90.000000
_cell_volume 1370.382610
_symmetry_space_group_name_H-M "P 21/C"
_symmetry_group_IT_number 14
_symmetry_cell_setting 'monoclinic'
loop_
_space_group_symop_operation_xyz
x,y,z
-x,1/2+y,1/2-z
-x,-y,-z
x,1/2-y,1/2+z
loop_
_atom_site_type_symbol
_atom_site_label
_atom_site_fract_x
_atom_site_fract_y
_atom_site_fract_z
Si Si1 0.623639 0.630796 0.956235
Si Si2 0.789395 0.887844 0.836488
Si Si3 0.592585 0.215049 0.816133
Si Si4 0.689014 0.979670 0.271993
Si Si5 0.261894 0.509845 0.587387
Si Si6 0.585280 0.337452 0.680271
Si Si7 0.898977 0.369309 0.331395
Si Si8 0.241154 0.590333 0.026146
O O1 0.764935 0.638008 0.145755
O O2 0.436069 0.604964 0.988885
O O3 0.565996 0.687130 0.838928
O O4 0.693959 0.584214 0.844328
O O5 0.823279 0.956541 0.834258
O O6 0.592307 0.877033 0.864289
O O7 0.930471 0.860439 0.003070
O O8 0.575709 0.283335 0.803267
O O9 0.777732 0.188256 0.794695
O O10 0.595860 0.190236 0.002774
O O11 0.475178 0.992258 0.186388
O O12 0.764293 0.023592 0.430529
O O13 0.772322 0.992252 0.114192
O O14 0.199890 0.574286 0.614446
O O15 0.748312 0.376270 0.794750
O O16 0.911662 0.388503 0.142486
#
# Coordination Sequence:
#
# PCOD9241095 Si02
#       8
#     4   4   4   4   4   4   4   4
#     4  10  19  34  58  84 116 157 199 238 286 348
#     4  11  23  39  59  90 125 156 191 246 303 346
#     4  11  22  41  64  87 112 151 204 246 285 352
#     4  11  18  32  58  90 116 159 208 240 273 350
#     4  11  20  33  58  89 126 156 196 240 293 348
#     4  11  22  41  64  87 112 151 204 246 285 352
#     4  11  23  39  59  90 125 156 191 246 303 346
#     4  10  19  34  58  84 116 157 199 238 286 348
#
# _framework density 23.351144000000001
#
# number of rings (size 3 to 8) (size 9 to 14) (size 15 to 20)
#    0.000    1.250    5.000    5.250    0.000    0.000 
#    0.000   11.250    0.000    0.000    0.000    0.000 
#    0.000    0.000    0.000    0.000    0.000    0.000 
#
# Total GULP energy -178970.269812 kJ/mol
# GULP energy per Si atom -5592.820932 kJ/mol
# Density = 2.329800 g / cm^3
# Si number density = 23.351144 Si / 1000 Ang^3
#
#
#
# Elastic Constant Matrix: (Units=GPa)
#
#
# Indices 1 2 3 4 5 6 
#
# 1 30.7827 8.3948 24.2604 0.0000 15.3556 0.0000
# 2 8.3948 78.9531 -2.4216 0.0000 16.5832 0.0000
# 3 24.2604 -2.4216 157.6609 0.0000 24.8945 0.0000
# 4 0.0000 0.0000 0.0000 41.5921 0.0000 -11.8156
# 5 15.3556 16.5832 24.8945 0.0000 30.2857 0.0000
# 6 0.0000 0.0000 0.0000 -11.8156 0.0000 9.7505
#
#
#
# Elastic Compliance Matrix: (Units=1/GPa)
#
#
# Indices 1 2 3 4 5 6 
#
# 1 0.045490 -0.000902 -0.003964 0.000000 -0.019312 0.000000
# 2 -0.000902 0.014725 0.001799 0.000000 -0.009084 0.000000
# 3 -0.003964 0.001799 0.007836 0.000000 -0.005416 0.000000
# 4 0.000000 0.000000 0.000000 0.036665 0.000000 0.044431
# 5 -0.019312 -0.009084 -0.005416 0.000000 0.052237 0.000000
# 6 0.000000 0.000000 0.000000 0.044431 0.000000 0.156400
#
#
# Mechanical properties :
#
#
# Convention : Reuss Voigt Hill
#
# Bulk Modulus (GPa) = 16.15094 36.42933 26.29014
# Shear Modulus (GPa) = 14.70050 32.13652 23.41851
#
# Velocity S-wave (km/s) = 2.51179 3.71378 3.17027
# Velocity P-wave (km/s) = 3.91710 5.83302 4.96829
#
# Compressibility (1/GPa) = 0.06191589
#
# Stress axis : x y z
#
# Youngs Moduli (GPa) = 21.98306 67.91203 127.62318
#
# Poissons Ratio (x) = 0.06127 0.50595
# Poissons Ratio (y) = 0.01983 -0.22965
# Poissons Ratio (z) = 0.08715 -0.12220
#
# Static dielectric constant tensor:
#      x y z
#    x 1.945190 0.000000 -0.027600 
#    y 0.000000 1.804550 0.000000 
#    z -0.027600 0.000000 1.916180 
# 
# From -- ./inp_files/10818.got.cif
#   From: 2010.05.17/outbox.cif.g08.bks.cpg/sg14_6_cif.got.tgz:10818.got - 2010.06.03 17:49:19.
