data_PCOD9241450
_publ_section_title
;
Structure prediction by ZEFSAII (Michael W. Deem and Ramdas Pophale) SiO2 
 PCOD9241450
Probable space group: P 21/C
;
_chemical_formula_sum "Si O2"
_cell_formula_units_Z 22
_cell_length_a 25.530392
_cell_length_b 7.081947
_cell_length_c 27.983971
_cell_angle_alpha 90.000000
_cell_angle_beta 170.037119
_cell_angle_gamma 90.000000
_cell_volume 875.368757
_symmetry_space_group_name_H-M "P 21/C"
_symmetry_group_IT_number 14
_symmetry_cell_setting 'monoclinic'
loop_
_space_group_symop_operation_xyz
x,y,z
-x,1/2+y,1/2-z
-x,-y,-z
x,1/2-y,1/2+z
loop_
_atom_site_type_symbol
_atom_site_label
_atom_site_fract_x
_atom_site_fract_y
_atom_site_fract_z
Si Si1 0.000000 0.500000 0.000000
Si Si2 0.695514 0.289107 0.528584
Si Si3 0.874238 0.214021 0.023091
Si Si4 0.028570 0.152023 0.419919
Si Si5 0.792114 0.721951 0.585229
Si Si6 0.810463 0.607965 0.289804
O O1 0.954584 0.379026 0.908800
O O2 0.202068 0.324931 0.204185
O O3 0.350645 0.240622 0.206888
O O4 0.712784 0.513814 0.532941
O O5 0.949780 0.206707 0.722395
O O6 0.787870 0.261995 0.666746
O O7 0.917067 0.438462 0.051034
O O8 0.517755 0.186548 0.711778
O O9 0.073505 0.169990 0.248309
O O10 0.996861 0.116107 0.085963
O O11 0.000000 0.500000 0.500000
O O12 0.500000 0.500000 0.000000
#
# Coordination Sequence:
#
# PCOD9241450 Si02
#       6
#     2   4   4   4   4   4
#     4  10  24  46  70  94 138 184 214 294 356 394
#     4  10  20  36  56  87 116 157 209 258 313 406
#     4   9  19  37  60  81 120 168 198 259 331 391
#     4   9  20  37  61  85 117 163 215 251 327 407
#     4  10  19  36  57  81 118 159 202 257 327 380
#     4  11  24  43  67 100 134 172 234 276 338 428
#
# _framework density 25.132265
#
# number of rings (size 3 to 8) (size 9 to 14) (size 15 to 20)
#    0.000    2.182    0.000    2.182    0.000    7.273 
#    9.818    0.000    0.000    0.000    0.000    0.000 
#    0.000    0.000    0.000    0.000    0.000    0.000 
#
# Total GULP energy -122655.299809 kJ/mol
# GULP energy per Si atom -5575.240900 kJ/mol
# Density = 2.507506 g / cm^3
# Si number density = 25.132265 Si / 1000 Ang^3
#
#
#
# Elastic Constant Matrix: (Units=GPa)
#
#
# Indices 1 2 3 4 5 6 
#
# 1 71.1170 8.6778 -16.1867 0.0000 -3.7880 0.0000
# 2 8.6778 98.9080 42.8105 0.0000 2.3818 0.0000
# 3 -16.1867 42.8105 104.8994 0.0000 -3.3663 0.0000
# 4 0.0000 0.0000 0.0000 14.2633 0.0000 -5.2217
# 5 -3.7880 2.3818 -3.3663 0.0000 25.5716 0.0000
# 6 0.0000 0.0000 0.0000 -5.2217 0.0000 32.1509
#
#
#
# Elastic Compliance Matrix: (Units=1/GPa)
#
#
# Indices 1 2 3 4 5 6 
#
# 1 0.015442 -0.003039 0.003721 0.000000 0.003060 0.000000
# 2 -0.003039 0.012962 -0.005837 0.000000 -0.002426 0.000000
# 3 0.003721 -0.005837 0.012577 0.000000 0.002751 0.000000
# 4 0.000000 0.000000 0.000000 0.074542 0.000000 0.012107
# 5 0.003060 -0.002426 0.002751 0.000000 0.040147 0.000000
# 6 0.000000 0.000000 0.000000 0.012107 0.000000 0.033070
#
#
# Mechanical properties :
#
#
# Convention : Reuss Voigt Hill
#
# Bulk Modulus (GPa) = 32.60261 38.39195 35.49728
# Shear Modulus (GPa) = 23.89217 30.37202 27.13209
#
# Velocity S-wave (km/s) = 3.08662 3.48010 3.28925
# Velocity P-wave (km/s) = 5.06986 5.60868 5.34606
#
# Compressibility (1/GPa) = 0.03067239
#
# Stress axis : x y z
#
# Youngs Moduli (GPa) = 64.75747 77.14994 79.50742
#
# Poissons Ratio (x) = 0.23448 -0.29588
# Poissons Ratio (y) = 0.19682 0.46406
# Poissons Ratio (z) = -0.24099 0.45030
#
# Static dielectric constant tensor:
#      x y z
#    x 1.915590 0.000000 0.056980 
#    y 0.000000 2.021660 0.000000 
#    z 0.056980 0.000000 1.906550 
# 
# From -- ./inp_files/78603.got.cif
#   From: 2010.05.17/outbox.cif.g08.bks.cpg/sg14_40_cif.got.tgz:78603.got - 2010.06.03 17:49:19.
