data_PCOD9241503
_publ_section_title
;
Structure prediction by ZEFSAII (Michael W. Deem and Ramdas Pophale) SiO2 
 PCOD9241503
Probable space group: P 21/C
;
_chemical_formula_sum "Si O2"
_cell_formula_units_Z 32
_cell_length_a 27.405453
_cell_length_b 9.775176
_cell_length_c 19.571737
_cell_angle_alpha 90.000000
_cell_angle_beta 14.566046
_cell_angle_gamma 90.000000
_cell_volume 1318.626347
_symmetry_space_group_name_H-M "P 21/C"
_symmetry_group_IT_number 14
_symmetry_cell_setting 'monoclinic'
loop_
_space_group_symop_operation_xyz
x,y,z
-x,1/2+y,1/2-z
-x,-y,-z
x,1/2-y,1/2+z
loop_
_atom_site_type_symbol
_atom_site_label
_atom_site_fract_x
_atom_site_fract_y
_atom_site_fract_z
Si Si1 0.958201 0.545087 0.260981
Si Si2 0.664559 0.882564 0.278242
Si Si3 0.234439 0.270063 0.066131
Si Si4 0.317590 0.411904 0.089364
Si Si5 0.268359 0.963867 0.443580
Si Si6 0.549959 0.385081 0.486911
Si Si7 0.691952 0.268657 0.906600
Si Si8 0.245083 0.672182 0.539128
O O1 0.828006 0.569264 0.504412
O O2 0.886682 0.645558 0.299107
O O3 0.923358 0.395788 0.277246
O O4 0.170165 0.568851 0.003724
O O5 0.723632 0.868080 0.277146
O O6 0.583818 0.740724 0.357777
O O7 0.500000 0.000000 0.500000
O O8 0.225825 0.313141 0.156713
O O9 0.168666 0.405774 0.113793
O O10 0.460253 0.234778 0.741311
O O11 0.256400 0.570511 0.163628
O O12 0.551399 0.400428 0.757891
O O13 0.266650 0.829543 0.489549
O O14 0.482531 0.022128 0.143310
O O15 0.500000 0.500000 0.500000
O O16 0.718186 0.297879 0.296124
O O17 0.789681 0.178307 0.833142
#
# Coordination Sequence:
#
# PCOD9241503 Si02
#       8
#     4   4   4   4   4   4   4   4
#     4  12  23  40  62  87 127 164 207 252 294 380
#     4  12  21  39  60  92 123 160 200 255 316 354
#     4  10  20  39  58  88 120 160 203 253 298 353
#     4  11  20  36  65  90 122 154 207 258 307 359
#     4  11  23  39  61  88 121 163 204 242 303 365
#     4  11  23  39  61  92 124 153 201 265 304 359
#     4  10  19  36  59  89 122 149 205 261 294 359
#     4  11  21  34  64  89 112 166 206 246 306 355
#
# _framework density 24.267679000000001
#
# number of rings (size 3 to 8) (size 9 to 14) (size 15 to 20)
#    0.000    1.000    7.500    1.500    0.000    1.000 
#    0.000    0.625    2.750    1.500    0.000    0.000 
#    0.000    0.000    0.000    0.000    0.000    0.000 
#
# Total GULP energy -178672.986741 kJ/mol
# GULP energy per Si atom -5583.530836 kJ/mol
# Density = 2.421245 g / cm^3
# Si number density = 24.267679 Si / 1000 Ang^3
#
#
#
# Elastic Constant Matrix: (Units=GPa)
#
#
# Indices 1 2 3 4 5 6 
#
# 1 154.6040 17.0515 -2.9446 0.0000 4.3470 0.0000
# 2 17.0515 98.6164 -9.3483 0.0000 13.5384 0.0000
# 3 -2.9446 -9.3483 42.8598 0.0000 7.7242 0.0000
# 4 0.0000 0.0000 0.0000 4.3086 0.0000 -4.2566
# 5 4.3470 13.5384 7.7242 0.0000 21.0500 0.0000
# 6 0.0000 0.0000 0.0000 -4.2566 0.0000 57.3704
#
#
#
# Elastic Compliance Matrix: (Units=1/GPa)
#
#
# Indices 1 2 3 4 5 6 
#
# 1 0.006609 -0.000985 0.000397 0.000000 -0.000877 0.000000
# 2 -0.000985 0.011941 0.004159 0.000000 -0.009003 0.000000
# 3 0.000397 0.004159 0.026517 0.000000 -0.012487 0.000000
# 4 0.000000 0.000000 0.000000 0.250450 0.000000 0.018582
# 5 -0.000877 -0.009003 -0.012487 0.000000 0.058059 0.000000
# 6 0.000000 0.000000 0.000000 0.018582 0.000000 0.018809
#
#
# Mechanical properties :
#
#
# Convention : Reuss Voigt Hill
#
# Bulk Modulus (GPa) = 19.15322 33.95529 26.55425
# Shear Modulus (GPa) = 13.06696 35.96726 24.51711
#
# Velocity S-wave (km/s) = 2.32297 3.85399 3.18194
# Velocity P-wave (km/s) = 3.88646 5.81607 4.94627
#
# Compressibility (1/GPa) = 0.05221054
#
# Stress axis : x y z
#
# Youngs Moduli (GPa) = 151.30950 83.74695 37.71195
#
# Poissons Ratio (x) = 0.08246 -0.01499
# Poissons Ratio (y) = 0.14898 -0.15685
# Poissons Ratio (z) = -0.06013 -0.34832
#
# Static dielectric constant tensor:
#      x y z
#    x 2.075230 0.000000 0.115990 
#    y 0.000000 1.862910 0.000000 
#    z 0.115990 0.000000 2.077080 
# 
# From -- ./inp_files/70490.got.cif
#   From: 2010.05.17/outbox.cif.g08.bks.cpg/sg14_36_cif.got.tgz:70490.got - 2010.06.03 17:49:19.
