data_PCOD9241710
_publ_section_title
;
Structure prediction by ZEFSAII (Michael W. Deem and Ramdas Pophale) SiO2 
 PCOD9241710
Probable space group: P 21/C
;
_chemical_formula_sum "Si O2"
_cell_formula_units_Z 32
_cell_length_a 21.611602
_cell_length_b 9.149656
_cell_length_c 11.789924
_cell_angle_alpha 90.000000
_cell_angle_beta 41.804748
_cell_angle_gamma 90.000000
_cell_volume 1554.047511
_symmetry_space_group_name_H-M "P 21/C"
_symmetry_group_IT_number 14
_symmetry_cell_setting 'monoclinic'
loop_
_space_group_symop_operation_xyz
x,y,z
-x,1/2+y,1/2-z
-x,-y,-z
x,1/2-y,1/2+z
loop_
_atom_site_type_symbol
_atom_site_label
_atom_site_fract_x
_atom_site_fract_y
_atom_site_fract_z
Si Si1 0.789300 0.799437 0.076038
Si Si2 0.513724 0.849284 0.322490
Si Si3 0.891598 0.470566 0.281381
Si Si4 0.720356 0.211069 0.036780
Si Si5 0.711803 0.500314 0.150067
Si Si6 0.642515 0.003401 0.332956
Si Si7 0.589151 0.446925 0.535422
Si Si8 0.100829 0.043538 0.492734
O O1 0.726919 0.671225 0.104363
O O2 0.728643 0.899474 0.242041
O O3 0.867757 0.711415 0.035579
O O4 0.832949 0.902938 0.922243
O O5 0.581184 0.906026 0.330012
O O6 0.489928 0.678182 0.360671
O O7 0.419771 0.937075 0.481805
O O8 0.553079 0.909128 0.149938
O O9 0.829224 0.326587 0.383577
O O10 0.897649 0.499380 0.139735
O O11 0.997036 0.471484 0.181670
O O12 0.697655 0.381792 0.072437
O O13 0.669015 0.125986 0.005416
O O14 0.678950 0.140274 0.208852
O O15 0.633925 0.482757 0.353248
O O16 0.813902 0.460645 0.063257
#
# Coordination Sequence:
#
# PCOD9241710 Si02
#       8
#     4   4   4   4   4   4   4   4
#     4   9  21  36  59  84 112 150 185 237 281 333
#     4  10  22  36  58  79 110 149 195 233 278 341
#     4  10  19  39  62  83 112 158 185 222 287 345
#     4  10  19  37  60  78 115 146 186 229 289 337
#     4  10  21  37  54  86 115 141 190 239 275 333
#     4   9  19  39  55  77 108 152 190 225 284 343
#     4  11  22  38  55  85 110 154 187 237 287 332
#     4   9  21  36  61  85 115 148 190 226 277 346
#
# _framework density 20.591388999999999
#
# number of rings (size 3 to 8) (size 9 to 14) (size 15 to 20)
#    0.750    1.500    2.500    0.000    3.500    1.000 
#    2.250    1.250    0.000    2.250    0.000    0.000 
#    0.000    0.000    0.000    0.000    0.000    0.000 
#
# Total GULP energy -178450.108966 kJ/mol
# GULP energy per Si atom -5576.565905 kJ/mol
# Density = 2.054452 g / cm^3
# Si number density = 20.591389 Si / 1000 Ang^3
#
#
#
# Elastic Constant Matrix: (Units=GPa)
#
#
# Indices 1 2 3 4 5 6 
#
# 1 33.5103 6.9077 15.5079 0.0000 -7.8471 0.0000
# 2 6.9077 58.8493 23.1548 0.0000 -4.1433 0.0000
# 3 15.5079 23.1548 103.8721 0.0000 -5.2285 0.0000
# 4 0.0000 0.0000 0.0000 43.2733 0.0000 -15.2397
# 5 -7.8471 -4.1433 -5.2285 0.0000 15.2410 0.0000
# 6 0.0000 0.0000 0.0000 -15.2397 0.0000 27.7130
#
#
#
# Elastic Compliance Matrix: (Units=1/GPa)
#
#
# Indices 1 2 3 4 5 6 
#
# 1 0.035994 -0.001387 -0.004224 0.000000 0.016706 0.000000
# 2 -0.001387 0.018887 -0.003847 0.000000 0.003101 0.000000
# 3 -0.004224 -0.003847 0.011146 0.000000 0.000603 0.000000
# 4 0.000000 0.000000 0.000000 0.028659 0.000000 0.015760
# 5 0.016706 0.003101 0.000603 0.000000 0.075264 0.000000
# 6 0.000000 0.000000 0.000000 0.015760 0.000000 0.044751
#
#
# Mechanical properties :
#
#
# Convention : Reuss Voigt Hill
#
# Bulk Modulus (GPa) = 21.22615 31.93026 26.57821
# Shear Modulus (GPa) = 20.05449 27.28955 23.67202
#
# Velocity S-wave (km/s) = 3.12416 3.64440 3.39427
# Velocity P-wave (km/s) = 4.83162 5.76621 5.31948
#
# Compressibility (1/GPa) = 0.04711170
#
# Stress axis : x y z
#
# Youngs Moduli (GPa) = 27.78222 52.94549 89.72009
#
# Poissons Ratio (x) = 0.07343 0.37896
# Poissons Ratio (y) = 0.03853 0.34517
# Poissons Ratio (z) = 0.11735 0.20369
#
# Static dielectric constant tensor:
#      x y z
#    x 1.747770 0.000000 -0.050380 
#    y 0.000000 1.756550 0.000000 
#    z -0.050380 0.000000 1.726970 
# 
# From -- ./inp_files/51841.got.cif
#   From: 2010.05.17/outbox.cif.g08.bks.cpg/sg14_26_cif.got.tgz:51841.got - 2010.06.03 17:49:19.
