data_PCOD9241854
_publ_section_title
;
Structure prediction by ZEFSAII (Michael W. Deem and Ramdas Pophale) SiO2 
 PCOD9241854
Probable space group: P 21/C
;
_chemical_formula_sum "Si O2"
_cell_formula_units_Z 24
_cell_length_a 13.027925
_cell_length_b 8.043539
_cell_length_c 18.045237
_cell_angle_alpha 90.000000
_cell_angle_beta 33.192124
_cell_angle_gamma 90.000000
_cell_volume 1035.209002
_symmetry_space_group_name_H-M "P 21/C"
_symmetry_group_IT_number 14
_symmetry_cell_setting 'monoclinic'
loop_
_space_group_symop_operation_xyz
x,y,z
-x,1/2+y,1/2-z
-x,-y,-z
x,1/2-y,1/2+z
loop_
_atom_site_type_symbol
_atom_site_label
_atom_site_fract_x
_atom_site_fract_y
_atom_site_fract_z
Si Si1 0.554369 0.685525 0.872528
Si Si2 0.388906 0.224396 0.914804
Si Si3 0.762461 0.159181 0.216508
Si Si4 0.179673 0.743429 0.166252
Si Si5 0.615099 0.118934 0.162146
Si Si6 0.180102 0.135730 0.179680
O O1 0.675094 0.523191 0.781879
O O2 0.449087 0.762266 0.865059
O O3 0.698626 0.813431 0.823174
O O4 0.380686 0.657003 0.033134
O O5 0.595919 0.205101 0.825901
O O6 0.435433 0.368897 0.827389
O O7 0.345795 0.060056 0.894892
O O8 0.255999 0.245137 0.064459
O O9 0.894243 0.195569 0.206271
O O10 0.789171 0.168235 0.111324
O O11 0.038281 0.680137 0.188878
O O12 0.203190 0.941577 0.147521
#
# Coordination Sequence:
#
# PCOD9241854 Si02
#       6
#     4   4   4   4   4   4
#     4  12  21  41  68  91 130 165 214 263 321 370
#     4  10  20  40  62  94 123 163 214 253 317 372
#     4  10  21  38  65  92 124 167 208 259 315 376
#     4  12  25  41  62  94 133 164 217 257 317 379
#     4  10  19  37  66  93 117 171 206 261 314 374
#     4  12  26  40  65  97 127 173 207 267 315 378
#
# _framework density 23.183724999999999
#
# number of rings (size 3 to 8) (size 9 to 14) (size 15 to 20)
#    1.000    0.000    5.000    3.000    2.333    0.000 
#    0.000    2.500    0.000    4.000    0.000    0.000 
#    0.000    0.000    0.000    0.000    0.000    0.000 
#
# Total GULP energy -133715.588816 kJ/mol
# GULP energy per Si atom -5571.482867 kJ/mol
# Density = 2.313096 g / cm^3
# Si number density = 23.183725 Si / 1000 Ang^3
#
#
#
# Elastic Constant Matrix: (Units=GPa)
#
#
# Indices 1 2 3 4 5 6 
#
# 1 122.6876 33.6584 17.9238 0.0000 6.7943 0.0000
# 2 33.6584 53.2842 8.6496 0.0000 -2.8792 0.0000
# 3 17.9238 8.6496 16.4355 0.0000 -1.5505 0.0000
# 4 0.0000 0.0000 0.0000 13.4578 0.0000 8.6084
# 5 6.7943 -2.8792 -1.5505 0.0000 27.7502 0.0000
# 6 0.0000 0.0000 0.0000 8.6084 0.0000 28.9206
#
#
#
# Elastic Compliance Matrix: (Units=1/GPa)
#
#
# Indices 1 2 3 4 5 6 
#
# 1 0.011388 -0.005828 -0.009724 0.000000 -0.003936 0.000000
# 2 -0.005828 0.023568 -0.005712 0.000000 0.003553 0.000000
# 3 -0.009724 -0.005712 0.075019 0.000000 0.005980 0.000000
# 4 0.000000 0.000000 0.000000 0.091781 0.000000 -0.027319
# 5 -0.003936 0.003553 0.005980 0.000000 0.037702 0.000000
# 6 0.000000 0.000000 0.000000 -0.027319 0.000000 0.042709
#
#
# Mechanical properties :
#
#
# Convention : Reuss Voigt Hill
#
# Bulk Modulus (GPa) = 14.82653 34.76346 24.79500
# Shear Modulus (GPa) = 14.40185 22.83742 18.61963
#
# Velocity S-wave (km/s) = 2.49510 3.14198 2.83704
# Velocity P-wave (km/s) = 3.83534 5.30943 4.63141
#
# Compressibility (1/GPa) = 0.06744664
#
# Stress axis : x y z
#
# Youngs Moduli (GPa) = 87.81042 42.43055 13.33002
#
# Poissons Ratio (x) = 0.24728 0.12962
# Poissons Ratio (y) = 0.51175 0.07615
# Poissons Ratio (z) = 0.85384 0.24238
#
# Static dielectric constant tensor:
#      x y z
#    x 1.985190 0.000000 0.047110 
#    y 0.000000 1.851310 0.000000 
#    z 0.047110 0.000000 1.897460 
# 
# From -- ./inp_files/66771.got.cif
#   From: 2010.05.17/outbox.cif.g08.bks.cpg/sg14_34_cif.got.tgz:66771.got - 2010.06.03 17:49:19.
