data_PCOD9241362
_publ_section_title
;
Structure prediction by ZEFSAII (Michael W. Deem and Ramdas Pophale) SiO2 
 PCOD9241362
Probable space group: P 21/C
;
_chemical_formula_sum "Si O2"
_cell_formula_units_Z 28
_cell_length_a 13.352923
_cell_length_b 14.694513
_cell_length_c 8.620594
_cell_angle_alpha 90.000000
_cell_angle_beta 40.294006
_cell_angle_gamma 90.000000
_cell_volume 1093.901715
_symmetry_space_group_name_H-M "P 21/C"
_symmetry_group_IT_number 14
_symmetry_cell_setting 'monoclinic'
loop_
_space_group_symop_operation_xyz
x,y,z
-x,1/2+y,1/2-z
-x,-y,-z
x,1/2-y,1/2+z
loop_
_atom_site_type_symbol
_atom_site_label
_atom_site_fract_x
_atom_site_fract_y
_atom_site_fract_z
Si Si1 0.449800 0.375168 0.957088
Si Si2 0.296997 0.022418 0.886384
Si Si3 0.429380 0.726030 0.878880
Si Si4 0.092634 0.711942 0.877494
Si Si5 0.730909 0.411815 0.088755
Si Si6 0.902160 0.413499 0.569980
Si Si7 0.142046 0.068327 0.372988
O O1 0.544363 0.465020 0.789313
O O2 0.451014 0.303860 0.815800
O O3 0.305669 0.414870 0.223081
O O4 0.534173 0.320603 0.999446
O O5 0.174851 0.942026 0.999568
O O6 0.240407 0.078166 0.099675
O O7 0.422269 0.649196 0.750586
O O8 0.257323 0.772536 0.093485
O O9 0.148711 0.650560 0.956749
O O10 0.037698 0.811404 0.997306
O O11 0.946539 0.660040 0.975144
O O12 0.747946 0.511832 0.140040
O O13 0.779211 0.415099 0.854026
O O14 0.000000 0.500000 0.500000
O O15 0.000000 0.000000 0.500000
#
# Coordination Sequence:
#
# PCOD9241362 Si02
#       7
#     4   4   4   4   4   4   4
#     4  11  23  41  71  86 136 172 227 275 315 404
#     4  11  23  43  62  99 127 175 216 274 340 373
#     4  11  20  40  66  97 119 181 225 265 325 390
#     4  10  20  37  65  92 127 169 221 260 327 397
#     4  10  19  35  61  95 122 162 218 260 320 392
#     4  11  22  38  62  91 131 166 217 269 328 390
#     4  10  21  38  65  93 133 166 210 271 335 395
#
# _framework density 25.596450999999998
#
# number of rings (size 3 to 8) (size 9 to 14) (size 15 to 20)
#    0.000    1.429    4.286    3.429    0.000    4.571 
#    2.571    2.143    0.000    0.000    0.000    0.000 
#    0.000    0.000    0.000    0.000    0.000    0.000 
#
# Total GULP energy -156281.291442 kJ/mol
# GULP energy per Si atom -5581.474694 kJ/mol
# Density = 2.553819 g / cm^3
# Si number density = 25.596451 Si / 1000 Ang^3
#
#
#
# Elastic Constant Matrix: (Units=GPa)
#
#
# Indices 1 2 3 4 5 6 
#
# 1 39.0780 31.7984 17.5530 0.0000 -0.9044 0.0000
# 2 31.7984 164.9517 42.9683 0.0000 -11.6977 0.0000
# 3 17.5530 42.9683 109.7967 0.0000 4.8349 0.0000
# 4 0.0000 0.0000 0.0000 41.5942 0.0000 -2.1133
# 5 -0.9044 -11.6977 4.8349 0.0000 20.8111 0.0000
# 6 0.0000 0.0000 0.0000 -2.1133 0.0000 42.8121
#
#
#
# Elastic Compliance Matrix: (Units=1/GPa)
#
#
# Indices 1 2 3 4 5 6 
#
# 1 0.031194 -0.005340 -0.002854 0.000000 -0.000983 0.000000
# 2 -0.005340 0.008099 -0.002532 0.000000 0.004909 0.000000
# 3 -0.002854 -0.002532 0.010733 0.000000 -0.004041 0.000000
# 4 0.000000 0.000000 0.000000 0.024102 0.000000 0.001190
# 5 -0.000983 0.004909 -0.004041 0.000000 0.051707 0.000000
# 6 0.000000 0.000000 0.000000 0.001190 0.000000 0.023417
#
#
# Mechanical properties :
#
#
# Convention : Reuss Voigt Hill
#
# Bulk Modulus (GPa) = 34.99602 55.38506 45.19054
# Shear Modulus (GPa) = 27.74257 35.81060 31.77658
#
# Velocity S-wave (km/s) = 3.29575 3.74444 3.52724
# Velocity P-wave (km/s) = 5.30891 6.35446 5.85507
#
# Compressibility (1/GPa) = 0.02857468
#
# Stress axis : x y z
#
# Youngs Moduli (GPa) = 32.05741 123.46506 93.17137
#
# Poissons Ratio (x) = 0.65926 0.26591
# Poissons Ratio (y) = 0.17118 0.23593
# Poissons Ratio (z) = 0.09149 0.31264
#
# Static dielectric constant tensor:
#      x y z
#    x 2.084730 0.000000 -0.059940 
#    y 0.000000 2.109050 0.000000 
#    z -0.059940 0.000000 2.031790 
# 
# From -- ./inp_files/17977.got.cif
#   From: 2010.05.17/outbox.cif.g08.bks.cpg/sg14_9_cif.got.tgz:17977.got - 2010.06.03 17:49:19.
