data_PCOD9241209
_publ_section_title
;
Structure prediction by ZEFSAII (Michael W. Deem and Ramdas Pophale) SiO2 
 PCOD9241209
Probable space group: P 21/C
;
_chemical_formula_sum "Si O2"
_cell_formula_units_Z 28
_cell_length_a 13.131361
_cell_length_b 13.248231
_cell_length_c 10.424469
_cell_angle_alpha 90.000000
_cell_angle_beta 45.241861
_cell_angle_gamma 90.000000
_cell_volume 1287.751709
_symmetry_space_group_name_H-M "P 21/C"
_symmetry_group_IT_number 14
_symmetry_cell_setting 'monoclinic'
loop_
_space_group_symop_operation_xyz
x,y,z
-x,1/2+y,1/2-z
-x,-y,-z
x,1/2-y,1/2+z
loop_
_atom_site_type_symbol
_atom_site_label
_atom_site_fract_x
_atom_site_fract_y
_atom_site_fract_z
Si Si1 0.179206 0.586562 0.786876
Si Si2 0.736384 0.561535 0.808188
Si Si3 0.379519 0.415819 0.488113
Si Si4 0.135137 0.435532 0.041411
Si Si5 0.703097 0.726936 0.646724
Si Si6 0.425551 0.690236 0.475937
Si Si7 0.439514 0.563761 0.220413
O O1 0.262575 0.496987 0.636756
O O2 0.172822 0.539332 0.934238
O O3 0.273045 0.687223 0.681268
O O4 0.022119 0.594685 0.867583
O O5 0.783481 0.651144 0.671000
O O6 0.687758 0.468216 0.761692
O O7 0.849316 0.547152 0.821141
O O8 0.586549 0.583954 0.016354
O O9 0.304273 0.319478 0.489219
O O10 0.482644 0.383971 0.511693
O O11 0.462967 0.470193 0.297719
O O12 0.236731 0.340423 0.911742
O O13 0.541377 0.724097 0.847934
O O14 0.401461 0.652072 0.352126
#
# Coordination Sequence:
#
# PCOD9241209 Si02
#       7
#     4   4   4   4   4   4   4
#     4  10  22  37  60  81 112 148 198 220 280 337
#     4  10  19  35  55  86 113 144 184 236 270 344
#     4  10  19  36  59  83 109 150 189 233 272 340
#     4  11  21  37  58  83 112 155 183 231 278 346
#     4  11  22  33  62  84 112 145 191 228 293 326
#     4  11  19  35  58  85 110 143 185 244 263 335
#     4   9  18  31  57  81 106 138 190 225 273 311
#
# _framework density 21.743321000000002
#
# number of rings (size 3 to 8) (size 9 to 14) (size 15 to 20)
#    0.000    1.714    2.857    3.429    0.000    0.000 
#    0.000    7.857    9.429    0.000    0.000    0.000 
#    0.000    0.000    0.000    0.000    0.000    0.000 
#
# Total GULP energy -156113.976079 kJ/mol
# GULP energy per Si atom -5575.499146 kJ/mol
# Density = 2.169383 g / cm^3
# Si number density = 21.743321 Si / 1000 Ang^3
#
#
#
# Elastic Constant Matrix: (Units=GPa)
#
#
# Indices 1 2 3 4 5 6 
#
# 1 137.1994 29.1531 26.9946 0.0000 23.7640 0.0000
# 2 29.1531 26.1488 4.6408 0.0000 9.7572 0.0000
# 3 26.9946 4.6408 42.8343 0.0000 3.0526 0.0000
# 4 0.0000 0.0000 0.0000 24.8173 0.0000 12.5048
# 5 23.7640 9.7572 3.0526 0.0000 30.4509 0.0000
# 6 0.0000 0.0000 0.0000 12.5048 0.0000 19.0900
#
#
#
# Elastic Compliance Matrix: (Units=1/GPa)
#
#
# Indices 1 2 3 4 5 6 
#
# 1 0.011389 -0.009740 -0.005752 0.000000 -0.005191 0.000000
# 2 -0.009740 0.052369 0.001127 0.000000 -0.009292 0.000000
# 3 -0.005752 0.001127 0.026746 0.000000 0.001447 0.000000
# 4 0.000000 0.000000 0.000000 0.060146 0.000000 -0.039399
# 5 -0.005191 -0.009292 0.001447 0.000000 0.039723 0.000000
# 6 0.000000 0.000000 0.000000 -0.039399 0.000000 0.078191
#
#
# Mechanical properties :
#
#
# Convention : Reuss Voigt Hill
#
# Bulk Modulus (GPa) = 16.18844 36.41770 26.30307
# Shear Modulus (GPa) = 15.72889 24.56460 20.14674
#
# Velocity S-wave (km/s) = 2.69251 3.36483 3.04727
# Velocity P-wave (km/s) = 4.13854 5.64636 4.95020
#
# Compressibility (1/GPa) = 0.06177247
#
# Stress axis : x y z
#
# Youngs Moduli (GPa) = 87.80312 19.09532 37.38905
#
# Poissons Ratio (x) = 0.18599 0.21508
# Poissons Ratio (y) = 0.85519 -0.04212
# Poissons Ratio (z) = 0.50508 -0.02151
#
# Static dielectric constant tensor:
#      x y z
#    x 1.787580 0.000000 0.006140 
#    y 0.000000 1.921710 0.000000 
#    z 0.006140 0.000000 1.835880 
# 
# From -- ./inp_files/29755.got.cif
#   From: 2010.05.17/outbox.cif.g08.bks.cpg/sg14_15_cif.got.tgz:29755.got - 2010.06.03 17:49:19.
