data_PCOD9241075
_publ_section_title
;
Structure prediction by ZEFSAII (Michael W. Deem and Ramdas Pophale) SiO2 
 PCOD9241075
Probable space group: P 21/C
;
_chemical_formula_sum "Si O2"
_cell_formula_units_Z 28
_cell_length_a 8.206604
_cell_length_b 16.437520
_cell_length_c 18.369951
_cell_angle_alpha 90.000000
_cell_angle_beta 27.857661
_cell_angle_gamma 90.000000
_cell_volume 1157.928717
_symmetry_space_group_name_H-M "P 21/C"
_symmetry_group_IT_number 14
_symmetry_cell_setting 'monoclinic'
loop_
_space_group_symop_operation_xyz
x,y,z
-x,1/2+y,1/2-z
-x,-y,-z
x,1/2-y,1/2+z
loop_
_atom_site_type_symbol
_atom_site_label
_atom_site_fract_x
_atom_site_fract_y
_atom_site_fract_z
Si Si1 0.077283 0.711140 0.200487
Si Si2 0.966917 0.316351 0.061429
Si Si3 0.087031 0.144766 0.084287
Si Si4 0.747197 0.421497 0.590429
Si Si5 0.335520 0.516701 0.643800
Si Si6 0.176419 0.225568 0.849324
Si Si7 0.822498 0.633983 0.879756
O O1 0.945187 0.649929 0.315777
O O2 0.854554 0.742039 0.220091
O O3 0.076161 0.795795 0.246399
O O4 0.435656 0.671932 0.028939
O O5 0.119848 0.235203 0.039960
O O6 0.092649 0.382864 0.068526
O O7 0.554213 0.308729 0.219052
O O8 0.095095 0.304683 0.929683
O O9 0.754170 0.110170 0.171237
O O10 0.413396 0.091437 0.931938
O O11 0.414111 0.449966 0.674864
O O12 0.916253 0.347646 0.475784
O O13 0.000000 0.500000 0.500000
O O14 0.500000 0.500000 0.500000
O O15 0.943620 0.551117 0.792797
#
# Coordination Sequence:
#
# PCOD9241075 Si02
#       7
#     4   4   4   4   4   4   4
#     4  11  22  37  60  89 124 154 197 262 312 360
#     4  10  19  34  57  85 117 148 190 243 300 365
#     4   9  20  38  58  85 117 155 195 246 306 361
#     4   9  19  37  59  84 118 158 201 241 291 375
#     4  11  22  38  63  88 117 161 207 249 299 370
#     4  11  21  34  58  91 116 150 197 250 308 357
#     4  11  21  38  59  88 119 160 198 245 314 368
#
# _framework density 24.181107999999998
#
# number of rings (size 3 to 8) (size 9 to 14) (size 15 to 20)
#    0.000    1.714    0.000    7.714    0.000    2.286 
#    0.000    1.429    0.000    5.143    0.000    0.000 
#    0.000    0.000    0.000    0.000    0.000    0.000 
#
# Total GULP energy -156089.108567 kJ/mol
# GULP energy per Si atom -5574.611020 kJ/mol
# Density = 2.412607 g / cm^3
# Si number density = 24.181108 Si / 1000 Ang^3
#
#
#
# Elastic Constant Matrix: (Units=GPa)
#
#
# Indices 1 2 3 4 5 6 
#
# 1 99.2193 1.0586 15.1068 0.0000 32.6698 0.0000
# 2 1.0586 53.6345 10.8346 0.0000 6.1039 0.0000
# 3 15.1068 10.8346 45.6457 0.0000 3.9890 0.0000
# 4 0.0000 0.0000 0.0000 38.8314 0.0000 9.0650
# 5 32.6698 6.1039 3.9890 0.0000 50.0656 0.0000
# 6 0.0000 0.0000 0.0000 9.0650 0.0000 26.0121
#
#
#
# Elastic Compliance Matrix: (Units=1/GPa)
#
#
# Indices 1 2 3 4 5 6 
#
# 1 0.013552 0.001550 -0.004092 0.000000 -0.008706 0.000000
# 2 0.001550 0.019968 -0.004986 0.000000 -0.003049 0.000000
# 3 -0.004092 -0.004986 0.024329 0.000000 0.001340 0.000000
# 4 0.000000 0.000000 0.000000 0.028033 0.000000 -0.009769
# 5 -0.008706 -0.003049 0.001340 0.000000 0.025920 0.000000
# 6 0.000000 0.000000 0.000000 -0.009769 0.000000 0.041848
#
#
# Mechanical properties :
#
#
# Convention : Reuss Voigt Hill
#
# Bulk Modulus (GPa) = 23.36893 28.05550 25.71222
# Shear Modulus (GPa) = 27.32678 34.41511 30.87094
#
# Velocity S-wave (km/s) = 3.36533 3.77666 3.57691
# Velocity P-wave (km/s) = 4.97852 5.53579 5.26453
#
# Compressibility (1/GPa) = 0.04279185
#
# Stress axis : x y z
#
# Youngs Moduli (GPa) = 73.79076 50.07927 41.10373
#
# Poissons Ratio (x) = -0.07762 0.16820
# Poissons Ratio (y) = -0.11437 0.20496
# Poissons Ratio (z) = 0.30196 0.24971
#
# Static dielectric constant tensor:
#      x y z
#    x 2.013980 0.000000 0.003440 
#    y 0.000000 2.021070 0.000000 
#    z 0.003440 0.000000 1.985410 
# 
# From -- ./inp_files/56137.got.cif
#   From: 2010.05.17/outbox.cif.g08.bks.cpg/sg14_29_cif.got.tgz:56137.got - 2010.06.03 17:49:19.
