data_PCOD9241485
_publ_section_title
;
Structure prediction by ZEFSAII (Michael W. Deem and Ramdas Pophale) SiO2 
 PCOD9241485
Probable space group: P 21/C
;
_chemical_formula_sum "Si O2"
_cell_formula_units_Z 26
_cell_length_a 12.073883
_cell_length_b 11.825395
_cell_length_c 13.975114
_cell_angle_alpha 90.000000
_cell_angle_beta 150.813816
_cell_angle_gamma 90.000000
_cell_volume 973.028258
_symmetry_space_group_name_H-M "P 21/C"
_symmetry_group_IT_number 14
_symmetry_cell_setting 'monoclinic'
loop_
_space_group_symop_operation_xyz
x,y,z
-x,1/2+y,1/2-z
-x,-y,-z
x,1/2-y,1/2+z
loop_
_atom_site_type_symbol
_atom_site_label
_atom_site_fract_x
_atom_site_fract_y
_atom_site_fract_z
Si Si1 0.417951 0.963430 0.786027
Si Si2 0.947002 0.276828 0.814753
Si Si3 0.703116 0.657123 0.294139
Si Si4 0.621876 0.414098 0.262696
Si Si5 0.422750 0.256848 0.486675
Si Si6 0.802871 0.289551 0.999811
Si Si7 0.000000 0.500000 0.000000
O O1 0.575873 0.870939 0.951431
O O2 0.182723 0.901107 0.560770
O O3 0.543869 0.037125 0.805289
O O4 0.261815 0.034685 0.736676
O O5 0.682806 0.257620 0.642469
O O6 0.947898 0.245973 0.701236
O O7 0.108515 0.185895 0.986908
O O8 0.014563 0.395164 0.915779
O O9 0.704626 0.524113 0.269866
O O10 0.727882 0.728753 0.217139
O O11 0.454694 0.684407 0.154556
O O12 0.420941 0.350559 0.056503
O O13 0.791251 0.315167 0.419393
#
# Coordination Sequence:
#
# PCOD9241485 Si02
#       7
#     4   4   4   4   4   4   2
#     4   9  19  36  58  81 111 148 184 227 277 325
#     4  10  21  36  55  82 113 146 185 227 272 327
#     4  10  20  36  60  83 110 151 186 218 277 336
#     4  10  19  36  59  82 111 148 183 227 281 324
#     4   9  20  38  56  82 116 143 181 234 272 322
#     4   9  20  37  54  82 118 142 181 235 270 318
#     4  10  20  36  56  78 106 144 186 224 270 324
#
# _framework density 26.720704999999999
#
# number of rings (size 3 to 8) (size 9 to 14) (size 15 to 20)
#    0.000    2.462    0.000    1.385    0.000    3.077 
#    0.000   23.077    0.000    0.000    0.000    0.000 
#    0.000    0.000    0.000    0.000    0.000    0.000 
#
# Total GULP energy -145006.956573 kJ/mol
# GULP energy per Si atom -5577.190637 kJ/mol
# Density = 2.665989 g / cm^3
# Si number density = 26.720705 Si / 1000 Ang^3
#
#
#
# Elastic Constant Matrix: (Units=GPa)
#
#
# Indices 1 2 3 4 5 6 
#
# 1 107.4622 28.7086 25.2077 0.0000 -19.5611 0.0000
# 2 28.7086 184.3579 48.8415 0.0000 -20.0552 0.0000
# 3 25.2077 48.8415 132.1657 0.0000 -30.5346 0.0000
# 4 0.0000 0.0000 0.0000 19.4042 0.0000 -3.4403
# 5 -19.5611 -20.0552 -30.5346 0.0000 54.8665 0.0000
# 6 0.0000 0.0000 0.0000 -3.4403 0.0000 38.6715
#
#
#
# Elastic Compliance Matrix: (Units=1/GPa)
#
#
# Indices 1 2 3 4 5 6 
#
# 1 0.010312 -0.001056 -0.000937 0.000000 0.002769 0.000000
# 2 -0.001056 0.006180 -0.001890 0.000000 0.000830 0.000000
# 3 -0.000937 -0.001890 0.009418 0.000000 0.004216 0.000000
# 4 0.000000 0.000000 0.000000 0.052361 0.000000 0.004658
# 5 0.002769 0.000830 0.004216 0.000000 0.021863 0.000000
# 6 0.000000 0.000000 0.000000 0.004658 0.000000 0.026273
#
#
# Mechanical properties :
#
#
# Convention : Reuss Voigt Hill
#
# Bulk Modulus (GPa) = 55.12049 69.94460 62.53255
# Shear Modulus (GPa) = 35.65802 44.00362 39.83082
#
# Velocity S-wave (km/s) = 3.65701 4.06248 3.86506
# Velocity P-wave (km/s) = 6.20522 6.94536 6.58569
#
# Compressibility (1/GPa) = 0.01814207
#
# Stress axis : x y z
#
# Youngs Moduli (GPa) = 96.97879 161.81531 106.18423
#
# Poissons Ratio (x) = 0.17094 0.09945
# Poissons Ratio (y) = 0.10245 0.20074
# Poissons Ratio (z) = 0.09083 0.30591
#
# Static dielectric constant tensor:
#      x y z
#    x 2.325510 0.000000 0.095950 
#    y 0.000000 2.193260 0.000000 
#    z 0.095950 0.000000 2.162250 
# 
# From -- ./inp_files/60644.got.cif
#   From: 2010.05.17/outbox.cif.g08.bks.cpg/sg14_31_cif.got.tgz:60644.got - 2010.06.03 17:49:19.
