data_PCOD9241022
_publ_section_title
;
Structure prediction by ZEFSAII (Michael W. Deem and Ramdas Pophale) SiO2 
 PCOD9241022
Probable space group: P 21/C
;
_chemical_formula_sum "Si O2"
_cell_formula_units_Z 32
_cell_length_a 14.277186
_cell_length_b 15.811156
_cell_length_c 8.637413
_cell_angle_alpha 90.000000
_cell_angle_beta 42.484336
_cell_angle_gamma 90.000000
_cell_volume 1316.872309
_symmetry_space_group_name_H-M "P 21/C"
_symmetry_group_IT_number 14
_symmetry_cell_setting 'monoclinic'
loop_
_space_group_symop_operation_xyz
x,y,z
-x,1/2+y,1/2-z
-x,-y,-z
x,1/2-y,1/2+z
loop_
_atom_site_type_symbol
_atom_site_label
_atom_site_fract_x
_atom_site_fract_y
_atom_site_fract_z
Si Si1 0.268820 0.860285 0.148489
Si Si2 0.750010 0.645272 0.029464
Si Si3 0.866778 0.281053 0.481373
Si Si4 0.404432 0.240995 0.530984
Si Si5 0.903009 0.997183 0.469436
Si Si6 0.484866 0.471232 0.694756
Si Si7 0.441939 0.639471 0.897722
Si Si8 0.895674 0.130555 0.238178
O O1 0.242528 0.777044 0.284934
O O2 0.215993 0.939427 0.315719
O O3 0.194195 0.839785 0.078130
O O4 0.420415 0.888490 0.912378
O O5 0.723352 0.701499 0.911135
O O6 0.665621 0.694843 0.263862
O O7 0.877376 0.601035 0.961158
O O8 0.669155 0.559044 0.084885
O O9 0.942331 0.205780 0.297808
O O10 0.945525 0.337973 0.510326
O O11 0.494690 0.173483 0.518880
O O12 0.504317 0.294109 0.296118
O O13 0.946745 0.045694 0.258648
O O14 0.000000 0.000000 0.500000
O O15 0.500000 0.500000 0.500000
O O16 0.514037 0.549942 0.769049
O O17 0.274508 0.628618 0.079435
#
# Coordination Sequence:
#
# PCOD9241022 Si02
#       8
#     4   4   4   4   4   4   4   4
#     4  10  21  36  59  87 114 152 182 238 288 352
#     4  11  23  41  56  88 118 159 195 237 295 362
#     4   9  20  33  56  86 121 142 186 235 289 340
#     4  10  24  34  59  86 127 157 189 233 301 368
#     4  11  23  43  63  79 112 160 205 247 291 335
#     4  12  20  33  57  82 127 150 190 236 294 352
#     4  11  20  34  53  89 120 165 186 232 294 358
#     4  10  19  34  55  87 118 150 194 241 281 352
#
# _framework density 24.300001000000002
#
# number of rings (size 3 to 8) (size 9 to 14) (size 15 to 20)
#    0.000    1.500    3.750    1.500    8.750    1.500 
#    0.000    5.625    0.000    0.000    0.000    0.000 
#    0.000    0.000    0.000    0.000    0.000    0.000 
#
# Total GULP energy -178594.335125 kJ/mol
# GULP energy per Si atom -5581.072973 kJ/mol
# Density = 2.424469 g / cm^3
# Si number density = 24.300001 Si / 1000 Ang^3
#
#
#
# Elastic Constant Matrix: (Units=GPa)
#
#
# Indices 1 2 3 4 5 6 
#
# 1 113.3389 33.5335 28.9545 0.0000 21.3500 0.0000
# 2 33.5335 102.3973 26.3373 0.0000 11.6504 0.0000
# 3 28.9545 26.3373 50.0681 0.0000 24.5809 0.0000
# 4 0.0000 0.0000 0.0000 23.2712 0.0000 23.8773
# 5 21.3500 11.6504 24.5809 0.0000 37.4640 0.0000
# 6 0.0000 0.0000 0.0000 23.8773 0.0000 44.6862
#
#
#
# Elastic Compliance Matrix: (Units=1/GPa)
#
#
# Indices 1 2 3 4 5 6 
#
# 1 0.011031 -0.002327 -0.003576 0.000000 -0.003216 0.000000
# 2 -0.002327 0.011793 -0.005471 0.000000 0.001248 0.000000
# 3 -0.003576 -0.005471 0.034052 0.000000 -0.018603 0.000000
# 4 0.000000 0.000000 0.000000 0.095123 0.000000 -0.050827
# 5 -0.003216 0.001248 -0.018603 0.000000 0.040343 0.000000
# 6 0.000000 0.000000 0.000000 -0.050827 0.000000 0.049537
#
#
# Mechanical properties :
#
#
# Convention : Reuss Voigt Hill
#
# Bulk Modulus (GPa) = 29.30109 49.27278 39.28694
# Shear Modulus (GPa) = 18.11588 32.88287 25.49938
#
# Velocity S-wave (km/s) = 2.73336 3.68258 3.24289
# Velocity P-wave (km/s) = 4.69531 6.19700 5.49767
#
# Compressibility (1/GPa) = 0.03412842
#
# Stress axis : x y z
#
# Youngs Moduli (GPa) = 90.65367 84.79671 29.36718
#
# Poissons Ratio (x) = 0.19730 0.10503
# Poissons Ratio (y) = 0.21092 0.16066
# Poissons Ratio (z) = 0.32420 0.46389
#
# Static dielectric constant tensor:
#      x y z
#    x 2.313650 0.000000 -0.179760 
#    y 0.000000 1.946460 0.000000 
#    z -0.179760 0.000000 2.059480 
# 
# From -- ./inp_files/13881.got.cif
#   From: 2010.05.17/outbox.cif.g08.bks.cpg/sg14_7_cif.got.tgz:13881.got - 2010.06.03 17:49:19.
