data_PCOD9241152
_publ_section_title
;
Structure prediction by ZEFSAII (Michael W. Deem and Ramdas Pophale) SiO2 
 PCOD9241152
Probable space group: P 21/C
;
_chemical_formula_sum "Si O2"
_cell_formula_units_Z 32
_cell_length_a 5.168552
_cell_length_b 17.701791
_cell_length_c 16.881482
_cell_angle_alpha 90.000000
_cell_angle_beta 126.393216
_cell_angle_gamma 90.000000
_cell_volume 1243.292049
_symmetry_space_group_name_H-M "P 21/C"
_symmetry_group_IT_number 14
_symmetry_cell_setting 'monoclinic'
loop_
_space_group_symop_operation_xyz
x,y,z
-x,1/2+y,1/2-z
-x,-y,-z
x,1/2-y,1/2+z
loop_
_atom_site_type_symbol
_atom_site_label
_atom_site_fract_x
_atom_site_fract_y
_atom_site_fract_z
Si Si1 0.107725 0.872703 0.955024
Si Si2 0.783929 0.035091 0.727783
Si Si3 0.948785 0.787049 0.777468
Si Si4 0.128962 0.724244 0.663635
Si Si5 0.207792 0.080830 0.939355
Si Si6 0.697261 0.209020 0.445265
Si Si7 0.722044 0.631586 0.784311
Si Si8 0.670301 0.457505 0.959780
O O1 0.414089 0.928063 0.006309
O O2 0.224869 0.787132 0.997577
O O3 0.878540 0.903235 0.984100
O O4 0.959532 0.028420 0.845019
O O5 0.484136 0.094174 0.682587
O O6 0.059270 0.069174 0.719649
O O7 0.981774 0.855817 0.843312
O O8 0.593737 0.964314 0.658289
O O9 0.648331 0.795091 0.662430
O O10 0.913788 0.709790 0.821341
O O11 0.222113 0.765354 0.762161
O O12 0.058341 0.786488 0.585347
O O13 0.409870 0.667947 0.683197
O O14 0.858096 0.661348 0.618243
O O15 0.738729 0.128978 0.494144
O O16 0.500000 0.500000 0.000000
O O17 0.000000 0.500000 0.000000
#
# Coordination Sequence:
#
# PCOD9241152 Si02
#       8
#     4   4   4   4   4   4   4   4
#     4  11  24  34  65  97 127 159 208 274 332 396
#     4  11  21  40  65  81 129 172 214 269 307 386
#     4  11  21  38  66  96 126 172 201 279 349 380
#     4   9  18  37  63  87 128 167 203 264 344 381
#     4  10  19  38  55  95 121 158 215 261 323 384
#     4  10  24  43  60  94 139 168 216 269 322 405
#     4  10  19  34  62  92 115 165 217 252 326 386
#     4  12  30  46  64  98 131 187 231 261 319 393
#
# _framework density 25.738119999999999
#
# number of rings (size 3 to 8) (size 9 to 14) (size 15 to 20)
#    0.000    1.500    3.750    3.750    8.750    0.000 
#    0.000    0.000    0.000    1.500    0.000    0.000 
#    0.000    0.000    0.000    0.000    0.000    0.000 
#
# Total GULP energy -178327.435443 kJ/mol
# GULP energy per Si atom -5572.732358 kJ/mol
# Density = 2.567954 g / cm^3
# Si number density = 25.738120 Si / 1000 Ang^3
#
#
#
# Elastic Constant Matrix: (Units=GPa)
#
#
# Indices 1 2 3 4 5 6 
#
# 1 132.3888 13.6660 21.3126 0.0000 0.8456 0.0000
# 2 13.6660 87.3063 6.1047 0.0000 -12.9104 0.0000
# 3 21.3126 6.1047 102.1082 0.0000 -7.5877 0.0000
# 4 0.0000 0.0000 0.0000 42.1582 0.0000 -4.0557
# 5 0.8456 -12.9104 -7.5877 0.0000 18.3903 0.0000
# 6 0.0000 0.0000 0.0000 -4.0557 0.0000 15.1838
#
#
#
# Elastic Compliance Matrix: (Units=1/GPa)
#
#
# Indices 1 2 3 4 5 6 
#
# 1 0.007995 -0.001440 -0.001738 0.000000 -0.002096 0.000000
# 2 -0.001440 0.013041 0.000213 0.000000 0.009309 0.000000
# 3 -0.001738 0.000213 0.010482 0.000000 0.004554 0.000000
# 4 0.000000 0.000000 0.000000 0.024346 0.000000 0.006503
# 5 -0.002096 0.009309 0.004554 0.000000 0.062887 0.000000
# 6 0.000000 0.000000 0.000000 0.006503 0.000000 0.067597
#
#
# Mechanical properties :
#
#
# Convention : Reuss Voigt Hill
#
# Bulk Modulus (GPa) = 39.08233 44.88555 41.98394
# Shear Modulus (GPa) = 24.89934 33.86111 29.38022
#
# Velocity S-wave (km/s) = 3.11370 3.63106 3.38228
# Velocity P-wave (km/s) = 5.30513 5.92086 5.62143
#
# Compressibility (1/GPa) = 0.02558701
#
# Stress axis : x y z
#
# Youngs Moduli (GPa) = 125.07189 76.68115 95.40075
#
# Poissons Ratio (x) = 0.11041 0.16585
# Poissons Ratio (y) = 0.18009 -0.02028
# Poissons Ratio (z) = 0.21744 -0.01630
#
# Static dielectric constant tensor:
#      x y z
#    x 2.320680 0.000000 -0.030590 
#    y 0.000000 2.496230 0.000000 
#    z -0.030590 0.000000 2.200950 
# 
# From -- ./inp_files/71385.got.cif
#   From: 2010.05.17/outbox.cif.g08.bks.cpg/sg14_36_cif.got.tgz:71385.got - 2010.06.03 17:49:19.
