data_PCOD9241492
_publ_section_title
;
Structure prediction by ZEFSAII (Michael W. Deem and Ramdas Pophale) SiO2 
 PCOD9241492
Probable space group: P 21/C
;
_chemical_formula_sum "Si O2"
_cell_formula_units_Z 32
_cell_length_a 24.169954
_cell_length_b 8.301219
_cell_length_c 11.080121
_cell_angle_alpha 90.000000
_cell_angle_beta 32.288793
_cell_angle_gamma 90.000000
_cell_volume 1187.559884
_symmetry_space_group_name_H-M "P 21/C"
_symmetry_group_IT_number 14
_symmetry_cell_setting 'monoclinic'
loop_
_space_group_symop_operation_xyz
x,y,z
-x,1/2+y,1/2-z
-x,-y,-z
x,1/2-y,1/2+z
loop_
_atom_site_type_symbol
_atom_site_label
_atom_site_fract_x
_atom_site_fract_y
_atom_site_fract_z
Si Si1 0.885950 0.620285 0.589565
Si Si2 0.507194 0.747403 0.396168
Si Si3 0.179677 0.615403 0.763389
Si Si4 0.707405 0.885171 0.759844
Si Si5 0.066729 0.801681 0.143355
Si Si6 0.258250 0.167431 0.998463
Si Si7 0.204569 0.891899 0.572170
Si Si8 0.528988 0.374190 0.281499
O O1 0.909048 0.478560 0.450811
O O2 0.780020 0.715246 0.820896
O O3 0.885547 0.513576 0.715369
O O4 0.963900 0.763708 0.409143
O O5 0.533693 0.565402 0.300671
O O6 0.437846 0.825925 0.416499
O O7 0.452732 0.728173 0.628548
O O8 0.616794 0.840429 0.220649
O O9 0.237271 0.505218 0.752876
O O10 0.190497 0.492952 0.633868
O O11 0.237196 0.781202 0.623414
O O12 0.073099 0.683222 0.013270
O O13 0.765626 0.738093 0.589997
O O14 0.704186 0.002431 0.648197
O O15 0.594424 0.841754 0.006881
O O16 0.155185 0.725596 0.065269
#
# Coordination Sequence:
#
# PCOD9241492 Si02
#       8
#     4   4   4   4   4   4   4   4
#     4  10  20  36  55  80 118 156 195 246 304 351
#     4  10  22  42  65  91 133 161 215 253 321 367
#     4  10  19  36  59  85 117 154 203 245 300 368
#     4   9  19  38  58  83 122 156 195 250 308 357
#     4  10  20  36  56  84 116 153 201 248 296 361
#     4  10  20  37  60  85 119 161 198 252 306 366
#     4   9  20  36  56  84 115 153 199 248 301 358
#     4  10  21  43  63  95 127 169 206 263 305 384
#
# _framework density 26.946009
#
# number of rings (size 3 to 8) (size 9 to 14) (size 15 to 20)
#    0.000    2.250    1.250    1.125    0.000    1.500 
#   13.500    6.875    0.000    0.000    0.000    0.000 
#    0.000    0.000    0.000    0.000    0.000    0.000 
#
# Total GULP energy -178322.725435 kJ/mol
# GULP energy per Si atom -5572.585170 kJ/mol
# Density = 2.688468 g / cm^3
# Si number density = 26.946009 Si / 1000 Ang^3
#
#
#
# Elastic Constant Matrix: (Units=GPa)
#
#
# Indices 1 2 3 4 5 6 
#
# 1 48.3203 -10.1514 1.6794 0.0000 14.4446 0.0000
# 2 -10.1514 65.4892 4.8923 0.0000 -1.4322 0.0000
# 3 1.6794 4.8923 73.0898 0.0000 3.4371 0.0000
# 4 0.0000 0.0000 0.0000 30.4819 0.0000 15.0680
# 5 14.4446 -1.4322 3.4371 0.0000 29.0938 0.0000
# 6 0.0000 0.0000 0.0000 15.0680 0.0000 30.8223
#
#
#
# Elastic Compliance Matrix: (Units=1/GPa)
#
#
# Indices 1 2 3 4 5 6 
#
# 1 0.025138 0.003647 -0.000245 0.000000 -0.012272 0.000000
# 2 0.003647 0.015898 -0.001106 0.000000 -0.000897 0.000000
# 3 -0.000245 -0.001106 0.013835 0.000000 -0.001567 0.000000
# 4 0.000000 0.000000 0.000000 0.043261 0.000000 -0.021149
# 5 -0.012272 -0.000897 -0.001567 0.000000 0.040606 0.000000
# 6 0.000000 0.000000 0.000000 -0.021149 0.000000 0.042783
#
#
# Mechanical properties :
#
#
# Convention : Reuss Voigt Hill
#
# Bulk Modulus (GPa) = 16.81690 19.97111 18.39400
# Shear Modulus (GPa) = 25.41297 30.77819 28.09558
#
# Velocity S-wave (km/s) = 3.07434 3.38334 3.23253
# Velocity P-wave (km/s) = 4.34242 4.76343 4.55779
#
# Compressibility (1/GPa) = 0.05946400
#
# Stress axis : x y z
#
# Youngs Moduli (GPa) = 39.77967 62.90130 72.27971
#
# Poissons Ratio (x) = -0.22937 0.01768
# Poissons Ratio (y) = -0.14506 0.07992
# Poissons Ratio (z) = 0.00973 0.06955
#
# Static dielectric constant tensor:
#      x y z
#    x 2.371280 0.000000 0.169370 
#    y 0.000000 2.151420 0.000000 
#    z 0.169370 0.000000 2.185370 
# 
# From -- ./inp_files/34966.got.cif
#   From: 2010.05.17/outbox.cif.g08.bks.cpg/sg14_18_cif.got.tgz:34966.got - 2010.06.03 17:49:19.
