data_PCOD9241788
_publ_section_title
;
Structure prediction by ZEFSAII (Michael W. Deem and Ramdas Pophale) SiO2 
 PCOD9241788
Probable space group: P 21/C
;
_chemical_formula_sum "Si O2"
_cell_formula_units_Z 20
_cell_length_a 19.557045
_cell_length_b 7.576311
_cell_length_c 12.305794
_cell_angle_alpha 90.000000
_cell_angle_beta 155.282390
_cell_angle_gamma 90.000000
_cell_volume 762.428134
_symmetry_space_group_name_H-M "P 21/C"
_symmetry_group_IT_number 14
_symmetry_cell_setting 'monoclinic'
loop_
_space_group_symop_operation_xyz
x,y,z
-x,1/2+y,1/2-z
-x,-y,-z
x,1/2-y,1/2+z
loop_
_atom_site_type_symbol
_atom_site_label
_atom_site_fract_x
_atom_site_fract_y
_atom_site_fract_z
Si Si1 0.662787 0.367302 0.355356
Si Si2 0.819083 0.476644 0.791078
Si Si3 0.385106 0.173797 0.838704
Si Si4 0.846046 0.418619 0.413244
Si Si5 0.774664 0.973090 0.580845
O O1 0.682431 0.466294 0.498320
O O2 0.780835 0.458940 0.438089
O O3 0.727214 0.170277 0.475953
O O4 0.495628 0.325608 0.050165
O O5 0.767001 0.621960 0.803732
O O6 0.814965 0.288103 0.845047
O O7 0.000000 0.500000 0.000000
O O8 0.325770 0.175365 0.628411
O O9 0.500000 0.000000 0.000000
O O10 0.764863 0.522925 0.196178
O O11 0.037554 0.449207 0.679969
#
# Coordination Sequence:
#
# PCOD9241788 Si02
#       5
#     4   4   4   4   4
#     4  10  21  37  68  90 130 170 212 267 330 390
#     4  11  22  39  65  97 123 169 221 267 321 390
#     4  10  19  41  62  88 128 168 203 263 328 377
#     4  10  19  37  62  94 122 165 216 266 320 391
#     4   9  19  35  62  92 122 165 212 267 324 384
#
# _framework density 26.231978999999999
#
# number of rings (size 3 to 8) (size 9 to 14) (size 15 to 20)
#    0.000    2.000    4.000    1.200    0.000    0.000 
#    7.200    0.000    4.400   14.400    0.000    0.000 
#    0.000    0.000    0.000    0.000    0.000    0.000 
#
# Total GULP energy -112054.191790 kJ/mol
# GULP energy per Si atom -5602.709590 kJ/mol
# Density = 2.617227 g / cm^3
# Si number density = 26.231979 Si / 1000 Ang^3
#
#
#
# Elastic Constant Matrix: (Units=GPa)
#
#
# Indices 1 2 3 4 5 6 
#
# 1 85.5098 16.4782 2.2665 0.0000 -0.0918 0.0000
# 2 16.4782 87.9795 24.0921 0.0000 -7.0436 0.0000
# 3 2.2665 24.0921 87.5471 0.0000 -25.8725 0.0000
# 4 0.0000 0.0000 0.0000 30.5013 0.0000 4.6504
# 5 -0.0918 -7.0436 -25.8725 0.0000 51.7058 0.0000
# 6 0.0000 0.0000 0.0000 4.6504 0.0000 39.0496
#
#
#
# Elastic Compliance Matrix: (Units=1/GPa)
#
#
# Indices 1 2 3 4 5 6 
#
# 1 0.012143 -0.002366 0.000291 0.000000 -0.000155 0.000000
# 2 -0.002366 0.012754 -0.003446 0.000000 0.000009 0.000000
# 3 0.000291 -0.003446 0.014346 0.000000 0.006710 0.000000
# 4 0.000000 0.000000 0.000000 0.033392 0.000000 -0.003977
# 5 -0.000155 0.000009 0.006710 0.000000 0.022698 0.000000
# 6 0.000000 0.000000 0.000000 -0.003977 0.000000 0.026082
#
#
# Mechanical properties :
#
#
# Convention : Reuss Voigt Hill
#
# Bulk Modulus (GPa) = 35.46092 38.52335 36.99213
# Shear Modulus (GPa) = 35.24669 38.79797 37.02233
#
# Velocity S-wave (km/s) = 3.66956 3.84999 3.76086
# Velocity P-wave (km/s) = 5.61265 5.87203 5.74381
#
# Compressibility (1/GPa) = 0.02820006
#
# Stress axis : x y z
#
# Youngs Moduli (GPa) = 82.35395 78.40791 69.70583
#
# Poissons Ratio (x) = 0.18554 -0.02028
# Poissons Ratio (y) = 0.19488 0.24019
# Poissons Ratio (z) = -0.02396 0.27018
#
# Static dielectric constant tensor:
#      x y z
#    x 2.017690 0.000000 -0.016740 
#    y 0.000000 2.064160 0.000000 
#    z -0.016740 0.000000 2.059520 
# 
# From -- ./inp_files/33685.got.cif
#   From: 2010.05.17/outbox.cif.g08.bks.cpg/sg14_17_cif.got.tgz:33685.got - 2010.06.03 17:49:19.
