data_PCOD9241744
_publ_section_title
;
Structure prediction by ZEFSAII (Michael W. Deem and Ramdas Pophale) SiO2 
 PCOD9241744
Probable space group: P 21/C
;
_chemical_formula_sum "Si O2"
_cell_formula_units_Z 32
_cell_length_a 6.516445
_cell_length_b 27.376652
_cell_length_c 10.308075
_cell_angle_alpha 90.000000
_cell_angle_beta 42.218815
_cell_angle_gamma 90.000000
_cell_volume 1235.704222
_symmetry_space_group_name_H-M "P 21/C"
_symmetry_group_IT_number 14
_symmetry_cell_setting 'monoclinic'
loop_
_space_group_symop_operation_xyz
x,y,z
-x,1/2+y,1/2-z
-x,-y,-z
x,1/2-y,1/2+z
loop_
_atom_site_type_symbol
_atom_site_label
_atom_site_fract_x
_atom_site_fract_y
_atom_site_fract_z
Si Si1 0.232260 0.752646 0.588687
Si Si2 0.754904 0.959950 0.338948
Si Si3 0.825407 0.068170 0.608876
Si Si4 0.447214 0.145067 0.562663
Si Si5 0.050822 0.102643 0.229800
Si Si6 0.673181 0.806836 0.777178
Si Si7 0.699771 0.984701 0.031528
Si Si8 0.111137 0.675195 0.832760
O O1 0.400108 0.803309 0.468346
O O2 0.336653 0.714161 0.430688
O O3 0.881268 0.768049 0.757984
O O4 0.297028 0.721475 0.690291
O O5 0.618158 0.908945 0.350034
O O6 0.934387 0.945680 0.388744
O O7 0.500000 0.000000 0.500000
O O8 0.007216 0.979711 0.118043
O O9 0.989325 0.072532 0.392369
O O10 0.735669 0.125346 0.685806
O O11 0.565046 0.026452 0.740453
O O12 0.732394 0.128010 0.337004
O O13 0.109183 0.159384 0.680470
O O14 0.294455 0.142968 0.159975
O O15 0.164097 0.067868 0.066816
O O16 0.854216 0.811379 0.559363
O O17 0.500000 0.000000 0.000000
#
# Coordination Sequence:
#
# PCOD9241744 Si02
#       8
#     4   4   4   4   4   4   4   4
#     4  11  21  39  60  88 121 157 198 248 299 366
#     4  10  19  37  61  85 121 161 200 249 305 359
#     4   9  21  38  64  90 118 160 205 246 304 365
#     4  10  21  38  60  87 121 161 193 253 309 345
#     4  10  20  40  61  87 126 158 199 253 303 364
#     4  10  23  36  62  90 119 158 203 238 309 367
#     4  10  20  36  63  88 116 158 207 245 300 357
#     4  10  21  40  62  89 124 155 199 249 302 368
#
# _framework density 25.896163000000001
#
# number of rings (size 3 to 8) (size 9 to 14) (size 15 to 20)
#    0.000    2.000    2.500    0.750    1.750    2.000 
#    0.000    1.875    5.500    0.000    0.000    0.000 
#    0.000    0.000    0.000    0.000    0.000    0.000 
#
# Total GULP energy -178356.196502 kJ/mol
# GULP energy per Si atom -5573.631141 kJ/mol
# Density = 2.583722 g / cm^3
# Si number density = 25.896163 Si / 1000 Ang^3
#
#
#
# Elastic Constant Matrix: (Units=GPa)
#
#
# Indices 1 2 3 4 5 6 
#
# 1 38.3198 25.7946 21.6164 0.0000 2.5399 0.0000
# 2 25.7946 153.6285 54.6534 0.0000 6.9080 0.0000
# 3 21.6164 54.6534 89.2842 0.0000 12.6783 0.0000
# 4 0.0000 0.0000 0.0000 68.5334 0.0000 -3.6815
# 5 2.5399 6.9080 12.6783 0.0000 39.0682 0.0000
# 6 0.0000 0.0000 0.0000 -3.6815 0.0000 49.4168
#
#
#
# Elastic Compliance Matrix: (Units=1/GPa)
#
#
# Indices 1 2 3 4 5 6 
#
# 1 0.031478 -0.003288 -0.005661 0.000000 0.000372 0.000000
# 2 -0.003288 0.008666 -0.004530 0.000000 0.000152 0.000000
# 3 -0.005661 -0.004530 0.015911 0.000000 -0.003994 0.000000
# 4 0.000000 0.000000 0.000000 0.014650 0.000000 0.001091
# 5 0.000372 0.000152 -0.003994 0.000000 0.026841 0.000000
# 6 0.000000 0.000000 0.000000 0.001091 0.000000 0.020317
#
#
# Mechanical properties :
#
#
# Convention : Reuss Voigt Hill
#
# Bulk Modulus (GPa) = 34.36843 53.92904 44.14873
# Shear Modulus (GPa) = 32.35778 43.34824 37.85301
#
# Velocity S-wave (km/s) = 3.53869 4.09580 3.82740
# Velocity P-wave (km/s) = 5.47694 6.57554 6.05123
#
# Compressibility (1/GPa) = 0.02909647
#
# Stress axis : x y z
#
# Youngs Moduli (GPa) = 31.76786 115.39236 62.84916
#
# Poissons Ratio (x) = 0.37941 0.35581
# Poissons Ratio (y) = 0.10445 0.28472
# Poissons Ratio (z) = 0.17985 0.52275
#
# Static dielectric constant tensor:
#      x y z
#    x 2.256800 0.000000 -0.076210 
#    y 0.000000 2.205520 0.000000 
#    z -0.076210 0.000000 2.122800 
# 
# From -- ./inp_files/11058.got.cif
#   From: 2010.05.17/outbox.cif.g08.bks.cpg/sg14_6_cif.got.tgz:11058.got - 2010.06.03 17:49:19.
