data_PCOD9241505
_publ_section_title
;
Structure prediction by ZEFSAII (Michael W. Deem and Ramdas Pophale) SiO2 
 PCOD9241505
Probable space group: P 21/C
;
_chemical_formula_sum "Si O2"
_cell_formula_units_Z 24
_cell_length_a 8.735847
_cell_length_b 8.346772
_cell_length_c 30.918361
_cell_angle_alpha 90.000000
_cell_angle_beta 31.821446
_cell_angle_gamma 90.000000
_cell_volume 1188.711018
_symmetry_space_group_name_H-M "P 21/C"
_symmetry_group_IT_number 14
_symmetry_cell_setting 'monoclinic'
loop_
_space_group_symop_operation_xyz
x,y,z
-x,1/2+y,1/2-z
-x,-y,-z
x,1/2-y,1/2+z
loop_
_atom_site_type_symbol
_atom_site_label
_atom_site_fract_x
_atom_site_fract_y
_atom_site_fract_z
Si Si1 0.620975 0.729873 0.662241
Si Si2 0.641844 0.953437 0.920270
Si Si3 0.135105 0.827504 0.982783
Si Si4 0.159487 0.571361 0.716373
Si Si5 0.281702 0.987067 0.789231
Si Si6 0.627422 0.779595 0.310886
O O1 0.336406 0.695950 0.702341
O O2 0.707402 0.566498 0.666397
O O3 0.880125 0.767742 0.567404
O O4 0.537172 0.865312 0.716391
O O5 0.715370 0.076679 0.863005
O O6 0.970406 0.904195 0.854508
O O7 0.500000 0.000000 0.000000
O O8 0.397563 0.848999 0.954486
O O9 0.295028 0.741921 0.904614
O O10 0.000000 0.000000 0.000000
O O11 0.229535 0.395760 0.718149
O O12 0.820662 0.609902 0.796325
O O13 0.329925 0.134410 0.744710
#
# Coordination Sequence:
#
# PCOD9241505 Si02
#       6
#     4   4   4   4   4   4
#     4  12  22  39  62  91 123 165 206 260 310 369
#     4  10  19  36  59  90 115 160 205 247 299 369
#     4  11  21  38  65  91 124 164 211 254 309 376
#     4  10  20  37  62  87 124 161 205 255 305 367
#     4  11  25  38  64  91 127 162 208 263 314 373
#     4  10  21  40  61  92 120 164 206 255 308 377
#
# _framework density 20.189937
#
# number of rings (size 3 to 8) (size 9 to 14) (size 15 to 20)
#    0.000    1.333    5.000    4.000    0.000    0.667 
#    0.000    0.000    3.667    3.000    0.000    0.000 
#    0.000    0.000    0.000    0.000    0.000    0.000 
#
# Total GULP energy -133705.488825 kJ/mol
# GULP energy per Si atom -5571.062034 kJ/mol
# Density = 2.014398 g / cm^3
# Si number density = 20.189937 Si / 1000 Ang^3
#
#
#
# Elastic Constant Matrix: (Units=GPa)
#
#
# Indices 1 2 3 4 5 6 
#
# 1 68.2924 3.3140 5.6298 0.0000 -2.6939 0.0000
# 2 3.3140 50.3772 30.6363 0.0000 -3.4468 0.0000
# 3 5.6298 30.6363 94.5194 0.0000 -19.6108 0.0000
# 4 0.0000 0.0000 0.0000 32.3946 0.0000 -3.1539
# 5 -2.6939 -3.4468 -19.6108 0.0000 19.5427 0.0000
# 6 0.0000 0.0000 0.0000 -3.1539 0.0000 24.7573
#
#
#
# Elastic Compliance Matrix: (Units=1/GPa)
#
#
# Indices 1 2 3 4 5 6 
#
# 1 0.014765 -0.000657 -0.000339 0.000000 0.001580 0.000000
# 2 -0.000657 0.025092 -0.009086 0.000000 -0.004783 0.000000
# 3 -0.000339 -0.009086 0.016675 0.000000 0.015083 0.000000
# 4 0.000000 0.000000 0.000000 0.031257 0.000000 0.003982
# 5 0.001580 -0.004783 0.015083 0.000000 0.065680 0.000000
# 6 0.000000 0.000000 0.000000 0.003982 0.000000 0.040899
#
#
# Mechanical properties :
#
#
# Convention : Reuss Voigt Hill
#
# Bulk Modulus (GPa) = 27.49722 32.48324 29.99023
# Shear Modulus (GPa) = 22.05998 26.91284 24.48641
#
# Velocity S-wave (km/s) = 3.30907 3.65496 3.48631
# Velocity P-wave (km/s) = 5.31496 5.82541 5.57603
#
# Compressibility (1/GPa) = 0.03636731
#
# Stress axis : x y z
#
# Youngs Moduli (GPa) = 67.72751 39.85352 59.97150
#
# Poissons Ratio (x) = 0.02619 0.02031
# Poissons Ratio (y) = 0.04452 0.54491
# Poissons Ratio (z) = 0.02294 0.36212
#
# Static dielectric constant tensor:
#      x y z
#    x 1.753400 0.000000 -0.009160 
#    y 0.000000 1.736700 0.000000 
#    z -0.009160 0.000000 1.725040 
# 
# From -- ./inp_files/58968.got.cif
#   From: 2010.05.17/outbox.cif.g08.bks.cpg/sg14_30_cif.got.tgz:58968.got - 2010.06.03 17:49:19.
