data_PCOD9241673
_publ_section_title
;
Structure prediction by ZEFSAII (Michael W. Deem and Ramdas Pophale) SiO2 
 PCOD9241673
Probable space group: P 21/C
;
_chemical_formula_sum "Si O2"
_cell_formula_units_Z 24
_cell_length_a 8.807880
_cell_length_b 19.629343
_cell_length_c 7.418375
_cell_angle_alpha 90.000000
_cell_angle_beta 50.588957
_cell_angle_gamma 90.000000
_cell_volume 990.939063
_symmetry_space_group_name_H-M "P 21/C"
_symmetry_group_IT_number 14
_symmetry_cell_setting 'monoclinic'
loop_
_space_group_symop_operation_xyz
x,y,z
-x,1/2+y,1/2-z
-x,-y,-z
x,1/2-y,1/2+z
loop_
_atom_site_type_symbol
_atom_site_label
_atom_site_fract_x
_atom_site_fract_y
_atom_site_fract_z
Si Si1 0.634577 0.076979 0.631951
Si Si2 0.425198 0.325468 0.004990
Si Si3 0.282171 0.987917 0.902727
Si Si4 0.437666 0.168893 0.074091
Si Si5 0.091053 0.080440 0.338283
Si Si6 0.072099 0.410064 0.281455
O O1 0.547612 0.123780 0.538107
O O2 0.867640 0.076278 0.443646
O O3 0.513116 0.005553 0.718167
O O4 0.573135 0.117595 0.859331
O O5 0.475064 0.247147 0.001212
O O6 0.194824 0.341207 0.221482
O O7 0.458321 0.340922 0.770958
O O8 0.212077 0.022143 0.143793
O O9 0.156391 0.918415 0.993354
O O10 0.186060 0.034109 0.816639
O O11 0.212896 0.148101 0.195513
O O12 0.090067 0.076411 0.554619
#
# Coordination Sequence:
#
# PCOD9241673 Si02
#       6
#     4   4   4   4   4   4
#     4  10  21  37  56  86 111 143 186 230 278 329
#     4  10  19  37  58  76 112 147 182 228 282 327
#     4   9  19  38  59  79 118 149 181 230 276 328
#     4  10  20  38  56  76 111 147 180 231 278 329
#     4  10  21  36  58  85 109 145 190 226 276 332
#     4   9  19  36  58  84 111 152 186 224 280 330
#
# _framework density 24.219452
#
# number of rings (size 3 to 8) (size 9 to 14) (size 15 to 20)
#    0.000    2.333    1.667    0.500    0.000    2.000 
#    6.000    7.500    0.000    0.000    0.000    0.000 
#    0.000    0.000    0.000    0.000    0.000    0.000 
#
# Total GULP energy -134277.324139 kJ/mol
# GULP energy per Si atom -5594.888506 kJ/mol
# Density = 2.416433 g / cm^3
# Si number density = 24.219452 Si / 1000 Ang^3
#
#
#
# Elastic Constant Matrix: (Units=GPa)
#
#
# Indices 1 2 3 4 5 6 
#
# 1 117.3550 20.8212 33.3802 0.0000 -18.2032 0.0000
# 2 20.8212 69.4720 28.0886 0.0000 -12.6925 0.0000
# 3 33.3802 28.0886 97.5041 0.0000 -11.9047 0.0000
# 4 0.0000 0.0000 0.0000 22.2250 0.0000 1.6124
# 5 -18.2032 -12.6925 -11.9047 0.0000 63.1829 0.0000
# 6 0.0000 0.0000 0.0000 1.6124 0.0000 24.6908
#
#
#
# Elastic Compliance Matrix: (Units=1/GPa)
#
#
# Indices 1 2 3 4 5 6 
#
# 1 0.009870 -0.001495 -0.002700 0.000000 0.002035 0.000000
# 2 -0.001495 0.016896 -0.004088 0.000000 0.002193 0.000000
# 3 -0.002700 -0.004088 0.012449 0.000000 0.000747 0.000000
# 4 0.000000 0.000000 0.000000 0.045209 0.000000 -0.002952
# 5 0.002035 0.002193 0.000747 0.000000 0.016994 0.000000
# 6 0.000000 0.000000 0.000000 -0.002952 0.000000 0.040694
#
#
# Mechanical properties :
#
#
# Convention : Reuss Voigt Hill
#
# Bulk Modulus (GPa) = 44.15046 49.87901 47.01474
# Shear Modulus (GPa) = 30.07950 35.48915 32.78433
#
# Velocity S-wave (km/s) = 3.52796 3.83210 3.68317
# Velocity P-wave (km/s) = 5.90460 6.34187 6.12713
#
# Compressibility (1/GPa) = 0.02264982
#
# Stress axis : x y z
#
# Youngs Moduli (GPa) = 101.31813 59.18657 80.32757
#
# Poissons Ratio (x) = 0.08847 0.21688
# Poissons Ratio (y) = 0.15144 0.32836
# Poissons Ratio (z) = 0.27355 0.24194
#
# Static dielectric constant tensor:
#      x y z
#    x 1.950670 0.000000 0.009550 
#    y 0.000000 1.940130 0.000000 
#    z 0.009550 0.000000 1.941450 
# 
# From -- ./inp_files/10135.got.cif
#   From: 2010.05.17/outbox.cif.g08.bks.cpg/sg14_6_cif.got.tgz:10135.got - 2010.06.03 17:49:19.
