data_PCOD9241090
_publ_section_title
;
Structure prediction by ZEFSAII (Michael W. Deem and Ramdas Pophale) SiO2 
 PCOD9241090
Probable space group: P 21/C
;
_chemical_formula_sum "Si O2"
_cell_formula_units_Z 28
_cell_length_a 8.241545
_cell_length_b 20.047978
_cell_length_c 8.470772
_cell_angle_alpha 90.000000
_cell_angle_beta 88.783296
_cell_angle_gamma 90.000000
_cell_volume 1399.278866
_symmetry_space_group_name_H-M "P 21/C"
_symmetry_group_IT_number 14
_symmetry_cell_setting 'monoclinic'
loop_
_space_group_symop_operation_xyz
x,y,z
-x,1/2+y,1/2-z
-x,-y,-z
x,1/2-y,1/2+z
loop_
_atom_site_type_symbol
_atom_site_label
_atom_site_fract_x
_atom_site_fract_y
_atom_site_fract_z
Si Si1 0.180769 0.379267 0.168182
Si Si2 0.646860 0.792287 0.083551
Si Si3 0.273882 0.676338 0.573576
Si Si4 0.854818 0.963139 0.602131
Si Si5 0.088686 0.949496 0.115608
Si Si6 0.823411 0.680059 0.249132
Si Si7 0.083623 0.777315 0.359809
O O1 0.307084 0.335817 0.263027
O O2 0.050790 0.330742 0.082523
O O3 0.062918 0.412067 0.300106
O O4 0.248375 0.433289 0.043095
O O5 0.460922 0.806873 0.048545
O O6 0.692800 0.716743 0.135992
O O7 0.751116 0.814508 0.929025
O O8 0.208259 0.603109 0.529736
O O9 0.171376 0.730517 0.480695
O O10 0.219816 0.685056 0.756227
O O11 0.873753 0.894875 0.703975
O O12 0.815037 0.015272 0.741422
O O13 0.000000 0.000000 0.500000
O O14 0.000000 0.000000 0.000000
O O15 0.978115 0.728450 0.251375
#
# Coordination Sequence:
#
# PCOD9241090 Si02
#       7
#     4   4   4   4   4   4   4
#     4   9  19  36  57  82 114 153 200 245 302 363
#     4  11  22  36  58  89 121 153 190 256 322 367
#     4  11  22  36  56  90 122 150 200 256 307 360
#     4  10  20  35  58  85 111 151 203 248 287 355
#     4  10  20  36  58  83 115 157 204 248 292 364
#     4  11  20  37  61  86 117 156 199 245 311 369
#     4  10  19  34  58  83 110 150 198 254 294 348
#
# _framework density 20.010307000000001
#
# number of rings (size 3 to 8) (size 9 to 14) (size 15 to 20)
#    0.000    1.714    0.000    7.714    0.000    0.000 
#    0.000    3.571    0.000    3.429    0.000    0.000 
#    0.000    0.000    0.000    0.000    0.000    0.000 
#
# Total GULP energy -155908.726798 kJ/mol
# GULP energy per Si atom -5568.168814 kJ/mol
# Density = 1.996476 g / cm^3
# Si number density = 20.010307 Si / 1000 Ang^3
#
#
#
# Elastic Constant Matrix: (Units=GPa)
#
#
# Indices 1 2 3 4 5 6 
#
# 1 76.6167 35.0941 23.2802 0.0000 9.5611 0.0000
# 2 35.0941 97.6589 32.2095 0.0000 8.0617 0.0000
# 3 23.2802 32.2095 76.8859 0.0000 6.4571 0.0000
# 4 0.0000 0.0000 0.0000 57.5627 0.0000 2.8983
# 5 9.5611 8.0617 6.4571 0.0000 19.5805 0.0000
# 6 0.0000 0.0000 0.0000 2.8983 0.0000 20.6157
#
#
#
# Elastic Compliance Matrix: (Units=1/GPa)
#
#
# Indices 1 2 3 4 5 6 
#
# 1 0.016662 -0.004677 -0.002637 0.000000 -0.005341 0.000000
# 2 -0.004677 0.013411 -0.004042 0.000000 -0.001905 0.000000
# 3 -0.002637 -0.004042 0.015685 0.000000 -0.002220 0.000000
# 4 0.000000 0.000000 0.000000 0.017496 0.000000 -0.002460
# 5 -0.005341 -0.001905 -0.002220 0.000000 0.055196 0.000000
# 6 0.000000 0.000000 0.000000 -0.002460 0.000000 0.048853
#
#
# Mechanical properties :
#
#
# Convention : Reuss Voigt Hill
#
# Bulk Modulus (GPa) = 43.39334 48.03659 45.71496
# Shear Modulus (GPa) = 25.29138 30.25696 27.77417
#
# Velocity S-wave (km/s) = 3.55902 3.89275 3.72962
# Velocity P-wave (km/s) = 6.21461 6.65302 6.43755
#
# Compressibility (1/GPa) = 0.02304501
#
# Stress axis : x y z
#
# Youngs Moduli (GPa) = 60.01667 74.56709 63.75678
#
# Poissons Ratio (x) = 0.34874 0.16814
# Poissons Ratio (y) = 0.28069 0.25771
# Poissons Ratio (z) = 0.15828 0.30140
#
# Static dielectric constant tensor:
#      x y z
#    x 1.670200 0.000000 -0.008470 
#    y 0.000000 1.767330 0.000000 
#    z -0.008470 0.000000 1.793380 
# 
# From -- ./inp_files/9441.got.cif
#   From: 2010.05.17/outbox.cif.g08.bks.cpg/sg14_5_cif.got.tgz:9441.got - 2010.06.03 17:49:19.
