data_PCOD9241028
_publ_section_title
;
Structure prediction by ZEFSAII (Michael W. Deem and Ramdas Pophale) SiO2 
 PCOD9241028
Probable space group: P 21/C
;
_chemical_formula_sum "Si O2"
_cell_formula_units_Z 32
_cell_length_a 15.247173
_cell_length_b 16.185882
_cell_length_c 21.192471
_cell_angle_alpha 90.000000
_cell_angle_beta 18.418524
_cell_angle_gamma 90.000000
_cell_volume 1652.470149
_symmetry_space_group_name_H-M "P 21/C"
_symmetry_group_IT_number 14
_symmetry_cell_setting 'monoclinic'
loop_
_space_group_symop_operation_xyz
x,y,z
-x,1/2+y,1/2-z
-x,-y,-z
x,1/2-y,1/2+z
loop_
_atom_site_type_symbol
_atom_site_label
_atom_site_fract_x
_atom_site_fract_y
_atom_site_fract_z
Si Si1 0.580201 0.629579 0.689452
Si Si2 0.032726 0.506453 0.609408
Si Si3 0.829384 0.633064 0.655459
Si Si4 0.570818 0.314034 0.451243
Si Si5 0.297470 0.297477 0.521138
Si Si6 0.946680 0.279648 0.916904
Si Si7 0.730469 0.366526 0.880344
Si Si8 0.944413 0.344548 0.309568
O O1 0.678202 0.543659 0.591209
O O2 0.766704 0.636809 0.624670
O O3 0.643783 0.697630 0.592737
O O4 0.265187 0.647694 0.923268
O O5 0.011096 0.574085 0.679805
O O6 0.994167 0.554851 0.570391
O O7 0.794101 0.439503 0.788133
O O8 0.988303 0.714646 0.571458
O O9 0.534163 0.624512 0.894130
O O10 0.544022 0.333928 0.395665
O O11 0.683848 0.220584 0.378037
O O12 0.751634 0.359866 0.380516
O O13 0.250476 0.312417 0.691448
O O14 0.019717 0.353078 0.719954
O O15 0.214757 0.205006 0.599728
O O16 0.828074 0.222690 0.940116
#
# Coordination Sequence:
#
# PCOD9241028 Si02
#       8
#     4   4   4   4   4   4   4   4
#     4  11  21  34  51  80 114 138 170 219 268 318
#     4  10  21  35  53  83 111 134 172 224 271 311
#     4  10  19  34  56  78 107 143 169 209 272 321
#     4   9  16  33  57  75  99 142 183 215 255 307
#     4   9  19  32  52  78 101 134 181 220 253 304
#     4   9  18  32  54  78 103 140 179 212 258 320
#     4   9  18  34  57  80 104 136 177 221 262 311
#     4   9  18  36  56  76 102 137 181 224 261 310
#
# _framework density 19.364948999999999
#
# number of rings (size 3 to 8) (size 9 to 14) (size 15 to 20)
#    0.000    2.500    0.000    4.500    0.000    3.000 
#    0.000    5.625    0.000    0.000    0.000    0.000 
#    0.000    0.000    0.000    0.000    0.000    0.000 
#
# Total GULP energy -178150.241746 kJ/mol
# GULP energy per Si atom -5567.195055 kJ/mol
# Density = 1.932087 g / cm^3
# Si number density = 19.364949 Si / 1000 Ang^3
#
#
#
# Elastic Constant Matrix: (Units=GPa)
#
#
# Indices 1 2 3 4 5 6 
#
# 1 141.7499 22.5688 15.9423 0.0000 -5.2459 0.0000
# 2 22.5688 44.2914 7.6403 0.0000 10.7274 0.0000
# 3 15.9423 7.6403 38.6217 0.0000 -3.1219 0.0000
# 4 0.0000 0.0000 0.0000 21.1355 0.0000 6.0471
# 5 -5.2459 10.7274 -3.1219 0.0000 23.1007 0.0000
# 6 0.0000 0.0000 0.0000 6.0471 0.0000 20.4348
#
#
#
# Elastic Compliance Matrix: (Units=1/GPa)
#
#
# Indices 1 2 3 4 5 6 
#
# 1 0.008185 -0.004711 -0.002143 0.000000 0.003757 0.000000
# 2 -0.004711 0.029632 -0.005173 0.000000 -0.015529 0.000000
# 3 -0.002143 -0.005173 0.028264 0.000000 0.005735 0.000000
# 4 0.000000 0.000000 0.000000 0.051690 0.000000 -0.015296
# 5 0.003757 -0.015529 0.005735 0.000000 0.052128 0.000000
# 6 0.000000 0.000000 0.000000 -0.015296 0.000000 0.053463
#
#
# Mechanical properties :
#
#
# Convention : Reuss Voigt Hill
#
# Bulk Modulus (GPa) = 23.79403 35.21843 29.50623
# Shear Modulus (GPa) = 19.12614 24.83498 21.98056
#
# Velocity S-wave (km/s) = 3.14613 3.58504 3.37273
# Velocity P-wave (km/s) = 5.05087 5.94667 5.51698
#
# Compressibility (1/GPa) = 0.04202736
#
# Stress axis : x y z
#
# Youngs Moduli (GPa) = 122.17851 33.74779 35.38124
#
# Poissons Ratio (x) = 0.15898 0.07582
# Poissons Ratio (y) = 0.57555 0.18301
# Poissons Ratio (z) = 0.26182 0.17456
#
# Static dielectric constant tensor:
#      x y z
#    x 1.759810 0.000000 0.013100 
#    y 0.000000 1.690530 0.000000 
#    z 0.013100 0.000000 1.707210 
# 
# From -- ./inp_files/68795.got.cif
#   From: 2010.05.17/outbox.cif.g08.bks.cpg/sg14_35_cif.got.tgz:68795.got - 2010.06.03 17:49:19.
