data_PCOD9241962
_publ_section_title
;
Structure prediction by ZEFSAII (Michael W. Deem and Ramdas Pophale) SiO2 
 PCOD9241962
Probable space group: P 21/C
;
_chemical_formula_sum "Si O2"
_cell_formula_units_Z 28
_cell_length_a 9.480351
_cell_length_b 5.312464
_cell_length_c 31.890536
_cell_angle_alpha 90.000000
_cell_angle_beta 136.408757
_cell_angle_gamma 90.000000
_cell_volume 1107.444787
_symmetry_space_group_name_H-M "P 21/C"
_symmetry_group_IT_number 14
_symmetry_cell_setting 'monoclinic'
loop_
_space_group_symop_operation_xyz
x,y,z
-x,1/2+y,1/2-z
-x,-y,-z
x,1/2-y,1/2+z
loop_
_atom_site_type_symbol
_atom_site_label
_atom_site_fract_x
_atom_site_fract_y
_atom_site_fract_z
Si Si1 0.064541 0.979304 0.946576
Si Si2 0.716791 0.653957 0.823369
Si Si3 0.204071 0.941902 0.332842
Si Si4 0.806107 0.847369 0.758031
Si Si5 0.777519 0.220865 0.440917
Si Si6 0.545949 0.715730 0.367465
Si Si7 0.048705 0.251180 0.366271
O O1 0.881113 0.830911 0.883191
O O2 0.165367 0.105724 0.928365
O O3 0.183546 0.791657 0.002502
O O4 0.981833 0.202741 0.959131
O O5 0.663864 0.753063 0.765469
O O6 0.526984 0.696430 0.814316
O O7 0.855119 0.404310 0.844986
O O8 0.351873 0.710378 0.356588
O O9 0.966243 0.875520 0.282401
O O10 0.262699 0.087304 0.303201
O O11 0.216595 0.083106 0.378942
O O12 0.945518 0.064388 0.809628
O O13 0.631354 0.435646 0.390072
O O14 0.695312 0.941063 0.415986
#
# Coordination Sequence:
#
# PCOD9241962 Si02
#       7
#     4   4   4   4   4   4   4
#     4   9  19  36  66  89 121 165 212 248 300 380
#     4   9  20  38  61  92 120 156 206 258 304 363
#     4  11  23  39  64  85 124 162 208 256 312 372
#     4  10  21  40  61  87 110 170 209 247 301 387
#     4  10  22  38  64  94 127 164 207 253 317 366
#     4  11  24  41  61  97 131 158 198 269 316 354
#     4  10  19  38  63  85 121 159 213 251 298 376
#
# _framework density 25.283428000000001
#
# number of rings (size 3 to 8) (size 9 to 14) (size 15 to 20)
#    0.000    2.000    2.857    0.000    4.000    1.714 
#    2.571    1.429    0.000    0.000    0.000    0.000 
#    0.000    0.000    0.000    0.000    0.000    0.000 
#
# Total GULP energy -156209.210546 kJ/mol
# GULP energy per Si atom -5578.900377 kJ/mol
# Density = 2.522588 g / cm^3
# Si number density = 25.283428 Si / 1000 Ang^3
#
#
#
# Elastic Constant Matrix: (Units=GPa)
#
#
# Indices 1 2 3 4 5 6 
#
# 1 123.5436 14.1860 15.3703 0.0000 -33.1610 0.0000
# 2 14.1860 69.9042 22.2624 0.0000 -12.0109 0.0000
# 3 15.3703 22.2624 59.6507 0.0000 -26.2421 0.0000
# 4 0.0000 0.0000 0.0000 40.5903 0.0000 -4.2007
# 5 -33.1610 -12.0109 -26.2421 0.0000 23.3125 0.0000
# 6 0.0000 0.0000 0.0000 -4.2007 0.0000 29.5537
#
#
#
# Elastic Compliance Matrix: (Units=1/GPa)
#
#
# Indices 1 2 3 4 5 6 
#
# 1 0.016621 -0.000944 0.012395 0.000000 0.037109 0.000000
# 2 -0.000944 0.016399 -0.005450 0.000000 0.000971 0.000000
# 3 0.012395 -0.005450 0.043832 0.000000 0.064164 0.000000
# 4 0.000000 0.000000 0.000000 0.025004 0.000000 0.003554
# 5 0.037109 0.000971 0.064164 0.000000 0.168409 0.000000
# 6 0.000000 0.000000 0.000000 0.003554 0.000000 0.034342
#
#
# Mechanical properties :
#
#
# Convention : Reuss Voigt Hill
#
# Bulk Modulus (GPa) = 11.25440 39.63731 25.44585
# Shear Modulus (GPa) = 15.51714 32.10995 23.81355
#
# Velocity S-wave (km/s) = 2.48004 3.56757 3.07231
# Velocity P-wave (km/s) = 3.55834 5.71676 4.76146
#
# Compressibility (1/GPa) = 0.08885416
#
# Stress axis : x y z
#
# Youngs Moduli (GPa) = 60.16342 60.97779 22.81447
#
# Poissons Ratio (x) = 0.05759 -0.28279
# Poissons Ratio (y) = 0.05682 0.12434
# Poissons Ratio (z) = -0.74573 0.33233
#
# Static dielectric constant tensor:
#      x y z
#    x 2.115640 0.000000 0.057390 
#    y 0.000000 2.194020 0.000000 
#    z 0.057390 0.000000 2.031830 
# 
# From -- ./inp_files/76070.got.cif
#   From: 2010.05.17/outbox.cif.g08.bks.cpg/sg14_39_cif.got.tgz:76070.got - 2010.06.03 17:49:19.
