data_PCOD9241629
_publ_section_title
;
Structure prediction by ZEFSAII (Michael W. Deem and Ramdas Pophale) SiO2 
 PCOD9241629
Probable space group: P 21/C
;
_chemical_formula_sum "Si O2"
_cell_formula_units_Z 32
_cell_length_a 16.957154
_cell_length_b 8.714594
_cell_length_c 19.572908
_cell_angle_alpha 90.000000
_cell_angle_beta 148.526294
_cell_angle_gamma 90.000000
_cell_volume 1510.132923
_symmetry_space_group_name_H-M "P 21/C"
_symmetry_group_IT_number 14
_symmetry_cell_setting 'monoclinic'
loop_
_space_group_symop_operation_xyz
x,y,z
-x,1/2+y,1/2-z
-x,-y,-z
x,1/2-y,1/2+z
loop_
_atom_site_type_symbol
_atom_site_label
_atom_site_fract_x
_atom_site_fract_y
_atom_site_fract_z
Si Si1 0.681814 0.219679 0.547631
Si Si2 0.954595 0.207370 0.583841
Si Si3 0.231177 0.511783 0.294061
Si Si4 0.596551 0.782866 0.566326
Si Si5 0.849387 0.214144 0.864357
Si Si6 0.618330 0.110074 0.361175
Si Si7 0.115042 0.492475 0.731830
Si Si8 0.520569 0.312803 0.172229
O O1 0.732269 0.381251 0.614757
O O2 0.549803 0.161834 0.501016
O O3 0.611517 0.223757 0.421155
O O4 0.820939 0.099116 0.659470
O O5 0.962798 0.253946 0.509878
O O6 0.794727 0.123963 0.473180
O O7 0.982645 0.367822 0.644974
O O8 0.083282 0.088253 0.697862
O O9 0.361842 0.387970 0.378010
O O10 0.202481 0.627980 0.210424
O O11 0.742248 0.887746 0.684488
O O12 0.559861 0.779550 0.458834
O O13 0.694863 0.145636 0.782420
O O14 0.915415 0.106909 0.853711
O O15 0.528131 0.169618 0.229220
O O16 0.561622 0.949865 0.348799
#
# Coordination Sequence:
#
# PCOD9241629 Si02
#       8
#     4   4   4   4   4   4   4   4
#     4  11  21  37  63  94 121 159 213 256 299 364
#     4  10  23  40  56  89 133 165 196 251 314 379
#     4  10  22  36  64  93 122 167 204 254 307 361
#     4  11  20  38  67  93 123 156 214 263 301 350
#     4  10  20  39  65  92 125 157 214 261 304 361
#     4  11  26  41  61  90 130 161 201 254 320 380
#     4  10  19  36  64  90 115 165 206 255 299 359
#     4  11  23  42  63  91 127 161 204 259 312 366
#
# _framework density 21.190189
#
# number of rings (size 3 to 8) (size 9 to 14) (size 15 to 20)
#    0.000    1.500    3.750    2.250    1.750    2.000 
#    0.000    6.250    0.000    0.000    0.000    0.000 
#    0.000    0.000    0.000    0.000    0.000    0.000 
#
# Total GULP energy -178713.917987 kJ/mol
# GULP energy per Si atom -5584.809937 kJ/mol
# Density = 2.114196 g / cm^3
# Si number density = 21.190189 Si / 1000 Ang^3
#
#
#
# Elastic Constant Matrix: (Units=GPa)
#
#
# Indices 1 2 3 4 5 6 
#
# 1 43.2569 -12.0656 0.2752 0.0000 -11.6022 0.0000
# 2 -12.0656 39.6263 -2.7912 0.0000 15.3482 0.0000
# 3 0.2752 -2.7912 28.1255 0.0000 -3.9413 0.0000
# 4 0.0000 0.0000 0.0000 20.6394 0.0000 -7.0398
# 5 -11.6022 15.3482 -3.9413 0.0000 31.8995 0.0000
# 6 0.0000 0.0000 0.0000 -7.0398 0.0000 20.8279
#
#
#
# Elastic Compliance Matrix: (Units=1/GPa)
#
#
# Indices 1 2 3 4 5 6 
#
# 1 0.026547 0.005374 0.001287 0.000000 0.007229 0.000000
# 2 0.005374 0.032132 0.001266 0.000000 -0.013349 0.000000
# 3 0.001287 0.001266 0.036276 0.000000 0.004341 0.000000
# 4 0.000000 0.000000 0.000000 0.054765 0.000000 0.018510
# 5 0.007229 -0.013349 0.004341 0.000000 0.040937 0.000000
# 6 0.000000 0.000000 0.000000 0.018510 0.000000 0.054269
#
#
# Mechanical properties :
#
#
# Convention : Reuss Voigt Hill
#
# Bulk Modulus (GPa) = 9.02467 9.09394 9.05930
# Shear Modulus (GPa) = 18.79636 23.04606 20.92121
#
# Velocity S-wave (km/s) = 2.98154 3.30143 3.14555
# Velocity P-wave (km/s) = 4.01508 4.33975 4.18057
#
# Compressibility (1/GPa) = 0.11080741
#
# Stress axis : x y z
#
# Youngs Moduli (GPa) = 37.66848 31.12204 27.56626
#
# Poissons Ratio (x) = -0.16725 -0.03547
# Poissons Ratio (y) = -0.20243 -0.03489
# Poissons Ratio (z) = -0.04846 -0.03939
#
# Static dielectric constant tensor:
#      x y z
#    x 1.774880 0.000000 0.004860 
#    y 0.000000 1.778710 0.000000 
#    z 0.004860 0.000000 1.768840 
# 
# From -- ./inp_files/69179.got.cif
#   From: 2010.05.17/outbox.cif.g08.bks.cpg/sg14_35_cif.got.tgz:69179.got - 2010.06.03 17:49:19.
