data_PCOD9241519
_publ_section_title
;
Structure prediction by ZEFSAII (Michael W. Deem and Ramdas Pophale) SiO2 
 PCOD9241519
Probable space group: P 21/C
;
_chemical_formula_sum "Si O2"
_cell_formula_units_Z 32
_cell_length_a 13.082885
_cell_length_b 13.182623
_cell_length_c 13.994882
_cell_angle_alpha 90.000000
_cell_angle_beta 35.300113
_cell_angle_gamma 90.000000
_cell_volume 1394.750914
_symmetry_space_group_name_H-M "P 21/C"
_symmetry_group_IT_number 14
_symmetry_cell_setting 'monoclinic'
loop_
_space_group_symop_operation_xyz
x,y,z
-x,1/2+y,1/2-z
-x,-y,-z
x,1/2-y,1/2+z
loop_
_atom_site_type_symbol
_atom_site_label
_atom_site_fract_x
_atom_site_fract_y
_atom_site_fract_z
Si Si1 0.439449 0.933693 0.280839
Si Si2 0.113563 0.713492 0.750533
Si Si3 0.363950 0.870849 0.910725
Si Si4 0.057659 0.954750 0.056417
Si Si5 0.057335 0.610155 0.993740
Si Si6 0.198865 0.215782 0.771624
Si Si7 0.561895 0.173421 0.542058
Si Si8 0.201316 0.161202 0.998818
O O1 0.239403 0.901354 0.412978
O O2 0.462484 0.928559 0.378922
O O3 0.485388 0.044579 0.204240
O O4 0.600849 0.864079 0.117600
O O5 0.214271 0.630174 0.609065
O O6 0.103168 0.672897 0.864303
O O7 0.245317 0.810243 0.648051
O O8 0.920878 0.751235 0.864790
O O9 0.440408 0.760700 0.872563
O O10 0.242030 0.891834 0.912229
O O11 0.909404 0.873875 0.195389
O O12 0.101809 0.053219 0.085366
O O13 0.000000 0.000000 0.000000
O O14 0.000000 0.500000 0.000000
O O15 0.901837 0.676836 0.161770
O O16 0.405732 0.205307 0.590571
O O17 0.201392 0.188128 0.884633
#
# Coordination Sequence:
#
# PCOD9241519 Si02
#       8
#     4   4   4   4   4   4   4   4
#     4  10  19  36  60  85 108 159 203 235 285 373
#     4   9  21  40  55  82 122 153 191 257 299 346
#     4   9  19  35  55  80 120 153 190 242 310 345
#     4   9  16  31  57  84 103 144 194 240 290 347
#     4  11  22  37  57  88 118 157 203 238 293 363
#     4   9  17  33  56  81 113 150 194 241 291 354
#     4   9  19  37  58  83 117 155 194 241 304 351
#     4   8  17  35  58  76 113 150 193 244 299 344
#
# _framework density 22.943163999999999
#
# number of rings (size 3 to 8) (size 9 to 14) (size 15 to 20)
#    0.750    2.000    0.000    2.250    0.000    0.500 
#    6.750    0.625    0.000    0.000    0.000    0.000 
#    0.000    0.000    0.000    0.000    0.000    0.000 
#
# Total GULP energy -178134.902053 kJ/mol
# GULP energy per Si atom -5566.715689 kJ/mol
# Density = 2.289094 g / cm^3
# Si number density = 22.943164 Si / 1000 Ang^3
#
#
#
# Elastic Constant Matrix: (Units=GPa)
#
#
# Indices 1 2 3 4 5 6 
#
# 1 52.7321 2.8893 10.8657 0.0000 -30.2848 0.0000
# 2 2.8893 31.9078 3.7997 0.0000 -11.2030 0.0000
# 3 10.8657 3.7997 59.3621 0.0000 -25.6540 0.0000
# 4 0.0000 0.0000 0.0000 41.1908 0.0000 -13.2542
# 5 -30.2848 -11.2030 -25.6540 0.0000 47.7770 0.0000
# 6 0.0000 0.0000 0.0000 -13.2542 0.0000 29.5695
#
#
#
# Elastic Compliance Matrix: (Units=1/GPa)
#
#
# Indices 1 2 3 4 5 6 
#
# 1 0.031046 0.004761 0.003906 0.000000 0.022893 0.000000
# 2 0.004761 0.035008 0.002265 0.000000 0.012443 0.000000
# 3 0.003906 0.002265 0.022508 0.000000 0.015093 0.000000
# 4 0.000000 0.000000 0.000000 0.028369 0.000000 0.012716
# 5 0.022893 0.012443 0.015093 0.000000 0.046464 0.000000
# 6 0.000000 0.000000 0.000000 0.012716 0.000000 0.039519
#
#
# Mechanical properties :
#
#
# Convention : Reuss Voigt Hill
#
# Bulk Modulus (GPa) = 9.05568 19.90129 14.47848
# Shear Modulus (GPa) = 22.95071 32.13727 27.54399
#
# Velocity S-wave (km/s) = 3.16623 3.74670 3.46863
# Velocity P-wave (km/s) = 4.16200 5.23546 4.72928
#
# Compressibility (1/GPa) = 0.11042790
#
# Stress axis : x y z
#
# Youngs Moduli (GPa) = 32.21042 28.56464 44.42780
#
# Poissons Ratio (x) = -0.13601 -0.17354
# Poissons Ratio (y) = -0.15337 -0.10064
# Poissons Ratio (z) = -0.12582 -0.06470
#
# Static dielectric constant tensor:
#      x y z
#    x 1.924580 0.000000 -0.008070 
#    y 0.000000 1.951850 0.000000 
#    z -0.008070 0.000000 1.930160 
# 
# From -- ./inp_files/59609.got.cif
#   From: 2010.05.17/outbox.cif.g08.bks.cpg/sg14_30_cif.got.tgz:59609.got - 2010.06.03 17:49:19.
