data_PCOD9241909
_publ_section_title
;
Structure prediction by ZEFSAII (Michael W. Deem and Ramdas Pophale) SiO2 
 PCOD9241909
Probable space group: P 21/C
;
_chemical_formula_sum "Si O2"
_cell_formula_units_Z 28
_cell_length_a 7.222855
_cell_length_b 16.414532
_cell_length_c 8.802026
_cell_angle_alpha 90.000000
_cell_angle_beta 103.782735
_cell_angle_gamma 90.000000
_cell_volume 1013.517976
_symmetry_space_group_name_H-M "P 21/C"
_symmetry_group_IT_number 14
_symmetry_cell_setting 'monoclinic'
loop_
_space_group_symop_operation_xyz
x,y,z
-x,1/2+y,1/2-z
-x,-y,-z
x,1/2-y,1/2+z
loop_
_atom_site_type_symbol
_atom_site_label
_atom_site_fract_x
_atom_site_fract_y
_atom_site_fract_z
Si Si1 0.675842 0.139169 0.782592
Si Si2 0.298641 0.957045 0.498298
Si Si3 0.469107 0.818084 0.736035
Si Si4 0.669981 0.941219 0.985484
Si Si5 0.770491 0.593692 0.817210
Si Si6 0.141381 0.250902 0.813118
Si Si7 0.000707 0.134206 0.063876
O O1 0.771571 0.093951 0.658921
O O2 0.649186 0.235936 0.760206
O O3 0.458731 0.108102 0.736791
O O4 0.794270 0.116371 0.955543
O O5 0.349862 0.889794 0.634628
O O6 0.500000 0.000000 0.500000
O O7 0.182768 0.033813 0.539045
O O8 0.645740 0.791024 0.657052
O O9 0.559983 0.858638 0.905122
O O10 0.801599 0.946056 0.160512
O O11 0.840085 0.936998 0.894399
O O12 0.500000 0.000000 0.000000
O O13 0.854773 0.682736 0.820371
O O14 0.078355 0.199411 0.948132
O O15 0.003351 0.320905 0.725290
#
# Coordination Sequence:
#
# PCOD9241909 Si02
#       7
#     4   4   4   4   4   4   4
#     4  10  23  36  59  87 119 150 196 251 303 354
#     4  10  21  36  60  88 117 153 200 248 296 359
#     4  10  21  35  63  84 113 159 206 243 291 362
#     4  10  19  38  60  84 114 159 201 242 292 366
#     4   9  19  38  61  84 114 155 205 240 295 358
#     4   9  21  36  60  83 116 159 202 240 294 361
#     4  10  22  38  58  87 122 154 196 255 302 354
#
# _framework density 27.626543000000002
#
# number of rings (size 3 to 8) (size 9 to 14) (size 15 to 20)
#    0.000    2.286    1.429    0.000   14.000    0.000 
#    0.000    5.000    0.000    0.000    0.000    0.000 
#    0.000    0.000    0.000    0.000    0.000    0.000 
#
# Total GULP energy -156348.569802 kJ/mol
# GULP energy per Si atom -5583.877493 kJ/mol
# Density = 2.756366 g / cm^3
# Si number density = 27.626543 Si / 1000 Ang^3
#
#
#
# Elastic Constant Matrix: (Units=GPa)
#
#
# Indices 1 2 3 4 5 6 
#
# 1 99.6671 32.5941 13.0241 0.0000 15.3425 0.0000
# 2 32.5941 133.9888 38.0357 0.0000 0.2695 0.0000
# 3 13.0241 38.0357 67.1123 0.0000 13.0300 0.0000
# 4 0.0000 0.0000 0.0000 62.6462 0.0000 -11.7899
# 5 15.3425 0.2695 13.0300 0.0000 42.2493 0.0000
# 6 0.0000 0.0000 0.0000 -11.7899 0.0000 34.0414
#
#
#
# Elastic Compliance Matrix: (Units=1/GPa)
#
#
# Indices 1 2 3 4 5 6 
#
# 1 0.011601 -0.002871 0.000202 0.000000 -0.004257 0.000000
# 2 -0.002871 0.009707 -0.005462 0.000000 0.002665 0.000000
# 3 0.000202 -0.005462 0.019108 0.000000 -0.005932 0.000000
# 4 0.000000 0.000000 0.000000 0.017076 0.000000 0.005914
# 5 -0.004257 0.002665 -0.005932 0.000000 0.027027 0.000000
# 6 0.000000 0.000000 0.000000 0.005914 0.000000 0.031424
#
#
# Mechanical properties :
#
#
# Convention : Reuss Voigt Hill
#
# Bulk Modulus (GPa) = 41.39844 52.00844 46.70344
# Shear Modulus (GPa) = 35.64922 42.26167 38.95545
#
# Velocity S-wave (km/s) = 3.59611 3.91544 3.75917
# Velocity P-wave (km/s) = 5.67981 6.26956 5.98195
#
# Compressibility (1/GPa) = 0.02415550
#
# Stress axis : x y z
#
# Youngs Moduli (GPa) = 86.19825 103.02144 52.33377
#
# Poissons Ratio (x) = 0.29577 -0.01058
# Poissons Ratio (y) = 0.24747 0.28582
# Poissons Ratio (z) = -0.01743 0.56266
#
# Static dielectric constant tensor:
#      x y z
#    x 2.237990 0.000000 0.034760 
#    y 0.000000 2.225570 0.000000 
#    z 0.034760 0.000000 1.860210 
# 
# From -- ./inp_files/25573.got.cif
#   From: 2010.05.17/outbox.cif.g08.bks.cpg/sg14_13_cif.got.tgz:25573.got - 2010.06.03 17:49:19.
