data_PCOD9241154
_publ_section_title
;
Structure prediction by ZEFSAII (Michael W. Deem and Ramdas Pophale) SiO2 
 PCOD9241154
Probable space group: P 21/C
;
_chemical_formula_sum "Si O2"
_cell_formula_units_Z 28
_cell_length_a 9.280478
_cell_length_b 16.848007
_cell_length_c 7.298252
_cell_angle_alpha 90.000000
_cell_angle_beta 87.311475
_cell_angle_gamma 90.000000
_cell_volume 1139.880801
_symmetry_space_group_name_H-M "P 21/C"
_symmetry_group_IT_number 14
_symmetry_cell_setting 'monoclinic'
loop_
_space_group_symop_operation_xyz
x,y,z
-x,1/2+y,1/2-z
-x,-y,-z
x,1/2-y,1/2+z
loop_
_atom_site_type_symbol
_atom_site_label
_atom_site_fract_x
_atom_site_fract_y
_atom_site_fract_z
Si Si1 0.220021 0.154901 0.248704
Si Si2 0.291026 0.884127 0.849116
Si Si3 0.018855 0.972092 0.785914
Si Si4 0.795698 0.091621 0.739479
Si Si5 0.599375 0.214085 0.627794
Si Si6 0.565481 0.962188 0.676994
Si Si7 0.365244 0.196792 0.888604
O O1 0.331839 0.112033 0.376207
O O2 0.281636 0.144649 0.038917
O O3 0.246069 0.247221 0.296731
O O4 0.072241 0.107354 0.256561
O O5 0.181346 0.943163 0.751881
O O6 0.327958 0.793718 0.788023
O O7 0.442450 0.929700 0.819100
O O8 0.219472 0.872031 0.055146
O O9 0.947462 0.048367 0.689708
O O10 0.000000 0.000000 0.000000
O O11 0.733718 0.154960 0.599269
O O12 0.680942 0.020713 0.757597
O O13 0.486122 0.253323 0.495038
O O14 0.481235 0.159928 0.744635
O O15 0.500000 0.000000 0.500000
#
# Coordination Sequence:
#
# PCOD9241154 Si02
#       7
#     4   4   4   4   4   4   4
#     4  10  20  40  59  92 120 159 202 257 309 368
#     4  11  21  40  62  88 123 165 211 248 307 379
#     4   9  22  42  61  83 127 167 210 242 306 383
#     4  10  21  37  63  87 121 166 204 255 312 371
#     4  11  19  35  62  93 116 155 210 263 311 357
#     4  11  21  36  65  91 124 152 207 258 311 358
#     4  10  19  34  63  89 122 147 207 265 304 360
#
# _framework density 24.563970999999999
#
# number of rings (size 3 to 8) (size 9 to 14) (size 15 to 20)
#    0.000    1.714    4.286    1.286    0.000    2.286 
#    5.143    2.857    0.000    0.000    0.000    0.000 
#    0.000    0.000    0.000    0.000    0.000    0.000 
#
# Total GULP energy -155957.573798 kJ/mol
# GULP energy per Si atom -5569.913350 kJ/mol
# Density = 2.450806 g / cm^3
# Si number density = 24.563971 Si / 1000 Ang^3
#
#
#
# Elastic Constant Matrix: (Units=GPa)
#
#
# Indices 1 2 3 4 5 6 
#
# 1 88.9967 17.5528 -8.8382 0.0000 7.5682 0.0000
# 2 17.5528 67.0131 -2.7386 0.0000 -0.6908 0.0000
# 3 -8.8382 -2.7386 36.8685 0.0000 -1.9427 0.0000
# 4 0.0000 0.0000 0.0000 35.3955 0.0000 10.6555
# 5 7.5682 -0.6908 -1.9427 0.0000 21.9133 0.0000
# 6 0.0000 0.0000 0.0000 10.6555 0.0000 45.2723
#
#
#
# Elastic Compliance Matrix: (Units=1/GPa)
#
#
# Indices 1 2 3 4 5 6 
#
# 1 0.012476 -0.003208 0.002532 0.000000 -0.004186 0.000000
# 2 -0.003208 0.015800 0.000492 0.000000 0.001649 0.000000
# 3 0.002532 0.000492 0.027852 0.000000 0.001610 0.000000
# 4 0.000000 0.000000 0.000000 0.030407 0.000000 -0.007157
# 5 -0.004186 0.001649 0.001610 0.000000 0.047275 0.000000
# 6 0.000000 0.000000 0.000000 -0.007157 0.000000 0.023773
#
#
# Mechanical properties :
#
#
# Convention : Reuss Voigt Hill
#
# Bulk Modulus (GPa) = 17.93403 22.75893 20.34648
# Shear Modulus (GPa) = 28.32271 32.97638 30.64955
#
# Velocity S-wave (km/s) = 3.39930 3.66795 3.53617
# Velocity P-wave (km/s) = 4.76694 5.21764 4.99737
#
# Compressibility (1/GPa) = 0.05575991
#
# Stress axis : x y z
#
# Youngs Moduli (GPa) = 80.15133 63.29228 35.90436
#
# Poissons Ratio (x) = 0.20302 -0.09091
# Poissons Ratio (y) = 0.25709 -0.01765
# Poissons Ratio (z) = -0.20295 -0.03111
#
# Static dielectric constant tensor:
#      x y z
#    x 1.907880 0.000000 0.043560 
#    y 0.000000 2.035880 0.000000 
#    z 0.043560 0.000000 2.126740 
# 
# From -- ./inp_files/9401.got.cif
#   From: 2010.05.17/outbox.cif.g08.bks.cpg/sg14_5_cif.got.tgz:9401.got - 2010.06.03 17:49:19.
