data_PCOD9241091
_publ_section_title
;
Structure prediction by ZEFSAII (Michael W. Deem and Ramdas Pophale) SiO2 
 PCOD9241091
Probable space group: P 21/C
;
_chemical_formula_sum "Si O2"
_cell_formula_units_Z 24
_cell_length_a 5.202649
_cell_length_b 10.342947
_cell_length_c 16.011254
_cell_angle_alpha 90.000000
_cell_angle_beta 86.109620
_cell_angle_gamma 90.000000
_cell_volume 859.591806
_symmetry_space_group_name_H-M "P 21/C"
_symmetry_group_IT_number 14
_symmetry_cell_setting 'monoclinic'
loop_
_space_group_symop_operation_xyz
x,y,z
-x,1/2+y,1/2-z
-x,-y,-z
x,1/2-y,1/2+z
loop_
_atom_site_type_symbol
_atom_site_label
_atom_site_fract_x
_atom_site_fract_y
_atom_site_fract_z
Si Si1 0.041795 0.001451 0.744292
Si Si2 0.645794 0.674917 0.592019
Si Si3 0.516571 0.693894 0.940507
Si Si4 0.454816 0.822179 0.261330
Si Si5 0.125161 0.522779 0.587760
Si Si6 0.175636 0.564655 0.066193
O O1 0.325588 0.065293 0.745195
O O2 0.950196 0.930847 0.831735
O O3 0.042897 0.920502 0.658259
O O4 0.822137 0.109918 0.733679
O O5 0.702262 0.729735 0.498032
O O6 0.516479 0.752198 0.673212
O O7 0.928338 0.637706 0.617376
O O8 0.425154 0.562696 0.584156
O O9 0.472759 0.748742 0.850016
O O10 0.607389 0.546715 0.924913
O O11 0.286995 0.685200 0.012914
O O12 0.000000 0.500000 0.500000
O O13 0.000000 0.500000 0.000000
#
# Coordination Sequence:
#
# PCOD9241091 Si02
#       6
#     4   4   4   4   4   4
#     4   9  18  34  56  78 107 146 183 221 281 329
#     4  10  22  37  59  83 113 148 186 232 278 336
#     4  10  21  35  56  85 115 146 189 227 282 334
#     4   9  18  35  54  76 111 149 173 224 287 323
#     4  10  21  40  60  80 111 152 189 229 279 332
#     4  10  19  34  58  83 113 151 183 231 278 335
#
# _framework density 27.92023
#
# number of rings (size 3 to 8) (size 9 to 14) (size 15 to 20)
#    0.000    2.333    1.667    0.500    2.333    0.000 
#    3.000    1.667    0.000    0.000    0.000    0.000 
#    0.000    0.000    0.000    0.000    0.000    0.000 
#
# Total GULP energy -133807.153990 kJ/mol
# GULP energy per Si atom -5575.298083 kJ/mol
# Density = 2.785668 g / cm^3
# Si number density = 27.920230 Si / 1000 Ang^3
#
#
#
# Elastic Constant Matrix: (Units=GPa)
#
#
# Indices 1 2 3 4 5 6 
#
# 1 157.8581 33.9041 16.5306 0.0000 4.9833 0.0000
# 2 33.9041 40.1948 19.8927 0.0000 -8.6991 0.0000
# 3 16.5306 19.8927 305.8295 0.0000 1.1320 0.0000
# 4 0.0000 0.0000 0.0000 27.8068 0.0000 -3.2953
# 5 4.9833 -8.6991 1.1320 0.0000 34.4627 0.0000
# 6 0.0000 0.0000 0.0000 -3.2953 0.0000 50.3109
#
#
#
# Elastic Compliance Matrix: (Units=1/GPa)
#
#
# Indices 1 2 3 4 5 6 
#
# 1 0.008027 -0.007461 0.000063 0.000000 -0.003046 0.000000
# 2 -0.007461 0.034207 -0.001858 0.000000 0.009774 0.000000
# 3 0.000063 -0.001858 0.003389 0.000000 -0.000589 0.000000
# 4 0.000000 0.000000 0.000000 0.036244 0.000000 0.002374
# 5 -0.003046 0.009774 -0.000589 0.000000 0.031944 0.000000
# 6 0.000000 0.000000 0.000000 0.002374 0.000000 0.020032
#
#
# Mechanical properties :
#
#
# Convention : Reuss Voigt Hill
#
# Bulk Modulus (GPa) = 36.88523 71.61525 54.25024
# Shear Modulus (GPa) = 30.98048 51.41974 41.20011
#
# Velocity S-wave (km/s) = 3.33469 4.29612 3.84557
# Velocity P-wave (km/s) = 5.29778 7.09327 6.26023
#
# Compressibility (1/GPa) = 0.02711112
#
# Stress axis : x y z
#
# Youngs Moduli (GPa) = 124.58261 29.23382 295.03440
#
# Poissons Ratio (x) = 0.21811 -0.01850
# Poissons Ratio (y) = 0.92949 0.54814
# Poissons Ratio (z) = -0.00781 0.05431
#
# Static dielectric constant tensor:
#      x y z
#    x 2.368710 0.000000 0.240530 
#    y 0.000000 4.137530 0.000000 
#    z 0.240530 0.000000 2.367890 
# 
# From -- ./inp_files/37183.got.cif
#   From: 2010.05.17/outbox.cif.g08.bks.cpg/sg14_19_cif.got.tgz:37183.got - 2010.06.03 17:49:19.
