data_PCOD9241169
_publ_section_title
;
Structure prediction by ZEFSAII (Michael W. Deem and Ramdas Pophale) SiO2 
 PCOD9241169
Probable space group: P 21/C
;
_chemical_formula_sum "Si O2"
_cell_formula_units_Z 28
_cell_length_a 7.722882
_cell_length_b 8.980903
_cell_length_c 17.336858
_cell_angle_alpha 90.000000
_cell_angle_beta 115.543561
_cell_angle_gamma 90.000000
_cell_volume 1084.926708
_symmetry_space_group_name_H-M "P 21/C"
_symmetry_group_IT_number 14
_symmetry_cell_setting 'monoclinic'
loop_
_space_group_symop_operation_xyz
x,y,z
-x,1/2+y,1/2-z
-x,-y,-z
x,1/2-y,1/2+z
loop_
_atom_site_type_symbol
_atom_site_label
_atom_site_fract_x
_atom_site_fract_y
_atom_site_fract_z
Si Si1 0.934145 0.225349 0.551765
Si Si2 0.303189 0.582864 0.593517
Si Si3 0.095316 0.692933 0.775556
Si Si4 0.769403 0.383186 0.821196
Si Si5 0.818677 0.913326 0.527810
Si Si6 0.307643 0.199821 0.868126
Si Si7 0.358325 0.449774 0.756921
O O1 0.847311 0.379672 0.502608
O O2 0.957601 0.225856 0.647309
O O3 0.117184 0.177583 0.535431
O O4 0.776975 0.088068 0.505095
O O5 0.271480 0.727924 0.642718
O O6 0.515319 0.587180 0.597407
O O7 0.285635 0.455500 0.654686
O O8 0.197224 0.838457 0.760441
O O9 0.246131 0.561499 0.791369
O O10 0.912600 0.651891 0.686598
O O11 0.976896 0.432877 0.888895
O O12 0.585489 0.485467 0.796547
O O13 0.689114 0.811819 0.557702
O O14 0.338292 0.294843 0.796063
#
# Coordination Sequence:
#
# PCOD9241169 Si02
#       7
#     4   4   4   4   4   4   4
#     4  10  19  35  52  85 117 138 177 237 285 319
#     4   9  20  34  53  79 114 140 178 227 282 325
#     4  10  20  35  59  84 109 144 193 224 272 333
#     4   8  18  35  54  80 107 146 189 220 263 339
#     4   9  18  34  55  82 115 141 180 233 282 311
#     4  10  20  36  57  85 104 151 194 218 265 342
#     4  10  19  37  57  78 113 147 183 234 273 319
#
# _framework density 25.808192999999999
#
# number of rings (size 3 to 8) (size 9 to 14) (size 15 to 20)
#    0.000    2.571    1.429    0.857    2.000    0.571 
#    5.143    1.429    0.000    0.000    0.000    0.000 
#    0.000    0.000    0.000    0.000    0.000    0.000 
#
# Total GULP energy -156438.578118 kJ/mol
# GULP energy per Si atom -5587.092076 kJ/mol
# Density = 2.574945 g / cm^3
# Si number density = 25.808193 Si / 1000 Ang^3
#
#
#
# Elastic Constant Matrix: (Units=GPa)
#
#
# Indices 1 2 3 4 5 6 
#
# 1 121.8882 19.0731 23.2797 0.0000 -11.4190 0.0000
# 2 19.0731 25.4772 4.1387 0.0000 2.2502 0.0000
# 3 23.2797 4.1387 89.6376 0.0000 -22.1265 0.0000
# 4 0.0000 0.0000 0.0000 30.9349 0.0000 -8.3711
# 5 -11.4190 2.2502 -22.1265 0.0000 32.3789 0.0000
# 6 0.0000 0.0000 0.0000 -8.3711 0.0000 35.4901
#
#
#
# Elastic Compliance Matrix: (Units=1/GPa)
#
#
# Indices 1 2 3 4 5 6 
#
# 1 0.009939 -0.007463 -0.001496 0.000000 0.003002 0.000000
# 2 -0.007463 0.045783 -0.001938 0.000000 -0.007138 0.000000
# 3 -0.001496 -0.001938 0.013878 0.000000 0.009091 0.000000
# 4 0.000000 0.000000 0.000000 0.034530 0.000000 0.008145
# 5 0.003002 -0.007138 0.009091 0.000000 0.038651 0.000000
# 6 0.000000 0.000000 0.000000 0.008145 0.000000 0.030098
#
#
# Mechanical properties :
#
#
# Convention : Reuss Voigt Hill
#
# Bulk Modulus (GPa) = 20.91720 36.66511 28.79115
# Shear Modulus (GPa) = 23.74092 32.46155 28.10123
#
# Velocity S-wave (km/s) = 3.03627 3.55040 3.30335
# Velocity P-wave (km/s) = 4.51823 5.57178 5.07243
#
# Compressibility (1/GPa) = 0.04780755
#
# Stress axis : x y z
#
# Youngs Moduli (GPa) = 100.61487 21.84225 72.05663
#
# Poissons Ratio (x) = 0.16300 0.10778
# Poissons Ratio (y) = 0.75086 0.13962
# Poissons Ratio (z) = 0.15049 0.04232
#
# Static dielectric constant tensor:
#      x y z
#    x 2.036270 0.000000 0.028550 
#    y 0.000000 2.150150 0.000000 
#    z 0.028550 0.000000 2.098490 
# 
# From -- ./inp_files/55171.got.cif
#   From: 2010.05.17/outbox.cif.g08.bks.cpg/sg14_28_cif.got.tgz:55171.got - 2010.06.03 17:49:19.
