data_PCOD9241162
_publ_section_title
;
Structure prediction by ZEFSAII (Michael W. Deem and Ramdas Pophale) SiO2 
 PCOD9241162
Probable space group: P 21/C
;
_chemical_formula_sum "Si O2"
_cell_formula_units_Z 24
_cell_length_a 17.914904
_cell_length_b 7.544885
_cell_length_c 18.154793
_cell_angle_alpha 90.000000
_cell_angle_beta 146.341808
_cell_angle_gamma 90.000000
_cell_volume 1360.047554
_symmetry_space_group_name_H-M "P 21/C"
_symmetry_group_IT_number 14
_symmetry_cell_setting 'monoclinic'
loop_
_space_group_symop_operation_xyz
x,y,z
-x,1/2+y,1/2-z
-x,-y,-z
x,1/2-y,1/2+z
loop_
_atom_site_type_symbol
_atom_site_label
_atom_site_fract_x
_atom_site_fract_y
_atom_site_fract_z
Si Si1 0.894417 0.155997 0.546675
Si Si2 0.202580 0.342041 0.347616
Si Si3 0.882091 0.745466 0.558650
Si Si4 0.849745 0.033048 0.906810
Si Si5 0.190432 0.746213 0.859913
Si Si6 0.654997 0.969501 0.609824
O O1 0.845349 0.271176 0.438048
O O2 0.825254 0.222666 0.565360
O O3 0.054744 0.186649 0.689900
O O4 0.871108 0.946472 0.521628
O O5 0.188684 0.275402 0.420395
O O6 0.226724 0.552079 0.370081
O O7 0.309631 0.225443 0.391826
O O8 0.829269 0.605903 0.456323
O O9 0.040717 0.708473 0.704393
O O10 0.743808 0.004408 0.755346
O O11 0.000000 0.000000 0.000000
O O12 0.291851 0.607528 0.907779
O O13 0.500000 0.000000 0.500000
#
# Coordination Sequence:
#
# PCOD9241162 Si02
#       6
#     4   4   4   4   4   4
#     4  10  19  34  65  95 117 148 202 254 295 346
#     4  10  19  36  64  91 117 159 201 239 297 360
#     4  10  19  34  65  95 117 148 202 254 295 346
#     4  12  22  38  60  96 122 148 203 260 295 337
#     4  10  19  36  64  91 117 159 201 239 297 360
#     4  12  26  42  58  88 130 161 193 248 308 355
#
# _framework density 17.646442
#
# number of rings (size 3 to 8) (size 9 to 14) (size 15 to 20)
#    0.000    1.333    6.667    0.000    0.000    2.667 
#    0.000    1.667    0.000    0.000    0.000    0.000 
#    0.000    0.000    0.000    0.000    0.000    0.000 
#
# Total GULP energy -134080.367054 kJ/mol
# GULP energy per Si atom -5586.681961 kJ/mol
# Density = 1.760628 g / cm^3
# Si number density = 17.646442 Si / 1000 Ang^3
#
#
#
# Elastic Constant Matrix: (Units=GPa)
#
#
# Indices 1 2 3 4 5 6 
#
# 1 39.3456 -5.0129 14.1830 0.0000 13.0431 0.0000
# 2 -5.0129 41.6170 -6.0133 0.0000 9.5109 0.0000
# 3 14.1830 -6.0133 50.2734 0.0000 6.8213 0.0000
# 4 0.0000 0.0000 0.0000 13.4818 0.0000 -5.4108
# 5 13.0431 9.5109 6.8213 0.0000 20.1016 0.0000
# 6 0.0000 0.0000 0.0000 -5.4108 0.0000 36.8911
#
#
#
# Elastic Compliance Matrix: (Units=1/GPa)
#
#
# Indices 1 2 3 4 5 6 
#
# 1 0.037810 0.009955 -0.005774 0.000000 -0.027284 0.000000
# 2 0.009955 0.030921 0.003932 0.000000 -0.022424 0.000000
# 3 -0.005774 0.003932 0.022784 0.000000 -0.005846 0.000000
# 4 0.000000 0.000000 0.000000 0.078813 0.000000 0.011560
# 5 -0.027284 -0.022424 -0.005846 0.000000 0.080044 0.000000
# 6 0.000000 0.000000 0.000000 0.011560 0.000000 0.028802
#
#
# Mechanical properties :
#
#
# Convention : Reuss Voigt Hill
#
# Bulk Modulus (GPa) = 9.28140 15.28331 12.28235
# Shear Modulus (GPa) = 16.73018 22.63352 19.68185
#
# Velocity S-wave (km/s) = 3.08243 3.58524 3.34330
# Velocity P-wave (km/s) = 4.23551 5.08117 4.67749
#
# Compressibility (1/GPa) = 0.10774241
#
# Stress axis : x y z
#
# Youngs Moduli (GPa) = 26.44778 32.34086 43.89103
#
# Poissons Ratio (x) = -0.32197 0.25343
# Poissons Ratio (y) = -0.26330 -0.17260
# Poissons Ratio (z) = 0.15271 -0.12718
#
# Static dielectric constant tensor:
#      x y z
#    x 1.592460 0.000000 -0.015270 
#    y 0.000000 1.612280 0.000000 
#    z -0.015270 0.000000 1.568880 
# 
# From -- ./inp_files/46597.got.cif
#   From: 2010.05.17/outbox.cif.g08.bks.cpg/sg14_24_cif.got.tgz:46597.got - 2010.06.03 17:49:19.
