data_PCOD9241932
_publ_section_title
;
Structure prediction by ZEFSAII (Michael W. Deem and Ramdas Pophale) SiO2 
 PCOD9241932
Probable space group: P 21/C
;
_chemical_formula_sum "Si O2"
_cell_formula_units_Z 28
_cell_length_a 8.656625
_cell_length_b 14.523955
_cell_length_c 15.248059
_cell_angle_alpha 90.000000
_cell_angle_beta 44.728564
_cell_angle_gamma 90.000000
_cell_volume 1349.167397
_symmetry_space_group_name_H-M "P 21/C"
_symmetry_group_IT_number 14
_symmetry_cell_setting 'monoclinic'
loop_
_space_group_symop_operation_xyz
x,y,z
-x,1/2+y,1/2-z
-x,-y,-z
x,1/2-y,1/2+z
loop_
_atom_site_type_symbol
_atom_site_label
_atom_site_fract_x
_atom_site_fract_y
_atom_site_fract_z
Si Si1 0.682110 0.745219 0.550142
Si Si2 0.769756 0.147063 0.754317
Si Si3 0.780226 0.405624 0.048642
Si Si4 0.672068 0.539192 0.361237
Si Si5 0.558778 0.393143 0.961777
Si Si6 0.978476 0.170537 0.196634
Si Si7 0.709248 0.592535 0.166361
O O1 0.483579 0.673753 0.629335
O O2 0.628162 0.822864 0.497134
O O3 0.670949 0.808127 0.640773
O O4 0.909095 0.690879 0.443416
O O5 0.795361 0.141776 0.638418
O O6 0.906254 0.225684 0.747616
O O7 0.818762 0.048717 0.775304
O O8 0.683540 0.507491 0.109306
O O9 0.647746 0.361757 0.021803
O O10 0.031456 0.413006 0.916191
O O11 0.500000 0.500000 0.500000
O O12 0.572485 0.572238 0.308788
O O13 0.822268 0.621182 0.335305
O O14 0.756757 0.384449 0.809828
O O15 0.500000 0.500000 0.000000
#
# Coordination Sequence:
#
# PCOD9241932 Si02
#       7
#     4   4   4   4   4   4   4
#     4  11  22  40  63  94 133 170 221 278 335 396
#     4  10  23  39  64  93 135 175 220 282 333 406
#     4  10  19  38  61  89 119 169 219 265 331 390
#     4  11  22  41  67  96 131 179 224 272 343 399
#     4  11  23  39  65  98 126 170 224 277 329 395
#     4  11  23  39  63  96 130 174 217 283 330 392
#     4  10  20  36  66  86 121 175 218 269 328 406
#
# _framework density 20.753540000000001
#
# number of rings (size 3 to 8) (size 9 to 14) (size 15 to 20)
#    0.000    1.429    5.714    0.000    2.000    1.143 
#    0.000    0.000    0.000    4.286    0.000    0.000 
#    0.000    0.000    0.000    0.000    0.000    0.000 
#
# Total GULP energy -155901.283643 kJ/mol
# GULP energy per Si atom -5567.902987 kJ/mol
# Density = 2.070630 g / cm^3
# Si number density = 20.753540 Si / 1000 Ang^3
#
#
#
# Elastic Constant Matrix: (Units=GPa)
#
#
# Indices 1 2 3 4 5 6 
#
# 1 42.4289 25.8212 26.4652 0.0000 9.9549 0.0000
# 2 25.8212 100.7758 35.9876 0.0000 9.4155 0.0000
# 3 26.4652 35.9876 119.6125 0.0000 1.1945 0.0000
# 4 0.0000 0.0000 0.0000 30.3816 0.0000 5.8938
# 5 9.9549 9.4155 1.1945 0.0000 29.4589 0.0000
# 6 0.0000 0.0000 0.0000 5.8938 0.0000 35.9861
#
#
#
# Elastic Compliance Matrix: (Units=1/GPa)
#
#
# Indices 1 2 3 4 5 6 
#
# 1 0.032421 -0.005534 -0.005419 0.000000 -0.008967 0.000000
# 2 -0.005534 0.012417 -0.002492 0.000000 -0.001998 0.000000
# 3 -0.005419 -0.002492 0.010287 0.000000 0.002210 0.000000
# 4 0.000000 0.000000 0.000000 0.033995 0.000000 -0.005568
# 5 -0.008967 -0.001998 0.002210 0.000000 0.037525 0.000000
# 6 0.000000 0.000000 0.000000 -0.005568 0.000000 0.028700
#
#
# Mechanical properties :
#
#
# Convention : Reuss Voigt Hill
#
# Bulk Modulus (GPa) = 35.41573 48.81835 42.11704
# Shear Modulus (GPa) = 26.08985 30.80155 28.44570
#
# Velocity S-wave (km/s) = 3.54945 3.85666 3.70624
# Velocity P-wave (km/s) = 5.82237 6.58830 6.21714
#
# Compressibility (1/GPa) = 0.02823604
#
# Stress axis : x y z
#
# Youngs Moduli (GPa) = 30.84455 80.53228 97.21162
#
# Poissons Ratio (x) = 0.44567 0.52677
# Poissons Ratio (y) = 0.17070 0.24221
# Poissons Ratio (z) = 0.16714 0.20065
#
# Static dielectric constant tensor:
#      x y z
#    x 1.757490 0.000000 0.001970 
#    y 0.000000 1.761030 0.000000 
#    z 0.001970 0.000000 1.855460 
# 
# From -- ./inp_files/41135.got.cif
#   From: 2010.05.17/outbox.cif.g08.bks.cpg/sg14_21_cif.got.tgz:41135.got - 2010.06.03 17:49:19.
