data_PCOD9241869
_publ_section_title
;
Structure prediction by ZEFSAII (Michael W. Deem and Ramdas Pophale) SiO2 
 PCOD9241869
Probable space group: P 21/C
;
_chemical_formula_sum "Si O2"
_cell_formula_units_Z 28
_cell_length_a 7.622678
_cell_length_b 13.832359
_cell_length_c 12.980975
_cell_angle_alpha 90.000000
_cell_angle_beta 122.807933
_cell_angle_gamma 90.000000
_cell_volume 1150.388452
_symmetry_space_group_name_H-M "P 21/C"
_symmetry_group_IT_number 14
_symmetry_cell_setting 'monoclinic'
loop_
_space_group_symop_operation_xyz
x,y,z
-x,1/2+y,1/2-z
-x,-y,-z
x,1/2-y,1/2+z
loop_
_atom_site_type_symbol
_atom_site_label
_atom_site_fract_x
_atom_site_fract_y
_atom_site_fract_z
Si Si1 0.161012 0.914722 0.027104
Si Si2 0.398997 0.207753 0.192036
Si Si3 0.549142 0.918971 0.273115
Si Si4 0.068118 0.376176 0.735880
Si Si5 0.701781 0.443705 0.105396
Si Si6 0.214176 0.608998 0.088905
Si Si7 0.085539 0.250463 0.932450
O O1 0.392021 0.946462 0.131557
O O2 0.074927 0.826743 0.070480
O O3 0.135000 0.885665 0.899540
O O4 0.000000 0.000000 0.000000
O O5 0.361146 0.314830 0.224023
O O6 0.255352 0.136814 0.213588
O O7 0.630553 0.173739 0.291526
O O8 0.308510 0.215687 0.047505
O O9 0.391530 0.899603 0.320041
O O10 0.712739 0.001901 0.354889
O O11 0.121910 0.477055 0.810292
O O12 0.073799 0.282087 0.810498
O O13 0.500000 0.500000 0.000000
O O14 0.758860 0.379010 0.025420
O O15 0.985185 0.646934 0.040926
#
# Coordination Sequence:
#
# PCOD9241869 Si02
#       7
#     4   4   4   4   4   4   4
#     4  11  22  45  68  95 139 184 229 278 353 408
#     4  11  23  42  66  99 134 174 227 283 338 410
#     4  11  21  40  69  97 133 179 220 284 343 406
#     4  11  23  44  67 100 136 183 231 281 353 413
#     4  10  19  37  71  94 127 178 224 274 346 407
#     4  11  23  44  70 103 133 175 236 282 342 418
#     4  11  25  44  67  98 140 175 228 291 340 414
#
# _framework density 24.339604999999999
#
# number of rings (size 3 to 8) (size 9 to 14) (size 15 to 20)
#    0.000    1.143    5.714    2.571    0.000    4.571 
#    5.143    0.714    0.000    0.000    0.000    0.000 
#    0.000    0.000    0.000    0.000    0.000    0.000 
#
# Total GULP energy -156359.862498 kJ/mol
# GULP energy per Si atom -5584.280804 kJ/mol
# Density = 2.428421 g / cm^3
# Si number density = 24.339605 Si / 1000 Ang^3
#
#
#
# Elastic Constant Matrix: (Units=GPa)
#
#
# Indices 1 2 3 4 5 6 
#
# 1 22.1390 7.2889 21.0899 0.0000 -8.4918 0.0000
# 2 7.2889 108.6603 33.6683 0.0000 8.1014 0.0000
# 3 21.0899 33.6683 165.6648 0.0000 0.0685 0.0000
# 4 0.0000 0.0000 0.0000 52.1275 0.0000 0.5804
# 5 -8.4918 8.1014 0.0685 0.0000 32.3243 0.0000
# 6 0.0000 0.0000 0.0000 0.5804 0.0000 28.1961
#
#
#
# Elastic Compliance Matrix: (Units=1/GPa)
#
#
# Indices 1 2 3 4 5 6 
#
# 1 0.058979 -0.003032 -0.006899 0.000000 0.016269 0.000000
# 2 -0.003032 0.010176 -0.001681 0.000000 -0.003343 0.000000
# 3 -0.006899 -0.001681 0.007257 0.000000 -0.001406 0.000000
# 4 0.000000 0.000000 0.000000 0.019188 0.000000 -0.000395
# 5 0.016269 -0.003343 -0.001406 0.000000 0.036051 0.000000
# 6 0.000000 0.000000 0.000000 -0.000395 0.000000 0.035474
#
#
# Mechanical properties :
#
#
# Convention : Reuss Voigt Hill
#
# Bulk Modulus (GPa) = 18.80063 46.72872 32.76468
# Shear Modulus (GPa) = 24.02935 38.15738 31.09336
#
# Velocity S-wave (km/s) = 3.14547 3.96372 3.57806
# Velocity P-wave (km/s) = 4.57526 6.33944 5.52818
#
# Compressibility (1/GPa) = 0.05318970
#
# Stress axis : x y z
#
# Youngs Moduli (GPa) = 16.95507 98.26623 137.80306
#
# Poissons Ratio (x) = 0.29791 0.95069
# Poissons Ratio (y) = 0.05140 0.23163
# Poissons Ratio (z) = 0.11697 0.16517
#
# Static dielectric constant tensor:
#      x y z
#    x 1.940120 0.000000 -0.008180 
#    y 0.000000 2.004230 0.000000 
#    z -0.008180 0.000000 2.052870 
# 
# From -- ./inp_files/25593.got.cif
#   From: 2010.05.17/outbox.cif.g08.bks.cpg/sg14_13_cif.got.tgz:25593.got - 2010.06.03 17:49:19.
