data_PCOD9241766
_publ_section_title
;
Structure prediction by ZEFSAII (Michael W. Deem and Ramdas Pophale) SiO2 
 PCOD9241766
Probable space group: P 21/C
;
_chemical_formula_sum "Si O2"
_cell_formula_units_Z 32
_cell_length_a 9.874064
_cell_length_b 12.952882
_cell_length_c 11.789933
_cell_angle_alpha 90.000000
_cell_angle_beta 84.023136
_cell_angle_gamma 90.000000
_cell_volume 1499.707036
_symmetry_space_group_name_H-M "P 21/C"
_symmetry_group_IT_number 14
_symmetry_cell_setting 'monoclinic'
loop_
_space_group_symop_operation_xyz
x,y,z
-x,1/2+y,1/2-z
-x,-y,-z
x,1/2-y,1/2+z
loop_
_atom_site_type_symbol
_atom_site_label
_atom_site_fract_x
_atom_site_fract_y
_atom_site_fract_z
Si Si1 0.304262 0.008302 0.734817
Si Si2 0.211370 0.685736 0.120215
Si Si3 0.972054 0.391727 0.061362
Si Si4 0.822258 0.097097 0.797118
Si Si5 0.538839 0.260536 0.016250
Si Si6 0.647903 0.043274 0.026837
Si Si7 0.396698 0.525103 0.864142
Si Si8 0.732898 0.846903 0.463988
O O1 0.211113 0.916991 0.693848
O O2 0.297463 0.017172 0.869356
O O3 0.461396 0.980096 0.692153
O O4 0.275021 0.109333 0.663429
O O5 0.141475 0.783970 0.180173
O O6 0.367358 0.727052 0.102006
O O7 0.149810 0.661164 0.000674
O O8 0.108840 0.325178 0.031866
O O9 0.939871 0.423677 0.193750
O O10 0.000000 0.500000 0.000000
O O11 0.562718 0.128607 0.572082
O O12 0.693731 0.065315 0.730531
O O13 0.606062 0.160768 0.067839
O O14 0.377443 0.256321 0.011916
O O15 0.500000 0.000000 0.000000
O O16 0.767802 0.050592 0.921729
O O17 0.318539 0.441483 0.949439
#
# Coordination Sequence:
#
# PCOD9241766 Si02
#       8
#     4   4   4   4   4   4   4   4
#     4  11  19  35  62  94 124 158 208 266 320 374
#     4  11  21  36  65  94 120 161 213 264 312 370
#     4  12  22  42  67  93 122 174 217 264 316 381
#     4  11  23  38  59  93 129 165 213 259 312 395
#     4  10  19  37  61  95 118 157 203 273 308 364
#     4  11  24  38  57  92 134 170 205 261 336 382
#     4  11  17  36  64  97 121 150 217 266 314 373
#     4  11  21  38  68  97 122 158 222 270 315 370
#
# _framework density 21.337499999999999
#
# number of rings (size 3 to 8) (size 9 to 14) (size 15 to 20)
#    0.000    1.000    7.500    1.500    1.750    0.000 
#    0.000    4.375    0.000    0.000    0.000    0.000 
#    0.000    0.000    0.000    0.000    0.000    0.000 
#
# Total GULP energy -178158.509262 kJ/mol
# GULP energy per Si atom -5567.453414 kJ/mol
# Density = 2.128894 g / cm^3
# Si number density = 21.337500 Si / 1000 Ang^3
#
#
#
# Elastic Constant Matrix: (Units=GPa)
#
#
# Indices 1 2 3 4 5 6 
#
# 1 101.6471 -3.5035 27.6086 0.0000 -11.6782 0.0000
# 2 -3.5035 38.0051 16.9240 0.0000 -7.8444 0.0000
# 3 27.6086 16.9240 113.5144 0.0000 -15.9731 0.0000
# 4 0.0000 0.0000 0.0000 14.1033 0.0000 -13.9742
# 5 -11.6782 -7.8444 -15.9731 0.0000 35.3008 0.0000
# 6 0.0000 0.0000 0.0000 -13.9742 0.0000 -0.5332
#
#
#
# Elastic Compliance Matrix: (Units=1/GPa)
#
#
# Indices 1 2 3 4 5 6 
#
# 1 0.011013 0.002837 -0.002670 0.000000 0.003066 0.000000
# 2 0.002837 0.029650 -0.004327 0.000000 0.005569 0.000000
# 3 -0.002670 -0.004327 0.010514 0.000000 0.002912 0.000000
# 4 0.000000 0.000000 0.000000 0.002629 0.000000 -0.068907
# 5 0.003066 0.005569 0.002912 0.000000 0.031898 0.000000
# 6 0.000000 0.000000 0.000000 -0.068907 0.000000 -0.069543
#
#
# Mechanical properties :
#
#
# Convention : Reuss Voigt Hill
#
# Bulk Modulus (GPa) = 23.33333 37.24718 30.29025
# Shear Modulus (GPa) = 128.97746 23.91668 76.44707
#
# Velocity S-wave (km/s) = 7.78316 3.35158 5.99211
# Velocity P-wave (km/s) = 9.57754 5.69838 7.88038
#
# Compressibility (1/GPa) = 0.04285716
#
# Stress axis : x y z
#
# Youngs Moduli (GPa) = 90.80009 33.72663 95.11291
#
# Poissons Ratio (x) = -0.09569 0.25397
# Poissons Ratio (y) = -0.25761 0.41154
# Poissons Ratio (z) = 0.24245 0.14593
#
# Static dielectric constant tensor:
#      x y z
#    x 1.871810 0.000000 -0.027050 
#    y 0.000000 1.858680 0.000000 
#    z -0.027050 0.000000 1.837190 
# 
# From -- ./inp_files/25538.got.cif
#   From: 2010.05.17/outbox.cif.g08.bks.cpg/sg14_13_cif.got.tgz:25538.got - 2010.06.03 17:49:19.
