data_PCOD9241439
_publ_section_title
;
Structure prediction by ZEFSAII (Michael W. Deem and Ramdas Pophale) SiO2 
 PCOD9241439
Probable space group: P 21/C
;
_chemical_formula_sum "Si O2"
_cell_formula_units_Z 28
_cell_length_a 18.764373
_cell_length_b 14.142496
_cell_length_c 8.757948
_cell_angle_alpha 90.000000
_cell_angle_beta 30.966804
_cell_angle_gamma 90.000000
_cell_volume 1195.866712
_symmetry_space_group_name_H-M "P 21/C"
_symmetry_group_IT_number 14
_symmetry_cell_setting 'monoclinic'
loop_
_space_group_symop_operation_xyz
x,y,z
-x,1/2+y,1/2-z
-x,-y,-z
x,1/2-y,1/2+z
loop_
_atom_site_type_symbol
_atom_site_label
_atom_site_fract_x
_atom_site_fract_y
_atom_site_fract_z
Si Si1 0.730368 0.164871 0.692895
Si Si2 0.431947 0.999553 0.868318
Si Si3 0.022684 0.372966 0.117025
Si Si4 0.924029 0.273160 0.574577
Si Si5 0.542875 0.705659 0.783547
Si Si6 0.335395 0.360349 0.120670
Si Si7 0.203737 0.489757 0.565846
O O1 0.843178 0.198991 0.612044
O O2 0.806310 0.175731 0.391666
O O3 0.666993 0.060661 0.837271
O O4 0.601396 0.237538 0.950010
O O5 0.577517 0.946828 0.608820
O O6 0.453780 0.112097 0.829086
O O7 0.356020 0.983479 0.843234
O O8 0.017259 0.341907 0.300520
O O9 0.021184 0.281759 0.013297
O O10 0.874894 0.421550 0.354649
O O11 0.132023 0.446302 0.848335
O O12 0.661667 0.775562 0.502385
O O13 0.580045 0.677830 0.887467
O O14 0.202256 0.408012 0.440792
#
# Coordination Sequence:
#
# PCOD9241439 Si02
#       7
#     4   4   4   4   4   4   4
#     4  10  19  36  56  86 116 147 190 237 276 340
#     4  10  20  36  61  83 115 152 185 231 289 343
#     4  10  22  37  60  84 109 150 195 231 278 331
#     4  10  21  35  60  83 112 150 194 235 275 328
#     4  10  20  35  54  84 110 152 183 228 290 341
#     4  10  22  36  57  85 113 150 185 229 289 341
#     4  10  20  39  59  80 114 151 189 227 283 346
#
# _framework density 23.413981
#
# number of rings (size 3 to 8) (size 9 to 14) (size 15 to 20)
#    0.000    2.000    1.429    3.429    6.000    2.286 
#    2.571    2.857    0.000    0.000    0.000    0.000 
#    0.000    0.000    0.000    0.000    0.000    0.000 
#
# Total GULP energy -156432.383677 kJ/mol
# GULP energy per Si atom -5586.870846 kJ/mol
# Density = 2.336069 g / cm^3
# Si number density = 23.413981 Si / 1000 Ang^3
#
#
#
# Elastic Constant Matrix: (Units=GPa)
#
#
# Indices 1 2 3 4 5 6 
#
# 1 25.6105 2.5632 14.6669 0.0000 5.6126 0.0000
# 2 2.5632 83.4344 14.6789 0.0000 9.7873 0.0000
# 3 14.6669 14.6789 62.8455 0.0000 22.7835 0.0000
# 4 0.0000 0.0000 0.0000 33.9020 0.0000 6.1730
# 5 5.6126 9.7873 22.7835 0.0000 32.8039 0.0000
# 6 0.0000 0.0000 0.0000 6.1730 0.0000 11.6794
#
#
#
# Elastic Compliance Matrix: (Units=1/GPa)
#
#
# Indices 1 2 3 4 5 6 
#
# 1 0.045099 0.000522 -0.010416 0.000000 -0.000638 0.000000
# 2 0.000522 0.012633 -0.002237 0.000000 -0.002305 0.000000
# 3 -0.010416 -0.002237 0.024027 0.000000 -0.014238 0.000000
# 4 0.000000 0.000000 0.000000 0.032638 0.000000 -0.017250
# 5 -0.000638 -0.002305 -0.014238 0.000000 0.041170 0.000000
# 6 0.000000 0.000000 0.000000 -0.017250 0.000000 0.094738
#
#
# Mechanical properties :
#
#
# Convention : Reuss Voigt Hill
#
# Bulk Modulus (GPa) = 17.39208 26.18982 21.79095
# Shear Modulus (GPa) = 17.02222 25.00915 21.01569
#
# Velocity S-wave (km/s) = 2.69924 3.27177 2.99920
# Velocity P-wave (km/s) = 4.14231 5.04802 4.61742
#
# Compressibility (1/GPa) = 0.05749743
#
# Stress axis : x y z
#
# Youngs Moduli (GPa) = 22.17342 79.15547 41.61949
#
# Poissons Ratio (x) = -0.04130 0.43351
# Poissons Ratio (y) = -0.01157 0.09310
# Poissons Ratio (z) = 0.23096 0.17707
#
# Static dielectric constant tensor:
#      x y z
#    x 1.867800 0.000000 -0.007410 
#    y 0.000000 1.894460 0.000000 
#    z -0.007410 0.000000 1.939130 
# 
# From -- ./inp_files/16286.got.cif
#   From: 2010.05.17/outbox.cif.g08.bks.cpg/sg14_9_cif.got.tgz:16286.got - 2010.06.03 17:49:19.
