data_PCOD9241841
_publ_section_title
;
Structure prediction by ZEFSAII (Michael W. Deem and Ramdas Pophale) SiO2 
 PCOD9241841
Probable space group: P 21/C
;
_chemical_formula_sum "Si O2"
_cell_formula_units_Z 24
_cell_length_a 13.526022
_cell_length_b 11.254188
_cell_length_c 14.038455
_cell_angle_alpha 90.000000
_cell_angle_beta 28.754059
_cell_angle_gamma 90.000000
_cell_volume 1028.003470
_symmetry_space_group_name_H-M "P 21/C"
_symmetry_group_IT_number 14
_symmetry_cell_setting 'monoclinic'
loop_
_space_group_symop_operation_xyz
x,y,z
-x,1/2+y,1/2-z
-x,-y,-z
x,1/2-y,1/2+z
loop_
_atom_site_type_symbol
_atom_site_label
_atom_site_fract_x
_atom_site_fract_y
_atom_site_fract_z
Si Si1 0.731673 0.572596 0.715417
Si Si2 0.750946 0.423431 0.870659
Si Si3 0.238155 0.241795 0.458904
Si Si4 0.021731 0.980433 0.315726
Si Si5 0.700805 0.318503 0.514995
Si Si6 0.919885 0.761936 0.694834
O O1 0.813198 0.464069 0.711698
O O2 0.794977 0.629034 0.561238
O O3 0.784190 0.686509 0.737501
O O4 0.489355 0.544582 0.912231
O O5 0.880116 0.487009 0.843860
O O6 0.755706 0.285481 0.892996
O O7 0.091316 0.135255 0.546466
O O8 0.195552 0.257232 0.606214
O O9 0.469863 0.200445 0.242416
O O10 0.239999 0.938398 0.089067
O O11 0.041615 0.099759 0.359534
O O12 0.859397 0.299180 0.468699
#
# Coordination Sequence:
#
# PCOD9241841 Si02
#       6
#     4   4   4   4   4   4
#     4  10  19  37  65  91 116 161 204 250 300 355
#     4   9  18  36  62  85 123 152 196 262 285 344
#     4  10  21  38  61  88 120 163 201 246 311 359
#     4  10  20  39  61  86 129 159 193 254 301 363
#     4   9  19  36  59  90 119 160 202 242 304 360
#     4  10  21  40  59  87 127 157 199 259 296 358
#
# _framework density 23.346226000000001
#
# number of rings (size 3 to 8) (size 9 to 14) (size 15 to 20)
#    0.000    2.333    3.333    0.000    0.000    4.667 
#    0.000   19.167    0.000    0.000    0.000    0.000 
#    0.000    0.000    0.000    0.000    0.000    0.000 
#
# Total GULP energy -134039.375816 kJ/mol
# GULP energy per Si atom -5584.973992 kJ/mol
# Density = 2.329309 g / cm^3
# Si number density = 23.346226 Si / 1000 Ang^3
#
#
#
# Elastic Constant Matrix: (Units=GPa)
#
#
# Indices 1 2 3 4 5 6 
#
# 1 72.9948 2.8206 28.3169 0.0000 4.0086 0.0000
# 2 2.8206 67.9598 21.2611 0.0000 -2.9482 0.0000
# 3 28.3169 21.2611 110.4300 0.0000 -15.3811 0.0000
# 4 0.0000 0.0000 0.0000 33.2328 0.0000 -4.2730
# 5 4.0086 -2.9482 -15.3811 0.0000 40.4955 0.0000
# 6 0.0000 0.0000 0.0000 -4.2730 0.0000 40.0789
#
#
#
# Elastic Compliance Matrix: (Units=1/GPa)
#
#
# Indices 1 2 3 4 5 6 
#
# 1 0.015631 0.000645 -0.004584 0.000000 -0.003241 0.000000
# 2 0.000645 0.015684 -0.003204 0.000000 -0.000139 0.000000
# 3 -0.004584 -0.003204 0.011486 0.000000 0.004583 0.000000
# 4 0.000000 0.000000 0.000000 0.030509 0.000000 0.003253
# 5 -0.003241 -0.000139 0.004583 0.000000 0.026746 0.000000
# 6 0.000000 0.000000 0.000000 0.003253 0.000000 0.025298
#
#
# Mechanical properties :
#
#
# Convention : Reuss Voigt Hill
#
# Bulk Modulus (GPa) = 35.06991 39.57575 37.32283
# Shear Modulus (GPa) = 33.52438 36.02717 34.77577
#
# Velocity S-wave (km/s) = 3.79352 3.93258 3.86368
# Velocity P-wave (km/s) = 5.85167 6.13260 5.99378
#
# Compressibility (1/GPa) = 0.02851447
#
# Stress axis : x y z
#
# Youngs Moduli (GPa) = 63.97603 63.75813 87.06114
#
# Poissons Ratio (x) = -0.04110 0.39906
# Poissons Ratio (y) = -0.04124 0.27898
# Poissons Ratio (z) = 0.29325 0.20430
#
# Static dielectric constant tensor:
#      x y z
#    x 1.881640 0.000000 -0.013110 
#    y 0.000000 1.946440 0.000000 
#    z -0.013110 0.000000 1.914210 
# 
# From -- ./inp_files/47032.got.cif
#   From: 2010.05.17/outbox.cif.g08.bks.cpg/sg14_24_cif.got.tgz:47032.got - 2010.06.03 17:49:19.
