data_PCOD9241032
_publ_section_title
;
Structure prediction by ZEFSAII (Michael W. Deem and Ramdas Pophale) SiO2 
 PCOD9241032
Probable space group: P 21/C
;
_chemical_formula_sum "Si O2"
_cell_formula_units_Z 24
_cell_length_a 11.535224
_cell_length_b 5.732827
_cell_length_c 17.817470
_cell_angle_alpha 90.000000
_cell_angle_beta 130.392820
_cell_angle_gamma 90.000000
_cell_volume 897.385342
_symmetry_space_group_name_H-M "P 21/C"
_symmetry_group_IT_number 14
_symmetry_cell_setting 'monoclinic'
loop_
_space_group_symop_operation_xyz
x,y,z
-x,1/2+y,1/2-z
-x,-y,-z
x,1/2-y,1/2+z
loop_
_atom_site_type_symbol
_atom_site_label
_atom_site_fract_x
_atom_site_fract_y
_atom_site_fract_z
Si Si1 0.658714 0.611137 0.096205
Si Si2 0.934040 0.025452 0.602933
Si Si3 0.408168 0.868166 0.288387
Si Si4 0.688397 0.358591 0.889836
Si Si5 0.974246 0.537210 0.578126
Si Si6 0.617996 0.977920 0.966964
O O1 0.805441 0.506836 0.113788
O O2 0.670436 0.545473 0.187517
O O3 0.637759 0.879960 0.060034
O O4 0.500000 0.500000 0.000000
O O5 0.027521 0.783452 0.638468
O O6 0.842306 0.036850 0.485154
O O7 0.005305 0.287155 0.633603
O O8 0.297649 0.807777 0.174615
O O9 0.484895 0.666867 0.370961
O O10 0.560330 0.961393 0.311336
O O11 0.610896 0.234995 0.929666
O O12 0.790040 0.570825 0.509173
O O13 0.000000 0.500000 0.500000
#
# Coordination Sequence:
#
# PCOD9241032 Si02
#       6
#     4   4   4   4   4   4
#     4   9  17  34  49  74 111 149 179 214 286 328
#     4  10  20  36  53  81 112 140 185 229 269 338
#     4  11  19  32  48  77 112 149 179 219 275 338
#     4  11  19  31  50  73 115 142 190 220 273 337
#     4  10  19  34  56  79 104 139 183 239 281 306
#     4   9  19  32  48  73 106 144 182 229 265 331
#
# _framework density 26.744361000000001
#
# number of rings (size 3 to 8) (size 9 to 14) (size 15 to 20)
#    0.000    2.000    6.667    0.500    0.000    0.667 
#    9.000    0.000    0.000    0.000    0.000   23.333 
#    0.000    0.000    0.000    0.000    0.000    0.000 
#
# Total GULP energy -133845.872982 kJ/mol
# GULP energy per Si atom -5576.911374 kJ/mol
# Density = 2.668349 g / cm^3
# Si number density = 26.744361 Si / 1000 Ang^3
#
#
#
# Elastic Constant Matrix: (Units=GPa)
#
#
# Indices 1 2 3 4 5 6 
#
# 1 106.9620 41.4979 28.8800 0.0000 -22.3424 0.0000
# 2 41.4979 156.4132 15.2985 0.0000 -12.3652 0.0000
# 3 28.8800 15.2985 72.4505 0.0000 -18.3782 0.0000
# 4 0.0000 0.0000 0.0000 27.1859 0.0000 -8.8961
# 5 -22.3424 -12.3652 -18.3782 0.0000 47.4948 0.0000
# 6 0.0000 0.0000 0.0000 -8.8961 0.0000 32.9571
#
#
#
# Elastic Compliance Matrix: (Units=1/GPa)
#
#
# Indices 1 2 3 4 5 6 
#
# 1 0.012013 -0.002571 -0.003306 0.000000 0.003702 0.000000
# 2 -0.002571 0.007151 -0.000354 0.000000 0.000515 0.000000
# 3 -0.003306 -0.000354 0.016386 0.000000 0.004693 0.000000
# 4 0.000000 0.000000 0.000000 0.040348 0.000000 0.010891
# 5 0.003702 0.000515 0.004693 0.000000 0.024747 0.000000
# 6 0.000000 0.000000 0.000000 0.010891 0.000000 0.033282
#
#
# Mechanical properties :
#
#
# Convention : Reuss Voigt Hill
#
# Bulk Modulus (GPa) = 43.31726 56.35315 49.83520
# Shear Modulus (GPa) = 32.44970 38.20418 35.32694
#
# Velocity S-wave (km/s) = 3.48707 3.78364 3.63838
# Velocity P-wave (km/s) = 5.69603 6.34072 6.02700
#
# Compressibility (1/GPa) = 0.02308549
#
# Stress axis : x y z
#
# Youngs Moduli (GPa) = 83.24560 139.84409 61.02857
#
# Poissons Ratio (x) = 0.35954 0.20179
# Poissons Ratio (y) = 0.21402 0.02163
# Poissons Ratio (z) = 0.27525 0.04957
#
# Static dielectric constant tensor:
#      x y z
#    x 2.210640 0.000000 0.028290 
#    y 0.000000 2.335610 0.000000 
#    z 0.028290 0.000000 2.057300 
# 
# From -- ./inp_files/66359.got.cif
#   From: 2010.05.17/outbox.cif.g08.bks.cpg/sg14_34_cif.got.tgz:66359.got - 2010.06.03 17:49:19.
