data_PCOD9241205
_publ_section_title
;
Structure prediction by ZEFSAII (Michael W. Deem and Ramdas Pophale) SiO2 
 PCOD9241205
Probable space group: P 21/C
;
_chemical_formula_sum "Si O2"
_cell_formula_units_Z 24
_cell_length_a 7.687983
_cell_length_b 16.652807
_cell_length_c 13.415272
_cell_angle_alpha 90.000000
_cell_angle_beta 143.671633
_cell_angle_gamma 90.000000
_cell_volume 1017.473906
_symmetry_space_group_name_H-M "P 21/C"
_symmetry_group_IT_number 14
_symmetry_cell_setting 'monoclinic'
loop_
_space_group_symop_operation_xyz
x,y,z
-x,1/2+y,1/2-z
-x,-y,-z
x,1/2-y,1/2+z
loop_
_atom_site_type_symbol
_atom_site_label
_atom_site_fract_x
_atom_site_fract_y
_atom_site_fract_z
Si Si1 0.329732 0.501252 0.188528
Si Si2 0.392187 0.170651 0.483151
Si Si3 0.414265 0.330569 0.759816
Si Si4 0.143426 0.581912 0.292961
Si Si5 0.171227 0.754290 0.706153
Si Si6 0.857815 0.082542 0.972850
O O1 0.465457 0.578378 0.195505
O O2 0.304947 0.521741 0.294761
O O3 0.531927 0.422340 0.275714
O O4 0.000000 0.500000 0.000000
O O5 0.399584 0.192648 0.369329
O O6 0.707094 0.176684 0.680060
O O7 0.203542 0.088428 0.397467
O O8 0.176597 0.230336 0.445763
O O9 0.646659 0.275381 0.809093
O O10 0.083461 0.343462 0.561931
O O11 0.264874 0.670106 0.321364
O O12 0.162371 0.572708 0.418105
O O13 0.000000 0.000000 0.000000
#
# Coordination Sequence:
#
# PCOD9241205 Si02
#       6
#     4   4   4   4   4   4
#     4  10  19  35  55  84 108 139 180 229 265 308
#     4   9  19  37  54  78 106 140 179 219 268 315
#     4   9  19  38  55  76 111 142 176 219 265 331
#     4   8  18  36  53  74 113 136 177 217 264 322
#     4   9  19  36  56  76 108 140 176 222 269 313
#     4   9  17  34  59  74 104 148 176 207 274 324
#
# _framework density 23.587827999999998
#
# number of rings (size 3 to 8) (size 9 to 14) (size 15 to 20)
#    1.000    2.000    0.000    0.500    0.000    1.333 
#    6.000    7.500    0.000    0.000    0.000    0.000 
#    0.000    0.000    0.000    0.000    0.000    0.000 
#
# Total GULP energy -133644.883290 kJ/mol
# GULP energy per Si atom -5568.536804 kJ/mol
# Density = 2.353414 g / cm^3
# Si number density = 23.587828 Si / 1000 Ang^3
#
#
#
# Elastic Constant Matrix: (Units=GPa)
#
#
# Indices 1 2 3 4 5 6 
#
# 1 131.3181 25.7298 9.1582 0.0000 -22.5981 0.0000
# 2 25.7298 33.2613 4.6407 0.0000 -4.8355 0.0000
# 3 9.1582 4.6407 29.6426 0.0000 21.2681 0.0000
# 4 0.0000 0.0000 0.0000 30.0352 0.0000 0.7999
# 5 -22.5981 -4.8355 21.2681 0.0000 47.7315 0.0000
# 6 0.0000 0.0000 0.0000 0.7999 0.0000 1.5718
#
#
#
# Elastic Compliance Matrix: (Units=1/GPa)
#
#
# Indices 1 2 3 4 5 6 
#
# 1 0.010770 -0.005993 -0.008249 0.000000 0.008168 0.000000
# 2 -0.005993 0.036141 -0.006464 0.000000 0.003704 0.000000
# 3 -0.008249 -0.006464 0.059632 0.000000 -0.031131 0.000000
# 4 0.000000 0.000000 0.000000 0.033752 0.000000 -0.017177
# 5 0.008168 0.003704 -0.031131 0.000000 0.039064 0.000000
# 6 0.000000 0.000000 0.000000 -0.017177 0.000000 0.644940
#
#
# Mechanical properties :
#
#
# Convention : Reuss Voigt Hill
#
# Bulk Modulus (GPa) = 15.35389 30.36438 22.85914
# Shear Modulus (GPa) = 5.63429 26.18059 15.90744
#
# Velocity S-wave (km/s) = 1.54720 3.33516 2.59972
# Velocity P-wave (km/s) = 3.11691 5.26611 4.32707
#
# Compressibility (1/GPa) = 0.06513005
#
# Stress axis : x y z
#
# Youngs Moduli (GPa) = 92.84845 27.66905 16.76952
#
# Poissons Ratio (x) = 0.16582 0.13834
# Poissons Ratio (y) = 0.55645 0.10840
# Poissons Ratio (z) = 0.76595 0.17886
#
# Static dielectric constant tensor:
#      x y z
#    x 1.897320 0.000000 0.062140 
#    y 0.000000 1.990040 0.000000 
#    z 0.062140 0.000000 2.036370 
# 
# From -- ./inp_files/27053.got.cif
#   From: 2010.05.17/outbox.cif.g08.bks.cpg/sg14_14_cif.got.tgz:27053.got - 2010.06.03 17:49:19.
