data_PCOD9241845
_publ_section_title
;
Structure prediction by ZEFSAII (Michael W. Deem and Ramdas Pophale) SiO2 
 PCOD9241845
Probable space group: P 21/C
;
_chemical_formula_sum "Si O2"
_cell_formula_units_Z 24
_cell_length_a 24.210399
_cell_length_b 10.682952
_cell_length_c 18.628495
_cell_angle_alpha 90.000000
_cell_angle_beta 13.295681
_cell_angle_gamma 90.000000
_cell_volume 1108.036897
_symmetry_space_group_name_H-M "P 21/C"
_symmetry_group_IT_number 14
_symmetry_cell_setting 'monoclinic'
loop_
_space_group_symop_operation_xyz
x,y,z
-x,1/2+y,1/2-z
-x,-y,-z
x,1/2-y,1/2+z
loop_
_atom_site_type_symbol
_atom_site_label
_atom_site_fract_x
_atom_site_fract_y
_atom_site_fract_z
Si Si1 0.622691 0.158037 0.923498
Si Si2 0.097450 0.887279 0.712543
Si Si3 0.575337 0.939765 0.328192
Si Si4 0.935110 0.798066 0.545954
Si Si5 0.416057 0.595643 0.684606
Si Si6 0.783629 0.566904 0.817577
O O1 0.701980 0.138427 0.740513
O O2 0.833036 0.134351 0.714878
O O3 0.535898 0.301020 0.040018
O O4 0.414966 0.054427 0.195480
O O5 0.291861 0.841737 0.409704
O O6 0.198814 0.007945 0.626649
O O7 0.859755 0.926704 0.970317
O O8 0.019963 0.787000 0.871229
O O9 0.500000 0.000000 0.500000
O O10 0.460807 0.026053 0.411961
O O11 0.842163 0.710266 0.729155
O O12 0.698472 0.871727 0.822301
O O13 0.000000 0.500000 0.500000
#
# Coordination Sequence:
#
# PCOD9241845 Si02
#       6
#     4   4   4   4   4   4
#     4  11  23  44  63  89 140 175 206 275 334 391
#     4  11  23  40  64 100 124 168 229 271 323 400
#     4  12  19  40  69  93 126 170 213 275 320 377
#     4  11  21  44  69  91 129 173 217 277 326 389
#     4  11  26  43  61  97 135 177 216 262 344 399
#     4  10  19  37  65  94 119 158 222 273 322 375
#
# _framework density 21.659929000000002
#
# number of rings (size 3 to 8) (size 9 to 14) (size 15 to 20)
#    0.000    1.000    8.333    0.500    0.000    2.667 
#    9.000    0.000    0.000    0.000    0.000    0.000 
#    0.000    0.000    0.000    0.000    0.000    0.000 
#
# Total GULP energy -134051.525628 kJ/mol
# GULP energy per Si atom -5585.480235 kJ/mol
# Density = 2.161063 g / cm^3
# Si number density = 21.659929 Si / 1000 Ang^3
#
#
#
# Elastic Constant Matrix: (Units=GPa)
#
#
# Indices 1 2 3 4 5 6 
#
# 1 87.0863 -9.1498 49.1527 0.0000 -6.1066 0.0000
# 2 -9.1498 44.4520 0.2819 0.0000 3.1970 0.0000
# 3 49.1527 0.2819 71.2057 0.0000 -13.1029 0.0000
# 4 0.0000 0.0000 0.0000 22.5516 0.0000 -13.1346
# 5 -6.1066 3.1970 -13.1029 0.0000 43.7136 0.0000
# 6 0.0000 0.0000 0.0000 -13.1346 0.0000 26.9558
#
#
#
# Elastic Compliance Matrix: (Units=1/GPa)
#
#
# Indices 1 2 3 4 5 6 
#
# 1 0.019657 0.004259 -0.013905 0.000000 -0.001733 0.000000
# 2 0.004259 0.023550 -0.003430 0.000000 -0.002155 0.000000
# 3 -0.013905 -0.003430 0.024707 0.000000 0.005714 0.000000
# 4 0.000000 0.000000 0.000000 0.061914 0.000000 0.030168
# 5 -0.001733 -0.002155 0.005714 0.000000 0.024504 0.000000
# 6 0.000000 0.000000 0.000000 0.030168 0.000000 0.051798
#
#
# Mechanical properties :
#
#
# Convention : Reuss Voigt Hill
#
# Bulk Modulus (GPa) = 23.94494 31.47926 27.71210
# Shear Modulus (GPa) = 20.30858 29.47481 24.89170
#
# Velocity S-wave (km/s) = 3.06537 3.69290 3.39367
# Velocity P-wave (km/s) = 4.85876 5.72262 5.30829
#
# Compressibility (1/GPa) = 0.04176248
#
# Stress axis : x y z
#
# Youngs Moduli (GPa) = 50.87290 42.46362 40.47393
#
# Poissons Ratio (x) = -0.18085 0.56278
# Poissons Ratio (y) = -0.21666 0.13882
# Poissons Ratio (z) = 0.70738 0.14564
#
# Static dielectric constant tensor:
#      x y z
#    x 1.780860 0.000000 -0.005760 
#    y 0.000000 1.830260 0.000000 
#    z -0.005760 0.000000 1.806330 
# 
# From -- ./inp_files/70574.got.cif
#   From: 2010.05.17/outbox.cif.g08.bks.cpg/sg14_36_cif.got.tgz:70574.got - 2010.06.03 17:49:19.
