data_PCOD9241039
_publ_section_title
;
Structure prediction by ZEFSAII (Michael W. Deem and Ramdas Pophale) SiO2 
 PCOD9241039
Probable space group: P 21/C
;
_chemical_formula_sum "Si O2"
_cell_formula_units_Z 28
_cell_length_a 10.604905
_cell_length_b 9.222045
_cell_length_c 14.974088
_cell_angle_alpha 90.000000
_cell_angle_beta 60.992565
_cell_angle_gamma 90.000000
_cell_volume 1280.744253
_symmetry_space_group_name_H-M "P 21/C"
_symmetry_group_IT_number 14
_symmetry_cell_setting 'monoclinic'
loop_
_space_group_symop_operation_xyz
x,y,z
-x,1/2+y,1/2-z
-x,-y,-z
x,1/2-y,1/2+z
loop_
_atom_site_type_symbol
_atom_site_label
_atom_site_fract_x
_atom_site_fract_y
_atom_site_fract_z
Si Si1 0.832990 0.212261 0.478647
Si Si2 0.757142 0.523629 0.697084
Si Si3 0.924170 0.243689 0.136846
Si Si4 0.808418 0.950586 0.977233
Si Si5 0.626845 0.804629 0.497941
Si Si6 0.903505 0.542846 0.833013
Si Si7 0.471597 0.574347 0.875958
O O1 0.936978 0.208708 0.529140
O O2 0.805600 0.378520 0.460979
O O3 0.685763 0.143939 0.570164
O O4 0.890773 0.120339 0.374554
O O5 0.778034 0.348962 0.695739
O O6 0.821890 0.565166 0.579890
O O7 0.844824 0.573884 0.754287
O O8 0.593778 0.580372 0.758732
O O9 0.947909 0.379673 0.192849
O O10 0.050982 0.125963 0.112849
O O11 0.664983 0.862581 0.998951
O O12 0.784392 0.877803 0.435966
O O13 0.544087 0.845677 0.436099
O O14 0.546284 0.902039 0.598733
#
# Coordination Sequence:
#
# PCOD9241039 Si02
#       7
#     4   4   4   4   4   4   4
#     4  10  19  34  56  80 110 144 181 225 273 333
#     4  10  20  34  55  80 110 139 177 232 274 321
#     4  10  21  37  55  79 109 146 183 222 278 327
#     4  10  21  35  55  80 110 144 180 228 279 320
#     4   8  17  36  56  75 107 145 178 217 270 329
#     4   9  19  36  58  79 103 142 187 224 268 325
#     4   9  18  34  55  79 107 145 181 216 271 326
#
# _framework density 21.862287999999999
#
# number of rings (size 3 to 8) (size 9 to 14) (size 15 to 20)
#    0.000    2.571    0.000    3.000    0.000    5.143 
#    0.000    0.000    0.000   22.286    0.000    0.000 
#    0.000    0.000    0.000    0.000    0.000    0.000 
#
# Total GULP energy -155970.521813 kJ/mol
# GULP energy per Si atom -5570.375779 kJ/mol
# Density = 2.181253 g / cm^3
# Si number density = 21.862288 Si / 1000 Ang^3
#
#
#
# Elastic Constant Matrix: (Units=GPa)
#
#
# Indices 1 2 3 4 5 6 
#
# 1 35.5090 11.5636 12.0603 0.0000 -11.9854 0.0000
# 2 11.5636 103.2899 29.5760 0.0000 -4.2268 0.0000
# 3 12.0603 29.5760 38.4777 0.0000 -14.7297 0.0000
# 4 0.0000 0.0000 0.0000 12.3673 0.0000 2.6917
# 5 -11.9854 -4.2268 -14.7297 0.0000 18.9262 0.0000
# 6 0.0000 0.0000 0.0000 2.6917 0.0000 37.1185
#
#
#
# Elastic Compliance Matrix: (Units=1/GPa)
#
#
# Indices 1 2 3 4 5 6 
#
# 1 0.036850 -0.002990 -0.000818 0.000000 0.022031 0.000000
# 2 -0.002990 0.013269 -0.012609 0.000000 -0.008743 0.000000
# 3 -0.000818 -0.012609 0.049370 0.000000 0.035089 0.000000
# 4 0.000000 0.000000 0.000000 0.082155 0.000000 -0.005957
# 5 0.022031 -0.008743 0.035089 0.000000 0.092144 0.000000
# 6 0.000000 0.000000 0.000000 -0.005957 0.000000 0.027373
#
#
# Mechanical properties :
#
#
# Convention : Reuss Voigt Hill
#
# Bulk Modulus (GPa) = 15.00274 31.51961 23.26118
# Shear Modulus (GPa) = 14.03656 21.95417 17.99537
#
# Velocity S-wave (km/s) = 2.53661 3.17235 2.87213
# Velocity P-wave (km/s) = 3.93147 5.27893 4.65422
#
# Compressibility (1/GPa) = 0.06665448
#
# Stress axis : x y z
#
# Youngs Moduli (GPa) = 27.13736 75.36430 20.25519
#
# Poissons Ratio (x) = 0.22530 0.01658
# Poissons Ratio (y) = 0.08113 0.25540
# Poissons Ratio (z) = 0.02221 0.95028
#
# Static dielectric constant tensor:
#      x y z
#    x 1.855300 0.000000 -0.024540 
#    y 0.000000 1.869980 0.000000 
#    z -0.024540 0.000000 1.822580 
# 
# From -- ./inp_files/43288.got.cif
#   From: 2010.05.17/outbox.cif.g08.bks.cpg/sg14_22_cif.got.tgz:43288.got - 2010.06.03 17:49:19.
