data_PCOD9241631
_publ_section_title
;
Structure prediction by ZEFSAII (Michael W. Deem and Ramdas Pophale) SiO2 
 PCOD9241631
Probable space group: P 21/C
;
_chemical_formula_sum "Si O2"
_cell_formula_units_Z 32
_cell_length_a 9.261903
_cell_length_b 11.236458
_cell_length_c 23.975222
_cell_angle_alpha 90.000000
_cell_angle_beta 144.189958
_cell_angle_gamma 90.000000
_cell_volume 1459.897152
_symmetry_space_group_name_H-M "P 21/C"
_symmetry_group_IT_number 14
_symmetry_cell_setting 'monoclinic'
loop_
_space_group_symop_operation_xyz
x,y,z
-x,1/2+y,1/2-z
-x,-y,-z
x,1/2-y,1/2+z
loop_
_atom_site_type_symbol
_atom_site_label
_atom_site_fract_x
_atom_site_fract_y
_atom_site_fract_z
Si Si1 0.698467 0.362328 0.756462
Si Si2 0.864565 0.511914 0.330694
Si Si3 0.031972 0.384500 0.970164
Si Si4 0.962909 0.161487 0.769212
Si Si5 0.375723 0.201815 0.329532
Si Si6 0.519340 0.020974 0.571378
Si Si7 0.424502 0.390394 0.263554
Si Si8 0.860273 0.779490 0.899163
O O1 0.829886 0.276473 0.754489
O O2 0.670803 0.498716 0.730428
O O3 0.423517 0.316092 0.679460
O O4 0.837753 0.371930 0.859431
O O5 0.019873 0.421721 0.341185
O O6 0.756306 0.609482 0.253972
O O7 0.636043 0.438380 0.287334
O O8 0.984597 0.600716 0.413815
O O9 0.297966 0.398909 0.024786
O O10 0.035460 0.272220 0.011783
O O11 0.000000 0.500000 0.000000
O O12 0.772085 0.084456 0.671495
O O13 0.186884 0.216524 0.804867
O O14 0.521893 0.290856 0.335767
O O15 0.513822 0.110742 0.412745
O O16 0.500000 0.000000 0.500000
O O17 0.188198 0.330899 0.158461
#
# Coordination Sequence:
#
# PCOD9241631 Si02
#       8
#     4   4   4   4   4   4   4   4
#     4  11  22  36  67  95 136 176 217 271 344 397
#     4   9  20  36  62  90 130 169 219 273 325 398
#     4  12  24  38  70 105 129 171 234 279 335 398
#     4  11  22  40  63  92 132 186 218 266 346 405
#     4  10  23  37  65  93 130 179 221 268 344 400
#     4  11  25  44  63 100 138 163 231 296 318 407
#     4  10  19  36  64  92 127 171 221 270 334 392
#     4  10  19  40  60  98 136 171 220 284 323 397
#
# _framework density 21.919352
#
# number of rings (size 3 to 8) (size 9 to 14) (size 15 to 20)
#    0.000    1.500    3.750    1.500   10.500    0.000 
#    0.000    0.625    0.000    3.750    0.000    0.000 
#    0.000    0.000    0.000    0.000    0.000    0.000 
#
# Total GULP energy -178697.319528 kJ/mol
# GULP energy per Si atom -5584.291235 kJ/mol
# Density = 2.186946 g / cm^3
# Si number density = 21.919352 Si / 1000 Ang^3
#
#
#
# Elastic Constant Matrix: (Units=GPa)
#
#
# Indices 1 2 3 4 5 6 
#
# 1 99.2576 50.5296 25.4646 0.0000 -14.0402 0.0000
# 2 50.5296 136.5693 29.9153 0.0000 -12.1209 0.0000
# 3 25.4646 29.9153 87.2466 0.0000 -8.5332 0.0000
# 4 0.0000 0.0000 0.0000 33.4414 0.0000 -15.9685
# 5 -14.0402 -12.1209 -8.5332 0.0000 28.1589 0.0000
# 6 0.0000 0.0000 0.0000 -15.9685 0.0000 46.9579
#
#
#
# Elastic Compliance Matrix: (Units=1/GPa)
#
#
# Indices 1 2 3 4 5 6 
#
# 1 0.013284 -0.004087 -0.002061 0.000000 0.004240 0.000000
# 2 -0.004087 0.009373 -0.001881 0.000000 0.001427 0.000000
# 3 -0.002061 -0.001881 0.012911 0.000000 0.002075 0.000000
# 4 0.000000 0.000000 0.000000 0.035700 0.000000 0.012140
# 5 0.004240 0.001427 0.002075 0.000000 0.038870 0.000000
# 6 0.000000 0.000000 0.000000 0.012140 0.000000 0.025424
#
#
# Mechanical properties :
#
#
# Convention : Reuss Voigt Hill
#
# Bulk Modulus (GPa) = 51.25810 59.43248 55.34529
# Shear Modulus (GPa) = 31.62057 36.18923 33.90490
#
# Velocity S-wave (km/s) = 3.80226 4.06768 3.93721
# Velocity P-wave (km/s) = 6.53543 7.01672 6.78035
#
# Compressibility (1/GPa) = 0.01950911
#
# Stress axis : x y z
#
# Youngs Moduli (GPa) = 75.27872 106.68633 77.45087
#
# Poissons Ratio (x) = 0.43605 0.15963
# Poissons Ratio (y) = 0.30768 0.14572
# Poissons Ratio (z) = 0.15516 0.20073
#
# Static dielectric constant tensor:
#      x y z
#    x 1.828090 0.000000 -0.028360 
#    y 0.000000 1.860340 0.000000 
#    z -0.028360 0.000000 1.810860 
# 
# From -- ./inp_files/65602.got.cif
#   From: 2010.05.17/outbox.cif.g08.bks.cpg/sg14_33_cif.got.tgz:65602.got - 2010.06.03 17:49:19.
