data_PCOD9241204
_publ_section_title
;
Structure prediction by ZEFSAII (Michael W. Deem and Ramdas Pophale) SiO2 
 PCOD9241204
Probable space group: P 21/C
;
_chemical_formula_sum "Si O2"
_cell_formula_units_Z 28
_cell_length_a 5.169059
_cell_length_b 21.456210
_cell_length_c 10.305552
_cell_angle_alpha 90.000000
_cell_angle_beta 83.201971
_cell_angle_gamma 90.000000
_cell_volume 1134.936867
_symmetry_space_group_name_H-M "P 21/C"
_symmetry_group_IT_number 14
_symmetry_cell_setting 'monoclinic'
loop_
_space_group_symop_operation_xyz
x,y,z
-x,1/2+y,1/2-z
-x,-y,-z
x,1/2-y,1/2+z
loop_
_atom_site_type_symbol
_atom_site_label
_atom_site_fract_x
_atom_site_fract_y
_atom_site_fract_z
Si Si1 0.595020 0.666776 0.879212
Si Si2 0.073702 0.738633 0.943077
Si Si3 0.556549 0.102610 0.368515
Si Si4 0.927970 0.680882 0.206942
Si Si5 0.023933 0.905821 0.025504
Si Si6 0.501235 0.379787 0.398438
Si Si7 0.302485 0.002698 0.818541
O O1 0.892410 0.683474 0.891400
O O2 0.550447 0.653589 0.732118
O O3 0.379826 0.720029 0.927543
O O4 0.525428 0.609206 0.977036
O O5 0.005941 0.790984 0.841190
O O6 0.957971 0.735490 0.096237
O O7 0.346609 0.145509 0.301943
O O8 0.583297 0.033622 0.309348
O O9 0.842314 0.132380 0.339041
O O10 0.237743 0.856216 0.052764
O O11 0.748934 0.879543 0.995146
O O12 0.167517 0.949933 0.915198
O O13 0.920400 0.943675 0.159813
O O14 0.527384 0.454675 0.369457
#
# Coordination Sequence:
#
# PCOD9241204 Si02
#       7
#     4   4   4   4   4   4   4
#     4  10  21  38  60  83 116 148 186 240 291 333
#     4  10  21  42  61  81 119 146 188 248 292 346
#     4  10  22  37  60  85 114 154 185 237 286 350
#     4  10  22  41  61  85 114 149 194 237 303 339
#     4   9  20  34  54  76 121 155 180 240 271 317
#     4  10  19  35  55  83 113 151 192 220 285 335
#     4   9  21  35  57  78 124 149 194 229 284 326
#
# _framework density 24.670974999999999
#
# number of rings (size 3 to 8) (size 9 to 14) (size 15 to 20)
#    0.857    1.429    0.000    2.143    2.000    0.571 
#    7.714    0.714    0.000    0.000    0.000    0.000 
#    0.000    0.000    0.000    0.000    0.000    0.000 
#
# Total GULP energy -156094.410313 kJ/mol
# GULP energy per Si atom -5574.800368 kJ/mol
# Density = 2.461482 g / cm^3
# Si number density = 24.670975 Si / 1000 Ang^3
#
#
#
# Elastic Constant Matrix: (Units=GPa)
#
#
# Indices 1 2 3 4 5 6 
#
# 1 124.9731 -2.7358 -18.5637 0.0000 9.6981 0.0000
# 2 -2.7358 35.1912 18.2323 0.0000 -12.1517 0.0000
# 3 -18.5637 18.2323 27.3361 0.0000 23.7476 0.0000
# 4 0.0000 0.0000 0.0000 34.0108 0.0000 -4.7727
# 5 9.6981 -12.1517 23.7476 0.0000 28.5411 0.0000
# 6 0.0000 0.0000 0.0000 -4.7727 0.0000 24.5257
#
#
#
# Elastic Compliance Matrix: (Units=1/GPa)
#
#
# Indices 1 2 3 4 5 6 
#
# 1 0.006160 0.008188 -0.008974 0.000000 0.008860 0.000000
# 2 0.008188 -0.002275 0.037288 0.000000 -0.034776 0.000000
# 3 -0.008974 0.037288 -0.039050 0.000000 0.051417 0.000000
# 4 0.000000 0.000000 0.000000 0.030228 0.000000 0.005882
# 5 0.008860 -0.034776 0.051417 0.000000 -0.025561 0.000000
# 6 0.000000 0.000000 0.000000 0.005882 0.000000 0.041918
#
#
# Mechanical properties :
#
#
# Convention : Reuss Voigt Hill
#
# Bulk Modulus (GPa) = 26.42731 20.15178 23.28954
# Shear Modulus (GPa) = -102.10496 30.12002 -35.99247
#
# Velocity S-wave (km/s) = -6.44023 3.49788 -3.82370
# Velocity P-wave (km/s) = 6.67584 4.94970 3.16760
#
# Compressibility (1/GPa) = 0.03783964
#
# Stress axis : x y z
#
# Youngs Moduli (GPa) = 162.32750 -439.65121 -25.60830
#
# Poissons Ratio (x) = 3.59975 -0.22981
# Poissons Ratio (y) = -1.32910 0.95489
# Poissons Ratio (z) = 1.45677 16.39385
#
# Static dielectric constant tensor:
#      x y z
#    x 1.968290 0.000000 0.039240 
#    y 0.000000 2.052540 0.000000 
#    z 0.039240 0.000000 1.985630 
# 
# From -- ./inp_files/21986.got.cif
#   From: 2010.05.17/outbox.cif.g08.bks.cpg/sg14_11_cif.got.tgz:21986.got - 2010.06.03 17:49:19.
