data_PCOD9241489
_publ_section_title
;
Structure prediction by ZEFSAII (Michael W. Deem and Ramdas Pophale) SiO2 
 PCOD9241489
Probable space group: P 21/C
;
_chemical_formula_sum "Si O2"
_cell_formula_units_Z 32
_cell_length_a 11.197997
_cell_length_b 13.203671
_cell_length_c 18.527653
_cell_angle_alpha 90.000000
_cell_angle_beta 41.577692
_cell_angle_gamma 90.000000
_cell_volume 1817.961734
_symmetry_space_group_name_H-M "P 21/C"
_symmetry_group_IT_number 14
_symmetry_cell_setting 'monoclinic'
loop_
_space_group_symop_operation_xyz
x,y,z
-x,1/2+y,1/2-z
-x,-y,-z
x,1/2-y,1/2+z
loop_
_atom_site_type_symbol
_atom_site_label
_atom_site_fract_x
_atom_site_fract_y
_atom_site_fract_z
Si Si1 0.487101 0.605568 0.963699
Si Si2 0.859290 0.840884 0.338071
Si Si3 0.926168 0.762663 0.661975
Si Si4 0.901277 0.077168 0.327939
Si Si5 0.202258 0.481844 0.441618
Si Si6 0.423342 0.159083 0.734100
Si Si7 0.999268 0.159804 0.132061
Si Si8 0.226703 0.706013 0.409062
O O1 0.644247 0.674367 0.925583
O O2 0.532726 0.597907 0.859000
O O3 0.500000 0.500000 0.000000
O O4 0.280718 0.635000 0.065445
O O5 0.944443 0.816441 0.220849
O O6 0.932688 0.763675 0.363485
O O7 0.891018 0.957389 0.344222
O O8 0.733106 0.739607 0.714567
O O9 0.944995 0.869783 0.694156
O O10 0.074962 0.748303 0.532599
O O11 0.916314 0.097717 0.236118
O O12 0.332534 0.418127 0.330919
O O13 0.158860 0.410170 0.528746
O O14 0.277513 0.594808 0.417340
O O15 0.000000 0.500000 0.500000
O O16 0.603773 0.219164 0.673711
O O17 0.863217 0.185499 0.128511
#
# Coordination Sequence:
#
# PCOD9241489 Si02
#       8
#     4   4   4   4   4   4   4   4
#     4   9  19  32  60  85 109 149 203 240 281 349
#     4   9  20  35  59  85 116 153 198 243 299 347
#     4  10  19  38  60  82 122 156 196 245 294 362
#     4  10  19  36  59  84 117 153 197 247 297 349
#     4  10  21  38  61  82 116 159 198 236 293 362
#     4  11  21  39  59  90 117 157 202 244 300 361
#     4  10  21  37  60  87 117 157 197 249 296 357
#     4  11  22  38  61  88 118 155 197 249 300 356
#
# _framework density 17.602131
#
# number of rings (size 3 to 8) (size 9 to 14) (size 15 to 20)
#    0.000    2.000    3.750    0.750    8.750    1.000 
#    4.500    0.625    0.000    3.000    0.000    0.000 
#    0.000    0.000    0.000    0.000    0.000    0.000 
#
# Total GULP energy -178207.021055 kJ/mol
# GULP energy per Si atom -5568.969408 kJ/mol
# Density = 1.756207 g / cm^3
# Si number density = 17.602131 Si / 1000 Ang^3
#
#
#
# Elastic Constant Matrix: (Units=GPa)
#
#
# Indices 1 2 3 4 5 6 
#
# 1 46.4895 19.4428 27.0396 0.0000 3.5083 0.0000
# 2 19.4428 74.7850 25.8900 0.0000 -0.8377 0.0000
# 3 27.0396 25.8900 127.5212 0.0000 4.2465 0.0000
# 4 0.0000 0.0000 0.0000 29.4449 0.0000 -4.9634
# 5 3.5083 -0.8377 4.2465 0.0000 22.6704 0.0000
# 6 0.0000 0.0000 0.0000 -4.9634 0.0000 20.1202
#
#
#
# Elastic Compliance Matrix: (Units=1/GPa)
#
#
# Indices 1 2 3 4 5 6 
#
# 1 0.026618 -0.005427 -0.004426 0.000000 -0.003491 0.000000
# 2 -0.005427 0.015516 -0.002059 0.000000 0.001799 0.000000
# 3 -0.004426 -0.002059 0.009236 0.000000 -0.001121 0.000000
# 4 0.000000 0.000000 0.000000 0.035435 0.000000 0.008741
# 5 -0.003491 0.001799 -0.001121 0.000000 0.044927 0.000000
# 6 0.000000 0.000000 0.000000 0.008741 0.000000 0.051858
#
#
# Mechanical properties :
#
#
# Convention : Reuss Voigt Hill
#
# Bulk Modulus (GPa) = 36.30470 43.72671 40.01571
# Shear Modulus (GPa) = 23.08459 26.20865 24.64662
#
# Velocity S-wave (km/s) = 3.62534 3.86287 3.74599
# Velocity P-wave (km/s) = 6.18014 6.69264 6.44149
#
# Compressibility (1/GPa) = 0.02754464
#
# Stress axis : x y z
#
# Youngs Moduli (GPa) = 37.56914 64.45121 108.27528
#
# Poissons Ratio (x) = 0.34977 0.47922
# Poissons Ratio (y) = 0.20389 0.22296
# Poissons Ratio (z) = 0.16628 0.13272
#
# Static dielectric constant tensor:
#      x y z
#    x 1.616700 0.000000 -0.015680 
#    y 0.000000 1.609690 0.000000 
#    z -0.015680 0.000000 1.627350 
# 
# From -- ./inp_files/57813.got.cif
#   From: 2010.05.17/outbox.cif.g08.bks.cpg/sg14_29_cif.got.tgz:57813.got - 2010.06.03 17:49:19.
