data_PCOD9241926
_publ_section_title
;
Structure prediction by ZEFSAII (Michael W. Deem and Ramdas Pophale) SiO2 
 PCOD9241926
Probable space group: P 21/C
;
_chemical_formula_sum "Si O2"
_cell_formula_units_Z 32
_cell_length_a 6.954563
_cell_length_b 13.950431
_cell_length_c 14.496607
_cell_angle_alpha 90.000000
_cell_angle_beta 56.191272
_cell_angle_gamma 90.000000
_cell_volume 1168.617668
_symmetry_space_group_name_H-M "P 21/C"
_symmetry_group_IT_number 14
_symmetry_cell_setting 'monoclinic'
loop_
_space_group_symop_operation_xyz
x,y,z
-x,1/2+y,1/2-z
-x,-y,-z
x,1/2-y,1/2+z
loop_
_atom_site_type_symbol
_atom_site_label
_atom_site_fract_x
_atom_site_fract_y
_atom_site_fract_z
Si Si1 0.512302 0.605873 0.168851
Si Si2 0.703464 0.638464 0.929310
Si Si3 0.953432 0.462036 0.813570
Si Si4 0.906404 0.829128 0.855926
Si Si5 0.392199 0.471425 0.362329
Si Si6 0.791543 0.343264 0.017166
Si Si7 0.695059 0.303088 0.254305
Si Si8 0.076846 0.873541 0.016769
O O1 0.276611 0.576167 0.177952
O O2 0.520907 0.531957 0.249262
O O3 0.486236 0.714856 0.212281
O O4 0.694242 0.606907 0.038046
O O5 0.905646 0.574058 0.831905
O O6 0.462258 0.618597 0.943546
O O7 0.708806 0.753376 0.928454
O O8 0.146423 0.417188 0.695734
O O9 0.956389 0.411316 0.912206
O O10 0.090049 0.754820 0.760424
O O11 0.015524 0.862696 0.923123
O O12 0.566500 0.386753 0.343307
O O13 0.278673 0.546603 0.464106
O O14 0.164095 0.416343 0.380836
O O15 0.779696 0.339183 0.131087
O O16 0.848752 0.232797 0.974010
#
# Coordination Sequence:
#
# PCOD9241926 Si02
#       8
#     4   4   4   4   4   4   4   4
#     4  10  19  38  61  87 120 161 203 246 320 372
#     4  11  22  38  65  89 124 171 202 253 314 373
#     4  10  20  37  59  85 122 167 199 244 317 373
#     4  10  22  43  56  90 133 163 203 253 313 375
#     4  11  19  37  65  88 117 163 209 253 311 377
#     4  10  20  37  59  93 116 151 216 259 293 371
#     4  10  20  37  62  87 119 162 207 251 308 362
#     4  10  22  39  63  90 122 161 211 256 318 364
#
# _framework density 27.382777999999998
#
# number of rings (size 3 to 8) (size 9 to 14) (size 15 to 20)
#    0.000    1.750    3.750    3.750    0.000    2.000 
#    2.250    6.875    0.000    5.250    0.000    0.000 
#    0.000    0.000    0.000    0.000    0.000    0.000 
#
# Total GULP energy -179006.127203 kJ/mol
# GULP energy per Si atom -5593.941475 kJ/mol
# Density = 2.732045 g / cm^3
# Si number density = 27.382778 Si / 1000 Ang^3
#
#
#
# Elastic Constant Matrix: (Units=GPa)
#
#
# Indices 1 2 3 4 5 6 
#
# 1 70.1566 17.3430 25.6935 0.0000 12.4217 0.0000
# 2 17.3430 173.1048 59.1024 0.0000 -4.4791 0.0000
# 3 25.6935 59.1024 103.3981 0.0000 5.8018 0.0000
# 4 0.0000 0.0000 0.0000 46.3374 0.0000 -17.6142
# 5 12.4217 -4.4791 5.8018 0.0000 35.6434 0.0000
# 6 0.0000 0.0000 0.0000 -17.6142 0.0000 43.9186
#
#
#
# Elastic Compliance Matrix: (Units=1/GPa)
#
#
# Indices 1 2 3 4 5 6 
#
# 1 0.016619 -0.000614 -0.003482 0.000000 -0.005302 0.000000
# 2 -0.000614 0.007290 -0.004116 0.000000 0.001800 0.000000
# 3 -0.003482 -0.004116 0.012968 0.000000 -0.001415 0.000000
# 4 0.000000 0.000000 0.000000 0.025463 0.000000 0.010212
# 5 -0.005302 0.001800 -0.001415 0.000000 0.030360 0.000000
# 6 0.000000 0.000000 0.000000 0.010212 0.000000 0.026865
#
#
# Mechanical properties :
#
#
# Convention : Reuss Voigt Hill
#
# Bulk Modulus (GPa) = 48.88430 61.21525 55.04977
# Shear Modulus (GPa) = 35.01262 41.48126 38.24694
#
# Velocity S-wave (km/s) = 3.57968 3.89635 3.74137
# Velocity P-wave (km/s) = 5.91409 6.53039 6.22987
#
# Compressibility (1/GPa) = 0.02045647
#
# Stress axis : x y z
#
# Youngs Moduli (GPa) = 60.17083 137.17362 77.11113
#
# Poissons Ratio (x) = 0.08416 0.26846
# Poissons Ratio (y) = 0.03692 0.31735
# Poissons Ratio (z) = 0.20949 0.56454
#
# Static dielectric constant tensor:
#      x y z
#    x 2.198470 0.000000 -0.111840 
#    y 0.000000 2.155880 0.000000 
#    z -0.111840 0.000000 2.192660 
# 
# From -- ./inp_files/41205.got.cif
#   From: 2010.05.17/outbox.cif.g08.bks.cpg/sg14_21_cif.got.tgz:41205.got - 2010.06.03 17:49:19.
