data_PCOD9241334
_publ_section_title
;
Structure prediction by ZEFSAII (Michael W. Deem and Ramdas Pophale) SiO2 
 PCOD9241334
Probable space group: P 21/C
;
_chemical_formula_sum "Si O2"
_cell_formula_units_Z 32
_cell_length_a 16.781576
_cell_length_b 7.903079
_cell_length_c 21.649908
_cell_angle_alpha 90.000000
_cell_angle_beta 153.915036
_cell_angle_gamma 90.000000
_cell_volume 1262.539669
_symmetry_space_group_name_H-M "P 21/C"
_symmetry_group_IT_number 14
_symmetry_cell_setting 'monoclinic'
loop_
_space_group_symop_operation_xyz
x,y,z
-x,1/2+y,1/2-z
-x,-y,-z
x,1/2-y,1/2+z
loop_
_atom_site_type_symbol
_atom_site_label
_atom_site_fract_x
_atom_site_fract_y
_atom_site_fract_z
Si Si1 0.148390 0.903812 0.422529
Si Si2 0.706163 0.113808 0.606670
Si Si3 0.109299 0.225492 0.033890
Si Si4 0.567855 0.858914 0.329378
Si Si5 0.388305 0.485348 0.591601
Si Si6 0.370714 0.272478 0.326551
Si Si7 0.840819 0.078024 0.271765
Si Si8 0.974072 0.440310 0.617203
O O1 0.175871 0.844377 0.372421
O O2 0.088557 0.752757 0.425707
O O3 0.342523 0.983167 0.574369
O O4 0.997873 0.044639 0.330683
O O5 0.496704 0.121887 0.440360
O O6 0.724556 0.264878 0.668126
O O7 0.822704 0.958876 0.715342
O O8 0.274015 0.290984 0.105478
O O9 0.206407 0.214734 0.167468
O O10 0.044996 0.050255 0.958229
O O11 0.947183 0.360624 0.908073
O O12 0.525003 0.701549 0.343821
O O13 0.416679 0.929171 0.178877
O O14 0.489003 0.607109 0.614441
O O15 0.171811 0.474630 0.436479
O O16 0.279108 0.410803 0.307123
#
# Coordination Sequence:
#
# PCOD9241334 Si02
#       8
#     4   4   4   4   4   4   4   4
#     4  11  21  38  63  89 120 166 215 256 314 372
#     4  11  23  39  59  89 119 163 211 260 303 373
#     4   8  19  37  62  88 121 159 205 255 307 377
#     4   9  19  33  59  94 118 153 208 260 307 366
#     4  10  19  35  60  92 124 157 202 268 312 371
#     4  11  21  39  66  93 126 165 210 259 323 378
#     4  10  22  41  64  89 126 169 209 258 318 387
#     4  10  20  36  59  83 122 158 208 260 309 358
#
# _framework density 25.345738999999998
#
# number of rings (size 3 to 8) (size 9 to 14) (size 15 to 20)
#    0.000    2.000    1.250    3.000    3.500    0.000 
#    0.000    1.250    5.500    0.000    0.000    2.625 
#    0.000    0.000    0.000    0.000    0.000    0.000 
#
# Total GULP energy -178827.278883 kJ/mol
# GULP energy per Si atom -5588.352465 kJ/mol
# Density = 2.528805 g / cm^3
# Si number density = 25.345739 Si / 1000 Ang^3
#
#
#
# Elastic Constant Matrix: (Units=GPa)
#
#
# Indices 1 2 3 4 5 6 
#
# 1 41.8007 -1.3977 35.3368 0.0000 10.3289 0.0000
# 2 -1.3977 106.9935 42.2932 0.0000 -3.0665 0.0000
# 3 35.3368 42.2932 141.5857 0.0000 1.9042 0.0000
# 4 0.0000 0.0000 0.0000 38.6983 0.0000 11.1991
# 5 10.3289 -3.0665 1.9042 0.0000 32.3318 0.0000
# 6 0.0000 0.0000 0.0000 11.1991 0.0000 25.7860
#
#
#
# Elastic Compliance Matrix: (Units=1/GPa)
#
#
# Indices 1 2 3 4 5 6 
#
# 1 0.034814 0.004018 -0.009752 0.000000 -0.010166 0.000000
# 2 0.004018 0.011108 -0.004321 0.000000 0.000024 0.000000
# 3 -0.009752 -0.004321 0.010760 0.000000 0.002072 0.000000
# 4 0.000000 0.000000 0.000000 0.029556 0.000000 -0.012836
# 5 -0.010166 0.000024 0.002072 0.000000 0.034057 0.000000
# 6 0.000000 0.000000 0.000000 -0.012836 0.000000 0.044356
#
#
# Mechanical properties :
#
#
# Convention : Reuss Voigt Hill
#
# Bulk Modulus (GPa) = 27.34414 49.20495 38.27455
# Shear Modulus (GPa) = 25.38707 33.63974 29.51340
#
# Velocity S-wave (km/s) = 3.16829 3.64708 3.41608
# Velocity P-wave (km/s) = 4.91894 6.09840 5.54015
#
# Compressibility (1/GPa) = 0.03657091
#
# Stress axis : x y z
#
# Youngs Moduli (GPa) = 28.72418 90.02783 92.93866
#
# Poissons Ratio (x) = -0.36177 0.90638
# Poissons Ratio (y) = -0.11543 0.40161
# Poissons Ratio (z) = 0.28013 0.38903
#
# Static dielectric constant tensor:
#      x y z
#    x 1.988190 0.000000 -0.045190 
#    y 0.000000 2.022080 0.000000 
#    z -0.045190 0.000000 2.065410 
# 
# From -- ./inp_files/78001.got.cif
#   From: 2010.05.17/outbox.cif.g08.bks.cpg/sg14_40_cif.got.tgz:78001.got - 2010.06.03 17:49:19.
