data_PCOD9241248
_publ_section_title
;
Structure prediction by ZEFSAII (Michael W. Deem and Ramdas Pophale) SiO2 
 PCOD9241248
Probable space group: P 21/C
;
_chemical_formula_sum "Si O2"
_cell_formula_units_Z 28
_cell_length_a 10.382691
_cell_length_b 4.913947
_cell_length_c 25.515021
_cell_angle_alpha 90.000000
_cell_angle_beta 109.191756
_cell_angle_gamma 90.000000
_cell_volume 1229.428269
_symmetry_space_group_name_H-M "P 21/C"
_symmetry_group_IT_number 14
_symmetry_cell_setting 'monoclinic'
loop_
_space_group_symop_operation_xyz
x,y,z
-x,1/2+y,1/2-z
-x,-y,-z
x,1/2-y,1/2+z
loop_
_atom_site_type_symbol
_atom_site_label
_atom_site_fract_x
_atom_site_fract_y
_atom_site_fract_z
Si Si1 0.092865 0.295053 0.545638
Si Si2 0.698358 0.663985 0.608012
Si Si3 0.599315 0.113594 0.267359
Si Si4 0.157117 0.939894 0.453308
Si Si5 0.327640 0.806909 0.327206
Si Si6 0.424273 0.710456 0.028161
Si Si7 0.361343 0.351124 0.120970
O O1 0.240210 0.357168 0.590334
O O2 0.000000 0.500000 0.500000
O O3 0.989770 0.189616 0.576750
O O4 0.132125 0.076844 0.506499
O O5 0.748312 0.388683 0.641871
O O6 0.549810 0.599534 0.561587
O O7 0.790950 0.829155 0.579237
O O8 0.681589 0.886553 0.652882
O O9 0.485393 0.346126 0.262268
O O10 0.700642 0.235213 0.236927
O O11 0.669807 0.019026 0.330530
O O12 0.280514 0.726496 0.480826
O O13 0.488752 0.729133 0.350726
O O14 0.385010 0.553972 0.075820
O O15 0.500000 0.500000 0.000000
#
# Coordination Sequence:
#
# PCOD9241248 Si02
#       7
#     4   4   4   4   4   4   4
#     4  10  21  36  55  78 115 157 200 230 276 347
#     4  10  20  34  57  82 112 145 180 236 291 337
#     4  10  19  35  57  85 116 143 182 239 294 346
#     4   9  20  36  51  77 111 151 193 231 273 339
#     4  10  20  34  57  85 111 139 183 235 299 340
#     4   8  15  31  49  77 107 142 177 224 277 332
#     4   9  19  34  53  84 114 148 187 235 289 348
#
# _framework density 22.774816000000001
#
# number of rings (size 3 to 8) (size 9 to 14) (size 15 to 20)
#    0.000    2.571    0.000    2.571    4.000    0.000 
#    7.714    4.286    0.000    1.714    0.000    0.000 
#    0.000    0.000    0.000    0.000    0.000    0.000 
#
# Total GULP energy -156090.506397 kJ/mol
# GULP energy per Si atom -5574.660943 kJ/mol
# Density = 2.272298 g / cm^3
# Si number density = 22.774816 Si / 1000 Ang^3
#
#
#
# Elastic Constant Matrix: (Units=GPa)
#
#
# Indices 1 2 3 4 5 6 
#
# 1 88.8207 10.0651 19.1768 0.0000 -8.5646 0.0000
# 2 10.0651 76.9353 9.6622 0.0000 1.9005 0.0000
# 3 19.1768 9.6622 79.5180 0.0000 -21.0084 0.0000
# 4 0.0000 0.0000 0.0000 32.7691 0.0000 -4.4016
# 5 -8.5646 1.9005 -21.0084 0.0000 28.8802 0.0000
# 6 0.0000 0.0000 0.0000 -4.4016 0.0000 29.3219
#
#
#
# Elastic Compliance Matrix: (Units=1/GPa)
#
#
# Indices 1 2 3 4 5 6 
#
# 1 0.012088 -0.001356 -0.002203 0.000000 0.002071 0.000000
# 2 -0.001356 0.013501 -0.002048 0.000000 -0.002780 0.000000
# 3 -0.002203 -0.002048 0.016364 0.000000 0.011385 0.000000
# 4 0.000000 0.000000 0.000000 0.031145 0.000000 0.004675
# 5 0.002071 -0.002780 0.011385 0.000000 0.043705 0.000000
# 6 0.000000 0.000000 0.000000 0.004675 0.000000 0.034806
#
#
# Mechanical properties :
#
#
# Convention : Reuss Voigt Hill
#
# Bulk Modulus (GPa) = 32.53247 35.89801 34.21524
# Shear Modulus (GPa) = 28.89031 31.95223 30.42127
#
# Velocity S-wave (km/s) = 3.56549 3.74968 3.65874
# Velocity P-wave (km/s) = 5.59158 5.87734 5.73624
#
# Compressibility (1/GPa) = 0.03073852
#
# Stress axis : x y z
#
# Youngs Moduli (GPa) = 82.72893 74.06740 61.11043
#
# Poissons Ratio (x) = 0.10042 0.13463
# Poissons Ratio (y) = 0.11217 0.12516
# Poissons Ratio (z) = 0.18226 0.15170
#
# Static dielectric constant tensor:
#      x y z
#    x 1.926800 0.000000 0.022060 
#    y 0.000000 1.893050 0.000000 
#    z 0.022060 0.000000 2.042440 
# 
# From -- ./inp_files/76795.got.cif
#   From: 2010.05.17/outbox.cif.g08.bks.cpg/sg14_39_cif.got.tgz:76795.got - 2010.06.03 17:49:19.
