data_PCOD9241014
_publ_section_title
;
Structure prediction by ZEFSAII (Michael W. Deem and Ramdas Pophale) SiO2 
 PCOD9241014
Probable space group: P 21/C
;
_chemical_formula_sum "Si O2"
_cell_formula_units_Z 28
_cell_length_a 12.249720
_cell_length_b 6.259266
_cell_length_c 21.157302
_cell_angle_alpha 90.000000
_cell_angle_beta 72.776844
_cell_angle_gamma 90.000000
_cell_volume 1549.478037
_symmetry_space_group_name_H-M "P 21/C"
_symmetry_group_IT_number 14
_symmetry_cell_setting 'monoclinic'
loop_
_space_group_symop_operation_xyz
x,y,z
-x,1/2+y,1/2-z
-x,-y,-z
x,1/2-y,1/2+z
loop_
_atom_site_type_symbol
_atom_site_label
_atom_site_fract_x
_atom_site_fract_y
_atom_site_fract_z
Si Si1 0.751705 0.653040 0.512036
Si Si2 0.845231 0.368377 0.818715
Si Si3 0.356891 0.436116 0.080215
Si Si4 0.430964 0.682217 0.474471
Si Si5 0.938347 0.439088 0.402804
Si Si6 0.905097 0.914358 0.566880
Si Si7 0.056250 0.827981 0.316770
O O1 0.704355 0.773723 0.458070
O O2 0.666366 0.458222 0.543697
O O3 0.870055 0.544867 0.471325
O O4 0.787766 0.838168 0.554610
O O5 0.731730 0.505963 0.849505
O O6 0.853924 0.207920 0.876481
O O7 0.854613 0.237720 0.752392
O O8 0.960376 0.510887 0.805558
O O9 0.475479 0.322083 0.079753
O O10 0.383944 0.648180 0.034116
O O11 0.500000 0.500000 0.500000
O O12 0.038779 0.293316 0.411339
O O13 0.988071 0.618569 0.349247
O O14 0.892628 0.077329 0.627172
O O15 0.000000 0.000000 0.500000
#
# Coordination Sequence:
#
# PCOD9241014 Si02
#       7
#     4   4   4   4   4   4   4
#     4  11  19  33  55  77 116 155 178 234 292 329
#     4  11  20  34  53  77 117 152 185 229 284 342
#     4  10  19  34  55  82 113 141 186 238 286 340
#     4   9  20  33  52  83 113 134 190 233 294 331
#     4  11  20  33  53  79 116 155 178 222 285 342
#     4  11  23  33  49  81 119 153 191 221 279 354
#     4  11  22  33  50  81 116 155 188 221 275 363
#
# _framework density 18.070601
#
# number of rings (size 3 to 8) (size 9 to 14) (size 15 to 20)
#    0.000    1.429    5.714    1.286    0.000    0.000 
#    0.000    0.000    0.000    0.000    0.000    0.000 
#   72.857    0.000    0.000    0.000    0.000    0.000 
#
# Total GULP energy -156086.751286 kJ/mol
# GULP energy per Si atom -5574.526832 kJ/mol
# Density = 1.802947 g / cm^3
# Si number density = 18.070601 Si / 1000 Ang^3
#
#
#
# Elastic Constant Matrix: (Units=GPa)
#
#
# Indices 1 2 3 4 5 6 
#
# 1 45.7491 13.6832 32.0209 0.0000 -14.1791 0.0000
# 2 13.6832 74.6827 23.1612 0.0000 -6.5008 0.0000
# 3 32.0209 23.1612 90.8952 0.0000 -8.9719 0.0000
# 4 0.0000 0.0000 0.0000 31.7211 0.0000 -9.9523
# 5 -14.1791 -6.5008 -8.9719 0.0000 21.2735 0.0000
# 6 0.0000 0.0000 0.0000 -9.9523 0.0000 21.7104
#
#
#
# Elastic Compliance Matrix: (Units=1/GPa)
#
#
# Indices 1 2 3 4 5 6 
#
# 1 0.035263 -0.001686 -0.010146 0.000000 0.018709 0.000000
# 2 -0.001686 0.014806 -0.002967 0.000000 0.002150 0.000000
# 3 -0.010146 -0.002967 0.015208 0.000000 -0.001255 0.000000
# 4 0.000000 0.000000 0.000000 0.036820 0.000000 0.016879
# 5 0.018709 0.002150 -0.001255 0.000000 0.059604 0.000000
# 6 0.000000 0.000000 0.000000 0.016879 0.000000 0.053798
#
#
# Mechanical properties :
#
#
# Convention : Reuss Voigt Hill
#
# Bulk Modulus (GPa) = 28.02725 38.78417 33.40571
# Shear Modulus (GPa) = 19.45601 24.43844 21.94723
#
# Velocity S-wave (km/s) = 3.28482 3.68147 3.48879
# Velocity P-wave (km/s) = 5.47085 6.29128 5.89535
#
# Compressibility (1/GPa) = 0.03567956
#
# Stress axis : x y z
#
# Youngs Moduli (GPa) = 28.35869 67.54013 65.75443
#
# Poissons Ratio (x) = 0.11384 0.66716
# Poissons Ratio (y) = 0.04780 0.19508
# Poissons Ratio (z) = 0.28773 0.20038
#
# Static dielectric constant tensor:
#      x y z
#    x 1.662350 0.000000 -0.007260 
#    y 0.000000 1.667660 0.000000 
#    z -0.007260 0.000000 1.613560 
# 
# From -- ./inp_files/66255.got.cif
#   From: 2010.05.17/outbox.cif.g08.bks.cpg/sg14_34_cif.got.tgz:66255.got - 2010.06.03 17:49:19.
