data_PCOD9241352
_publ_section_title
;
Structure prediction by ZEFSAII (Michael W. Deem and Ramdas Pophale) SiO2 
 PCOD9241352
Probable space group: P 21/C
;
_chemical_formula_sum "Si O2"
_cell_formula_units_Z 28
_cell_length_a 9.168126
_cell_length_b 8.007291
_cell_length_c 18.243621
_cell_angle_alpha 90.000000
_cell_angle_beta 65.251974
_cell_angle_gamma 90.000000
_cell_volume 1216.293671
_symmetry_space_group_name_H-M "P 21/C"
_symmetry_group_IT_number 14
_symmetry_cell_setting 'monoclinic'
loop_
_space_group_symop_operation_xyz
x,y,z
-x,1/2+y,1/2-z
-x,-y,-z
x,1/2-y,1/2+z
loop_
_atom_site_type_symbol
_atom_site_label
_atom_site_fract_x
_atom_site_fract_y
_atom_site_fract_z
Si Si1 0.096364 0.055599 0.207166
Si Si2 0.452398 0.043279 0.368316
Si Si3 0.615828 0.704862 0.271183
Si Si4 0.292178 0.604927 0.346945
Si Si5 0.997364 0.070499 0.918731
Si Si6 0.850984 0.121103 0.513123
Si Si7 0.763221 0.189932 0.305887
O O1 0.218142 0.178605 0.221470
O O2 0.918920 0.071433 0.278750
O O3 0.076740 0.062214 0.123014
O O4 0.169457 0.873242 0.199830
O O5 0.376600 0.144495 0.315161
O O6 0.598354 0.137412 0.379167
O O7 0.538830 0.882543 0.310985
O O8 0.310620 0.989468 0.453532
O O9 0.474350 0.582451 0.334162
O O10 0.201242 0.744834 0.413599
O O11 0.294726 0.681383 0.266033
O O12 0.186810 0.438023 0.361577
O O13 0.910731 0.250194 0.937081
O O14 0.000000 0.000000 0.000000
O O15 0.000000 0.000000 0.500000
#
# Coordination Sequence:
#
# PCOD9241352 Si02
#       7
#     4   4   4   4   4   4   4
#     4  11  21  35  60  89 115 149 193 243 294 347
#     4  10  21  38  58  86 122 150 187 238 297 352
#     4  10  19  35  61  90 114 148 190 245 296 339
#     4   8  18  37  57  80 113 147 186 231 286 349
#     4   9  20  39  56  77 113 157 195 225 279 355
#     4  10  20  34  56  81 108 150 193 230 273 339
#     4  10  21  36  57  87 116 145 186 246 301 339
#
# _framework density 23.020758000000001
#
# number of rings (size 3 to 8) (size 9 to 14) (size 15 to 20)
#    0.000    2.286    0.000    3.429    0.000    6.857 
#    0.000    8.571    0.000    3.429    0.000    0.000 
#    0.000    0.000    0.000    0.000    0.000    0.000 
#
# Total GULP energy -155947.995186 kJ/mol
# GULP energy per Si atom -5569.571257 kJ/mol
# Density = 2.296836 g / cm^3
# Si number density = 23.020758 Si / 1000 Ang^3
#
#
#
# Elastic Constant Matrix: (Units=GPa)
#
#
# Indices 1 2 3 4 5 6 
#
# 1 145.3711 40.1018 19.6567 0.0000 -19.6516 0.0000
# 2 40.1018 81.2179 4.1739 0.0000 -9.5786 0.0000
# 3 19.6567 4.1739 40.0480 0.0000 -0.1925 0.0000
# 4 0.0000 0.0000 0.0000 35.0498 0.0000 -11.5003
# 5 -19.6516 -9.5786 -0.1925 0.0000 34.3170 0.0000
# 6 0.0000 0.0000 0.0000 -11.5003 0.0000 50.3019
#
#
#
# Elastic Compliance Matrix: (Units=1/GPa)
#
#
# Indices 1 2 3 4 5 6 
#
# 1 0.009012 -0.003761 -0.004011 0.000000 0.004088 0.000000
# 2 -0.003761 0.014371 0.000357 0.000000 0.001859 0.000000
# 3 -0.004011 0.000357 0.026892 0.000000 -0.002047 0.000000
# 4 0.000000 0.000000 0.000000 0.030845 0.000000 0.007052
# 5 0.004088 0.001859 -0.002047 0.000000 0.031989 0.000000
# 6 0.000000 0.000000 0.000000 0.007052 0.000000 0.021492
#
#
# Mechanical properties :
#
#
# Convention : Reuss Voigt Hill
#
# Bulk Modulus (GPa) = 28.21411 43.83354 36.02383
# Shear Modulus (GPa) = 31.00876 37.44738 34.22807
#
# Velocity S-wave (km/s) = 3.67412 4.03759 3.86013
# Velocity P-wave (km/s) = 5.50286 6.38892 5.96237
#
# Compressibility (1/GPa) = 0.03544325
#
# Stress axis : x y z
#
# Youngs Moduli (GPa) = 110.96844 69.58657 37.18595
#
# Poissons Ratio (x) = 0.26173 0.14917
# Poissons Ratio (y) = 0.41738 -0.01329
# Poissons Ratio (z) = 0.44515 -0.02486
#
# Static dielectric constant tensor:
#      x y z
#    x 2.002260 0.000000 -0.183410 
#    y 0.000000 1.899270 0.000000 
#    z -0.183410 0.000000 2.239990 
# 
# From -- ./inp_files/64516.got.cif
#   From: 2010.05.17/outbox.cif.g08.bks.cpg/sg14_33_cif.got.tgz:64516.got - 2010.06.03 17:49:19.
