data_PCOD9241559
_publ_section_title
;
Structure prediction by ZEFSAII (Michael W. Deem and Ramdas Pophale) SiO2 
 PCOD9241559
Probable space group: P 21/C
;
_chemical_formula_sum "Si O2"
_cell_formula_units_Z 32
_cell_length_a 9.023578
_cell_length_b 18.601925
_cell_length_c 17.664279
_cell_angle_alpha 90.000000
_cell_angle_beta 147.921071
_cell_angle_gamma 90.000000
_cell_volume 1574.701562
_symmetry_space_group_name_H-M "P 21/C"
_symmetry_group_IT_number 14
_symmetry_cell_setting 'monoclinic'
loop_
_space_group_symop_operation_xyz
x,y,z
-x,1/2+y,1/2-z
-x,-y,-z
x,1/2-y,1/2+z
loop_
_atom_site_type_symbol
_atom_site_label
_atom_site_fract_x
_atom_site_fract_y
_atom_site_fract_z
Si Si1 0.809711 0.195131 0.038372
Si Si2 0.876623 0.598937 0.967104
Si Si3 0.456609 0.617354 0.450873
Si Si4 0.490272 0.624518 0.293026
Si Si5 0.938150 0.978421 0.208832
Si Si6 0.242879 0.963750 0.494823
Si Si7 0.204204 0.441699 0.697089
Si Si8 0.333860 0.228542 0.712019
O O1 0.569628 0.205710 0.872931
O O2 0.676715 0.184484 0.063344
O O3 0.969930 0.119676 0.094204
O O4 0.039845 0.256841 0.127066
O O5 0.711120 0.541418 0.945640
O O6 0.711281 0.669554 0.872411
O O7 0.162220 0.614045 0.136100
O O8 0.986984 0.566519 0.934676
O O9 0.548685 0.632651 0.405989
O O10 0.233418 0.551876 0.348952
O O11 0.715800 0.585538 0.609972
O O12 0.658522 0.558303 0.326785
O O13 0.580353 0.696253 0.288541
O O14 0.158192 0.967973 0.371250
O O15 0.072644 0.991202 0.184280
O O16 0.526701 0.920389 0.634292
#
# Coordination Sequence:
#
# PCOD9241559 Si02
#       8
#     4   4   4   4   4   4   4   4
#     4  10  22  41  62  86 116 161 203 249 305 369
#     4  10  20  36  62  91 115 166 203 249 313 363
#     4  10  21  38  59  88 123 158 202 253 308 361
#     4  10  20  40  59  85 124 158 205 257 296 368
#     4  10  19  36  61  87 125 162 196 254 309 365
#     4  10  19  36  62  90 123 157 209 252 304 374
#     4   9  21  37  58  91 120 156 200 250 305 361
#     4  11  21  42  65  83 120 161 207 253 309 363
#
# _framework density 20.32131
#
# number of rings (size 3 to 8) (size 9 to 14) (size 15 to 20)
#    0.000    2.000    2.500    1.125    0.000    0.500 
#    6.750    0.000    2.750    0.000    0.000    0.000 
#    0.000    0.000    0.000    0.000    0.000    0.000 
#
# Total GULP energy -178546.479504 kJ/mol
# GULP energy per Si atom -5579.577484 kJ/mol
# Density = 2.027506 g / cm^3
# Si number density = 20.321310 Si / 1000 Ang^3
#
#
#
# Elastic Constant Matrix: (Units=GPa)
#
#
# Indices 1 2 3 4 5 6 
#
# 1 80.7819 17.9938 37.9219 0.0000 -13.9956 0.0000
# 2 17.9938 54.2568 23.5317 0.0000 -5.8299 0.0000
# 3 37.9219 23.5317 85.8969 0.0000 -0.7110 0.0000
# 4 0.0000 0.0000 0.0000 28.0450 0.0000 -1.2888
# 5 -13.9956 -5.8299 -0.7110 0.0000 26.1030 0.0000
# 6 0.0000 0.0000 0.0000 -1.2888 0.0000 23.2373
#
#
#
# Elastic Compliance Matrix: (Units=1/GPa)
#
#
# Indices 1 2 3 4 5 6 
#
# 1 0.017730 -0.001770 -0.007269 0.000000 0.008913 0.000000
# 2 -0.001770 0.021639 -0.005116 0.000000 0.003745 0.000000
# 3 -0.007269 -0.005116 0.016214 0.000000 -0.004598 0.000000
# 4 0.000000 0.000000 0.000000 0.035748 0.000000 0.001983
# 5 0.008913 0.003745 -0.004598 0.000000 0.043800 0.000000
# 6 0.000000 0.000000 0.000000 0.001983 0.000000 0.043144
#
#
# Mechanical properties :
#
#
# Convention : Reuss Voigt Hill
#
# Bulk Modulus (GPa) = 36.66434 42.20339 39.43386
# Shear Modulus (GPa) = 23.18311 24.90963 24.04637
#
# Velocity S-wave (km/s) = 3.38128 3.50492 3.44366
# Velocity P-wave (km/s) = 5.77283 6.09856 5.93793
#
# Compressibility (1/GPa) = 0.02727446
#
# Stress axis : x y z
#
# Youngs Moduli (GPa) = 56.40304 46.21311 61.67393
#
# Poissons Ratio (x) = 0.08178 0.44829
# Poissons Ratio (y) = 0.09981 0.31551
# Poissons Ratio (z) = 0.40998 0.23642
#
# Static dielectric constant tensor:
#      x y z
#    x 1.760180 0.000000 0.038590 
#    y 0.000000 1.743270 0.000000 
#    z 0.038590 0.000000 1.697690 
# 
# From -- ./inp_files/56236.got.cif
#   From: 2010.05.17/outbox.cif.g08.bks.cpg/sg14_29_cif.got.tgz:56236.got - 2010.06.03 17:49:19.
