data_PCOD9241401
_publ_section_title
;
Structure prediction by ZEFSAII (Michael W. Deem and Ramdas Pophale) SiO2 
 PCOD9241401
Probable space group: P 21/C
;
_chemical_formula_sum "Si O2"
_cell_formula_units_Z 20
_cell_length_a 10.639899
_cell_length_b 5.411522
_cell_length_c 24.135218
_cell_angle_alpha 90.000000
_cell_angle_beta 33.512496
_cell_angle_gamma 90.000000
_cell_volume 767.256765
_symmetry_space_group_name_H-M "P 21/C"
_symmetry_group_IT_number 14
_symmetry_cell_setting 'monoclinic'
loop_
_space_group_symop_operation_xyz
x,y,z
-x,1/2+y,1/2-z
-x,-y,-z
x,1/2-y,1/2+z
loop_
_atom_site_type_symbol
_atom_site_label
_atom_site_fract_x
_atom_site_fract_y
_atom_site_fract_z
Si Si1 0.575916 0.813019 0.152579
Si Si2 0.992837 0.187648 0.432071
Si Si3 0.145617 0.218815 0.687069
Si Si4 0.515231 0.686278 0.837252
Si Si5 0.840626 0.817431 0.942756
O O1 0.428268 0.568772 0.212999
O O2 0.808030 0.776569 0.100764
O O3 0.447729 0.067063 0.211072
O O4 0.642411 0.823571 0.062322
O O5 0.756819 0.183308 0.553799
O O6 0.950650 0.409288 0.403924
O O7 0.995821 0.913248 0.405566
O O8 0.350613 0.200319 0.655043
O O9 0.232464 0.254945 0.592436
O O10 0.998220 0.464198 0.755717
#
# Coordination Sequence:
#
# PCOD9241401 Si02
#       5
#     4   4   4   4   4
#     4  10  19  35  64  94 115 134 172 243 308 345
#     4  10  19  35  64  94 115 134 172 243 308 345
#     4  12  26  42  56  76 116 164 202 228 256 322
#     4  10  20  35  59  85 115 148 185 230 288 334
#     4  10  20  35  59  85 115 148 185 230 288 334
#
# _framework density 26.066894000000001
#
# number of rings (size 3 to 8) (size 9 to 14) (size 15 to 20)
#    0.000    1.600    0.000    8.400    0.000    6.400 
#    0.000    0.000    0.000   40.800    0.000    0.000 
#    0.000    0.000    0.000    0.000    0.000    0.000 
#
# Total GULP energy -112082.144583 kJ/mol
# GULP energy per Si atom -5604.107229 kJ/mol
# Density = 2.600756 g / cm^3
# Si number density = 26.066894 Si / 1000 Ang^3
#
#
#
# Elastic Constant Matrix: (Units=GPa)
#
#
# Indices 1 2 3 4 5 6 
#
# 1 153.3378 42.1768 18.0281 0.0000 24.7990 0.0000
# 2 42.1768 253.0882 -6.7950 0.0000 -3.7092 0.0000
# 3 18.0281 -6.7950 84.0135 0.0000 15.2134 0.0000
# 4 0.0000 0.0000 0.0000 15.4369 0.0000 0.3168
# 5 24.7990 -3.7092 15.2134 0.0000 35.7778 0.0000
# 6 0.0000 0.0000 0.0000 0.3168 0.0000 42.6074
#
#
#
# Elastic Compliance Matrix: (Units=1/GPa)
#
#
# Indices 1 2 3 4 5 6 
#
# 1 0.007855 -0.001408 -0.000853 0.000000 -0.005228 0.000000
# 2 -0.001408 0.004215 0.000420 0.000000 0.001235 0.000000
# 3 -0.000853 0.000420 0.013006 0.000000 -0.004896 0.000000
# 4 0.000000 0.000000 0.000000 0.064790 0.000000 -0.000482
# 5 -0.005228 0.001235 -0.004896 0.000000 0.033784 0.000000
# 6 0.000000 0.000000 0.000000 -0.000482 0.000000 0.023474
#
#
# Mechanical properties :
#
#
# Convention : Reuss Voigt Hill
#
# Bulk Modulus (GPa) = 46.74437 66.36214 56.55325
# Shear Modulus (GPa) = 31.65801 47.89972 39.77887
#
# Velocity S-wave (km/s) = 3.48874 4.29134 3.91068
# Velocity P-wave (km/s) = 5.84806 7.07586 6.49105
#
# Compressibility (1/GPa) = 0.02139295
#
# Stress axis : x y z
#
# Youngs Moduli (GPa) = 127.31205 237.23234 76.88556
#
# Poissons Ratio (x) = 0.33414 0.06556
# Poissons Ratio (y) = 0.17932 -0.03226
# Poissons Ratio (z) = 0.10857 -0.09953
#
# Static dielectric constant tensor:
#      x y z
#    x 1.944990 0.000000 0.010430 
#    y 0.000000 2.176750 0.000000 
#    z 0.010430 0.000000 2.043470 
# 
# From -- ./inp_files/51013.got.cif
#   From: 2010.05.17/outbox.cif.g08.bks.cpg/sg14_26_cif.got.tgz:51013.got - 2010.06.03 17:49:19.
