data_PCOD9241621
_publ_section_title
;
Structure prediction by ZEFSAII (Michael W. Deem and Ramdas Pophale) SiO2 
 PCOD9241621
Probable space group: P 21/C
;
_chemical_formula_sum "Si O2"
_cell_formula_units_Z 32
_cell_length_a 27.224049
_cell_length_b 8.411119
_cell_length_c 17.726759
_cell_angle_alpha 90.000000
_cell_angle_beta 16.997828
_cell_angle_gamma 90.000000
_cell_volume 1186.635460
_symmetry_space_group_name_H-M "P 21/C"
_symmetry_group_IT_number 14
_symmetry_cell_setting 'monoclinic'
loop_
_space_group_symop_operation_xyz
x,y,z
-x,1/2+y,1/2-z
-x,-y,-z
x,1/2-y,1/2+z
loop_
_atom_site_type_symbol
_atom_site_label
_atom_site_fract_x
_atom_site_fract_y
_atom_site_fract_z
Si Si1 0.398838 0.343071 0.297872
Si Si2 0.095414 0.917643 0.959560
Si Si3 0.987797 0.119549 0.586588
Si Si4 0.861553 0.793238 0.029578
Si Si5 0.381589 0.796882 0.827845
Si Si6 0.495272 0.309903 0.505817
Si Si7 0.713944 0.978705 0.469027
Si Si8 0.014205 0.126368 0.303062
O O1 0.456860 0.524150 0.232716
O O2 0.505760 0.267611 0.072940
O O3 0.372086 0.197608 0.397142
O O4 0.208646 0.369110 0.544596
O O5 0.170207 0.015027 0.918473
O O6 0.206033 0.947771 0.723959
O O7 0.892697 0.957428 0.253043
O O8 0.091683 0.732854 0.984508
O O9 0.107852 0.267445 0.423692
O O10 0.801750 0.177712 0.868043
O O11 0.000000 0.000000 0.500000
O O12 0.040076 0.050519 0.593500
O O13 0.690612 0.722837 0.251952
O O14 0.998613 0.805431 0.760937
O O15 0.412077 0.614497 0.812197
O O16 0.388498 0.771537 0.727775
O O17 0.500000 0.500000 0.500000
#
# Coordination Sequence:
#
# PCOD9241621 Si02
#       8
#     4   4   4   4   4   4   4   4
#     4   9  20  36  62  96 128 169 231 278 339 424
#     4  10  20  36  60  93 132 166 220 284 349 413
#     4  11  23  39  66 104 135 177 235 299 366 426
#     4  11  23  39  64  97 138 179 233 295 347 432
#     4  11  21  38  68  94 129 180 230 281 353 422
#     4  11  23  43  65  96 141 190 237 290 353 430
#     4  10  19  36  63  96 124 173 221 280 353 413
#     4   9  20  36  59  94 133 169 221 286 350 419
#
# _framework density 26.967002000000001
#
# number of rings (size 3 to 8) (size 9 to 14) (size 15 to 20)
#    0.000    1.750    2.500    1.875    5.250    1.000 
#    0.000    2.500    0.000    0.000    0.000    0.000 
#    0.000    0.000    0.000    0.000    0.000    0.000 
#
# Total GULP energy -178409.941562 kJ/mol
# GULP energy per Si atom -5575.310674 kJ/mol
# Density = 2.690562 g / cm^3
# Si number density = 26.967002 Si / 1000 Ang^3
#
#
#
# Elastic Constant Matrix: (Units=GPa)
#
#
# Indices 1 2 3 4 5 6 
#
# 1 63.6241 35.9645 33.2521 0.0000 20.2450 0.0000
# 2 35.9645 86.8758 19.2384 0.0000 25.7324 0.0000
# 3 33.2521 19.2384 90.5074 0.0000 25.7328 0.0000
# 4 0.0000 0.0000 0.0000 41.7744 0.0000 11.7758
# 5 20.2450 25.7324 25.7328 0.0000 56.7288 0.0000
# 6 0.0000 0.0000 0.0000 11.7758 0.0000 69.4585
#
#
#
# Elastic Compliance Matrix: (Units=1/GPa)
#
#
# Indices 1 2 3 4 5 6 
#
# 1 0.024384 -0.008012 -0.006676 0.000000 -0.002040 0.000000
# 2 -0.008012 0.016059 0.000905 0.000000 -0.004836 0.000000
# 3 -0.006676 0.000905 0.014636 0.000000 -0.004667 0.000000
# 4 0.000000 0.000000 0.000000 0.025140 0.000000 -0.004262
# 5 -0.002040 -0.004836 -0.004667 0.000000 0.022666 0.000000
# 6 0.000000 0.000000 0.000000 -0.004262 0.000000 0.015120
#
#
# Mechanical properties :
#
#
# Convention : Reuss Voigt Hill
#
# Bulk Modulus (GPa) = 36.34518 46.43526 41.39022
# Shear Modulus (GPa) = 32.31181 43.76251 38.03716
#
# Velocity S-wave (km/s) = 3.46526 4.03279 3.75975
# Velocity P-wave (km/s) = 5.43301 6.24029 5.85059
#
# Compressibility (1/GPa) = 0.02751396
#
# Stress axis : x y z
#
# Youngs Moduli (GPa) = 41.01020 62.26863 68.32443
#
# Poissons Ratio (x) = 0.49890 0.45611
# Poissons Ratio (y) = 0.32858 -0.06183
# Poissons Ratio (z) = 0.27377 -0.05635
#
# Static dielectric constant tensor:
#      x y z
#    x 26.430590 0.000000 -2.327700 
#    y 0.000000 2.239510 0.000000 
#    z -2.327700 0.000000 2.359460 
# 
# From -- ./inp_files/62658.got.cif
#   From: 2010.05.17/outbox.cif.g08.bks.cpg/sg14_32_cif.got.tgz:62658.got - 2010.06.03 17:49:19.
