data_PCOD9241913
_publ_section_title
;
Structure prediction by ZEFSAII (Michael W. Deem and Ramdas Pophale) SiO2 
 PCOD9241913
Probable space group: P 21/C
;
_chemical_formula_sum "Si O2"
_cell_formula_units_Z 32
_cell_length_a 12.203039
_cell_length_b 9.548103
_cell_length_c 24.136860
_cell_angle_alpha 90.000000
_cell_angle_beta 31.849384
_cell_angle_gamma 90.000000
_cell_volume 1484.031755
_symmetry_space_group_name_H-M "P 21/C"
_symmetry_group_IT_number 14
_symmetry_cell_setting 'monoclinic'
loop_
_space_group_symop_operation_xyz
x,y,z
-x,1/2+y,1/2-z
-x,-y,-z
x,1/2-y,1/2+z
loop_
_atom_site_type_symbol
_atom_site_label
_atom_site_fract_x
_atom_site_fract_y
_atom_site_fract_z
Si Si1 0.046821 0.824008 0.836848
Si Si2 0.666162 0.816266 0.437865
Si Si3 0.384527 0.390784 0.823508
Si Si4 0.699937 0.872504 0.204176
Si Si5 0.177538 0.210984 0.240861
Si Si6 0.205685 0.355343 0.453055
Si Si7 0.680714 0.444556 0.254428
Si Si8 0.778128 0.120407 0.351101
O O1 0.839309 0.757110 0.899827
O O2 0.207828 0.702278 0.783479
O O3 0.139279 0.910820 0.745959
O O4 0.960925 0.892121 0.929467
O O5 0.670423 0.756476 0.373778
O O6 0.438799 0.799760 0.560509
O O7 0.729379 0.978545 0.404793
O O8 0.445799 0.255899 0.758404
O O9 0.567443 0.486965 0.768662
O O10 0.272606 0.490851 0.826696
O O11 0.747501 0.686377 0.071997
O O12 0.800152 0.811875 0.216082
O O13 0.849690 0.887537 0.086879
O O14 0.950950 0.206492 0.310249
O O15 0.235857 0.056647 0.237358
O O16 0.431086 0.426292 0.366175
#
# Coordination Sequence:
#
# PCOD9241913 Si02
#       8
#     4   4   4   4   4   4   4   4
#     4  11  21  37  61  90 121 159 200 252 300 366
#     4  10  22  40  62  84 119 160 202 256 304 354
#     4   8  17  34  60  87 122 162 197 246 299 363
#     4   8  17  35  59  89 125 156 207 244 302 365
#     4  10  20  39  62  87 121 158 201 254 302 364
#     4   9  20  36  60  91 121 159 197 247 311 356
#     4  10  19  38  60  87 123 156 203 248 296 375
#     4  10  22  41  59  90 118 157 210 250 301 362
#
# _framework density 21.562881000000001
#
# number of rings (size 3 to 8) (size 9 to 14) (size 15 to 20)
#    0.750    1.750    1.250    0.750    0.000    3.500 
#    4.500    3.125    0.000    2.250    0.000    0.000 
#    0.000    0.000    0.000    0.000    0.000    0.000 
#
# Total GULP energy -178484.246051 kJ/mol
# GULP energy per Si atom -5577.632689 kJ/mol
# Density = 2.151380 g / cm^3
# Si number density = 21.562881 Si / 1000 Ang^3
#
#
#
# Elastic Constant Matrix: (Units=GPa)
#
#
# Indices 1 2 3 4 5 6 
#
# 1 100.6533 33.7497 49.7849 0.0000 14.5157 0.0000
# 2 33.7497 59.3526 15.6402 0.0000 -9.3225 0.0000
# 3 49.7849 15.6402 108.3166 0.0000 12.0564 0.0000
# 4 0.0000 0.0000 0.0000 18.5640 0.0000 4.3002
# 5 14.5157 -9.3225 12.0564 0.0000 22.3810 0.0000
# 6 0.0000 0.0000 0.0000 4.3002 0.0000 37.2853
#
#
#
# Elastic Compliance Matrix: (Units=1/GPa)
#
#
# Indices 1 2 3 4 5 6 
#
# 1 0.018228 -0.011120 -0.005256 0.000000 -0.013622 0.000000
# 2 -0.011120 0.026285 -0.000751 0.000000 0.018565 0.000000
# 3 -0.005256 -0.000751 0.012140 0.000000 -0.003443 0.000000
# 4 0.000000 0.000000 0.000000 0.055346 0.000000 -0.006383
# 5 -0.013622 0.018565 -0.003443 0.000000 0.063104 0.000000
# 6 0.000000 0.000000 0.000000 -0.006383 0.000000 0.027556
#
#
# Mechanical properties :
#
#
# Convention : Reuss Voigt Hill
#
# Bulk Modulus (GPa) = 44.64380 51.85247 48.24814
# Shear Modulus (GPa) = 20.46000 26.92258 23.69129
#
# Velocity S-wave (km/s) = 3.08369 3.53733 3.31827
# Velocity P-wave (km/s) = 5.78168 6.38615 6.09142
#
# Compressibility (1/GPa) = 0.02239953
#
# Stress axis : x y z
#
# Youngs Moduli (GPa) = 54.86115 38.04409 82.37394
#
# Poissons Ratio (x) = 0.42303 0.43297
# Poissons Ratio (y) = 0.61003 0.06187
# Poissons Ratio (z) = 0.28836 0.02857
#
# Static dielectric constant tensor:
#      x y z
#    x 1.796290 0.000000 -0.007110 
#    y 0.000000 1.830700 0.000000 
#    z -0.007110 0.000000 1.772300 
# 
# From -- ./inp_files/32389.got.cif
#   From: 2010.05.17/outbox.cif.g08.bks.cpg/sg14_17_cif.got.tgz:32389.got - 2010.06.03 17:49:19.
