data_PCOD9241217
_publ_section_title
;
Structure prediction by ZEFSAII (Michael W. Deem and Ramdas Pophale) SiO2 
 PCOD9241217
Probable space group: P 21/C
;
_chemical_formula_sum "Si O2"
_cell_formula_units_Z 20
_cell_length_a 13.021636
_cell_length_b 7.949203
_cell_length_c 8.227963
_cell_angle_alpha 90.000000
_cell_angle_beta 109.499635
_cell_angle_gamma 90.000000
_cell_volume 802.839996
_symmetry_space_group_name_H-M "P 21/C"
_symmetry_group_IT_number 14
_symmetry_cell_setting 'monoclinic'
loop_
_space_group_symop_operation_xyz
x,y,z
-x,1/2+y,1/2-z
-x,-y,-z
x,1/2-y,1/2+z
loop_
_atom_site_type_symbol
_atom_site_label
_atom_site_fract_x
_atom_site_fract_y
_atom_site_fract_z
Si Si1 0.796902 0.543504 0.410543
Si Si2 0.367294 0.988403 0.620894
Si Si3 0.912400 0.773122 0.233747
Si Si4 0.136625 0.914686 0.381393
Si Si5 0.410189 0.177488 0.301763
O O1 0.829149 0.712729 0.326567
O O2 0.865361 0.568244 0.609790
O O3 0.832840 0.405969 0.296358
O O4 0.668111 0.564362 0.356179
O O5 0.248747 0.905025 0.538917
O O6 0.384884 0.100756 0.465946
O O7 0.382746 0.126646 0.768418
O O8 0.464413 0.855064 0.675203
O O9 0.910075 0.603454 0.124657
O O10 0.034108 0.798865 0.359429
#
# Coordination Sequence:
#
# PCOD9241217 Si02
#       5
#     4   4   4   4   4
#     4   9  18  35  58  75 111 144 178 219 282 311
#     4  10  21  38  60  82 115 144 189 227 284 324
#     4  10  19  35  56  78 112 145 179 220 272 326
#     4   9  20  35  55  81 109 144 182 219 270 327
#     4  10  19  40  60  81 112 150 182 238 275 331
#
# _framework density 24.911563000000001
#
# number of rings (size 3 to 8) (size 9 to 14) (size 15 to 20)
#    1.200    1.200    2.000    0.600    0.000    1.600 
#    3.600    2.000    0.000    0.000    0.000    0.000 
#    0.000    0.000    0.000    0.000    0.000    0.000 
#
# Total GULP energy -111568.878045 kJ/mol
# GULP energy per Si atom -5578.443902 kJ/mol
# Density = 2.485486 g / cm^3
# Si number density = 24.911563 Si / 1000 Ang^3
#
#
#
# Elastic Constant Matrix: (Units=GPa)
#
#
# Indices 1 2 3 4 5 6 
#
# 1 96.8756 22.1461 50.8915 0.0000 48.6578 0.0000
# 2 22.1461 29.0978 27.6028 0.0000 7.0769 0.0000
# 3 50.8915 27.6028 101.6130 0.0000 39.1125 0.0000
# 4 0.0000 0.0000 0.0000 25.6325 0.0000 9.0074
# 5 48.6578 7.0769 39.1125 0.0000 53.2787 0.0000
# 6 0.0000 0.0000 0.0000 9.0074 0.0000 22.5896
#
#
#
# Elastic Compliance Matrix: (Units=1/GPa)
#
#
# Indices 1 2 3 4 5 6 
#
# 1 0.022951 -0.011890 -0.001121 0.000000 -0.018558 0.000000
# 2 -0.011890 0.053174 -0.013870 0.000000 0.013978 0.000000
# 3 -0.001121 -0.013870 0.018214 0.000000 -0.010505 0.000000
# 4 0.000000 0.000000 0.000000 0.045370 0.000000 -0.018091
# 5 -0.018558 0.013978 -0.010505 0.000000 0.041572 0.000000
# 6 0.000000 0.000000 0.000000 -0.018091 0.000000 0.051482
#
#
# Mechanical properties :
#
#
# Convention : Reuss Voigt Hill
#
# Bulk Modulus (GPa) = 24.64543 47.65193 36.14868
# Shear Modulus (GPa) = 16.66379 28.76323 22.71351
#
# Velocity S-wave (km/s) = 2.58915 3.40165 3.02282
# Velocity P-wave (km/s) = 4.34199 5.88203 5.16968
#
# Compressibility (1/GPa) = 0.04057548
#
# Stress axis : x y z
#
# Youngs Moduli (GPa) = 43.57145 18.80610 54.90268
#
# Poissons Ratio (x) = 0.22361 0.06157
# Poissons Ratio (y) = 0.51808 0.76149
# Poissons Ratio (z) = 0.04887 0.26084
#
# Static dielectric constant tensor:
#      x y z
#    x 1.946310 0.000000 -0.050220 
#    y 0.000000 1.977810 0.000000 
#    z -0.050220 0.000000 2.065210 
# 
# From -- ./inp_files/27832.got.cif
#   From: 2010.05.17/outbox.cif.g08.bks.cpg/sg14_14_cif.got.tgz:27832.got - 2010.06.03 17:49:19.
