data_PCOD9241581
_publ_section_title
;
Structure prediction by ZEFSAII (Michael W. Deem and Ramdas Pophale) SiO2 
 PCOD9241581
Probable space group: P 21/C
;
_chemical_formula_sum "Si O2"
_cell_formula_units_Z 32
_cell_length_a 7.733998
_cell_length_b 18.616092
_cell_length_c 12.772545
_cell_angle_alpha 90.000000
_cell_angle_beta 127.266108
_cell_angle_gamma 90.000000
_cell_volume 1463.495200
_symmetry_space_group_name_H-M "P 21/C"
_symmetry_group_IT_number 14
_symmetry_cell_setting 'monoclinic'
loop_
_space_group_symop_operation_xyz
x,y,z
-x,1/2+y,1/2-z
-x,-y,-z
x,1/2-y,1/2+z
loop_
_atom_site_type_symbol
_atom_site_label
_atom_site_fract_x
_atom_site_fract_y
_atom_site_fract_z
Si Si1 0.114559 0.933712 0.405088
Si Si2 0.519467 0.673663 0.315626
Si Si3 0.861129 0.487060 0.649658
Si Si4 0.266850 0.218058 0.469333
Si Si5 0.328184 0.781942 0.530667
Si Si6 0.111785 0.826337 0.815626
Si Si7 0.561812 0.987060 0.850342
Si Si8 0.304384 0.433712 0.094912
O O1 0.235391 0.858550 0.458955
O O2 0.908305 0.929403 0.408305
O O3 0.258649 1.000000 0.500000
O O4 0.023955 0.954720 0.257866
O O5 0.711971 0.721012 0.434521
O O6 0.341997 0.666245 0.341997
O O7 0.579081 0.592403 0.307821
O O8 0.397435 0.712270 0.175939
O O9 0.963439 0.407597 0.692179
O O10 0.652096 0.488593 0.652096
O O11 0.765530 0.500000 0.500000
O O12 0.450949 0.232095 0.450949
O O13 0.317481 0.141450 0.541045
O O14 0.045556 0.212270 0.324061
O O15 0.157071 0.721011 0.434521
O O16 0.508224 0.045280 0.742134
#
# Coordination Sequence:
#
# PCOD9241581 Si02
#       8
#     4   4   4   4   4   4   4   4
#     4  10  19  36  62  84 109 153 198 237 283 342
#     4  10  22  41  59  83 118 154 195 236 287 354
#     4   9  18  34  59  85 108 145 198 243 277 333
#     4  11  24  38  59  88 120 154 191 244 296 344
#     4  11  24  38  59  88 120 154 191 244 296 344
#     4  10  22  41  59  83 118 154 195 236 287 354
#     4   9  18  34  59  85 108 145 198 243 277 333
#     4  10  19  36  62  84 109 153 198 237 283 342
#
# _framework density 21.865463999999999
#
# number of rings (size 3 to 8) (size 9 to 14) (size 15 to 20)
#    0.000    2.000    2.500    0.750    3.500    2.500 
#    0.000    0.000    0.000    1.500    0.000    0.000 
#    0.000    0.000    0.000    0.000    0.000    0.000 
#
# Total GULP energy -178787.458543 kJ/mol
# GULP energy per Si atom -5587.108079 kJ/mol
# Density = 2.181570 g / cm^3
# Si number density = 21.865464 Si / 1000 Ang^3
#
#
#
# Elastic Constant Matrix: (Units=GPa)
#
#
# Indices 1 2 3 4 5 6 
#
# 1 27.2035 -5.5049 -10.5953 0.0000 -0.1207 0.0000
# 2 -5.5049 22.3923 -7.2780 0.0000 -0.1089 0.0000
# 3 -10.5953 -7.2780 109.4717 0.0000 5.1746 0.0000
# 4 0.0000 0.0000 0.0000 44.3302 0.0000 0.4777
# 5 -0.1207 -0.1089 5.1746 0.0000 18.2429 0.0000
# 6 0.0000 0.0000 0.0000 0.4777 0.0000 36.5542
#
#
#
# Elastic Compliance Matrix: (Units=1/GPa)
#
#
# Indices 1 2 3 4 5 6 
#
# 1 0.040972 0.011623 0.004786 0.000000 -0.001017 0.000000
# 2 0.011623 0.048948 0.004421 0.000000 -0.000885 0.000000
# 3 0.004786 0.004421 0.010024 0.000000 -0.002785 0.000000
# 4 0.000000 0.000000 0.000000 0.022561 0.000000 -0.000295
# 5 -0.001017 -0.000885 -0.002785 0.000000 0.055594 0.000000
# 6 0.000000 0.000000 0.000000 -0.000295 0.000000 0.027361
#
#
# Mechanical properties :
#
#
# Convention : Reuss Voigt Hill
#
# Bulk Modulus (GPa) = 7.06191 12.47899 9.77045
# Shear Modulus (GPa) = 23.69670 31.98849 27.84259
#
# Velocity S-wave (km/s) = 3.29561 3.82903 3.57229
# Velocity P-wave (km/s) = 4.20929 5.02674 4.63607
#
# Compressibility (1/GPa) = 0.14160475
#
# Stress axis : x y z
#
# Youngs Moduli (GPa) = 24.40704 20.42971 99.76448
#
# Poissons Ratio (x) = -0.23746 -0.47751
# Poissons Ratio (y) = -0.28369 -0.44106
# Poissons Ratio (z) = -0.11682 -0.09032
#
# Static dielectric constant tensor:
#      x y z
#    x 1.816990 0.000000 -0.002370 
#    y 0.000000 1.788080 0.000000 
#    z -0.002370 0.000000 1.778390 
# 
# From -- ./inp_files/26816.got.cif
#   From: 2010.05.17/outbox.cif.g08.bks.cpg/sg14_14_cif.got.tgz:26816.got - 2010.06.03 17:49:19.
