data_PCOD9241379
_publ_section_title
;
Structure prediction by ZEFSAII (Michael W. Deem and Ramdas Pophale) SiO2 
 PCOD9241379
Probable space group: P 21/C
;
_chemical_formula_sum "Si O2"
_cell_formula_units_Z 30
_cell_length_a 9.009736
_cell_length_b 31.848264
_cell_length_c 5.357865
_cell_angle_alpha 90.000000
_cell_angle_beta 53.035735
_cell_angle_gamma 90.000000
_cell_volume 1228.406748
_symmetry_space_group_name_H-M "P 21/C"
_symmetry_group_IT_number 14
_symmetry_cell_setting 'monoclinic'
loop_
_space_group_symop_operation_xyz
x,y,z
-x,1/2+y,1/2-z
-x,-y,-z
x,1/2-y,1/2+z
loop_
_atom_site_type_symbol
_atom_site_label
_atom_site_fract_x
_atom_site_fract_y
_atom_site_fract_z
Si Si1 0.170943 0.062847 0.814051
Si Si2 0.500000 0.500000 0.000000
Si Si3 0.163238 0.730759 0.124346
Si Si4 0.250142 0.576408 0.121531
Si Si5 0.109906 0.850719 0.444975
Si Si6 0.575026 0.351879 0.709100
Si Si7 0.260747 0.388821 0.723379
Si Si8 0.580707 0.735516 0.088434
O O1 0.295773 0.022453 0.745623
O O2 0.225260 0.076752 0.477766
O O3 0.233298 0.095526 0.968626
O O4 0.946935 0.061321 0.060210
O O5 0.393888 0.538402 0.947749
O O6 0.082940 0.750145 0.453599
O O7 0.134125 0.680939 0.147951
O O8 0.382365 0.741852 0.860411
O O9 0.181783 0.602838 0.950063
O O10 0.359330 0.609977 0.184679
O O11 0.900725 0.855119 0.572818
O O12 0.239840 0.833088 0.098365
O O13 0.456944 0.369670 0.595854
O O14 0.457280 0.313357 0.935785
O O15 0.672964 0.740876 0.265093
#
# Coordination Sequence:
#
# PCOD9241379 Si02
#       8
#     4   2   4   4   4   4   4   4
#     4  11  25  48  68 100 138 174 225 275 344 402
#     4  12  24  48  72 104 142 170 232 290 344 410
#     4  10  19  35  62  95 129 175 224 270 330 398
#     4  11  24  43  71 100 133 185 223 282 341 415
#     4  11  23  42  69  95 138 182 227 276 341 405
#     4  12  22  40  71  93 136 181 224 279 340 399
#     4  11  26  44  68 104 132 176 231 273 329 414
#     4  10  20  34  59  94 128 171 221 270 329 394
#
# _framework density 24.421879000000001
#
# number of rings (size 3 to 8) (size 9 to 14) (size 15 to 20)
#    0.000    1.067    5.333    2.800    0.000    0.533 
#    2.400    3.333    0.000    0.000    0.000    0.000 
#    0.000    0.000    0.000    0.000    0.000    0.000 
#
# Total GULP energy -167096.040407 kJ/mol
# GULP energy per Si atom -5569.868014 kJ/mol
# Density = 2.436629 g / cm^3
# Si number density = 24.421879 Si / 1000 Ang^3
#
#
#
# Elastic Constant Matrix: (Units=GPa)
#
#
# Indices 1 2 3 4 5 6 
#
# 1 115.8849 33.5530 35.8000 0.0000 -9.2655 0.0000
# 2 33.5530 -195.6764 50.2343 0.0000 -53.7893 0.0000
# 3 35.8000 50.2343 55.6059 0.0000 17.1639 0.0000
# 4 0.0000 0.0000 0.0000 -4.3554 0.0000 -8.3691
# 5 -9.2655 -53.7893 17.1639 0.0000 34.6905 0.0000
# 6 0.0000 0.0000 0.0000 -8.3691 0.0000 -14.2664
#
#
#
# Elastic Compliance Matrix: (Units=1/GPa)
#
#
# Indices 1 2 3 4 5 6 
#
# 1 0.011879 -0.001371 -0.007946 0.000000 0.004978 0.000000
# 2 -0.001371 -0.002314 0.004950 0.000000 -0.006404 0.000000
# 3 -0.007946 0.004950 0.019961 0.000000 -0.004323 0.000000
# 4 0.000000 0.000000 0.000000 1.804450 0.000000 -1.058546
# 5 0.004978 -0.006404 -0.004323 0.000000 0.022365 0.000000
# 6 0.000000 0.000000 0.000000 -1.058546 0.000000 0.550881
#
#
# Mechanical properties :
#
#
# Convention : Reuss Voigt Hill
#
# Bulk Modulus (GPa) = 48.09309 23.88767 35.99038
# Shear Modulus (GPa) = 2.06366 -6.37110 -2.15372
#
# Velocity S-wave (km/s) = 0.92024 -1.61692 -0.94010
# Velocity P-wave (km/s) = 4.56777 2.51328 3.68653
#
# Compressibility (1/GPa) = 0.02079301
#
# Stress axis : x y z
#
# Youngs Moduli (GPa) = 84.18311 -432.08762 50.09684
#
# Poissons Ratio (x) = -0.59250 0.39805
# Poissons Ratio (y) = 0.11544 -0.24800
# Poissons Ratio (z) = 0.66888 2.13899
#
# Static dielectric constant tensor:
#      x y z
#    x 2.008140 0.000000 0.058180 
#    y 0.000000 1.947050 0.000000 
#    z 0.058180 0.000000 1.973930 
# 
# From -- ./inp_files/2205.got.cif
#   From: 2010.05.17/outbox.cif.g08.bks.cpg/sg14_2_cif.got.tgz:2205.got - 2010.06.03 17:49:19.
