data_PCOD9241975
_publ_section_title
;
Structure prediction by ZEFSAII (Michael W. Deem and Ramdas Pophale) SiO2 
 PCOD9241975
Probable space group: P 21/C
;
_chemical_formula_sum "Si O2"
_cell_formula_units_Z 20
_cell_length_a 11.514753
_cell_length_b 6.097139
_cell_length_c 19.283446
_cell_angle_alpha 90.000000
_cell_angle_beta 139.283312
_cell_angle_gamma 90.000000
_cell_volume 883.131801
_symmetry_space_group_name_H-M "P 21/C"
_symmetry_group_IT_number 14
_symmetry_cell_setting 'monoclinic'
loop_
_space_group_symop_operation_xyz
x,y,z
-x,1/2+y,1/2-z
-x,-y,-z
x,1/2-y,1/2+z
loop_
_atom_site_type_symbol
_atom_site_label
_atom_site_fract_x
_atom_site_fract_y
_atom_site_fract_z
Si Si1 0.777756 0.563755 0.466730
Si Si2 0.540131 0.182920 0.960898
Si Si3 0.229106 0.517022 0.836653
Si Si4 0.922787 0.691984 0.915923
Si Si5 0.027853 0.856780 0.673867
O O1 0.610302 0.444459 0.425271
O O2 0.765431 0.689270 0.387546
O O3 0.864324 0.740593 0.559103
O O4 0.925563 0.374251 0.525215
O O5 0.369451 0.336856 0.876774
O O6 0.688903 0.342415 0.062346
O O7 0.500000 0.000000 0.000000
O O8 0.048090 0.416240 0.785136
O O9 0.181360 0.679144 0.753092
O O10 0.897613 0.566065 0.832743
O O11 0.000000 0.500000 0.000000
#
# Coordination Sequence:
#
# PCOD9241975 Si02
#       5
#     4   4   4   4   4
#     4  10  19  38  63  92 124 168 214 261 317 384
#     4  11  22  39  58  98 130 167 208 262 335 389
#     4  11  24  34  60  96 133 166 205 277 331 381
#     4   9  20  35  62  95 115 164 216 260 303 386
#     4  11  21  37  58  98 128 161 222 268 320 385
#
# _framework density 22.646673
#
# number of rings (size 3 to 8) (size 9 to 14) (size 15 to 20)
#    0.000    1.600    4.000    1.200    0.000    0.000 
#    0.000    0.000    0.000    0.000   88.400    0.000 
#    0.000    0.000    0.000    0.000    0.000    0.000 
#
# Total GULP energy -111820.822224 kJ/mol
# GULP energy per Si atom -5591.041111 kJ/mol
# Density = 2.259513 g / cm^3
# Si number density = 22.646673 Si / 1000 Ang^3
#
#
#
# Elastic Constant Matrix: (Units=GPa)
#
#
# Indices 1 2 3 4 5 6 
#
# 1 162.2052 72.9760 20.0959 0.0000 2.6146 0.0000
# 2 72.9760 135.1793 28.0316 0.0000 6.8681 0.0000
# 3 20.0959 28.0316 45.5325 0.0000 4.7829 0.0000
# 4 0.0000 0.0000 0.0000 54.1962 0.0000 -9.1050
# 5 2.6146 6.8681 4.7829 0.0000 12.1194 0.0000
# 6 0.0000 0.0000 0.0000 -9.1050 0.0000 63.3662
#
#
#
# Elastic Compliance Matrix: (Units=1/GPa)
#
#
# Indices 1 2 3 4 5 6 
#
# 1 0.008197 -0.004249 -0.001116 0.000000 0.001080 0.000000
# 2 -0.004249 0.010779 -0.004398 0.000000 -0.003456 0.000000
# 3 -0.001116 -0.004398 0.025951 0.000000 -0.007509 0.000000
# 4 0.000000 0.000000 0.000000 0.018908 0.000000 0.002717
# 5 0.001080 -0.003456 -0.007509 0.000000 0.087202 0.000000
# 6 0.000000 0.000000 0.000000 0.002717 0.000000 0.016172
#
#
# Mechanical properties :
#
#
# Convention : Reuss Voigt Hill
#
# Bulk Modulus (GPa) = 39.36549 65.01377 52.18963
# Shear Modulus (GPa) = 25.61479 40.72392 33.16935
#
# Velocity S-wave (km/s) = 3.36677 4.24515 3.83122
# Velocity P-wave (km/s) = 5.70384 7.26627 6.53194
#
# Compressibility (1/GPa) = 0.02540296
#
# Stress axis : x y z
#
# Youngs Moduli (GPa) = 121.99002 92.77455 38.53454
#
# Poissons Ratio (x) = 0.39418 0.04299
# Poissons Ratio (y) = 0.51832 0.16946
# Poissons Ratio (z) = 0.13609 0.40798
#
# Static dielectric constant tensor:
#      x y z
#    x 1.858020 0.000000 -0.031510 
#    y 0.000000 1.863040 0.000000 
#    z -0.031510 0.000000 1.885180 
# 
# From -- ./inp_files/56643.got.cif
#   From: 2010.05.17/outbox.cif.g08.bks.cpg/sg14_29_cif.got.tgz:56643.got - 2010.06.03 17:49:19.
