data_PCOD9241949
_publ_section_title
;
Structure prediction by ZEFSAII (Michael W. Deem and Ramdas Pophale) SiO2 
 PCOD9241949
Probable space group: P 21/C
;
_chemical_formula_sum "Si O2"
_cell_formula_units_Z 28
_cell_length_a 15.301910
_cell_length_b 9.884498
_cell_length_c 14.343754
_cell_angle_alpha 90.000000
_cell_angle_beta 148.041614
_cell_angle_gamma 90.000000
_cell_volume 1148.332345
_symmetry_space_group_name_H-M "P 21/C"
_symmetry_group_IT_number 14
_symmetry_cell_setting 'monoclinic'
loop_
_space_group_symop_operation_xyz
x,y,z
-x,1/2+y,1/2-z
-x,-y,-z
x,1/2-y,1/2+z
loop_
_atom_site_type_symbol
_atom_site_label
_atom_site_fract_x
_atom_site_fract_y
_atom_site_fract_z
Si Si1 0.714279 0.504821 0.593177
Si Si2 0.618824 0.639687 0.318885
Si Si3 0.932921 0.002305 0.800453
Si Si4 0.661389 0.898176 0.239702
Si Si5 0.737142 0.071589 0.788867
Si Si6 0.283424 0.675665 0.124885
Si Si7 0.967474 0.294116 0.750808
O O1 0.714755 0.586838 0.496978
O O2 0.535011 0.432190 0.437459
O O3 0.724328 0.603705 0.690710
O O4 0.855819 0.393160 0.713448
O O5 0.688590 0.767311 0.326351
O O6 0.616585 0.519471 0.241845
O O7 0.441491 0.674929 0.200666
O O8 0.768252 0.020946 0.712952
O O9 0.911582 0.898826 0.694592
O O10 0.991231 0.154791 0.828277
O O11 0.083309 0.945922 0.999397
O O12 0.746000 0.027218 0.363451
O O13 0.686401 0.226039 0.759627
O O14 0.140192 0.734135 0.932058
#
# Coordination Sequence:
#
# PCOD9241949 Si02
#       7
#     4   4   4   4   4   4   4
#     4  10  20  39  61  86 131 160 202 260 316 367
#     4  11  19  38  65  92 125 163 202 260 319 374
#     4  10  23  39  67  85 125 172 213 254 311 366
#     4  10  21  34  63  93 119 166 203 247 324 387
#     4  10  21  42  60  91 127 166 207 263 310 371
#     4  10  19  38  62  89 129 161 197 263 324 364
#     4  11  21  42  61  91 124 167 210 264 309 370
#
# _framework density 24.383185000000001
#
# number of rings (size 3 to 8) (size 9 to 14) (size 15 to 20)
#    0.000    1.714    4.286    1.714    0.000    2.286 
#    2.571    0.714    0.000    6.857    0.000    0.000 
#    0.000    0.000    0.000    0.000    0.000    0.000 
#
# Total GULP energy -156572.097017 kJ/mol
# GULP energy per Si atom -5591.860608 kJ/mol
# Density = 2.432769 g / cm^3
# Si number density = 24.383185 Si / 1000 Ang^3
#
#
#
# Elastic Constant Matrix: (Units=GPa)
#
#
# Indices 1 2 3 4 5 6 
#
# 1 -880.3974 -304.6738 1108.9666 0.0000-1046.6401 0.0000
# 2 -304.6738 -6.2202 365.8895 0.0000 -357.2022 0.0000
# 3 1108.9666 365.8895-1127.3440 0.0000 1082.7072 0.0000
# 4 0.0000 0.0000 0.0000 17.8563 0.0000 11.6451
# 5 -1046.6401 -357.2022 1082.7072 0.0000-1014.7915 0.0000
# 6 0.0000 0.0000 0.0000 11.6451 0.0000 11.5939
#
#
#
# Elastic Compliance Matrix: (Units=1/GPa)
#
#
# Indices 1 2 3 4 5 6 
#
# 1 0.006057 -0.003242 -0.000093 0.000000 -0.005205 0.000000
# 2 -0.003242 0.010729 0.004969 0.000000 0.004869 0.000000
# 3 -0.000093 0.004969 0.038632 0.000000 0.039564 0.000000
# 4 0.000000 0.000000 0.000000 0.162345 0.000000 -0.163062
# 5 -0.005205 0.004869 0.039564 0.000000 0.044881 0.000000
# 6 0.000000 0.000000 0.000000 -0.163062 0.000000 0.250035
#
#
# Mechanical properties :
#
#
# Convention : Reuss Voigt Hill
#
# Bulk Modulus (GPa) = 17.03982 36.26701 26.65341
# Shear Modulus (GPa) = 9.45227 -409.34454 -199.94613
#
# Velocity S-wave (km/s) = 1.97103 -12.97090 -9.06530
# Velocity P-wave (km/s) = 3.49048 14.47134 9.93066
#
# Compressibility (1/GPa) = 0.05868607
#
# Stress axis : x y z
#
# Youngs Moduli (GPa) = 165.09144 93.20407 25.88534
#
# Poissons Ratio (x) = 0.30219 0.00240
# Poissons Ratio (y) = 0.53527 -0.12862
# Poissons Ratio (z) = 0.01529 -0.46311
#
# Static dielectric constant tensor:
#      x y z
#    x 1.996900 0.000000 -0.007540 
#    y 0.000000 1.964220 0.000000 
#    z -0.007540 0.000000 2.025480 
# 
# From -- ./inp_files/46740.got.cif
#   From: 2010.05.17/outbox.cif.g08.bks.cpg/sg14_24_cif.got.tgz:46740.got - 2010.06.03 17:49:19.
