data_PCOD9241146
_publ_section_title
;
Structure prediction by ZEFSAII (Michael W. Deem and Ramdas Pophale) SiO2 
 PCOD9241146
Probable space group: P 21/C
;
_chemical_formula_sum "Si O2"
_cell_formula_units_Z 28
_cell_length_a 17.205636
_cell_length_b 8.082285
_cell_length_c 17.698934
_cell_angle_alpha 90.000000
_cell_angle_beta 34.365769
_cell_angle_gamma 90.000000
_cell_volume 1389.299568
_symmetry_space_group_name_H-M "P 21/C"
_symmetry_group_IT_number 14
_symmetry_cell_setting 'monoclinic'
loop_
_space_group_symop_operation_xyz
x,y,z
-x,1/2+y,1/2-z
-x,-y,-z
x,1/2-y,1/2+z
loop_
_atom_site_type_symbol
_atom_site_label
_atom_site_fract_x
_atom_site_fract_y
_atom_site_fract_z
Si Si1 0.683360 0.461800 0.309131
Si Si2 0.694373 0.995472 0.637107
Si Si3 0.187719 0.515221 0.629224
Si Si4 0.111584 0.609023 0.154952
Si Si5 0.336518 0.054353 0.548777
Si Si6 0.595901 0.815782 0.134051
Si Si7 0.500589 0.230399 0.535731
O O1 0.757391 0.468803 0.169499
O O2 0.757362 0.507773 0.328622
O O3 0.613753 0.285567 0.382676
O O4 0.562353 0.595766 0.389842
O O5 0.804975 0.050744 0.486066
O O6 0.555357 0.105664 0.738159
O O7 0.650976 0.802501 0.657502
O O8 0.148334 0.705386 0.648488
O O9 0.300246 0.458992 0.477219
O O10 0.049701 0.411536 0.726806
O O11 0.177414 0.486932 0.165210
O O12 0.391577 0.186759 0.445390
O O13 0.380667 0.122790 0.594397
O O14 0.419826 0.883538 0.469762
#
# Coordination Sequence:
#
# PCOD9241146 Si02
#       7
#     4   4   4   4   4   4   4
#     4  11  21  38  64  92 127 171 206 268 310 377
#     4  11  24  38  62 101 132 162 203 270 329 354
#     4  12  24  46  67  87 125 176 223 248 313 394
#     4  11  25  41  66  89 127 170 215 262 312 385
#     4  10  19  35  60  95 122 162 209 259 304 371
#     4  11  22  39  64  93 132 165 211 259 316 380
#     4  10  19  34  61  95 128 158 213 260 311 374
#
# _framework density 20.154039999999998
#
# number of rings (size 3 to 8) (size 9 to 14) (size 15 to 20)
#    0.000    1.143    4.286    3.429    4.000    0.571 
#    0.000    0.000    0.000    1.714    0.000    0.000 
#    0.000    0.000    0.000    0.000    0.000    0.000 
#
# Total GULP energy -156183.575835 kJ/mol
# GULP energy per Si atom -5577.984851 kJ/mol
# Density = 2.010817 g / cm^3
# Si number density = 20.154040 Si / 1000 Ang^3
#
#
#
# Elastic Constant Matrix: (Units=GPa)
#
#
# Indices 1 2 3 4 5 6 
#
# 1 77.6218 9.3784 1.8649 0.0000 -4.8498 0.0000
# 2 9.3784 73.7885 -3.2722 0.0000 -9.6333 0.0000
# 3 1.8649 -3.2722 37.6132 0.0000 -8.5919 0.0000
# 4 0.0000 0.0000 0.0000 28.7822 0.0000 -6.0771
# 5 -4.8498 -9.6333 -8.5919 0.0000 26.8630 0.0000
# 6 0.0000 0.0000 0.0000 -6.0771 0.0000 35.6539
#
#
#
# Elastic Compliance Matrix: (Units=1/GPa)
#
#
# Indices 1 2 3 4 5 6 
#
# 1 0.013177 -0.001466 -0.000386 0.000000 0.001730 0.000000
# 2 -0.001466 0.014619 0.002677 0.000000 0.005834 0.000000
# 3 -0.000386 0.002677 0.029173 0.000000 0.010221 0.000000
# 4 0.000000 0.000000 0.000000 0.036041 0.000000 0.006143
# 5 0.001730 0.005834 0.010221 0.000000 0.042900 0.000000
# 6 0.000000 0.000000 0.000000 0.006143 0.000000 0.029094
#
#
# Mechanical properties :
#
#
# Convention : Reuss Voigt Hill
#
# Bulk Modulus (GPa) = 17.05894 22.77395 19.91644
# Shear Modulus (GPa) = 27.33824 30.32998 28.83411
#
# Velocity S-wave (km/s) = 3.68702 3.88352 3.78654
# Velocity P-wave (km/s) = 5.15830 5.60656 5.38709
#
# Compressibility (1/GPa) = 0.05862031
#
# Stress axis : x y z
#
# Youngs Moduli (GPa) = 75.88709 68.40432 34.27800
#
# Poissons Ratio (x) = 0.10029 0.01322
# Poissons Ratio (y) = 0.11126 -0.09177
# Poissons Ratio (z) = 0.02927 -0.18313
#
# Static dielectric constant tensor:
#      x y z
#    x 1.781000 0.000000 0.031600 
#    y 0.000000 1.755040 0.000000 
#    z 0.031600 0.000000 1.722310 
# 
# From -- ./inp_files/60315.got.cif
#   From: 2010.05.17/outbox.cif.g08.bks.cpg/sg14_31_cif.got.tgz:60315.got - 2010.06.03 17:49:19.
