data_PCOD9241623
_publ_section_title
;
Structure prediction by ZEFSAII (Michael W. Deem and Ramdas Pophale) SiO2 
 PCOD9241623
Probable space group: P 21/C
;
_chemical_formula_sum "Si O2"
_cell_formula_units_Z 28
_cell_length_a 15.507531
_cell_length_b 5.219014
_cell_length_c 18.175802
_cell_angle_alpha 90.000000
_cell_angle_beta 55.934248
_cell_angle_gamma 90.000000
_cell_volume 1218.603246
_symmetry_space_group_name_H-M "P 21/C"
_symmetry_group_IT_number 14
_symmetry_cell_setting 'monoclinic'
loop_
_space_group_symop_operation_xyz
x,y,z
-x,1/2+y,1/2-z
-x,-y,-z
x,1/2-y,1/2+z
loop_
_atom_site_type_symbol
_atom_site_label
_atom_site_fract_x
_atom_site_fract_y
_atom_site_fract_z
Si Si1 0.671047 0.543751 0.314980
Si Si2 0.918123 0.694707 0.574694
Si Si3 0.408585 0.803310 0.531214
Si Si4 0.302828 0.570935 0.454461
Si Si5 0.300898 0.527893 0.287028
Si Si6 0.226330 0.311823 0.111933
Si Si7 0.895908 0.449260 0.945619
O O1 0.589412 0.433922 0.413334
O O2 0.688414 0.311606 0.250580
O O3 0.768448 0.620280 0.321803
O O4 0.643223 0.802451 0.285159
O O5 0.820692 0.550999 0.655155
O O6 0.000000 0.500000 0.500000
O O7 0.987580 0.848000 0.599759
O O8 0.879730 0.874296 0.525898
O O9 0.391064 0.724650 0.455652
O O10 0.500000 0.000000 0.500000
O O11 0.298997 0.950878 0.600681
O O12 0.332600 0.518519 0.357043
O O13 0.282861 0.325779 0.515575
O O14 0.193888 0.731382 0.507502
O O15 0.121707 0.407893 0.123400
#
# Coordination Sequence:
#
# PCOD9241623 Si02
#       7
#     4   4   4   4   4   4   4
#     4  11  25  42  70  97 142 177 224 288 358 412
#     4  11  21  34  64  99 131 179 236 285 322 408
#     4  10  23  46  77 102 128 179 237 278 340 437
#     4  10  21  37  72  98 130 181 232 281 338 417
#     4  12  23  42  67 103 140 183 226 288 360 397
#     4  10  20  43  69  93 132 182 230 271 342 424
#     4  10  19  36  63  98 130 168 244 281 316 391
#
# _framework density 22.977126999999999
#
# number of rings (size 3 to 8) (size 9 to 14) (size 15 to 20)
#    0.000    1.429    4.286    0.857    4.000    2.286 
#    0.000    0.000   18.857    0.000    0.000    0.000 
#    0.000    0.000    0.000    0.000    0.000    0.000 
#
# Total GULP energy -156515.640259 kJ/mol
# GULP energy per Si atom -5589.844295 kJ/mol
# Density = 2.292483 g / cm^3
# Si number density = 22.977127 Si / 1000 Ang^3
#
#
#
# Elastic Constant Matrix: (Units=GPa)
#
#
# Indices 1 2 3 4 5 6 
#
# 1 98.6737 27.6192 25.5895 0.0000 22.7680 0.0000
# 2 27.6192 101.2222 31.7239 0.0000 25.0882 0.0000
# 3 25.5895 31.7239 86.3739 0.0000 27.7661 0.0000
# 4 0.0000 0.0000 0.0000 43.3430 0.0000 8.8065
# 5 22.7680 25.0882 27.7661 0.0000 44.0188 0.0000
# 6 0.0000 0.0000 0.0000 8.8065 0.0000 48.8696
#
#
#
# Elastic Compliance Matrix: (Units=1/GPa)
#
#
# Indices 1 2 3 4 5 6 
#
# 1 0.012002 -0.001737 -0.001556 0.000000 -0.004236 0.000000
# 2 -0.001737 0.012263 -0.002548 0.000000 -0.004483 0.000000
# 3 -0.001556 -0.002548 0.015364 0.000000 -0.007434 0.000000
# 4 0.000000 0.000000 0.000000 0.023949 0.000000 -0.004316
# 5 -0.004236 -0.004483 -0.007434 0.000000 0.032153 0.000000
# 6 0.000000 0.000000 0.000000 -0.004316 0.000000 0.021240
#
#
# Mechanical properties :
#
#
# Convention : Reuss Voigt Hill
#
# Bulk Modulus (GPa) = 35.78237 50.68166 43.23202
# Shear Modulus (GPa) = 36.23997 40.66876 38.45437
#
# Velocity S-wave (km/s) = 3.97573 4.21166 4.09540
# Velocity P-wave (km/s) = 6.05657 6.76433 6.42021
#
# Compressibility (1/GPa) = 0.02794672
#
# Stress axis : x y z
#
# Youngs Moduli (GPa) = 83.32237 81.54545 65.08586
#
# Poissons Ratio (x) = 0.14166 0.10126
# Poissons Ratio (y) = 0.14474 0.16585
# Poissons Ratio (z) = 0.12964 0.20779
#
# Static dielectric constant tensor:
#      x y z
#    x 1.864510 0.000000 0.004440 
#    y 0.000000 1.946060 0.000000 
#    z 0.004440 0.000000 1.864240 
# 
# From -- ./inp_files/58533.got.cif
#   From: 2010.05.17/outbox.cif.g08.bks.cpg/sg14_30_cif.got.tgz:58533.got - 2010.06.03 17:49:19.
