data_PCOD9241151
_publ_section_title
;
Structure prediction by ZEFSAII (Michael W. Deem and Ramdas Pophale) SiO2 
 PCOD9241151
Probable space group: P 21/C
;
_chemical_formula_sum "Si O2"
_cell_formula_units_Z 28
_cell_length_a 9.373606
_cell_length_b 8.610562
_cell_length_c 23.379170
_cell_angle_alpha 90.000000
_cell_angle_beta 143.752304
_cell_angle_gamma 90.000000
_cell_volume 1115.728248
_symmetry_space_group_name_H-M "P 21/C"
_symmetry_group_IT_number 14
_symmetry_cell_setting 'monoclinic'
loop_
_space_group_symop_operation_xyz
x,y,z
-x,1/2+y,1/2-z
-x,-y,-z
x,1/2-y,1/2+z
loop_
_atom_site_type_symbol
_atom_site_label
_atom_site_fract_x
_atom_site_fract_y
_atom_site_fract_z
Si Si1 0.653060 0.274932 0.446227
Si Si2 0.182306 0.058854 0.942547
Si Si3 0.670464 0.852203 0.562546
Si Si4 0.745339 0.129924 0.726352
Si Si5 0.046118 0.849182 0.799477
Si Si6 0.052193 0.084524 0.648348
Si Si7 0.727159 0.019875 0.388091
O O1 0.742845 0.452593 0.479825
O O2 0.419582 0.242664 0.410790
O O3 0.641982 0.190805 0.381239
O O4 0.862083 0.176386 0.546422
O O5 0.327577 0.217419 0.984459
O O6 0.904648 0.109992 0.836608
O O7 0.218999 0.940795 0.900287
O O8 0.500000 0.000000 0.500000
O O9 0.923317 0.935419 0.632590
O O10 0.813766 0.272121 0.707525
O O11 0.851783 0.983507 0.724878
O O12 0.466480 0.097941 0.647221
O O13 0.912510 0.711412 0.791148
O O14 0.261240 0.020946 0.675131
O O15 0.000000 0.000000 0.500000
#
# Coordination Sequence:
#
# PCOD9241151 Si02
#       7
#     4   4   4   4   4   4   4
#     4   9  18  36  62  86 126 168 215 271 314 385
#     4   9  21  36  58  96 125 163 220 276 332 381
#     4  10  19  34  62  90 123 163 214 264 323 388
#     4  10  22  40  61  94 126 171 219 279 331 397
#     4   9  21  37  62  86 125 161 228 275 327 387
#     4   9  19  37  56  91 120 172 209 257 324 392
#     4  10  21  38  65  93 131 176 217 262 334 402
#
# _framework density 25.095714999999998
#
# number of rings (size 3 to 8) (size 9 to 14) (size 15 to 20)
#    0.857    1.714    0.000    1.286    4.000    3.429 
#    2.571    0.714    0.000    3.429    0.000    3.000 
#    0.000    0.000    0.000    0.000    0.000    0.000 
#
# Total GULP energy -156020.095029 kJ/mol
# GULP energy per Si atom -5572.146251 kJ/mol
# Density = 2.503860 g / cm^3
# Si number density = 25.095715 Si / 1000 Ang^3
#
#
#
# Elastic Constant Matrix: (Units=GPa)
#
#
# Indices 1 2 3 4 5 6 
#
# 1 134.5602 52.4709 37.5236 0.0000 22.2087 0.0000
# 2 52.4709 149.9249 36.9041 0.0000 3.1582 0.0000
# 3 37.5236 36.9041 71.6923 0.0000 12.4413 0.0000
# 4 0.0000 0.0000 0.0000 33.3830 0.0000 -11.2407
# 5 22.2087 3.1582 12.4413 0.0000 31.6771 0.0000
# 6 0.0000 0.0000 0.0000 -11.2407 0.0000 27.0823
#
#
#
# Elastic Compliance Matrix: (Units=1/GPa)
#
#
# Indices 1 2 3 4 5 6 
#
# 1 0.010282 -0.002747 -0.002966 0.000000 -0.005770 0.000000
# 2 -0.002747 0.008392 -0.003296 0.000000 0.002384 0.000000
# 3 -0.002966 -0.003296 0.018007 0.000000 -0.004664 0.000000
# 4 0.000000 0.000000 0.000000 0.034822 0.000000 0.014453
# 5 -0.005770 0.002384 -0.004664 0.000000 0.037208 0.000000
# 6 0.000000 0.000000 0.000000 0.014453 0.000000 0.042923
#
#
# Mechanical properties :
#
#
# Convention : Reuss Voigt Hill
#
# Bulk Modulus (GPa) = 53.58130 67.77495 60.67812
# Shear Modulus (GPa) = 28.42927 33.71373 31.07150
#
# Velocity S-wave (km/s) = 3.36941 3.66923 3.52251
# Velocity P-wave (km/s) = 6.04437 6.70941 6.38555
#
# Compressibility (1/GPa) = 0.01866323
#
# Stress axis : x y z
#
# Youngs Moduli (GPa) = 97.25473 119.15444 55.53347
#
# Poissons Ratio (x) = 0.32730 0.16474
# Poissons Ratio (y) = 0.26715 0.18304
# Poissons Ratio (z) = 0.28850 0.39274
#
# Static dielectric constant tensor:
#      x y z
#    x 2.056520 0.000000 -0.078300 
#    y 0.000000 1.985610 0.000000 
#    z -0.078300 0.000000 2.166930 
# 
# From -- ./inp_files/79488.got.cif
#   From: 2010.05.17/outbox.cif.g08.bks.cpg/sg14_40_cif.got.tgz:79488.got - 2010.06.03 17:49:19.
