data_PCOD9241479
_publ_section_title
;
Structure prediction by ZEFSAII (Michael W. Deem and Ramdas Pophale) SiO2 
 PCOD9241479
Probable space group: P 21/C
;
_chemical_formula_sum "Si O2"
_cell_formula_units_Z 28
_cell_length_a 30.494578
_cell_length_b 12.166087
_cell_length_c 23.818020
_cell_angle_alpha 90.000000
_cell_angle_beta 9.014388
_cell_angle_gamma 90.000000
_cell_volume 1384.521346
_symmetry_space_group_name_H-M "P 21/C"
_symmetry_group_IT_number 14
_symmetry_cell_setting 'monoclinic'
loop_
_space_group_symop_operation_xyz
x,y,z
-x,1/2+y,1/2-z
-x,-y,-z
x,1/2-y,1/2+z
loop_
_atom_site_type_symbol
_atom_site_label
_atom_site_fract_x
_atom_site_fract_y
_atom_site_fract_z
Si Si1 0.695785 0.232891 0.806468
Si Si2 0.608367 0.742414 0.695495
Si Si3 0.395671 0.558478 0.894942
Si Si4 0.247779 0.081731 0.335636
Si Si5 0.914791 0.526106 0.170096
Si Si6 0.208261 0.488423 0.507304
Si Si7 0.946655 0.418201 0.412545
O O1 0.930635 0.137249 0.503586
O O2 0.790315 0.341802 0.655291
O O3 0.620192 0.235903 0.967671
O O4 0.403488 0.194219 0.149166
O O5 0.445022 0.683812 0.850966
O O6 0.803473 0.644441 0.474836
O O7 0.803891 0.841017 0.428267
O O8 0.592164 0.538709 0.592517
O O9 0.535893 0.493413 0.771357
O O10 0.092939 0.517145 0.261327
O O11 0.073242 0.038240 0.609481
O O12 0.031141 0.074691 0.559373
O O13 0.500000 0.000000 0.000000
O O14 0.000000 0.500000 0.000000
O O15 0.229347 0.536421 0.418093
#
# Coordination Sequence:
#
# PCOD9241479 Si02
#       7
#     4   4   4   4   4   4   4
#     4  11  21  36  65  87 120 167 200 249 314 361
#     4  10  21  42  58  92 127 155 208 251 302 375
#     4   9  22  41  58  91 127 157 208 252 302 370
#     4   9  17  34  58  86 116 153 206 252 296 349
#     4  10  19  36  58  92 120 154 211 261 299 353
#     4   9  21  41  60  86 125 163 199 253 304 363
#     4  12  21  42  66  86 128 166 197 262 309 357
#
# _framework density 20.223595
#
# number of rings (size 3 to 8) (size 9 to 14) (size 15 to 20)
#    0.857    1.143    2.857    1.714    2.000    1.143 
#    5.143    1.429    0.000    0.000    0.000    0.000 
#    0.000    0.000    0.000    0.000    0.000    0.000 
#
# Total GULP energy -155930.939615 kJ/mol
# GULP energy per Si atom -5568.962129 kJ/mol
# Density = 2.017757 g / cm^3
# Si number density = 20.223595 Si / 1000 Ang^3
#
#
#
# Elastic Constant Matrix: (Units=GPa)
#
#
# Indices 1 2 3 4 5 6 
#
# 1 63.3492 4.0382 -3.8860 0.0000 0.5065 0.0000
# 2 4.0382 33.6372 -4.7475 0.0000 -6.1810 0.0000
# 3 -3.8860 -4.7475 27.8864 0.0000 8.1021 0.0000
# 4 0.0000 0.0000 0.0000 35.5762 0.0000 -0.3376
# 5 0.5065 -6.1810 8.1021 0.0000 15.3548 0.0000
# 6 0.0000 0.0000 0.0000 -0.3376 0.0000 34.2732
#
#
#
# Elastic Compliance Matrix: (Units=1/GPa)
#
#
# Indices 1 2 3 4 5 6 
#
# 1 0.016105 -0.002064 0.002703 0.000000 -0.002789 0.000000
# 2 -0.002064 0.032465 0.001680 0.000000 0.012250 0.000000
# 3 0.002703 0.001680 0.042934 0.000000 -0.022067 0.000000
# 4 0.000000 0.000000 0.000000 0.028111 0.000000 0.000277
# 5 -0.002789 0.012250 -0.022067 0.000000 0.081794 0.000000
# 6 0.000000 0.000000 0.000000 0.000277 0.000000 0.029180
#
#
# Mechanical properties :
#
#
# Convention : Reuss Voigt Hill
#
# Bulk Modulus (GPa) = 10.40134 12.85359 11.62746
# Shear Modulus (GPa) = 19.37993 25.67202 22.52598
#
# Velocity S-wave (km/s) = 3.09897 3.56674 3.34105
# Velocity P-wave (km/s) = 4.23783 4.83029 4.54373
#
# Compressibility (1/GPa) = 0.09614148
#
# Stress axis : x y z
#
# Youngs Moduli (GPa) = 62.09165 30.80238 23.29166
#
# Poissons Ratio (x) = 0.06359 -0.06296
# Poissons Ratio (y) = 0.12818 -0.03913
# Poissons Ratio (z) = -0.16783 -0.05175
#
# Static dielectric constant tensor:
#      x y z
#    x 1.771000 0.000000 0.031870 
#    y 0.000000 1.753990 0.000000 
#    z 0.031870 0.000000 1.810260 
# 
# From -- ./inp_files/75309.got.cif
#   From: 2010.05.17/outbox.cif.g08.bks.cpg/sg14_38_cif.got.tgz:75309.got - 2010.06.03 17:49:19.
