data_PCOD9241693
_publ_section_title
;
Structure prediction by ZEFSAII (Michael W. Deem and Ramdas Pophale) SiO2 
 PCOD9241693
Probable space group: P 21/C
;
_chemical_formula_sum "Si O2"
_cell_formula_units_Z 28
_cell_length_a 7.112910
_cell_length_b 7.992635
_cell_length_c 26.489445
_cell_angle_alpha 90.000000
_cell_angle_beta 125.343564
_cell_angle_gamma 90.000000
_cell_volume 1228.399256
_symmetry_space_group_name_H-M "P 21/C"
_symmetry_group_IT_number 14
_symmetry_cell_setting 'monoclinic'
loop_
_space_group_symop_operation_xyz
x,y,z
-x,1/2+y,1/2-z
-x,-y,-z
x,1/2-y,1/2+z
loop_
_atom_site_type_symbol
_atom_site_label
_atom_site_fract_x
_atom_site_fract_y
_atom_site_fract_z
Si Si1 0.010933 0.550936 0.585177
Si Si2 0.090133 0.483168 0.206810
Si Si3 0.625753 0.025482 0.105163
Si Si4 0.743870 0.271977 0.209634
Si Si5 0.478364 0.815045 0.171968
Si Si6 0.160795 0.271670 0.530076
Si Si7 0.278660 0.448726 0.134380
O O1 0.794944 0.525143 0.587311
O O2 0.976808 0.712063 0.543311
O O3 0.252223 0.576591 0.650909
O O4 0.038590 0.392223 0.552368
O O5 0.143515 0.677846 0.225774
O O6 0.306690 0.374885 0.261375
O O7 0.079665 0.445039 0.145795
O O8 0.875366 0.430042 0.207515
O O9 0.535424 0.868270 0.123209
O O10 0.760493 0.137199 0.167055
O O11 0.406034 0.138469 0.056239
O O12 0.476911 0.311111 0.176867
O O13 0.409491 0.623111 0.162512
O O14 0.199888 0.099161 0.565721
#
# Coordination Sequence:
#
# PCOD9241693 Si02
#       7
#     4   4   4   4   4   4   4
#     4  10  19  37  59  80 110 146 182 228 273 316
#     4  11  22  38  58  81 111 145 180 227 275 323
#     4   9  19  37  57  81 110 143 182 228 272 320
#     4  10  22  35  55  81 106 141 185 223 271 332
#     4  10  23  35  54  84 111 143 185 220 269 336
#     4   9  20  36  59  85 107 142 190 224 268 332
#     4  11  22  38  55  81 114 144 180 227 274 323
#
# _framework density 22.793892
#
# number of rings (size 3 to 8) (size 9 to 14) (size 15 to 20)
#    0.000    2.000    0.000    3.857    0.000    7.429 
#    0.000    0.714    0.000    0.000    0.000    0.000 
#    0.000    0.000    0.000    0.000    0.000    0.000 
#
# Total GULP energy -156497.148969 kJ/mol
# GULP energy per Si atom -5589.183892 kJ/mol
# Density = 2.274201 g / cm^3
# Si number density = 22.793892 Si / 1000 Ang^3
#
#
#
# Elastic Constant Matrix: (Units=GPa)
#
#
# Indices 1 2 3 4 5 6 
#
# 1 139.7975 13.4915 12.4284 0.0000 -10.0732 0.0000
# 2 13.4915 55.8923 -16.5655 0.0000 -11.0626 0.0000
# 3 12.4284 -16.5655 33.5225 0.0000 1.5768 0.0000
# 4 0.0000 0.0000 0.0000 25.4251 0.0000 2.8422
# 5 -10.0732 -11.0626 1.5768 0.0000 18.5469 0.0000
# 6 0.0000 0.0000 0.0000 2.8422 0.0000 26.0512
#
#
#
# Elastic Compliance Matrix: (Units=1/GPa)
#
#
# Indices 1 2 3 4 5 6 
#
# 1 0.008028 -0.002620 -0.004420 0.000000 0.003173 0.000000
# 2 -0.002620 0.024675 0.012590 0.000000 0.012225 0.000000
# 3 -0.004420 0.012590 0.037601 0.000000 0.001912 0.000000
# 4 0.000000 0.000000 0.000000 0.039817 0.000000 -0.004344
# 5 0.003173 0.012225 0.001912 0.000000 0.062770 0.000000
# 6 0.000000 0.000000 0.000000 -0.004344 0.000000 0.038860
#
#
# Mechanical properties :
#
#
# Convention : Reuss Voigt Hill
#
# Bulk Modulus (GPa) = 12.28460 27.54679 19.91569
# Shear Modulus (GPa) = 21.95059 28.66183 25.30621
#
# Velocity S-wave (km/s) = 3.10660 3.54988 3.33561
# Velocity P-wave (km/s) = 4.27423 5.37714 4.85709
#
# Compressibility (1/GPa) = 0.08140273
#
# Stress axis : x y z
#
# Youngs Moduli (GPa) = 124.56995 40.52718 26.59525
#
# Poissons Ratio (x) = 0.10617 0.11755
# Poissons Ratio (y) = 0.32633 -0.33482
# Poissons Ratio (z) = 0.55060 -0.51022
#
# Static dielectric constant tensor:
#      x y z
#    x 1.834180 0.000000 -0.015890 
#    y 0.000000 1.874790 0.000000 
#    z -0.015890 0.000000 1.901240 
# 
# From -- ./inp_files/75648.got.cif
#   From: 2010.05.17/outbox.cif.g08.bks.cpg/sg14_38_cif.got.tgz:75648.got - 2010.06.03 17:49:19.
