data_PCOD9241161
_publ_section_title
;
Structure prediction by ZEFSAII (Michael W. Deem and Ramdas Pophale) SiO2 
 PCOD9241161
Probable space group: P 21/C
;
_chemical_formula_sum "Si O2"
_cell_formula_units_Z 24
_cell_length_a 19.140557
_cell_length_b 13.327887
_cell_length_c 10.033990
_cell_angle_alpha 90.000000
_cell_angle_beta 30.006126
_cell_angle_gamma 90.000000
_cell_volume 1280.088390
_symmetry_space_group_name_H-M "P 21/C"
_symmetry_group_IT_number 14
_symmetry_cell_setting 'monoclinic'
loop_
_space_group_symop_operation_xyz
x,y,z
-x,1/2+y,1/2-z
-x,-y,-z
x,1/2-y,1/2+z
loop_
_atom_site_type_symbol
_atom_site_label
_atom_site_fract_x
_atom_site_fract_y
_atom_site_fract_z
Si Si1 0.538293 0.753862 0.427014
Si Si2 0.156399 0.540505 0.757202
Si Si3 0.346297 0.456482 0.225930
Si Si4 0.338857 0.768226 0.005252
Si Si5 0.350992 0.965406 0.435455
Si Si6 0.335079 0.051634 0.183224
O O1 0.640745 0.846333 0.232317
O O2 0.437831 0.721387 0.471847
O O3 0.631956 0.662509 0.321240
O O4 0.436630 0.787142 0.715297
O O5 0.233571 0.520923 0.490212
O O6 0.209333 0.653270 0.714435
O O7 0.222319 0.467475 0.758674
O O8 0.000000 0.500000 0.000000
O O9 0.318001 0.463184 0.114640
O O10 0.500000 0.500000 0.000000
O O11 0.310148 0.648303 0.043187
O O12 0.293405 0.990585 0.384648
O O13 0.517211 0.977116 0.130846
#
# Coordination Sequence:
#
# PCOD9241161 Si02
#       6
#     4   4   4   4   4   4
#     4  11  20  32  65  92 116 146 202 255 297 349
#     4  12  25  40  56  82 125 163 197 244 307 365
#     4  12  19  38  61  92 114 152 202 247 292 352
#     4  11  19  34  57  90 112 154 197 244 305 348
#     4  10  19  34  65  91 117 144 204 259 287 349
#     4  10  20  36  56  93 121 147 190 257 305 338
#
# _framework density 18.748705999999999
#
# number of rings (size 3 to 8) (size 9 to 14) (size 15 to 20)
#    0.000    1.000    5.000    5.000    0.000    0.000 
#    0.000    5.833    0.000    0.000    0.000    0.000 
#    0.000    0.000    0.000    0.000    0.000    0.000 
#
# Total GULP energy -133779.141420 kJ/mol
# GULP energy per Si atom -5574.130893 kJ/mol
# Density = 1.870603 g / cm^3
# Si number density = 18.748706 Si / 1000 Ang^3
#
#
#
# Elastic Constant Matrix: (Units=GPa)
#
#
# Indices 1 2 3 4 5 6 
#
# 1 119.5356 35.4644 45.5258 0.0000 18.7289 0.0000
# 2 35.4644 114.1717 22.7349 0.0000 -7.0325 0.0000
# 3 45.5258 22.7349 64.6695 0.0000 6.2520 0.0000
# 4 0.0000 0.0000 0.0000 20.2659 0.0000 6.3332
# 5 18.7289 -7.0325 6.2520 0.0000 20.3561 0.0000
# 6 0.0000 0.0000 0.0000 6.3332 0.0000 24.2628
#
#
#
# Elastic Compliance Matrix: (Units=1/GPa)
#
#
# Indices 1 2 3 4 5 6 
#
# 1 0.014209 -0.003648 -0.007559 0.000000 -0.012012 0.000000
# 2 -0.003648 0.010754 -0.001954 0.000000 0.007672 0.000000
# 3 -0.007559 -0.001954 0.021503 0.000000 -0.000324 0.000000
# 4 0.000000 0.000000 0.000000 0.053727 0.000000 -0.014024
# 5 -0.012012 0.007672 -0.000324 0.000000 0.062927 0.000000
# 6 0.000000 0.000000 0.000000 -0.014024 0.000000 0.044876
#
#
# Mechanical properties :
#
#
# Convention : Reuss Voigt Hill
#
# Bulk Modulus (GPa) = 49.64451 56.20299 52.92375
# Shear Modulus (GPa) = 20.74414 25.95374 23.34894
#
# Velocity S-wave (km/s) = 3.32991 3.72465 3.53280
# Velocity P-wave (km/s) = 6.42813 6.96702 6.70299
#
# Compressibility (1/GPa) = 0.02014322
#
# Stress axis : x y z
#
# Youngs Moduli (GPa) = 70.37783 92.99203 46.50554
#
# Poissons Ratio (x) = 0.33927 0.35153
# Poissons Ratio (y) = 0.25676 0.09086
# Poissons Ratio (z) = 0.53198 0.18169
#
# Static dielectric constant tensor:
#      x y z
#    x 1.675770 0.000000 0.021370 
#    y 0.000000 1.765490 0.000000 
#    z 0.021370 0.000000 1.642130 
# 
# From -- ./inp_files/17960.got.cif
#   From: 2010.05.17/outbox.cif.g08.bks.cpg/sg14_9_cif.got.tgz:17960.got - 2010.06.03 17:49:19.
