data_PCOD9241287
_publ_section_title
;
Structure prediction by ZEFSAII (Michael W. Deem and Ramdas Pophale) SiO2 
 PCOD9241287
Probable space group: P 21/C
;
_chemical_formula_sum "Si O2"
_cell_formula_units_Z 24
_cell_length_a 12.839783
_cell_length_b 7.891529
_cell_length_c 8.931495
_cell_angle_alpha 90.000000
_cell_angle_beta 67.223293
_cell_angle_gamma 90.000000
_cell_volume 834.417938
_symmetry_space_group_name_H-M "P 21/C"
_symmetry_group_IT_number 14
_symmetry_cell_setting 'monoclinic'
loop_
_space_group_symop_operation_xyz
x,y,z
-x,1/2+y,1/2-z
-x,-y,-z
x,1/2-y,1/2+z
loop_
_atom_site_type_symbol
_atom_site_label
_atom_site_fract_x
_atom_site_fract_y
_atom_site_fract_z
Si Si1 0.420867 0.122999 0.655707
Si Si2 0.617590 0.385146 0.269099
Si Si3 0.885328 0.297001 0.793818
Si Si4 0.298822 0.898201 0.961283
Si Si5 0.252141 0.374795 0.001586
Si Si6 0.031359 0.199745 0.468795
O O1 0.513362 0.179819 0.727391
O O2 0.500000 0.000000 0.500000
O O3 0.334259 0.202596 0.582411
O O4 0.336591 0.039220 0.824749
O O5 0.609147 0.384115 0.452241
O O6 0.708094 0.252652 0.156443
O O7 0.663030 0.558449 0.174983
O O8 0.811921 0.129661 0.875494
O O9 0.811878 0.461119 0.884952
O O10 0.934179 0.308283 0.602152
O O11 0.005377 0.268563 0.811589
O O12 0.153400 0.276286 0.971031
O O13 0.000000 0.000000 0.500000
#
# Coordination Sequence:
#
# PCOD9241287 Si02
#       6
#     4   4   4   4   4   4
#     4  10  20  35  55  80 110 141 179 225 277 333
#     4  10  20  34  57  83 108 144 185 230 278 333
#     4  10  19  35  59  83 107 147 193 231 277 336
#     4  11  19  35  58  82 106 140 185 229 273 334
#     4   9  19  37  56  80 114 149 186 236 283 333
#     4  10  20  36  57  82 113 145 188 241 280 327
#
# _framework density 28.762564999999999
#
# number of rings (size 3 to 8) (size 9 to 14) (size 15 to 20)
#    0.000    2.000    0.000    7.500    0.000    0.000 
#    0.000   14.167    0.000    0.000    0.000    0.000 
#    0.000    0.000    0.000    0.000    0.000    0.000 
#
# Total GULP energy -133907.975322 kJ/mol
# GULP energy per Si atom -5579.498972 kJ/mol
# Density = 2.869710 g / cm^3
# Si number density = 28.762565 Si / 1000 Ang^3
#
#
#
# Elastic Constant Matrix: (Units=GPa)
#
#
# Indices 1 2 3 4 5 6 
#
# 1 220.7457 14.7071 49.1348 0.0000 33.1950 0.0000
# 2 14.7071 40.4298 40.3715 0.0000 -10.6774 0.0000
# 3 49.1348 40.3715 167.2267 0.0000 29.2852 0.0000
# 4 0.0000 0.0000 0.0000 46.9912 0.0000 -3.9179
# 5 33.1950 -10.6774 29.2852 0.0000 57.6734 0.0000
# 6 0.0000 0.0000 0.0000 -3.9179 0.0000 29.2131
#
#
#
# Elastic Compliance Matrix: (Units=1/GPa)
#
#
# Indices 1 2 3 4 5 6 
#
# 1 0.005270 -0.002380 -0.000401 0.000000 -0.003270 0.000000
# 2 -0.002380 0.041579 -0.011993 0.000000 0.015157 0.000000
# 3 -0.000401 -0.011993 0.010253 0.000000 -0.007196 0.000000
# 4 0.000000 0.000000 0.000000 0.021521 0.000000 0.002886
# 5 -0.003270 0.015157 -0.007196 0.000000 0.025681 0.000000
# 6 0.000000 0.000000 0.000000 0.002886 0.000000 0.034618
#
#
# Mechanical properties :
#
#
# Convention : Reuss Voigt Hill
#
# Bulk Modulus (GPa) = 36.29307 70.75880 53.52594
# Shear Modulus (GPa) = 28.14446 48.38813 38.26630
#
# Velocity S-wave (km/s) = 3.13151 4.10607 3.65145
# Velocity P-wave (km/s) = 5.07156 6.86543 6.03551
#
# Compressibility (1/GPa) = 0.02755347
#
# Stress axis : x y z
#
# Youngs Moduli (GPa) = 189.76473 24.05078 97.53033
#
# Poissons Ratio (x) = 0.05724 0.03912
# Poissons Ratio (y) = 0.45164 1.16967
# Poissons Ratio (z) = 0.07612 0.28844
#
# Static dielectric constant tensor:
#      x y z
#    x 2.291650 0.000000 -0.012980 
#    y 0.000000 2.599600 0.000000 
#    z -0.012980 0.000000 2.118130 
# 
# From -- ./inp_files/15294.got.cif
#   From: 2010.05.17/outbox.cif.g08.bks.cpg/sg14_8_cif.got.tgz:15294.got - 2010.06.03 17:49:19.
