data_PCOD9241232
_publ_section_title
;
Structure prediction by ZEFSAII (Michael W. Deem and Ramdas Pophale) SiO2 
 PCOD9241232
Probable space group: P 21/C
;
_chemical_formula_sum "Si O2"
_cell_formula_units_Z 24
_cell_length_a 15.621172
_cell_length_b 13.475125
_cell_length_c 8.965955
_cell_angle_alpha 90.000000
_cell_angle_beta 140.586747
_cell_angle_gamma 90.000000
_cell_volume 1198.269807
_symmetry_space_group_name_H-M "P 21/C"
_symmetry_group_IT_number 14
_symmetry_cell_setting 'monoclinic'
loop_
_space_group_symop_operation_xyz
x,y,z
-x,1/2+y,1/2-z
-x,-y,-z
x,1/2-y,1/2+z
loop_
_atom_site_type_symbol
_atom_site_label
_atom_site_fract_x
_atom_site_fract_y
_atom_site_fract_z
Si Si1 0.520016 0.009832 0.201064
Si Si2 0.182137 0.290570 0.960715
Si Si3 0.620687 0.706072 0.524329
Si Si4 0.221408 0.554055 0.774622
Si Si5 0.440486 0.604139 0.852197
Si Si6 0.952114 0.870194 0.006120
O O1 0.476481 0.123086 0.172632
O O2 0.669993 0.001745 0.470104
O O3 0.427940 0.929836 0.163356
O O4 0.500000 0.000000 0.000000
O O5 0.084796 0.349128 0.717716
O O6 0.282500 0.239620 0.977928
O O7 0.283239 0.339087 0.217286
O O8 0.097771 0.214138 0.948842
O O9 0.538855 0.800700 0.480198
O O10 0.305430 0.617109 0.766452
O O11 0.135267 0.468387 0.576598
O O12 0.111488 0.612911 0.722424
O O13 0.500000 0.500000 0.000000
#
# Coordination Sequence:
#
# PCOD9241232 Si02
#       6
#     4   4   4   4   4   4
#     4  11  21  34  56  86 113 138 181 240 284 321
#     4  10  19  35  57  79 104 142 188 220 271 328
#     4  11  20  34  57  82 109 141 184 235 279 330
#     4  10  21  38  55  77 112 149 184 217 280 340
#     4  10  20  36  57  80 111 149 183 227 283 334
#     4  10  21  37  57  77 107 150 185 224 265 337
#
# _framework density 20.028879
#
# number of rings (size 3 to 8) (size 9 to 14) (size 15 to 20)
#    0.000    1.667    0.000    9.000    0.000    1.333 
#    0.000    3.333    0.000   12.000    0.000    0.000 
#    0.000    0.000    0.000    0.000    0.000    0.000 
#
# Total GULP energy -133758.898347 kJ/mol
# GULP energy per Si atom -5573.287431 kJ/mol
# Density = 1.998329 g / cm^3
# Si number density = 20.028879 Si / 1000 Ang^3
#
#
#
# Elastic Constant Matrix: (Units=GPa)
#
#
# Indices 1 2 3 4 5 6 
#
# 1 114.8695 10.8192 50.6249 0.0000 13.3282 0.0000
# 2 10.8192 50.6915 3.8986 0.0000 17.3224 0.0000
# 3 50.6249 3.8986 54.8141 0.0000 1.9535 0.0000
# 4 0.0000 0.0000 0.0000 25.3700 0.0000 1.9612
# 5 13.3282 17.3224 1.9535 0.0000 38.0635 0.0000
# 6 0.0000 0.0000 0.0000 1.9612 0.0000 26.1104
#
#
#
# Elastic Compliance Matrix: (Units=1/GPa)
#
#
# Indices 1 2 3 4 5 6 
#
# 1 0.015498 -0.000729 -0.014106 0.000000 -0.004371 0.000000
# 2 -0.000729 0.023485 -0.000626 0.000000 -0.010400 0.000000
# 3 -0.014106 -0.000626 0.031187 0.000000 0.003624 0.000000
# 4 0.000000 0.000000 0.000000 0.039647 0.000000 -0.002978
# 5 -0.004371 -0.010400 0.003624 0.000000 0.032349 0.000000
# 6 0.000000 0.000000 0.000000 -0.002978 0.000000 0.038523
#
#
# Mechanical properties :
#
#
# Convention : Reuss Voigt Hill
#
# Bulk Modulus (GPa) = 25.47962 39.00673 32.24317
# Shear Modulus (GPa) = 22.25244 28.24427 25.24836
#
# Velocity S-wave (km/s) = 3.33681 3.75931 3.55434
# Velocity P-wave (km/s) = 5.25307 6.19360 5.74263
#
# Compressibility (1/GPa) = 0.03924706
#
# Stress axis : x y z
#
# Youngs Moduli (GPa) = 64.52381 42.58036 32.06473
#
# Poissons Ratio (x) = 0.03105 0.45231
# Poissons Ratio (y) = 0.04706 0.02008
# Poissons Ratio (z) = 0.91018 0.02666
#
# Static dielectric constant tensor:
#      x y z
#    x 1.759080 0.000000 -0.010710 
#    y 0.000000 1.773920 0.000000 
#    z -0.010710 0.000000 1.749650 
# 
# From -- ./inp_files/8514.got.cif
#   From: 2010.05.17/outbox.cif.g08.bks.cpg/sg14_5_cif.got.tgz:8514.got - 2010.06.03 17:49:19.
