data_PCOD9241783
_publ_section_title
;
Structure prediction by ZEFSAII (Michael W. Deem and Ramdas Pophale) SiO2 
 PCOD9241783
Probable space group: P 21/C
;
_chemical_formula_sum "Si O2"
_cell_formula_units_Z 28
_cell_length_a 8.953432
_cell_length_b 8.273246
_cell_length_c 19.291048
_cell_angle_alpha 90.000000
_cell_angle_beta 43.445701
_cell_angle_gamma 90.000000
_cell_volume 982.651173
_symmetry_space_group_name_H-M "P 21/C"
_symmetry_group_IT_number 14
_symmetry_cell_setting 'monoclinic'
loop_
_space_group_symop_operation_xyz
x,y,z
-x,1/2+y,1/2-z
-x,-y,-z
x,1/2-y,1/2+z
loop_
_atom_site_type_symbol
_atom_site_label
_atom_site_fract_x
_atom_site_fract_y
_atom_site_fract_z
Si Si1 0.705664 0.683123 0.496188
Si Si2 0.983733 0.957987 0.161340
Si Si3 0.868073 0.736340 0.076224
Si Si4 0.469726 0.848093 0.882288
Si Si5 0.353371 0.690444 0.264273
Si Si6 0.899860 0.510397 0.184031
Si Si7 0.297485 0.826215 0.573822
O O1 0.852697 0.609632 0.385775
O O2 0.885855 0.743806 0.489064
O O3 0.592203 0.519772 0.562696
O O4 0.514846 0.806973 0.544548
O O5 0.743713 0.035933 0.244179
O O6 0.123539 0.817133 0.150501
O O7 0.964911 0.882338 0.089075
O O8 0.606202 0.725703 0.168031
O O9 0.943893 0.580511 0.092170
O O10 0.347983 0.829776 0.849701
O O11 0.724297 0.863347 0.776232
O O12 0.391725 0.715965 0.964811
O O13 0.225839 0.845332 0.280002
O O14 0.139621 0.519892 0.136083
#
# Coordination Sequence:
#
# PCOD9241783 Si02
#       7
#     4   4   4   4   4   4   4
#     4  11  20  41  63  91 117 165 218 258 294 382
#     4  10  20  36  66  88 111 167 211 254 303 370
#     4  10  19  37  62  91 119 157 212 260 303 374
#     4  10  20  39  66  90 123 163 217 264 306 378
#     4  11  20  36  62  96 124 153 210 270 322 362
#     4  10  22  39  64  93 127 163 205 268 331 366
#     4  10  24  41  64  90 128 170 216 251 312 392
#
# _framework density 28.494344000000002
#
# number of rings (size 3 to 8) (size 9 to 14) (size 15 to 20)
#    0.000    1.714    2.857    3.000    4.000    0.571 
#    5.143    0.714    3.143    0.000    0.000    0.000 
#    0.000    0.000    0.000    0.000    0.000    0.000 
#
# Total GULP energy -156613.882668 kJ/mol
# GULP energy per Si atom -5593.352952 kJ/mol
# Density = 2.842949 g / cm^3
# Si number density = 28.494344 Si / 1000 Ang^3
#
#
#
# Elastic Constant Matrix: (Units=GPa)
#
#
# Indices 1 2 3 4 5 6 
#
# 1 190.2265 25.6823 36.7835 0.0000 -19.2334 0.0000
# 2 25.6823 76.7619 12.7800 0.0000 -19.9620 0.0000
# 3 36.7835 12.7800 93.3281 0.0000 -22.8538 0.0000
# 4 0.0000 0.0000 0.0000 42.9202 0.0000 -21.9617
# 5 -19.2334 -19.9620 -22.8538 0.0000 62.5106 0.0000
# 6 0.0000 0.0000 0.0000 -21.9617 0.0000 32.4667
#
#
#
# Elastic Compliance Matrix: (Units=1/GPa)
#
#
# Indices 1 2 3 4 5 6 
#
# 1 0.005901 -0.001485 -0.001970 0.000000 0.000621 0.000000
# 2 -0.001485 0.014652 -0.000425 0.000000 0.004067 0.000000
# 3 -0.001970 -0.000425 0.012486 0.000000 0.003823 0.000000
# 4 0.000000 0.000000 0.000000 0.035632 0.000000 0.024103
# 5 0.000621 0.004067 0.003823 0.000000 0.018885 0.000000
# 6 0.000000 0.000000 0.000000 0.024103 0.000000 0.047105
#
#
# Mechanical properties :
#
#
# Convention : Reuss Voigt Hill
#
# Bulk Modulus (GPa) = 39.55973 56.75646 48.15809
# Shear Modulus (GPa) = 33.14582 46.58420 39.86501
#
# Velocity S-wave (km/s) = 3.41433 4.04772 3.74445
# Velocity P-wave (km/s) = 5.42744 6.46585 5.96926
#
# Compressibility (1/GPa) = 0.02527823
#
# Stress axis : x y z
#
# Youngs Moduli (GPa) = 169.45809 68.24807 80.09084
#
# Poissons Ratio (x) = 0.10133 0.15781
# Poissons Ratio (y) = 0.25161 0.03407
# Poissons Ratio (z) = 0.33390 0.02903
#
# Static dielectric constant tensor:
#      x y z
#    x 2.247580 0.000000 0.183720 
#    y 0.000000 2.267090 0.000000 
#    z 0.183720 0.000000 2.444560 
# 
# From -- ./inp_files/64977.got.cif
#   From: 2010.05.17/outbox.cif.g08.bks.cpg/sg14_33_cif.got.tgz:64977.got - 2010.06.03 17:49:19.
