data_PCOD9241263
_publ_section_title
;
Structure prediction by ZEFSAII (Michael W. Deem and Ramdas Pophale) SiO2 
 PCOD9241263
Probable space group: P 21/C
;
_chemical_formula_sum "Si O2"
_cell_formula_units_Z 32
_cell_length_a 11.366620
_cell_length_b 16.147492
_cell_length_c 17.417336
_cell_angle_alpha 90.000000
_cell_angle_beta 145.493814
_cell_angle_gamma 90.000000
_cell_volume 1810.983078
_symmetry_space_group_name_H-M "P 21/C"
_symmetry_group_IT_number 14
_symmetry_cell_setting 'monoclinic'
loop_
_space_group_symop_operation_xyz
x,y,z
-x,1/2+y,1/2-z
-x,-y,-z
x,1/2-y,1/2+z
loop_
_atom_site_type_symbol
_atom_site_label
_atom_site_fract_x
_atom_site_fract_y
_atom_site_fract_z
Si Si1 0.348429 0.314933 0.593821
Si Si2 0.979231 0.175993 0.772197
Si Si3 0.492554 0.510789 0.367963
Si Si4 0.123515 0.148700 0.289101
Si Si5 0.151992 0.494663 0.309695
Si Si6 0.119453 0.122238 0.105524
Si Si7 0.687448 0.057442 0.827315
Si Si8 0.466117 0.840893 0.390627
O O1 0.488679 0.395706 0.653576
O O2 0.259838 0.314365 0.632314
O O3 0.469257 0.235563 0.628900
O O4 0.143517 0.324892 0.430696
O O5 0.747574 0.175435 0.680007
O O6 0.025242 0.260917 0.752077
O O7 0.027252 0.091226 0.752231
O O8 0.281390 0.496098 0.300474
O O9 0.678767 0.501418 0.530137
O O10 0.540640 0.450997 0.322491
O O11 0.131716 0.134088 0.202662
O O12 0.349219 0.146707 0.449753
O O13 0.990107 0.075170 0.255765
O O14 0.211611 0.032444 0.132650
O O15 0.879474 0.118863 0.949245
O O16 0.571626 0.084030 0.688104
#
# Coordination Sequence:
#
# PCOD9241263 Si02
#       8
#     4   4   4   4   4   4   4   4
#     4   9  19  36  56  79 111 148 190 235 272 342
#     4  10  21  37  55  81 115 152 189 229 286 353
#     4   9  18  34  60  84 103 151 199 229 280 338
#     4  11  23  37  58  88 116 149 189 243 290 338
#     4  10  19  35  58  83 117 147 190 243 279 331
#     4  10  19  37  58  83 111 145 198 235 275 339
#     4  10  19  35  62  82 107 152 195 231 279 351
#     4  11  22  37  57  83 119 152 183 233 301 339
#
# _framework density 17.669961000000001
#
# number of rings (size 3 to 8) (size 9 to 14) (size 15 to 20)
#    0.000    2.000    2.500    1.500    0.000    4.000 
#    2.250    0.625    0.000    0.000    0.000    0.000 
#    0.000    0.000    0.000    0.000    0.000    0.000 
#
# Total GULP energy -178506.974849 kJ/mol
# GULP energy per Si atom -5578.342964 kJ/mol
# Density = 1.762974 g / cm^3
# Si number density = 17.669961 Si / 1000 Ang^3
#
#
#
# Elastic Constant Matrix: (Units=GPa)
#
#
# Indices 1 2 3 4 5 6 
#
# 1 162.7294 44.3409 43.3868 0.0000 12.8625 0.0000
# 2 44.3409 69.6208 22.6639 0.0000 17.7453 0.0000
# 3 43.3868 22.6639 38.0238 0.0000 8.8187 0.0000
# 4 0.0000 0.0000 0.0000 22.1635 0.0000 -2.8517
# 5 12.8625 17.7453 8.8187 0.0000 29.4454 0.0000
# 6 0.0000 0.0000 0.0000 -2.8517 0.0000 22.8975
#
#
#
# Elastic Compliance Matrix: (Units=1/GPa)
#
#
# Indices 1 2 3 4 5 6 
#
# 1 0.009340 -0.003187 -0.008873 0.000000 0.000498 0.000000
# 2 -0.003187 0.020921 -0.006697 0.000000 -0.009210 0.000000
# 3 -0.008873 -0.006697 0.041461 0.000000 -0.004505 0.000000
# 4 0.000000 0.000000 0.000000 0.045854 0.000000 0.005711
# 5 0.000498 -0.009210 -0.004505 0.000000 0.040643 0.000000
# 6 0.000000 0.000000 0.000000 0.005711 0.000000 0.044384
#
#
# Mechanical properties :
#
#
# Convention : Reuss Voigt Hill
#
# Bulk Modulus (GPa) = 29.23410 54.57302 41.90356
# Shear Modulus (GPa) = 19.87912 25.56679 22.72295
#
# Velocity S-wave (km/s) = 3.35778 3.80795 3.58993
# Velocity P-wave (km/s) = 5.62257 7.09124 6.39918
#
# Compressibility (1/GPa) = 0.03420663
#
# Stress axis : x y z
#
# Youngs Moduli (GPa) = 107.06670 47.79894 24.11920
#
# Poissons Ratio (x) = 0.15233 0.21402
# Poissons Ratio (y) = 0.34122 0.16153
# Poissons Ratio (z) = 0.95003 0.32012
#
# Static dielectric constant tensor:
#      x y z
#    x 1.595630 0.000000 0.004820 
#    y 0.000000 1.607840 0.000000 
#    z 0.004820 0.000000 1.580460 
# 
# From -- ./inp_files/57948.got.cif
#   From: 2010.05.17/outbox.cif.g08.bks.cpg/sg14_29_cif.got.tgz:57948.got - 2010.06.03 17:49:19.
