data_PCOD9241223
_publ_section_title
;
Structure prediction by ZEFSAII (Michael W. Deem and Ramdas Pophale) SiO2 
 PCOD9241223
Probable space group: P 21/C
;
_chemical_formula_sum "Si O2"
_cell_formula_units_Z 28
_cell_length_a 16.235617
_cell_length_b 5.190381
_cell_length_c 21.487230
_cell_angle_alpha 90.000000
_cell_angle_beta 129.958766
_cell_angle_gamma 90.000000
_cell_volume 1387.920220
_symmetry_space_group_name_H-M "P 21/C"
_symmetry_group_IT_number 14
_symmetry_cell_setting 'monoclinic'
loop_
_space_group_symop_operation_xyz
x,y,z
-x,1/2+y,1/2-z
-x,-y,-z
x,1/2-y,1/2+z
loop_
_atom_site_type_symbol
_atom_site_label
_atom_site_fract_x
_atom_site_fract_y
_atom_site_fract_z
Si Si1 0.384692 0.290815 0.298769
Si Si2 0.802499 0.728451 0.003701
Si Si3 0.019417 0.746621 0.552072
Si Si4 0.645686 0.523464 0.010543
Si Si5 0.415804 0.724115 0.891997
Si Si6 0.243039 0.577410 0.143101
Si Si7 0.378483 0.650598 0.620237
O O1 0.376338 0.500287 0.350109
O O2 0.286000 0.343343 0.205003
O O3 0.493608 0.387478 0.316802
O O4 0.392187 0.006118 0.331229
O O5 0.761239 0.641673 0.051113
O O6 0.792379 0.521771 0.942524
O O7 0.711364 0.937111 0.940206
O O8 0.929085 0.786475 0.061416
O O9 0.145177 0.776206 0.628681
O O10 0.000000 0.500000 0.500000
O O11 0.000000 0.000000 0.500000
O O12 0.545719 0.722785 0.963616
O O13 0.627140 0.350276 0.940227
O O14 0.635454 0.360055 0.067743
O O15 0.341980 0.754929 0.170420
#
# Coordination Sequence:
#
# PCOD9241223 Si02
#       7
#     4   4   4   4   4   4   4
#     4  11  24  35  54  82 118 152 180 216 288 346
#     4  10  19  35  56  82 109 141 191 233 281 324
#     4  10  20  36  55  80 110 147 186 229 274 326
#     4   9  20  35  55  81 108 144 191 239 276 314
#     4  10  22  37  55  79 112 150 188 228 273 338
#     4  10  23  35  54  82 120 150 180 227 284 353
#     4  10  20  32  55  83 113 144 184 232 282 337
#
# _framework density 20.174068999999999
#
# number of rings (size 3 to 8) (size 9 to 14) (size 15 to 20)
#    0.000    2.000    2.857    0.000    6.000    1.714 
#    0.000    0.000    0.000    1.714    0.000    0.000 
#    0.000    0.000    0.000    0.000    0.000    0.000 
#
# Total GULP energy -155963.650508 kJ/mol
# GULP energy per Si atom -5570.130375 kJ/mol
# Density = 2.012815 g / cm^3
# Si number density = 20.174069 Si / 1000 Ang^3
#
#
#
# Elastic Constant Matrix: (Units=GPa)
#
#
# Indices 1 2 3 4 5 6 
#
# 1 153.4799 -0.6712 28.6375 0.0000 7.6514 0.0000
# 2 -0.6712 47.7195 -4.5000 0.0000 -0.6582 0.0000
# 3 28.6375 -4.5000 35.6532 0.0000 4.0825 0.0000
# 4 0.0000 0.0000 0.0000 21.7155 0.0000 -1.6392
# 5 7.6514 -0.6582 4.0825 0.0000 19.4061 0.0000
# 6 0.0000 0.0000 0.0000 -1.6392 0.0000 18.4427
#
#
#
# Elastic Compliance Matrix: (Units=1/GPa)
#
#
# Indices 1 2 3 4 5 6 
#
# 1 0.007735 -0.000488 -0.006070 0.000000 -0.001789 0.000000
# 2 -0.000488 0.021240 0.003042 0.000000 0.000273 0.000000
# 3 -0.006070 0.003042 0.033836 0.000000 -0.004622 0.000000
# 4 0.000000 0.000000 0.000000 0.046361 0.000000 0.004121
# 5 -0.001789 0.000273 -0.004622 0.000000 0.053217 0.000000
# 6 0.000000 0.000000 0.000000 0.004121 0.000000 0.054588
#
#
# Mechanical properties :
#
#
# Convention : Reuss Voigt Hill
#
# Bulk Modulus (GPa) = 17.92809 31.53170 24.72990
# Shear Modulus (GPa) = 20.60977 26.13860 23.37419
#
# Velocity S-wave (km/s) = 3.19971 3.60342 3.40755
# Velocity P-wave (km/s) = 4.74941 5.74253 5.26942
#
# Compressibility (1/GPa) = 0.05577839
#
# Stress axis : x y z
#
# Youngs Moduli (GPa) = 129.28028 47.08203 29.55392
#
# Poissons Ratio (x) = 0.02299 0.17939
# Poissons Ratio (y) = 0.06312 -0.08989
# Poissons Ratio (z) = 0.78470 -0.14321
#
# Static dielectric constant tensor:
#      x y z
#    x 1.785330 0.000000 0.058900 
#    y 0.000000 1.810690 0.000000 
#    z 0.058900 0.000000 1.755320 
# 
# From -- ./inp_files/67692.got.cif
#   From: 2010.05.17/outbox.cif.g08.bks.cpg/sg14_34_cif.got.tgz:67692.got - 2010.06.03 17:49:19.
