data_PCOD9241796
_publ_section_title
;
Structure prediction by ZEFSAII (Michael W. Deem and Ramdas Pophale) SiO2 
 PCOD9241796
Probable space group: P 21/C
;
_chemical_formula_sum "Si O2"
_cell_formula_units_Z 32
_cell_length_a 7.577591
_cell_length_b 21.402781
_cell_length_c 9.919761
_cell_angle_alpha 90.000000
_cell_angle_beta 85.854817
_cell_angle_gamma 90.000000
_cell_volume 1604.593443
_symmetry_space_group_name_H-M "P 21/C"
_symmetry_group_IT_number 14
_symmetry_cell_setting 'monoclinic'
loop_
_space_group_symop_operation_xyz
x,y,z
-x,1/2+y,1/2-z
-x,-y,-z
x,1/2-y,1/2+z
loop_
_atom_site_type_symbol
_atom_site_label
_atom_site_fract_x
_atom_site_fract_y
_atom_site_fract_z
Si Si1 0.352628 0.369685 0.559910
Si Si2 0.245176 0.378575 0.270469
Si Si3 0.134751 0.629021 0.571382
Si Si4 0.720676 0.127523 0.216093
Si Si5 0.407542 0.501698 0.149868
Si Si6 0.359147 0.746680 0.121153
Si Si7 0.610771 0.739507 0.857868
Si Si8 0.339608 0.501650 0.617420
O O1 0.371767 0.373693 0.396803
O O2 0.538161 0.370326 0.634420
O O3 0.282347 0.301253 0.603116
O O4 0.252408 0.433305 0.604866
O O5 0.283017 0.443182 0.192827
O O6 0.278453 0.323066 0.163648
O O7 0.053924 0.371697 0.347209
O O8 0.133276 0.630036 0.408680
O O9 0.243534 0.690393 0.614663
O O10 0.224572 0.562505 0.600224
O O11 0.740516 0.186559 0.313268
O O12 0.696891 0.064977 0.305073
O O13 0.570798 0.496231 0.243501
O O14 0.500000 0.500000 0.000000
O O15 0.520161 0.752514 0.217826
O O16 0.450794 0.732946 0.973122
O O17 0.500000 0.500000 0.500000
#
# Coordination Sequence:
#
# PCOD9241796 Si02
#       8
#     4   4   4   4   4   4   4   4
#     4  10  19  37  63  89 114 163 211 248 292 367
#     4  12  24  37  61  96 132 158 198 263 317 361
#     4  12  23  38  61  97 128 159 205 256 316 365
#     4  10  20  38  65  90 119 160 213 257 294 367
#     4  11  22  40  66  96 120 158 211 255 308 369
#     4  11  20  39  65  88 119 164 214 247 294 374
#     4  11  20  39  64  89 120 162 216 247 296 370
#     4  11  18  40  69  88 118 162 214 250 290 378
#
# _framework density 19.942748000000002
#
# number of rings (size 3 to 8) (size 9 to 14) (size 15 to 20)
#    0.000    1.000    7.500    1.500    0.000    3.000 
#    0.000    0.625    0.000    0.000    0.000    0.000 
#    0.000    0.000    0.000    0.000    0.000    0.000 
#
# Total GULP energy -178485.433671 kJ/mol
# GULP energy per Si atom -5577.669802 kJ/mol
# Density = 1.989736 g / cm^3
# Si number density = 19.942748 Si / 1000 Ang^3
#
#
#
# Elastic Constant Matrix: (Units=GPa)
#
#
# Indices 1 2 3 4 5 6 
#
# 1 51.6628 47.3189 18.7918 0.0000 -22.5285 0.0000
# 2 47.3189 226.1823 62.4890 0.0000 -27.3260 0.0000
# 3 18.7918 62.4890 98.9329 0.0000 -14.3908 0.0000
# 4 0.0000 0.0000 0.0000 41.4861 0.0000 -3.7582
# 5 -22.5285 -27.3260 -14.3908 0.0000 25.4432 0.0000
# 6 0.0000 0.0000 0.0000 -3.7582 0.0000 18.3538
#
#
#
# Elastic Compliance Matrix: (Units=1/GPa)
#
#
# Indices 1 2 3 4 5 6 
#
# 1 0.034488 -0.003997 -0.000227 0.000000 0.026116 0.000000
# 2 -0.003997 0.006261 -0.002977 0.000000 0.001501 0.000000
# 3 -0.000227 -0.002977 0.012571 0.000000 0.003712 0.000000
# 4 0.000000 0.000000 0.000000 0.024560 0.000000 0.005029
# 5 0.026116 0.001501 0.003712 0.000000 0.066139 0.000000
# 6 0.000000 0.000000 0.000000 0.005029 0.000000 0.055514
#
#
# Mechanical properties :
#
#
# Convention : Reuss Voigt Hill
#
# Bulk Modulus (GPa) = 25.69523 70.44192 48.06858
# Shear Modulus (GPa) = 22.03506 33.60184 27.81845
#
# Velocity S-wave (km/s) = 3.32763 4.10923 3.73891
# Velocity P-wave (km/s) = 5.26086 7.61006 6.54178
#
# Compressibility (1/GPa) = 0.03891772
#
# Stress axis : x y z
#
# Youngs Moduli (GPa) = 28.99527 159.70865 79.54536
#
# Poissons Ratio (x) = 0.63840 0.01808
# Poissons Ratio (y) = 0.11590 0.23682
# Poissons Ratio (z) = 0.00659 0.47549
#
# Static dielectric constant tensor:
#      x y z
#    x 1.727040 0.000000 -0.004000 
#    y 0.000000 1.777120 0.000000 
#    z -0.004000 0.000000 1.695760 
# 
# From -- ./inp_files/10205.got.cif
#   From: 2010.05.17/outbox.cif.g08.bks.cpg/sg14_6_cif.got.tgz:10205.got - 2010.06.03 17:49:19.
