data_PCOD9241704
_publ_section_title
;
Structure prediction by ZEFSAII (Michael W. Deem and Ramdas Pophale) SiO2 
 PCOD9241704
Probable space group: P 21/C
;
_chemical_formula_sum "Si O2"
_cell_formula_units_Z 32
_cell_length_a 13.938360
_cell_length_b 7.339004
_cell_length_c 23.904419
_cell_angle_alpha 90.000000
_cell_angle_beta 34.229565
_cell_angle_gamma 90.000000
_cell_volume 1375.489581
_symmetry_space_group_name_H-M "P 21/C"
_symmetry_group_IT_number 14
_symmetry_cell_setting 'monoclinic'
loop_
_space_group_symop_operation_xyz
x,y,z
-x,1/2+y,1/2-z
-x,-y,-z
x,1/2-y,1/2+z
loop_
_atom_site_type_symbol
_atom_site_label
_atom_site_fract_x
_atom_site_fract_y
_atom_site_fract_z
Si Si1 0.541374 0.547724 0.908402
Si Si2 0.074547 0.205161 0.534817
Si Si3 0.088344 0.734278 0.003367
Si Si4 0.458347 0.307086 0.853788
Si Si5 0.240413 0.292301 0.776811
Si Si6 0.096623 0.891690 0.274536
Si Si7 0.452380 0.707870 0.802005
Si Si8 0.778243 0.120267 0.381517
O O1 0.510583 0.353837 0.892021
O O2 0.663480 0.658435 0.809876
O O3 0.659386 0.523174 0.905624
O O4 0.362227 0.655908 0.002361
O O5 0.978117 0.276865 0.526980
O O6 0.268037 0.269640 0.445753
O O7 0.983396 0.234921 0.638164
O O8 0.084958 0.985474 0.517359
O O9 0.941158 0.791770 0.117103
O O10 0.283556 0.796657 0.910171
O O11 0.458333 0.507064 0.825006
O O12 0.567990 0.200282 0.755221
O O13 0.218596 0.477315 0.752073
O O14 0.367309 0.299618 0.768747
O O15 0.172451 0.779836 0.185633
O O16 0.945454 0.023090 0.324584
#
# Coordination Sequence:
#
# PCOD9241704 Si02
#       8
#     4   4   4   4   4   4   4   4
#     4  10  23  42  62  86 128 169 212 260 334 368
#     4   9  17  34  59  88 115 162 203 242 312 378
#     4   9  18  33  60  89 127 157 199 244 305 393
#     4  10  19  37  59  87 126 165 199 253 309 385
#     4  10  21  39  63  93 126 168 200 256 326 388
#     4  11  23  40  68  90 121 163 222 269 322 376
#     4  10  21  34  60  92 128 163 201 248 310 390
#     4  11  24  43  65  89 120 166 220 280 312 372
#
# _framework density 23.264444000000001
#
# number of rings (size 3 to 8) (size 9 to 14) (size 15 to 20)
#    0.000    2.000    2.500    0.750    5.250    0.500 
#    0.000    3.750    0.000    0.000    0.000    0.000 
#    0.000    0.000    0.000    0.000    0.000    0.000 
#
# Total GULP energy -178505.230675 kJ/mol
# GULP energy per Si atom -5578.288459 kJ/mol
# Density = 2.321149 g / cm^3
# Si number density = 23.264444 Si / 1000 Ang^3
#
#
#
# Elastic Constant Matrix: (Units=GPa)
#
#
# Indices 1 2 3 4 5 6 
#
# 1 95.7920 41.5969 60.4920 0.0000 12.6958 0.0000
# 2 41.5969 133.9616 154.5633 0.0000 26.4157 0.0000
# 3 60.4920 154.5633 346.0819 0.0000 48.0532 0.0000
# 4 0.0000 0.0000 0.0000 17.4554 0.0000 16.8610
# 5 12.6958 26.4157 48.0532 0.0000 43.2645 0.0000
# 6 0.0000 0.0000 0.0000 16.8610 0.0000 21.4555
#
#
#
# Elastic Compliance Matrix: (Units=1/GPa)
#
#
# Indices 1 2 3 4 5 6 
#
# 1 0.012245 -0.002668 -0.000800 0.000000 -0.001077 0.000000
# 2 -0.002668 0.016143 -0.006483 0.000000 -0.001873 0.000000
# 3 -0.000800 -0.006483 0.006317 0.000000 -0.002823 0.000000
# 4 0.000000 0.000000 0.000000 0.237812 0.000000 -0.186887
# 5 -0.001077 -0.001873 -0.002823 0.000000 0.027708 0.000000
# 6 0.000000 0.000000 0.000000 -0.186887 0.000000 0.193474
#
#
# Mechanical properties :
#
#
# Convention : Reuss Voigt Hill
#
# Bulk Modulus (GPa) = 67.54946 121.01553 94.28249
# Shear Modulus (GPa) = 9.64257 37.71397 23.67827
#
# Velocity S-wave (km/s) = 2.03808 4.03066 3.19374
# Velocity P-wave (km/s) = 5.88531 8.59022 7.36304
#
# Compressibility (1/GPa) = 0.01480397
#
# Stress axis : x y z
#
# Youngs Moduli (GPa) = 81.66446 61.94810 158.31282
#
# Poissons Ratio (x) = 0.16525 0.12657
# Poissons Ratio (y) = 0.21784 1.02636
# Poissons Ratio (z) = 0.06529 0.40162
#
# Static dielectric constant tensor:
#      x y z
#    x 2.036360 0.000000 0.111020 
#    y 0.000000 1.922650 0.000000 
#    z 0.111020 0.000000 1.978100 
# 
# From -- ./inp_files/77490.got.cif
#   From: 2010.05.17/outbox.cif.g08.bks.cpg/sg14_39_cif.got.tgz:77490.got - 2010.06.03 17:49:19.
