data_PCOD9241423
_publ_section_title
;
Structure prediction by ZEFSAII (Michael W. Deem and Ramdas Pophale) SiO2 
 PCOD9241423
Probable space group: P 21/C
;
_chemical_formula_sum "Si O2"
_cell_formula_units_Z 24
_cell_length_a 9.610799
_cell_length_b 15.356814
_cell_length_c 9.123622
_cell_angle_alpha 90.000000
_cell_angle_beta 45.968087
_cell_angle_gamma 90.000000
_cell_volume 968.117935
_symmetry_space_group_name_H-M "P 21/C"
_symmetry_group_IT_number 14
_symmetry_cell_setting 'monoclinic'
loop_
_space_group_symop_operation_xyz
x,y,z
-x,1/2+y,1/2-z
-x,-y,-z
x,1/2-y,1/2+z
loop_
_atom_site_type_symbol
_atom_site_label
_atom_site_fract_x
_atom_site_fract_y
_atom_site_fract_z
Si Si1 0.222801 0.826669 0.303556
Si Si2 0.876149 0.791323 0.002965
Si Si3 0.471671 0.741795 0.386914
Si Si4 0.006702 0.929420 0.695000
Si Si5 0.077537 0.924412 0.052107
Si Si6 0.388472 0.911692 0.611045
O O1 0.330009 0.776779 0.360846
O O2 0.089383 0.899700 0.478853
O O3 0.065449 0.766022 0.338085
O O4 0.385909 0.832510 0.057301
O O5 0.686611 0.733579 0.164428
O O6 0.940794 0.844520 0.103872
O O7 0.859770 0.860465 0.880676
O O8 0.494346 0.825946 0.479187
O O9 0.200295 0.917508 0.648254
O O10 0.937209 0.027228 0.782323
O O11 0.297503 0.907548 0.839411
O O12 0.000000 0.000000 0.000000
O O13 0.500000 0.000000 0.500000
#
# Coordination Sequence:
#
# PCOD9241423 Si02
#       6
#     4   4   4   4   4   4
#     4  11  21  37  50  83 115 139 185 218 270 332
#     4  10  19  36  55  80 111 142 179 226 273 311
#     4  11  22  33  56  81 107 149 175 220 277 321
#     4   9  18  31  51  80 112 135 175 231 269 309
#     4   8  14  29  50  77 107 130 175 234 269 296
#     4   9  14  28  49  79 104 125 178 230 263 306
#
# _framework density 24.790367
#
# number of rings (size 3 to 8) (size 9 to 14) (size 15 to 20)
#    0.000    2.667    5.000    3.000    2.333    0.000 
#    0.000    0.000    0.000    1.000    0.000    7.000 
#    0.000    0.000    0.000    0.000    0.000    0.000 
#
# Total GULP energy -133763.236467 kJ/mol
# GULP energy per Si atom -5573.468186 kJ/mol
# Density = 2.473394 g / cm^3
# Si number density = 24.790367 Si / 1000 Ang^3
#
#
#
# Elastic Constant Matrix: (Units=GPa)
#
#
# Indices 1 2 3 4 5 6 
#
# 1 60.0005 12.8539 64.0640 0.0000 28.5607 0.0000
# 2 12.8539 31.2325 17.1735 0.0000 14.1705 0.0000
# 3 64.0640 17.1735 147.0712 0.0000 10.0336 0.0000
# 4 0.0000 0.0000 0.0000 54.5385 0.0000 5.7490
# 5 28.5607 14.1705 10.0336 0.0000 53.6531 0.0000
# 6 0.0000 0.0000 0.0000 5.7490 0.0000 13.2238
#
#
#
# Elastic Compliance Matrix: (Units=1/GPa)
#
#
# Indices 1 2 3 4 5 6 
#
# 1 0.047540 0.001028 -0.019330 0.000000 -0.021963 0.000000
# 2 0.001028 0.038429 -0.004260 0.000000 -0.009900 0.000000
# 3 -0.019330 -0.004260 0.015131 0.000000 0.008585 0.000000
# 4 0.000000 0.000000 0.000000 0.019216 0.000000 -0.008354
# 5 -0.021963 -0.009900 0.008585 0.000000 0.031339 0.000000
# 6 0.000000 0.000000 0.000000 -0.008354 0.000000 0.079253
#
#
# Mechanical properties :
#
#
# Convention : Reuss Voigt Hill
#
# Bulk Modulus (GPa) = 17.86440 47.38743 32.62591
# Shear Modulus (GPa) = 16.96693 33.89728 25.43211
#
# Velocity S-wave (km/s) = 2.61897 3.70179 3.20642
# Velocity P-wave (km/s) = 4.04564 6.11782 5.18628
#
# Compressibility (1/GPa) = 0.05597725
#
# Stress axis : x y z
#
# Youngs Moduli (GPa) = 21.03486 26.02209 66.08817
#
# Poissons Ratio (x) = -0.02676 1.27749
# Poissons Ratio (y) = -0.02163 0.28153
# Poissons Ratio (z) = 0.40661 0.11085
#
# Static dielectric constant tensor:
#      x y z
#    x 2.003080 0.000000 0.151240 
#    y 0.000000 2.380800 0.000000 
#    z 0.151240 0.000000 2.267600 
# 
# From -- ./inp_files/30163.got.cif
#   From: 2010.05.17/outbox.cif.g08.bks.cpg/sg14_16_cif.got.tgz:30163.got - 2010.06.03 17:49:19.
