data_PCOD9241537
_publ_section_title
;
Structure prediction by ZEFSAII (Michael W. Deem and Ramdas Pophale) SiO2 
 PCOD9241537
Probable space group: P 21/C
;
_chemical_formula_sum "Si O2"
_cell_formula_units_Z 20
_cell_length_a 7.726811
_cell_length_b 4.924316
_cell_length_c 22.060022
_cell_angle_alpha 90.000000
_cell_angle_beta 101.999346
_cell_angle_gamma 90.000000
_cell_volume 821.027290
_symmetry_space_group_name_H-M "P 21/C"
_symmetry_group_IT_number 14
_symmetry_cell_setting 'monoclinic'
loop_
_space_group_symop_operation_xyz
x,y,z
-x,1/2+y,1/2-z
-x,-y,-z
x,1/2-y,1/2+z
loop_
_atom_site_type_symbol
_atom_site_label
_atom_site_fract_x
_atom_site_fract_y
_atom_site_fract_z
Si Si1 0.583871 0.183948 0.781349
Si Si2 0.263677 0.223077 0.481980
Si Si3 0.937990 0.864491 0.778949
Si Si4 0.483719 0.507618 0.590614
Si Si5 0.151083 0.712413 0.408880
O O1 0.434298 0.993629 0.739724
O O2 0.567167 0.153171 0.851910
O O3 0.759490 0.033364 0.772323
O O4 0.325682 0.328105 0.551449
O O5 0.442670 0.277168 0.454233
O O6 0.125561 0.429440 0.441180
O O7 0.184544 0.932618 0.463092
O O8 0.006111 0.742018 0.847476
O O9 0.932485 0.611225 0.732685
O O10 0.658497 0.320537 0.611335
#
# Coordination Sequence:
#
# PCOD9241537 Si02
#       5
#     4   4   4   4   4
#     4  12  27  42  64  96 125 167 213 268 309 373
#     4   9  20  34  65  90 119 166 204 250 308 375
#     4  12  25  43  62  90 129 173 208 257 323 379
#     4   9  21  37  63  89 127 156 217 246 308 370
#     4  10  19  36  60  88 119 163 206 245 311 370
#
# _framework density 24.359726999999999
#
# number of rings (size 3 to 8) (size 9 to 14) (size 15 to 20)
#    1.200    0.400    0.000    5.400    5.600    0.000 
#    0.000    2.000    0.000    0.000    0.000    0.000 
#    0.000    0.000    0.000    0.000    0.000    0.000 
#
# Total GULP energy -111786.809730 kJ/mol
# GULP energy per Si atom -5589.340486 kJ/mol
# Density = 2.430428 g / cm^3
# Si number density = 24.359727 Si / 1000 Ang^3
#
#
#
# Elastic Constant Matrix: (Units=GPa)
#
#
# Indices 1 2 3 4 5 6 
#
# 1 48.1883 -9.0961 -2.5082 0.0000 1.2062 0.0000
# 2 -9.0961 71.2901 -18.9101 0.0000 -6.6014 0.0000
# 3 -2.5082 -18.9101 64.1557 0.0000 -0.9202 0.0000
# 4 0.0000 0.0000 0.0000 19.7912 0.0000 10.5019
# 5 1.2062 -6.6014 -0.9202 0.0000 34.3112 0.0000
# 6 0.0000 0.0000 0.0000 10.5019 0.0000 20.3402
#
#
#
# Elastic Compliance Matrix: (Units=1/GPa)
#
#
# Indices 1 2 3 4 5 6 
#
# 1 0.021451 0.003201 0.001781 0.000000 -0.000090 0.000000
# 2 0.003201 0.016020 0.004892 0.000000 0.003101 0.000000
# 3 0.001781 0.004892 0.017118 0.000000 0.001338 0.000000
# 4 0.000000 0.000000 0.000000 0.069594 0.000000 -0.035933
# 5 -0.000090 0.003101 0.001338 0.000000 0.029781 0.000000
# 6 0.000000 0.000000 0.000000 -0.035933 0.000000 0.067716
#
#
# Mechanical properties :
#
#
# Convention : Reuss Voigt Hill
#
# Bulk Modulus (GPa) = 13.45239 13.62280 13.53759
# Shear Modulus (GPa) = 22.05440 29.16509 25.60974
#
# Velocity S-wave (km/s) = 3.01219 3.46391 3.24592
# Velocity P-wave (km/s) = 4.19906 4.64787 4.42915
#
# Compressibility (1/GPa) = 0.07433624
#
# Stress axis : x y z
#
# Youngs Moduli (GPa) = 46.61761 62.42075 58.41898
#
# Poissons Ratio (x) = -0.19981 -0.10404
# Poissons Ratio (y) = -0.14922 -0.28577
# Poissons Ratio (z) = -0.08302 -0.30534
#
# Static dielectric constant tensor:
#      x y z
#    x 2.032680 0.000000 -0.021310 
#    y 0.000000 1.889100 0.000000 
#    z -0.021310 0.000000 1.897360 
# 
# From -- ./inp_files/64189.got.cif
#   From: 2010.05.17/outbox.cif.g08.bks.cpg/sg14_33_cif.got.tgz:64189.got - 2010.06.03 17:49:19.
