data_PCOD9241599
_publ_section_title
;
Structure prediction by ZEFSAII (Michael W. Deem and Ramdas Pophale) SiO2 
 PCOD9241599
Probable space group: P 21/C
;
_chemical_formula_sum "Si O2"
_cell_formula_units_Z 24
_cell_length_a 16.534364
_cell_length_b 11.605727
_cell_length_c 17.772367
_cell_angle_alpha 90.000000
_cell_angle_beta 163.250566
_cell_angle_gamma 90.000000
_cell_volume 982.831835
_symmetry_space_group_name_H-M "P 21/C"
_symmetry_group_IT_number 14
_symmetry_cell_setting 'monoclinic'
loop_
_space_group_symop_operation_xyz
x,y,z
-x,1/2+y,1/2-z
-x,-y,-z
x,1/2-y,1/2+z
loop_
_atom_site_type_symbol
_atom_site_label
_atom_site_fract_x
_atom_site_fract_y
_atom_site_fract_z
Si Si1 0.310735 0.605328 0.801374
Si Si2 0.423706 0.270026 0.744313
Si Si3 0.798849 0.981703 0.225444
Si Si4 0.972392 0.129548 0.246585
Si Si5 0.156227 0.496427 0.510284
Si Si6 0.032804 0.189373 0.519909
O O1 0.276453 0.576401 0.682881
O O2 0.261142 0.743525 0.752513
O O3 0.060395 0.581042 0.636711
O O4 0.500000 0.500000 0.000000
O O5 0.381954 0.402847 0.683107
O O6 0.242277 0.186967 0.527090
O O7 0.296194 0.253662 0.715751
O O8 0.741906 0.229822 0.031686
O O9 0.903701 0.853395 0.339246
O O10 0.821726 0.028197 0.161523
O O11 0.008358 0.073076 0.450789
O O12 0.500000 0.000000 0.000000
O O13 0.005560 0.070525 0.195454
#
# Coordination Sequence:
#
# PCOD9241599 Si02
#       6
#     4   4   4   4   4   4
#     4  10  23  42  69  92 131 177 229 288 337 418
#     4  10  23  41  66  94 133 179 212 280 338 397
#     4  10  19  36  62  91 136 172 221 273 330 407
#     4  11  24  41  67  97 134 176 221 273 341 405
#     4  10  25  43  64  97 131 177 226 276 345 404
#     4   9  20  38  61  96 127 175 221 271 338 397
#
# _framework density 24.419232999999998
#
# number of rings (size 3 to 8) (size 9 to 14) (size 15 to 20)
#    0.000    2.000    1.667    0.000    9.333    2.667 
#    3.000    0.000    0.000    0.000    0.000    0.000 
#    0.000    0.000    0.000    0.000    0.000    0.000 
#
# Total GULP energy -133639.598813 kJ/mol
# GULP energy per Si atom -5568.316617 kJ/mol
# Density = 2.436365 g / cm^3
# Si number density = 24.419233 Si / 1000 Ang^3
#
#
#
# Elastic Constant Matrix: (Units=GPa)
#
#
# Indices 1 2 3 4 5 6 
#
# 1 56.5321 10.4141 6.4697 0.0000 -29.4545 0.0000
# 2 10.4141 84.0244 7.4107 0.0000 -14.8539 0.0000
# 3 6.4697 7.4107 69.3725 0.0000 -11.2870 0.0000
# 4 0.0000 0.0000 0.0000 45.1709 0.0000 -3.6263
# 5 -29.4545 -14.8539 -11.2870 0.0000 34.8750 0.0000
# 6 0.0000 0.0000 0.0000 -3.6263 0.0000 27.4824
#
#
#
# Elastic Compliance Matrix: (Units=1/GPa)
#
#
# Indices 1 2 3 4 5 6 
#
# 1 0.031786 0.000823 0.001449 0.000000 0.027665 0.000000
# 2 0.000823 0.012909 -0.000473 0.000000 0.006040 0.000000
# 3 0.001449 -0.000473 0.015302 0.000000 0.005975 0.000000
# 4 0.000000 0.000000 0.000000 0.022375 0.000000 0.002952
# 5 0.027665 0.006040 0.005975 0.000000 0.056545 0.000000
# 6 0.000000 0.000000 0.000000 0.002952 0.000000 0.036776
#
#
# Mechanical properties :
#
#
# Convention : Reuss Voigt Hill
#
# Bulk Modulus (GPa) = 15.72444 28.72422 22.22433
# Shear Modulus (GPa) = 25.86733 33.88129 29.87431
#
# Velocity S-wave (km/s) = 3.25822 3.72894 3.50150
# Velocity P-wave (km/s) = 4.53961 5.50713 5.04661
#
# Compressibility (1/GPa) = 0.06359525
#
# Stress axis : x y z
#
# Youngs Moduli (GPa) = 31.46068 77.46651 65.34914
#
# Poissons Ratio (x) = -0.06378 -0.09468
# Poissons Ratio (y) = -0.02590 0.03091
# Poissons Ratio (z) = -0.04558 0.03664
#
# Static dielectric constant tensor:
#      x y z
#    x 2.009770 0.000000 -0.023650 
#    y 0.000000 2.110080 0.000000 
#    z -0.023650 0.000000 2.074260 
# 
# From -- ./inp_files/52950.got.cif
#   From: 2010.05.17/outbox.cif.g08.bks.cpg/sg14_27_cif.got.tgz:52950.got - 2010.06.03 17:49:19.
