data_PCOD9241269
_publ_section_title
;
Structure prediction by ZEFSAII (Michael W. Deem and Ramdas Pophale) SiO2 
 PCOD9241269
Probable space group: P 21/C
;
_chemical_formula_sum "Si O2"
_cell_formula_units_Z 28
_cell_length_a 6.314039
_cell_length_b 14.316024
_cell_length_c 13.909771
_cell_angle_alpha 90.000000
_cell_angle_beta 117.484018
_cell_angle_gamma 90.000000
_cell_volume 1115.428207
_symmetry_space_group_name_H-M "P 21/C"
_symmetry_group_IT_number 14
_symmetry_cell_setting 'monoclinic'
loop_
_space_group_symop_operation_xyz
x,y,z
-x,1/2+y,1/2-z
-x,-y,-z
x,1/2-y,1/2+z
loop_
_atom_site_type_symbol
_atom_site_label
_atom_site_fract_x
_atom_site_fract_y
_atom_site_fract_z
Si Si1 0.344130 0.063085 0.539544
Si Si2 0.379145 0.661224 0.370830
Si Si3 0.816429 0.159099 0.650950
Si Si4 0.746786 0.547412 0.684867
Si Si5 0.162880 0.878950 0.572439
Si Si6 0.356842 0.806327 0.099609
Si Si7 0.869781 0.904092 0.003092
O O1 0.539047 0.136430 0.612902
O O2 0.109672 0.113256 0.448026
O O3 0.500000 0.000000 0.500000
O O4 0.257434 0.985441 0.597415
O O5 0.176886 0.738026 0.302400
O O6 0.285324 0.562452 0.311762
O O7 0.377360 0.683621 0.487073
O O8 0.661316 0.651172 0.402644
O O9 0.869637 0.146994 0.548511
O O10 0.994887 0.085655 0.733962
O O11 0.545560 0.619350 0.681109
O O12 0.733792 0.561076 0.567989
O O13 0.360644 0.800497 0.638500
O O14 0.087842 0.835779 0.067456
O O15 0.000000 0.000000 0.000000
#
# Coordination Sequence:
#
# PCOD9241269 Si02
#       7
#     4   4   4   4   4   4   4
#     4   9  18  37  58  81 110 153 196 233 279 349
#     4  10  20  37  56  81 110 151 195 239 292 347
#     4  10  22  36  55  83 123 152 187 245 299 352
#     4  11  22  35  55  87 119 148 195 244 296 349
#     4   9  19  36  61  82 111 156 199 232 289 348
#     4  10  19  35  58  85 108 145 199 243 282 352
#     4  11  18  35  63  81 107 150 195 242 288 342
#
# _framework density 25.102468999999999
#
# number of rings (size 3 to 8) (size 9 to 14) (size 15 to 20)
#    0.000    2.000    2.857    1.714    0.000    3.429 
#    0.000    4.286    0.000    0.000    0.000    0.000 
#    0.000    0.000    0.000    0.000    0.000    0.000 
#
# Total GULP energy -156042.423992 kJ/mol
# GULP energy per Si atom -5572.943714 kJ/mol
# Density = 2.504533 g / cm^3
# Si number density = 25.102469 Si / 1000 Ang^3
#
#
#
# Elastic Constant Matrix: (Units=GPa)
#
#
# Indices 1 2 3 4 5 6 
#
# 1 110.2072 21.4692 14.2733 0.0000 25.1829 0.0000
# 2 21.4692 119.4642 -6.9520 0.0000 22.1233 0.0000
# 3 14.2733 -6.9520 31.5706 0.0000 4.1808 0.0000
# 4 0.0000 0.0000 0.0000 12.6692 0.0000 1.5243
# 5 25.1829 22.1233 4.1808 0.0000 45.8312 0.0000
# 6 0.0000 0.0000 0.0000 1.5243 0.0000 33.8466
#
#
#
# Elastic Compliance Matrix: (Units=1/GPa)
#
#
# Indices 1 2 3 4 5 6 
#
# 1 0.011082 -0.001331 -0.004638 0.000000 -0.005023 0.000000
# 2 -0.001331 0.009576 0.003265 0.000000 -0.004189 0.000000
# 3 -0.004638 0.003265 0.034782 0.000000 -0.002201 0.000000
# 4 0.000000 0.000000 0.000000 0.079362 0.000000 -0.003574
# 5 -0.005023 -0.004189 -0.002201 0.000000 0.026802 0.000000
# 6 0.000000 0.000000 0.000000 -0.003574 0.000000 0.029706
#
#
# Mechanical properties :
#
#
# Convention : Reuss Voigt Hill
#
# Bulk Modulus (GPa) = 19.98737 35.42477 27.70607
# Shear Modulus (GPa) = 23.43076 33.96617 28.69847
#
# Velocity S-wave (km/s) = 3.05848 3.68244 3.38487
# Velocity P-wave (km/s) = 4.52239 5.67655 5.13202
#
# Compressibility (1/GPa) = 0.05003160
#
# Stress axis : x y z
#
# Youngs Moduli (GPa) = 90.23889 104.43166 28.75025
#
# Poissons Ratio (x) = 0.13901 0.13334
# Poissons Ratio (y) = 0.12012 -0.09387
# Poissons Ratio (z) = 0.41853 -0.34098
#
# Static dielectric constant tensor:
#      x y z
#    x 1.994420 0.000000 -0.078150 
#    y 0.000000 2.174500 0.000000 
#    z -0.078150 0.000000 2.118650 
# 
# From -- ./inp_files/53367.got.cif
#   From: 2010.05.17/outbox.cif.g08.bks.cpg/sg14_27_cif.got.tgz:53367.got - 2010.06.03 17:49:19.
