data_PCOD9241585
_publ_section_title
;
Structure prediction by ZEFSAII (Michael W. Deem and Ramdas Pophale) SiO2 
 PCOD9241585
Probable space group: P 21/C
;
_chemical_formula_sum "Si O2"
_cell_formula_units_Z 26
_cell_length_a 12.564329
_cell_length_b 9.493079
_cell_length_c 24.948906
_cell_angle_alpha 90.000000
_cell_angle_beta 159.775389
_cell_angle_gamma 90.000000
_cell_volume 1028.724071
_symmetry_space_group_name_H-M "P 21/C"
_symmetry_group_IT_number 14
_symmetry_cell_setting 'monoclinic'
loop_
_space_group_symop_operation_xyz
x,y,z
-x,1/2+y,1/2-z
-x,-y,-z
x,1/2-y,1/2+z
loop_
_atom_site_type_symbol
_atom_site_label
_atom_site_fract_x
_atom_site_fract_y
_atom_site_fract_z
Si Si1 0.564007 0.083034 0.452015
Si Si2 0.078548 0.166521 0.437510
Si Si3 0.133166 0.638114 0.795854
Si Si4 0.357950 0.404194 0.184527
Si Si5 0.301848 0.821175 0.597454
Si Si6 0.518761 0.125713 0.110818
Si Si7 0.500000 0.500000 0.500000
O O1 0.749139 0.154591 0.587687
O O2 0.538716 0.169435 0.385226
O O3 0.749220 0.943866 0.519861
O O4 0.260410 0.013371 0.334644
O O5 0.225532 0.154297 0.565279
O O6 0.181997 0.319847 0.466614
O O7 0.723605 0.131109 0.261257
O O8 0.277930 0.766350 0.830752
O O9 0.770407 0.620340 0.621708
O O10 0.638424 0.325815 0.345134
O O11 0.435061 0.561276 0.201382
O O12 0.054506 0.369904 0.077130
O O13 0.518511 0.988627 0.074875
#
# Coordination Sequence:
#
# PCOD9241585 Si02
#       7
#     4   4   4   4   4   4   2
#     4   9  20  40  61  81 128 170 199 252 324 372
#     4  10  19  36  62  85 121 165 209 257 309 381
#     4  10  21  39  60  89 126 165 206 257 310 381
#     4  10  22  42  68  94 128 168 218 272 326 380
#     4  10  22  44  65  96 127 171 216 271 324 386
#     4  11  21  36  58  94 121 161 211 255 312 375
#     4  12  22  38  62  92 124 162 214 256 302 386
#
# _framework density 25.274027
#
# number of rings (size 3 to 8) (size 9 to 14) (size 15 to 20)
#    0.000    1.846    3.077    0.923    0.000    0.615 
#    5.538    0.000    0.000    0.000    0.000    0.000 
#    0.000    0.000    0.000    0.000    0.000    0.000 
#
# Total GULP energy -144752.858386 kJ/mol
# GULP energy per Si atom -5567.417630 kJ/mol
# Density = 2.521650 g / cm^3
# Si number density = 25.274027 Si / 1000 Ang^3
#
#
#
# Elastic Constant Matrix: (Units=GPa)
#
#
# Indices 1 2 3 4 5 6 
#
# 1 93.8058 7.3209 13.5688 0.0000 -38.0096 0.0000
# 2 7.3209 24.1231 7.5627 0.0000 -0.7926 0.0000
# 3 13.5688 7.5627 88.2163 0.0000 -5.8328 0.0000
# 4 0.0000 0.0000 0.0000 32.2867 0.0000 -11.1573
# 5 -38.0096 -0.7926 -5.8328 0.0000 36.9215 0.0000
# 6 0.0000 0.0000 0.0000 -11.1573 0.0000 37.4949
#
#
#
# Elastic Compliance Matrix: (Units=1/GPa)
#
#
# Indices 1 2 3 4 5 6 
#
# 1 0.019027 -0.004751 -0.001244 0.000000 0.019289 0.000000
# 2 -0.004751 0.043789 -0.003319 0.000000 -0.004475 0.000000
# 3 -0.001244 -0.003319 0.011846 0.000000 0.000520 0.000000
# 4 0.000000 0.000000 0.000000 0.034522 0.000000 0.010273
# 5 0.019289 -0.004475 0.000520 0.000000 0.046928 0.000000
# 6 0.000000 0.000000 0.000000 0.010273 0.000000 0.029727
#
#
# Mechanical properties :
#
#
# Convention : Reuss Voigt Hill
#
# Bulk Modulus (GPa) = 17.84604 29.22778 23.53691
# Shear Modulus (GPa) = 22.40692 33.18680 27.79686
#
# Velocity S-wave (km/s) = 2.98074 3.62757 3.31995
# Velocity P-wave (km/s) = 4.35003 5.39770 4.90194
#
# Compressibility (1/GPa) = 0.05603483
#
# Stress axis : x y z
#
# Youngs Moduli (GPa) = 52.55734 22.83666 84.41666
#
# Poissons Ratio (x) = 0.10849 0.10501
# Poissons Ratio (y) = 0.24967 0.28019
# Poissons Ratio (z) = 0.06538 0.07580
#
# Static dielectric constant tensor:
#      x y z
#    x 2.087400 0.000000 -0.023300 
#    y 0.000000 2.094720 0.000000 
#    z -0.023300 0.000000 2.062510 
# 
# From -- ./inp_files/77542.got.cif
#   From: 2010.05.17/outbox.cif.g08.bks.cpg/sg14_39_cif.got.tgz:77542.got - 2010.06.03 17:49:19.
