data_PCOD9241171
_publ_section_title
;
Structure prediction by ZEFSAII (Michael W. Deem and Ramdas Pophale) SiO2 
 PCOD9241171
Probable space group: P 21/C
;
_chemical_formula_sum "Si O2"
_cell_formula_units_Z 28
_cell_length_a 21.148808
_cell_length_b 8.659265
_cell_length_c 14.047063
_cell_angle_alpha 90.000000
_cell_angle_beta 36.025038
_cell_angle_gamma 90.000000
_cell_volume 1512.976689
_symmetry_space_group_name_H-M "P 21/C"
_symmetry_group_IT_number 14
_symmetry_cell_setting 'monoclinic'
loop_
_space_group_symop_operation_xyz
x,y,z
-x,1/2+y,1/2-z
-x,-y,-z
x,1/2-y,1/2+z
loop_
_atom_site_type_symbol
_atom_site_label
_atom_site_fract_x
_atom_site_fract_y
_atom_site_fract_z
Si Si1 0.653371 0.903609 0.952176
Si Si2 0.686318 0.258461 0.868465
Si Si3 0.742112 0.702396 0.679277
Si Si4 0.245580 0.333789 0.028947
Si Si5 0.588094 0.070534 0.322363
Si Si6 0.546791 0.471557 0.182403
Si Si7 0.126990 0.499110 0.334644
O O1 0.665403 0.803213 0.841375
O O2 0.727136 0.817409 0.940851
O O3 0.689133 0.078722 0.888874
O O4 0.533071 0.908654 0.140394
O O5 0.640094 0.288883 0.817912
O O6 0.801368 0.345996 0.736451
O O7 0.605976 0.347051 0.040946
O O8 0.789113 0.798983 0.535480
O O9 0.676874 0.563602 0.709780
O O10 0.826915 0.622614 0.645034
O O11 0.161517 0.435218 0.189726
O O12 0.358364 0.426049 0.889823
O O13 0.529323 0.076486 0.293134
O O14 0.500000 0.000000 0.500000
O O15 0.000000 0.500000 0.500000
#
# Coordination Sequence:
#
# PCOD9241171 Si02
#       7
#     4   4   4   4   4   4   4
#     4  11  20  34  55  83 118 151 191 237 276 341
#     4   9  20  35  54  84 109 146 198 233 283 346
#     4  10  21  38  56  83 116 150 196 239 289 343
#     4  10  21  39  55  85 117 152 192 239 288 342
#     4   9  17  34  50  73 114 157 186 221 278 340
#     4  10  19  35  53  77 123 159 186 218 288 345
#     4   9  20  43  65  77 110 152 191 245 306 343
#
# _framework density 18.506564000000001
#
# number of rings (size 3 to 8) (size 9 to 14) (size 15 to 20)
#    0.000    2.286    1.429    3.429    2.000    0.571 
#    7.714    5.714    0.000    0.000    0.000    0.000 
#    0.000    0.000    0.000    0.000    0.000    0.000 
#
# Total GULP energy -156175.391953 kJ/mol
# GULP energy per Si atom -5577.692570 kJ/mol
# Density = 1.846444 g / cm^3
# Si number density = 18.506564 Si / 1000 Ang^3
#
#
#
# Elastic Constant Matrix: (Units=GPa)
#
#
# Indices 1 2 3 4 5 6 
#
# 1 36.2111 18.9890 38.9640 0.0000 2.8659 0.0000
# 2 18.9890 98.1839 31.0035 0.0000 -4.7992 0.0000
# 3 38.9640 31.0035 105.8234 0.0000 -16.1352 0.0000
# 4 0.0000 0.0000 0.0000 17.3393 0.0000 7.5147
# 5 2.8659 -4.7992 -16.1352 0.0000 31.8239 0.0000
# 6 0.0000 0.0000 0.0000 7.5147 0.0000 9.7289
#
#
#
# Elastic Compliance Matrix: (Units=1/GPa)
#
#
# Indices 1 2 3 4 5 6 
#
# 1 0.053834 -0.004589 -0.020941 0.000000 -0.016157 0.000000
# 2 -0.004589 0.011614 -0.001499 0.000000 0.001405 0.000000
# 3 -0.020941 -0.001499 0.019348 0.000000 0.011469 0.000000
# 4 0.000000 0.000000 0.000000 0.086694 0.000000 -0.066964
# 5 -0.016157 0.001405 0.011469 0.000000 0.038905 0.000000
# 6 0.000000 0.000000 0.000000 -0.066964 0.000000 0.154510
#
#
# Mechanical properties :
#
#
# Convention : Reuss Voigt Hill
#
# Bulk Modulus (GPa) = 32.53177 46.45905 39.49541
# Shear Modulus (GPa) = 11.64936 21.86254 16.75595
#
# Velocity S-wave (km/s) = 2.51165 3.44079 3.01226
# Velocity P-wave (km/s) = 5.10175 6.39875 5.78670
#
# Compressibility (1/GPa) = 0.03073919
#
# Stress axis : x y z
#
# Youngs Moduli (GPa) = 18.57578 86.09959 51.68526
#
# Poissons Ratio (x) = 0.39510 1.08232
# Poissons Ratio (y) = 0.08524 0.07747
# Poissons Ratio (z) = 0.38899 0.12906
#
# Static dielectric constant tensor:
#      x y z
#    x 1.654510 0.000000 0.025700 
#    y 0.000000 1.685290 0.000000 
#    z 0.025700 0.000000 1.633170 
# 
# From -- ./inp_files/51111.got.cif
#   From: 2010.05.17/outbox.cif.g08.bks.cpg/sg14_26_cif.got.tgz:51111.got - 2010.06.03 17:49:19.
