data_PCOD9241419
_publ_section_title
;
Structure prediction by ZEFSAII (Michael W. Deem and Ramdas Pophale) SiO2 
 PCOD9241419
Probable space group: P 21/C
;
_chemical_formula_sum "Si O2"
_cell_formula_units_Z 32
_cell_length_a 11.965094
_cell_length_b 9.619614
_cell_length_c 15.060947
_cell_angle_alpha 90.000000
_cell_angle_beta 64.593729
_cell_angle_gamma 90.000000
_cell_volume 1565.858252
_symmetry_space_group_name_H-M "P 21/C"
_symmetry_group_IT_number 14
_symmetry_cell_setting 'monoclinic'
loop_
_space_group_symop_operation_xyz
x,y,z
-x,1/2+y,1/2-z
-x,-y,-z
x,1/2-y,1/2+z
loop_
_atom_site_type_symbol
_atom_site_label
_atom_site_fract_x
_atom_site_fract_y
_atom_site_fract_z
Si Si1 0.989001 0.032789 0.609073
Si Si2 0.093210 0.567685 0.541578
Si Si3 0.229209 0.689895 0.884292
Si Si4 0.350398 0.927756 0.747849
Si Si5 0.743116 0.650521 0.579493
Si Si6 0.620253 0.562618 0.076512
Si Si7 0.767612 0.929691 0.362508
Si Si8 0.900792 0.759066 0.187247
O O1 0.879202 0.144079 0.646178
O O2 0.119414 0.072718 0.606788
O O3 0.949998 0.894999 0.674793
O O4 0.000000 0.000000 0.500000
O O5 0.163631 0.702471 0.475904
O O6 0.191715 0.442760 0.518830
O O7 0.000000 0.500000 0.500000
O O8 0.011330 0.626414 0.650477
O O9 0.332053 0.778146 0.797657
O O10 0.292029 0.554790 0.907486
O O11 0.483198 0.953619 0.660332
O O12 0.324741 0.040331 0.833561
O O13 0.245190 0.952234 0.708492
O O14 0.659476 0.778368 0.581370
O O15 0.846178 0.721336 0.607239
O O16 0.645991 0.553486 0.962983
O O17 0.794339 0.794780 0.293390
#
# Coordination Sequence:
#
# PCOD9241419 Si02
#       8
#     4   4   4   4   4   4   4   4
#     4  12  21  39  63  92 123 154 211 256 307 373
#     4   9  18  33  58  87 131 155 188 251 312 370
#     4  11  22  39  67  93 118 166 212 256 305 368
#     4  10  24  42  61  91 124 165 210 253 310 356
#     4   9  19  36  59  89 113 157 209 244 302 356
#     4  12  21  41  66  88 124 166 215 255 287 371
#     4  11  25  36  60  90 126 164 200 250 321 364
#     4  10  19  36  54  89 122 157 190 251 309 364
#
# _framework density 20.436076
#
# number of rings (size 3 to 8) (size 9 to 14) (size 15 to 20)
#    0.000    1.500    3.750    1.875    3.500    1.000 
#    0.000    0.000    0.000    0.750    0.000    0.000 
#    0.000    0.000    0.000    0.000    0.000    0.000 
#
# Total GULP energy -178385.322056 kJ/mol
# GULP energy per Si atom -5574.541314 kJ/mol
# Density = 2.038956 g / cm^3
# Si number density = 20.436076 Si / 1000 Ang^3
#
#
#
# Elastic Constant Matrix: (Units=GPa)
#
#
# Indices 1 2 3 4 5 6 
#
# 1 46.9071 22.6962 -2.3408 0.0000 -11.5729 0.0000
# 2 22.6962 96.8857 22.5208 0.0000 -3.9891 0.0000
# 3 -2.3408 22.5208 56.5751 0.0000 -13.4881 0.0000
# 4 0.0000 0.0000 0.0000 14.3266 0.0000 -8.9073
# 5 -11.5729 -3.9891 -13.4881 0.0000 31.2172 0.0000
# 6 0.0000 0.0000 0.0000 -8.9073 0.0000 25.7122
#
#
#
# Elastic Compliance Matrix: (Units=1/GPa)
#
#
# Indices 1 2 3 4 5 6 
#
# 1 0.028674 -0.007907 0.007389 0.000000 0.012812 0.000000
# 2 -0.007907 0.013563 -0.006702 0.000000 -0.004094 0.000000
# 3 0.007389 -0.006702 0.023521 0.000000 0.012045 0.000000
# 4 0.000000 0.000000 0.000000 0.088961 0.000000 0.030818
# 5 0.012812 -0.004094 0.012045 0.000000 0.041465 0.000000
# 6 0.000000 0.000000 0.000000 0.030818 0.000000 0.049568
#
#
# Mechanical properties :
#
#
# Convention : Reuss Voigt Hill
#
# Bulk Modulus (GPa) = 19.48679 31.79114 25.63896
# Shear Modulus (GPa) = 18.03103 24.75064 21.39084
#
# Velocity S-wave (km/s) = 2.97360 3.48390 3.23881
# Velocity P-wave (km/s) = 4.62016 5.63680 5.15361
#
# Compressibility (1/GPa) = 0.05131682
#
# Stress axis : x y z
#
# Youngs Moduli (GPa) = 34.87439 73.72957 42.51514
#
# Poissons Ratio (x) = 0.58299 -0.31412
# Poissons Ratio (y) = 0.27575 0.28495
# Poissons Ratio (z) = -0.25767 0.49415
#
# Static dielectric constant tensor:
#      x y z
#    x 1.755110 0.000000 -0.017600 
#    y 0.000000 1.738350 0.000000 
#    z -0.017600 0.000000 1.767510 
# 
# From -- ./inp_files/43698.got.cif
#   From: 2010.05.17/outbox.cif.g08.bks.cpg/sg14_22_cif.got.tgz:43698.got - 2010.06.03 17:49:19.
