data_PCOD9241404
_publ_section_title
;
Structure prediction by ZEFSAII (Michael W. Deem and Ramdas Pophale) SiO2 
 PCOD9241404
Probable space group: P 21/C
;
_chemical_formula_sum "Si O2"
_cell_formula_units_Z 28
_cell_length_a 9.249912
_cell_length_b 17.643363
_cell_length_c 19.351315
_cell_angle_alpha 90.000000
_cell_angle_beta 22.793090
_cell_angle_gamma 90.000000
_cell_volume 1223.471923
_symmetry_space_group_name_H-M "P 21/C"
_symmetry_group_IT_number 14
_symmetry_cell_setting 'monoclinic'
loop_
_space_group_symop_operation_xyz
x,y,z
-x,1/2+y,1/2-z
-x,-y,-z
x,1/2-y,1/2+z
loop_
_atom_site_type_symbol
_atom_site_label
_atom_site_fract_x
_atom_site_fract_y
_atom_site_fract_z
Si Si1 0.346281 0.445444 0.866198
Si Si2 0.555565 0.354433 0.516883
Si Si3 0.483303 0.975154 0.856445
Si Si4 0.290233 0.688412 0.070521
Si Si5 0.374877 0.966242 0.482333
Si Si6 0.509204 0.196165 0.363444
Si Si7 0.335862 0.140326 0.960324
O O1 0.563086 0.438927 0.698727
O O2 0.242900 0.362588 0.941133
O O3 0.540558 0.488308 0.844740
O O4 0.000000 0.500000 0.000000
O O5 0.681994 0.422108 0.510538
O O6 0.740131 0.272437 0.445932
O O7 0.562648 0.372344 0.432258
O O8 0.120702 0.338827 0.726851
O O9 0.929165 0.977858 0.674223
O O10 0.351804 0.061358 0.914500
O O11 0.451440 0.623533 0.950066
O O12 0.529922 0.692179 0.035896
O O13 0.500000 0.000000 0.500000
O O14 0.487076 0.284665 0.355786
O O15 0.916464 0.164319 0.165033
#
# Coordination Sequence:
#
# PCOD9241404 Si02
#       7
#     4   4   4   4   4   4   4
#     4  10  22  39  60  87 127 160 204 254 321 375
#     4   9  19  37  57  89 122 157 204 256 305 360
#     4  10  22  39  59  90 128 164 200 261 317 368
#     4   9  18  35  58  88 116 155 208 253 297 360
#     4  10  19  35  65  88 120 164 212 254 309 369
#     4  10  21  38  61  91 119 159 209 256 309 370
#     4  10  22  38  66  90 124 162 212 257 310 373
#
# _framework density 22.88569
#
# number of rings (size 3 to 8) (size 9 to 14) (size 15 to 20)
#    0.000    2.286    1.429    0.429    4.000    2.857 
#    5.143    1.429    0.000    0.000    0.000    0.000 
#    0.000    0.000    0.000    0.000    0.000    0.000 
#
# Total GULP energy -156441.599583 kJ/mol
# GULP energy per Si atom -5587.199985 kJ/mol
# Density = 2.283360 g / cm^3
# Si number density = 22.885690 Si / 1000 Ang^3
#
#
#
# Elastic Constant Matrix: (Units=GPa)
#
#
# Indices 1 2 3 4 5 6 
#
# 1 95.9824 49.3660 20.2938 0.0000 9.0024 0.0000
# 2 49.3660 182.0352 29.1902 0.0000 11.8675 0.0000
# 3 20.2938 29.1902 31.6867 0.0000 -1.7708 0.0000
# 4 0.0000 0.0000 0.0000 38.9346 0.0000 5.0235
# 5 9.0024 11.8675 -1.7708 0.0000 22.2036 0.0000
# 6 0.0000 0.0000 0.0000 5.0235 0.0000 33.9806
#
#
#
# Elastic Compliance Matrix: (Units=1/GPa)
#
#
# Indices 1 2 3 4 5 6 
#
# 1 0.013467 -0.002244 -0.006826 0.000000 -0.004805 0.000000
# 2 -0.002244 0.007181 -0.005366 0.000000 -0.003356 0.000000
# 3 -0.006826 -0.005366 0.041373 0.000000 0.008935 0.000000
# 4 0.000000 0.000000 0.000000 0.026184 0.000000 -0.003871
# 5 -0.004805 -0.003356 0.008935 0.000000 0.049492 0.000000
# 6 0.000000 0.000000 0.000000 -0.003871 0.000000 0.030001
#
#
# Mechanical properties :
#
#
# Convention : Reuss Voigt Hill
#
# Bulk Modulus (GPa) = 30.16660 56.37826 43.27243
# Shear Modulus (GPa) = 24.08258 33.08072 28.58165
#
# Velocity S-wave (km/s) = 3.24743 3.80607 3.53779
# Velocity P-wave (km/s) = 5.22218 6.63348 5.96968
#
# Compressibility (1/GPa) = 0.03314924
#
# Stress axis : x y z
#
# Youngs Moduli (GPa) = 74.25724 139.25091 24.17040
#
# Poissons Ratio (x) = 0.31251 0.16498
# Poissons Ratio (y) = 0.16665 0.12969
# Poissons Ratio (z) = 0.50687 0.74718
#
# Static dielectric constant tensor:
#      x y z
#    x 1.866650 0.000000 -0.022380 
#    y 0.000000 1.879860 0.000000 
#    z -0.022380 0.000000 1.947940 
# 
# From -- ./inp_files/56143.got.cif
#   From: 2010.05.17/outbox.cif.g08.bks.cpg/sg14_29_cif.got.tgz:56143.got - 2010.06.03 17:49:19.
