data_PCOD9241222
_publ_section_title
;
Structure prediction by ZEFSAII (Michael W. Deem and Ramdas Pophale) SiO2 
 PCOD9241222
Probable space group: P 21/C
;
_chemical_formula_sum "Si O2"
_cell_formula_units_Z 28
_cell_length_a 12.773164
_cell_length_b 5.211007
_cell_length_c 20.273676
_cell_angle_alpha 90.000000
_cell_angle_beta 95.165056
_cell_angle_gamma 90.000000
_cell_volume 1343.957697
_symmetry_space_group_name_H-M "P 21/C"
_symmetry_group_IT_number 14
_symmetry_cell_setting 'monoclinic'
loop_
_space_group_symop_operation_xyz
x,y,z
-x,1/2+y,1/2-z
-x,-y,-z
x,1/2-y,1/2+z
loop_
_atom_site_type_symbol
_atom_site_label
_atom_site_fract_x
_atom_site_fract_y
_atom_site_fract_z
Si Si1 0.274416 0.513842 0.782575
Si Si2 0.146373 0.541756 0.563956
Si Si3 0.878721 0.708923 0.805711
Si Si4 0.923673 0.740785 0.060120
Si Si5 0.501104 0.022356 0.706827
Si Si6 0.288807 0.816375 0.651623
Si Si7 0.104555 0.743561 0.354632
O O1 0.188040 0.298496 0.761052
O O2 0.387093 0.452859 0.820352
O O3 0.304349 0.611429 0.711056
O O4 0.211203 0.721786 0.820452
O O5 0.127608 0.406902 0.633467
O O6 0.142286 0.328495 0.507230
O O7 0.255145 0.690010 0.580996
O O8 0.046641 0.728818 0.547274
O O9 0.815249 0.467753 0.830236
O O10 0.003443 0.691462 0.802570
O O11 0.900218 0.465850 0.089845
O O12 0.904132 0.966363 0.112552
O O13 0.494274 0.812878 0.765857
O O14 0.394576 0.983117 0.659060
#
# Coordination Sequence:
#
# PCOD9241222 Si02
#       7
#     4   4   4   4   4   4   4
#     4  10  23  35  54  82 119 149 178 225 280 346
#     4   9  20  35  56  81 109 140 193 233 276 306
#     4  10  20  33  55  83 110 145 179 230 271 335
#     4  10  22  37  55  81 111 150 183 229 268 338
#     4  10  20  36  55  80 109 146 187 229 272 324
#     4  10  19  35  56  82 108 141 190 231 275 316
#     4  11  24  35  55  82 118 149 179 212 288 337
#
# _framework density 20.833991000000001
#
# number of rings (size 3 to 8) (size 9 to 14) (size 15 to 20)
#    0.000    2.000    2.857    0.000    6.000    1.714 
#    0.000    0.000    0.000    1.714    0.000    0.000 
#    0.000    0.000    0.000    0.000    0.000    0.000 
#
# Total GULP energy -156175.337540 kJ/mol
# GULP energy per Si atom -5577.690626 kJ/mol
# Density = 2.078657 g / cm^3
# Si number density = 20.833991 Si / 1000 Ang^3
#
#
#
# Elastic Constant Matrix: (Units=GPa)
#
#
# Indices 1 2 3 4 5 6 
#
# 1 94.9613 -5.2900 20.7928 0.0000 5.6812 0.0000
# 2 -5.2900 57.7652 17.1951 0.0000 2.2990 0.0000
# 3 20.7928 17.1951 41.7862 0.0000 1.9958 0.0000
# 4 0.0000 0.0000 0.0000 29.2294 0.0000 -0.7145
# 5 5.6812 2.2990 1.9958 0.0000 15.7048 0.0000
# 6 0.0000 0.0000 0.0000 -0.7145 0.0000 26.3815
#
#
#
# Elastic Compliance Matrix: (Units=1/GPa)
#
#
# Indices 1 2 3 4 5 6 
#
# 1 0.012632 0.003571 -0.007557 0.000000 -0.004132 0.000000
# 2 0.003571 0.020792 -0.010188 0.000000 -0.003041 0.000000
# 3 -0.007557 -0.010188 0.031876 0.000000 0.000174 0.000000
# 4 0.000000 0.000000 0.000000 0.034235 0.000000 0.000927
# 5 -0.004132 -0.003041 0.000174 0.000000 0.065593 0.000000
# 6 0.000000 0.000000 0.000000 0.000927 0.000000 0.037930
#
#
# Mechanical properties :
#
#
# Convention : Reuss Voigt Hill
#
# Bulk Modulus (GPa) = 27.06289 28.87870 27.97079
# Shear Modulus (GPa) = 20.51513 25.05080 22.78296
#
# Velocity S-wave (km/s) = 3.14139 3.47133 3.31047
# Velocity P-wave (km/s) = 5.11622 5.47341 5.29783
#
# Compressibility (1/GPa) = 0.03695097
#
# Stress axis : x y z
#
# Youngs Moduli (GPa) = 79.16707 48.09532 31.37175
#
# Poissons Ratio (x) = -0.17174 0.23709
# Poissons Ratio (y) = -0.28269 0.31960
# Poissons Ratio (z) = 0.59830 0.48997
#
# Static dielectric constant tensor:
#      x y z
#    x 1.836060 0.000000 0.041040 
#    y 0.000000 1.840550 0.000000 
#    z 0.041040 0.000000 1.762930 
# 
# From -- ./inp_files/66281.got.cif
#   From: 2010.05.17/outbox.cif.g08.bks.cpg/sg14_34_cif.got.tgz:66281.got - 2010.06.03 17:49:19.
