data_PCOD9241257
_publ_section_title
;
Structure prediction by ZEFSAII (Michael W. Deem and Ramdas Pophale) SiO2 
 PCOD9241257
Probable space group: P 21/C
;
_chemical_formula_sum "Si O2"
_cell_formula_units_Z 28
_cell_length_a 11.472281
_cell_length_b 11.403921
_cell_length_c 10.606014
_cell_angle_alpha 90.000000
_cell_angle_beta 125.622721
_cell_angle_gamma 90.000000
_cell_volume 1127.917121
_symmetry_space_group_name_H-M "P 21/C"
_symmetry_group_IT_number 14
_symmetry_cell_setting 'monoclinic'
loop_
_space_group_symop_operation_xyz
x,y,z
-x,1/2+y,1/2-z
-x,-y,-z
x,1/2-y,1/2+z
loop_
_atom_site_type_symbol
_atom_site_label
_atom_site_fract_x
_atom_site_fract_y
_atom_site_fract_z
Si Si1 0.757577 0.900937 0.973341
Si Si2 0.057451 0.428514 0.917891
Si Si3 0.531353 0.115613 0.101943
Si Si4 0.930866 0.356219 0.257626
Si Si5 0.626141 0.532958 0.894283
Si Si6 0.328503 0.548353 0.793227
Si Si7 0.208761 0.838940 0.886737
O O1 0.906985 0.839518 0.093454
O O2 0.772315 0.036505 0.034497
O O3 0.625572 0.839291 0.960853
O O4 0.713322 0.925680 0.801690
O O5 0.061650 0.514556 0.800561
O O6 0.922792 0.346344 0.797713
O O7 0.226308 0.398232 0.043679
O O8 0.000000 0.500000 0.000000
O O9 0.640805 0.188244 0.086278
O O10 0.606900 0.065932 0.274993
O O11 0.500000 0.000000 0.000000
O O12 0.814502 0.373770 0.295444
O O13 0.859157 0.278448 0.098941
O O14 0.468974 0.594989 0.806618
O O15 0.637829 0.475474 0.039655
#
# Coordination Sequence:
#
# PCOD9241257 Si02
#       7
#     4   4   4   4   4   4   4
#     4   9  19  36  58  83 118 157 195 242 298 356
#     4  10  19  35  58  81 117 158 192 239 296 355
#     4   9  17  33  59  83 111 148 194 239 294 348
#     4  10  21  35  55  88 117 152 200 241 296 352
#     4   9  17  33  58  82 108 150 193 232 294 352
#     4   9  18  34  57  80 114 153 189 236 295 355
#     4  10  20  35  56  87 116 155 196 246 292 349
#
# _framework density 24.824518000000001
#
# number of rings (size 3 to 8) (size 9 to 14) (size 15 to 20)
#    0.000    2.571    1.429    0.429    0.000    1.143 
#    2.571    0.000    0.000    1.714    0.000    0.000 
#    0.000    0.000    0.000    0.000    0.000    0.000 
#
# Total GULP energy -155945.783127 kJ/mol
# GULP energy per Si atom -5569.492255 kJ/mol
# Density = 2.476802 g / cm^3
# Si number density = 24.824518 Si / 1000 Ang^3
#
#
#
# Elastic Constant Matrix: (Units=GPa)
#
#
# Indices 1 2 3 4 5 6 
#
# 1 131.0241 19.6378 47.3229 0.0000 45.8988 0.0000
# 2 19.6378 24.9108 1.4447 0.0000 17.1930 0.0000
# 3 47.3229 1.4447 97.3264 0.0000 20.3223 0.0000
# 4 0.0000 0.0000 0.0000 32.0906 0.0000 17.6611
# 5 45.8988 17.1930 20.3223 0.0000 54.0482 0.0000
# 6 0.0000 0.0000 0.0000 17.6611 0.0000 33.3585
#
#
#
# Elastic Compliance Matrix: (Units=1/GPa)
#
#
# Indices 1 2 3 4 5 6 
#
# 1 0.012561 -0.004405 -0.004457 0.000000 -0.007590 0.000000
# 2 -0.004405 0.053735 0.004485 0.000000 -0.015038 0.000000
# 3 -0.004457 0.004485 0.012895 0.000000 -0.002490 0.000000
# 4 0.000000 0.000000 0.000000 0.043975 0.000000 -0.023282
# 5 -0.007590 -0.015038 -0.002490 0.000000 0.030667 0.000000
# 6 0.000000 0.000000 0.000000 -0.023282 0.000000 0.042304
#
#
# Mechanical properties :
#
#
# Convention : Reuss Voigt Hill
#
# Bulk Modulus (GPa) = 14.19742 43.34134 28.76938
# Shear Modulus (GPa) = 21.89401 36.22319 29.05860
#
# Velocity S-wave (km/s) = 2.97299 3.82405 3.42506
# Velocity P-wave (km/s) = 4.18526 6.08234 5.22069
#
# Compressibility (1/GPa) = 0.07043534
#
# Stress axis : x y z
#
# Youngs Moduli (GPa) = 79.61053 18.60969 77.54723
#
# Poissons Ratio (x) = 0.08198 0.34566
# Poissons Ratio (y) = 0.35072 -0.34777
# Poissons Ratio (z) = 0.35486 -0.08346
#
# Static dielectric constant tensor:
#      x y z
#    x 2.031410 0.000000 0.006770 
#    y 0.000000 3.963110 0.000000 
#    z 0.006770 0.000000 2.070440 
# 
# From -- ./inp_files/29860.got.cif
#   From: 2010.05.17/outbox.cif.g08.bks.cpg/sg14_15_cif.got.tgz:29860.got - 2010.06.03 17:49:19.
