data_PCOD9241657
_publ_section_title
;
Structure prediction by ZEFSAII (Michael W. Deem and Ramdas Pophale) SiO2 
 PCOD9241657
Probable space group: P 21/C
;
_chemical_formula_sum "Si O2"
_cell_formula_units_Z 16
_cell_length_a 11.079427
_cell_length_b 15.174071
_cell_length_c 5.280864
_cell_angle_alpha 90.000000
_cell_angle_beta 58.735801
_cell_angle_gamma 90.000000
_cell_volume 758.892770
_symmetry_space_group_name_H-M "P 21/C"
_symmetry_group_IT_number 14
_symmetry_cell_setting 'monoclinic'
loop_
_space_group_symop_operation_xyz
x,y,z
-x,1/2+y,1/2-z
-x,-y,-z
x,1/2-y,1/2+z
loop_
_atom_site_type_symbol
_atom_site_label
_atom_site_fract_x
_atom_site_fract_y
_atom_site_fract_z
Si Si1 0.238538 0.697089 0.120255
Si Si2 0.529722 0.604525 0.910784
Si Si3 0.375771 0.072245 0.192158
Si Si4 0.087525 0.522631 0.154610
O O1 0.223740 0.726457 0.427892
O O2 0.129470 0.623878 0.146160
O O3 0.393096 0.652383 0.948529
O O4 0.646438 0.611015 0.563949
O O5 0.500000 0.500000 0.000000
O O6 0.569249 0.637364 0.148389
O O7 0.235676 0.028744 0.457613
O O8 0.500000 0.000000 0.000000
O O9 0.000000 0.500000 0.500000
O O10 0.000000 0.500000 0.000000
#
# Coordination Sequence:
#
# PCOD9241657 Si02
#       4
#     4   4   4   4
#     4  12  25  41  67 103 139 171 223 289 344 394
#     4  10  19  36  67  93 130 162 222 268 319 390
#     4  10  19  36  67  93 128 156 231 271 306 383
#     4  12  25  41  67 103 127 186 236 269 329 416
#
# _framework density 21.083348999999998
#
# number of rings (size 3 to 8) (size 9 to 14) (size 15 to 20)
#    0.000    1.000    5.000    4.500    7.000    0.000 
#    0.000    0.000    0.000   30.000    0.000    0.000 
#    0.000    0.000    0.000    0.000    0.000    0.000 
#
# Total GULP energy -89225.671000 kJ/mol
# GULP energy per Si atom -5576.604437 kJ/mol
# Density = 2.103536 g / cm^3
# Si number density = 21.083349 Si / 1000 Ang^3
#
#
#
# Elastic Constant Matrix: (Units=GPa)
#
#
# Indices 1 2 3 4 5 6 
#
# 1 124.0070 23.2002 56.0851 0.0000 20.3746 0.0000
# 2 23.2002 33.4524 6.5940 0.0000 -3.5489 0.0000
# 3 56.0851 6.5940 174.3032 0.0000 23.2532 0.0000
# 4 0.0000 0.0000 0.0000 27.2990 0.0000 4.1628
# 5 20.3746 -3.5489 23.2532 0.0000 55.1175 0.0000
# 6 0.0000 0.0000 0.0000 4.1628 0.0000 35.4187
#
#
#
# Elastic Compliance Matrix: (Units=1/GPa)
#
#
# Indices 1 2 3 4 5 6 
#
# 1 0.011392 -0.007696 -0.002910 0.000000 -0.003479 0.000000
# 2 -0.007696 0.035663 0.000468 0.000000 0.004944 0.000000
# 3 -0.002910 0.000468 0.006896 0.000000 -0.001804 0.000000
# 4 0.000000 0.000000 0.000000 0.037300 0.000000 -0.004384
# 5 -0.003479 0.004944 -0.001804 0.000000 0.020508 0.000000
# 6 0.000000 0.000000 0.000000 -0.004384 0.000000 0.028749
#
#
# Mechanical properties :
#
#
# Convention : Reuss Voigt Hill
#
# Bulk Modulus (GPa) = 29.69651 55.94680 42.82165
# Shear Modulus (GPa) = 29.06812 39.95926 34.51369
#
# Velocity S-wave (km/s) = 3.71715 4.35823 4.05039
# Velocity P-wave (km/s) = 5.70428 7.20549 6.49838
#
# Compressibility (1/GPa) = 0.03367399
#
# Stress axis : x y z
#
# Youngs Moduli (GPa) = 87.78356 28.04035 145.00172
#
# Poissons Ratio (x) = 0.21579 0.42199
# Poissons Ratio (y) = 0.67557 -0.06780
# Poissons Ratio (z) = 0.25547 -0.01311
#
# Static dielectric constant tensor:
#      x y z
#    x 1.860350 0.000000 0.062080 
#    y 0.000000 1.841600 0.000000 
#    z 0.062080 0.000000 1.847720 
# 
# From -- ./inp_files/2438.got.cif
#   From: 2010.05.17/outbox.cif.g08.bks.cpg/sg14_2_cif.got.tgz:2438.got - 2010.06.03 17:49:19.
