data_PCOD9241544
_publ_section_title
;
Structure prediction by ZEFSAII (Michael W. Deem and Ramdas Pophale) SiO2 
 PCOD9241544
Probable space group: P 21/C
;
_chemical_formula_sum "Si O2"
_cell_formula_units_Z 28
_cell_length_a 10.853200
_cell_length_b 11.956160
_cell_length_c 16.471241
_cell_angle_alpha 90.000000
_cell_angle_beta 139.169473
_cell_angle_gamma 90.000000
_cell_volume 1397.451020
_symmetry_space_group_name_H-M "P 21/C"
_symmetry_group_IT_number 14
_symmetry_cell_setting 'monoclinic'
loop_
_space_group_symop_operation_xyz
x,y,z
-x,1/2+y,1/2-z
-x,-y,-z
x,1/2-y,1/2+z
loop_
_atom_site_type_symbol
_atom_site_label
_atom_site_fract_x
_atom_site_fract_y
_atom_site_fract_z
Si Si1 0.849970 0.174227 0.999617
Si Si2 0.639739 0.071693 0.176581
Si Si3 0.741117 0.653234 0.242062
Si Si4 0.694830 0.412484 0.270653
Si Si5 0.047839 0.780628 0.611232
Si Si6 0.497265 0.333683 0.434951
Si Si7 0.370291 0.237519 0.135395
O O1 0.032647 0.149638 0.143896
O O2 0.794942 0.073443 0.909485
O O3 0.899330 0.270564 0.958702
O O4 0.671244 0.200437 0.964696
O O5 0.850768 0.110298 0.303872
O O6 0.493105 0.133473 0.163680
O O7 0.609008 0.939554 0.158078
O O8 0.583102 0.122018 0.061253
O O9 0.670306 0.526771 0.211936
O O10 0.644802 0.730337 0.126930
O O11 0.682034 0.710799 0.297991
O O12 0.836145 0.326156 0.296137
O O13 0.504763 0.344646 0.192915
O O14 0.826746 0.760750 0.508182
#
# Coordination Sequence:
#
# PCOD9241544 Si02
#       7
#     4   4   4   4   4   4   4
#     4   9  19  34  59  83 105 145 186 230 274 322
#     4  10  22  38  56  78 115 150 183 220 285 338
#     4  11  20  35  58  89 109 139 197 230 269 333
#     4   9  18  33  56  89 104 142 181 231 285 306
#     4   8  19  37  57  83 104 143 189 225 278 326
#     4  11  22  37  55  82 112 152 182 226 277 337
#     4  10  19  36  61  79 112 144 180 233 280 324
#
# _framework density 20.036480000000001
#
# number of rings (size 3 to 8) (size 9 to 14) (size 15 to 20)
#    0.857    1.429    1.429    1.286    2.000    1.143 
#    2.571    4.286    0.000    0.000    0.000    0.000 
#    0.000    0.000    0.000    0.000    0.000    0.000 
#
# Total GULP energy -156072.823088 kJ/mol
# GULP energy per Si atom -5574.029396 kJ/mol
# Density = 1.999088 g / cm^3
# Si number density = 20.036480 Si / 1000 Ang^3
#
#
#
# Elastic Constant Matrix: (Units=GPa)
#
#
# Indices 1 2 3 4 5 6 
#
# 1 19.1024 14.4203 18.6351 0.0000 14.2707 0.0000
# 2 14.4203 70.6646 26.0890 0.0000 24.8368 0.0000
# 3 18.6351 26.0890 30.8924 0.0000 27.3644 0.0000
# 4 0.0000 0.0000 0.0000 22.9967 0.0000 -1.4453
# 5 14.2707 24.8368 27.3644 0.0000 30.9954 0.0000
# 6 0.0000 0.0000 0.0000 -1.4453 0.0000 14.8644
#
#
#
# Elastic Compliance Matrix: (Units=1/GPa)
#
#
# Indices 1 2 3 4 5 6 
#
# 1 0.140657 0.002176 -0.127434 0.000000 0.046001 0.000000
# 2 0.002176 0.020785 -0.014797 0.000000 -0.004594 0.000000
# 3 -0.127434 -0.014797 0.271889 0.000000 -0.169510 0.000000
# 4 0.000000 0.000000 0.000000 0.043752 0.000000 0.004254
# 5 0.046001 -0.004594 -0.169510 0.000000 0.164417 0.000000
# 6 0.000000 0.000000 0.000000 0.004254 0.000000 0.067689
#
#
# Mechanical properties :
#
#
# Convention : Reuss Voigt Hill
#
# Bulk Modulus (GPa) = 6.52644 26.54980 16.53812
# Shear Modulus (GPa) = 4.80598 17.87229 11.33914
#
# Velocity S-wave (km/s) = 1.55043 2.98986 2.38150
# Velocity P-wave (km/s) = 2.54351 5.01981 3.97919
#
# Compressibility (1/GPa) = 0.15322292
#
# Stress axis : x y z
#
# Youngs Moduli (GPa) = 7.10947 48.11253 3.67797
#
# Poissons Ratio (x) = -0.10470 0.46870
# Poissons Ratio (y) = -0.01547 0.05442
# Poissons Ratio (z) = 0.90599 0.71190
#
# Static dielectric constant tensor:
#      x y z
#    x 1.715450 0.000000 -0.015810 
#    y 0.000000 1.710110 0.000000 
#    z -0.015810 0.000000 1.752530 
# 
# From -- ./inp_files/57602.got.cif
#   From: 2010.05.17/outbox.cif.g08.bks.cpg/sg14_29_cif.got.tgz:57602.got - 2010.06.03 17:49:19.
