data_PCOD9241816
_publ_section_title
;
Structure prediction by ZEFSAII (Michael W. Deem and Ramdas Pophale) SiO2 
 PCOD9241816
Probable space group: P 21/C
;
_chemical_formula_sum "Si O2"
_cell_formula_units_Z 32
_cell_length_a 8.235398
_cell_length_b 18.803569
_cell_length_c 8.495737
_cell_angle_alpha 90.000000
_cell_angle_beta 66.637420
_cell_angle_gamma 90.000000
_cell_volume 1207.744738
_symmetry_space_group_name_H-M "P 21/C"
_symmetry_group_IT_number 14
_symmetry_cell_setting 'monoclinic'
loop_
_space_group_symop_operation_xyz
x,y,z
-x,1/2+y,1/2-z
-x,-y,-z
x,1/2-y,1/2+z
loop_
_atom_site_type_symbol
_atom_site_label
_atom_site_fract_x
_atom_site_fract_y
_atom_site_fract_z
Si Si1 0.432805 0.793503 0.444326
Si Si2 0.220719 0.182136 0.502328
Si Si3 0.588383 0.347396 0.407189
Si Si4 0.297530 0.476380 0.252614
Si Si5 0.888551 0.421934 0.153058
Si Si6 0.151604 0.884386 0.697754
Si Si7 0.806594 0.654746 0.503601
Si Si8 0.331491 0.457130 0.859626
O O1 0.636360 0.802467 0.415747
O O2 0.408333 0.818726 0.275944
O O3 0.368448 0.713609 0.487065
O O4 0.323166 0.834722 0.621455
O O5 0.185736 0.261419 0.449634
O O6 0.319115 0.127310 0.347511
O O7 0.049534 0.134551 0.617313
O O8 0.382795 0.363461 0.502204
O O9 0.744639 0.403136 0.341414
O O10 0.183340 0.547521 0.293852
O O11 0.198414 0.409995 0.368421
O O12 0.490142 0.498883 0.249333
O O13 0.325821 0.463156 0.054175
O O14 0.850166 0.404341 0.985460
O O15 0.841165 0.507041 0.155439
O O16 0.972019 0.850045 0.823702
#
# Coordination Sequence:
#
# PCOD9241816 Si02
#       8
#     4   4   4   4   4   4   4   4
#     4  10  21  39  62  91 128 172 219 267 324 388
#     4  11  22  35  60  94 125 162 207 267 322 382
#     4  10  21  39  62  91 128 172 219 267 324 388
#     4  10  19  37  64  88 117 164 218 266 317 388
#     4  10  21  38  61  89 123 165 214 268 321 384
#     4  10  21  38  61  89 123 165 214 268 321 384
#     4  11  22  35  60  94 125 162 207 267 322 382
#     4  10  19  37  64  88 117 164 218 266 317 388
#
# _framework density 26.495661999999999
#
# number of rings (size 3 to 8) (size 9 to 14) (size 15 to 20)
#    0.000    1.750    2.500    2.250    0.000    5.000 
#    0.000    2.500    0.000    2.250    0.000    0.000 
#    0.000    0.000    0.000    0.000    0.000    0.000 
#
# Total GULP energy -178538.313800 kJ/mol
# GULP energy per Si atom -5579.322306 kJ/mol
# Density = 2.643536 g / cm^3
# Si number density = 26.495662 Si / 1000 Ang^3
#
#
#
# Elastic Constant Matrix: (Units=GPa)
#
#
# Indices 1 2 3 4 5 6 
#
# 1 48.4351 -2.5934 27.7270 0.0000 -23.8084 0.0000
# 2 -2.5934 60.6846 34.0823 0.0000 -11.8199 0.0000
# 3 27.7270 34.0823 124.0243 0.0000 -14.8045 0.0000
# 4 0.0000 0.0000 0.0000 28.6134 0.0000 -7.5393
# 5 -23.8084 -11.8199 -14.8045 0.0000 37.4985 0.0000
# 6 0.0000 0.0000 0.0000 -7.5393 0.0000 -33.4289
#
#
#
# Elastic Compliance Matrix: (Units=1/GPa)
#
#
# Indices 1 2 3 4 5 6 
#
# 1 0.038246 0.011296 -0.008743 0.000000 0.024392 0.000000
# 2 0.011296 0.023482 -0.007597 0.000000 0.011574 0.000000
# 3 -0.008743 -0.007597 0.011708 0.000000 -0.003323 0.000000
# 4 0.000000 0.000000 0.000000 0.032988 0.000000 -0.007440
# 5 0.024392 0.011574 -0.003323 0.000000 0.044491 0.000000
# 6 0.000000 0.000000 0.000000 -0.007440 0.000000 -0.028236
#
#
# Mechanical properties :
#
#
# Convention : Reuss Voigt Hill
#
# Bulk Modulus (GPa) = 15.78564 39.06397 27.42480
# Shear Modulus (GPa) = 32.49219 18.13181 25.31200
#
# Velocity S-wave (km/s) = 3.50569 2.61881 3.09419
# Velocity P-wave (km/s) = 4.72834 4.89078 4.81025
#
# Compressibility (1/GPa) = 0.06334873
#
# Stress axis : x y z
#
# Youngs Moduli (GPa) = 26.14676 42.58525 85.40878
#
# Poissons Ratio (x) = -0.48102 0.74671
# Poissons Ratio (y) = -0.29534 0.64882
# Poissons Ratio (z) = 0.22859 0.32351
#
# Static dielectric constant tensor:
#      x y z
#    x 2.159360 0.000000 -0.041080 
#    y 0.000000 2.167110 0.000000 
#    z -0.041080 0.000000 2.082520 
# 
# From -- ./inp_files/26781.got.cif
#   From: 2010.05.17/outbox.cif.g08.bks.cpg/sg14_14_cif.got.tgz:26781.got - 2010.06.03 17:49:19.
