data_PCOD9241190
_publ_section_title
;
Structure prediction by ZEFSAII (Michael W. Deem and Ramdas Pophale) SiO2 
 PCOD9241190
Probable space group: P 21/C
;
_chemical_formula_sum "Si O2"
_cell_formula_units_Z 28
_cell_length_a 17.415560
_cell_length_b 6.211443
_cell_length_c 16.734733
_cell_angle_alpha 90.000000
_cell_angle_beta 138.832952
_cell_angle_gamma 90.000000
_cell_volume 1191.636980
_symmetry_space_group_name_H-M "P 21/C"
_symmetry_group_IT_number 14
_symmetry_cell_setting 'monoclinic'
loop_
_space_group_symop_operation_xyz
x,y,z
-x,1/2+y,1/2-z
-x,-y,-z
x,1/2-y,1/2+z
loop_
_atom_site_type_symbol
_atom_site_label
_atom_site_fract_x
_atom_site_fract_y
_atom_site_fract_z
Si Si1 0.592081 0.855716 0.886406
Si Si2 0.228060 0.503489 0.261696
Si Si3 0.946138 0.106370 0.838448
Si Si4 0.403697 0.743011 0.489094
Si Si5 0.833681 0.645589 0.396083
Si Si6 0.777207 0.878282 0.612569
Si Si7 0.582729 0.002960 0.703437
O O1 0.492512 0.717804 0.851823
O O2 0.607132 0.077189 0.945926
O O3 0.556075 0.893550 0.767821
O O4 0.713112 0.720618 0.985355
O O5 0.125771 0.675049 0.200120
O O6 0.352561 0.619039 0.372789
O O7 0.209608 0.382993 0.163455
O O8 0.223867 0.319823 0.326494
O O9 0.906607 0.940453 0.877049
O O10 0.901920 0.997261 0.721065
O O11 0.082115 0.140804 0.961700
O O12 0.312913 0.937235 0.430302
O O13 0.531115 0.848710 0.593864
O O14 0.721608 0.490668 0.311164
#
# Coordination Sequence:
#
# PCOD9241190 Si02
#       7
#     4   4   4   4   4   4   4
#     4  10  19  35  55  75 107 145 182 230 277 328
#     4   9  17  34  57  81 108 146 177 222 280 328
#     4   9  18  37  55  79 115 141 180 231 275 332
#     4   9  18  34  54  79 108 145 178 228 277 328
#     4  10  21  33  55  84 112 143 184 227 277 335
#     4   8  17  33  59  75 104 148 179 224 280 326
#     4  11  21  34  54  80 108 144 186 227 279 335
#
# _framework density 23.49709
#
# number of rings (size 3 to 8) (size 9 to 14) (size 15 to 20)
#    0.000    2.571    1.429    0.429    0.000    1.714 
#    0.000   24.286    9.429    0.000    0.000    0.000 
#    0.000    0.000    0.000    0.000    0.000    0.000 
#
# Total GULP energy -156273.211345 kJ/mol
# GULP energy per Si atom -5581.186119 kJ/mol
# Density = 2.344361 g / cm^3
# Si number density = 23.497090 Si / 1000 Ang^3
#
#
#
# Elastic Constant Matrix: (Units=GPa)
#
#
# Indices 1 2 3 4 5 6 
#
# 1 37.2909 18.7405 23.6341 0.0000 12.8080 0.0000
# 2 18.7405 80.1552 57.1410 0.0000 -18.7598 0.0000
# 3 23.6341 57.1410 180.5657 0.0000 10.1707 0.0000
# 4 0.0000 0.0000 0.0000 35.1009 0.0000 -15.8924
# 5 12.8080 -18.7598 10.1707 0.0000 17.9820 0.0000
# 6 0.0000 0.0000 0.0000 -15.8924 0.0000 14.4986
#
#
#
# Elastic Compliance Matrix: (Units=1/GPa)
#
#
# Indices 1 2 3 4 5 6 
#
# 1 0.136720 -0.102564 0.026932 0.000000 -0.219614 0.000000
# 2 -0.102564 0.106074 -0.031495 0.000000 0.201528 0.000000
# 3 0.026932 -0.031495 0.015402 0.000000 -0.060751 0.000000
# 4 0.000000 0.000000 0.000000 0.056559 0.000000 0.061997
# 5 -0.219614 0.201528 -0.060751 0.000000 0.456641 0.000000
# 6 0.000000 0.000000 0.000000 0.061997 0.000000 0.136929
#
#
# Mechanical properties :
#
#
# Convention : Reuss Voigt Hill
#
# Bulk Modulus (GPa) = 22.75728 55.22700 38.99214
# Shear Modulus (GPa) = 4.39666 26.74936 15.57301
#
# Velocity S-wave (km/s) = 1.36938 3.37770 2.57721
# Velocity P-wave (km/s) = 3.49377 6.22628 5.04842
#
# Compressibility (1/GPa) = 0.04394197
#
# Stress axis : x y z
#
# Youngs Moduli (GPa) = 7.31423 9.42739 64.92826
#
# Poissons Ratio (x) = 0.96691 -1.74865
# Poissons Ratio (y) = 0.75018 2.04489
# Poissons Ratio (z) = -0.19699 0.29691
#
# Static dielectric constant tensor:
#      x y z
#    x 1.845000 0.000000 0.009710 
#    y 0.000000 1.908080 0.000000 
#    z 0.009710 0.000000 1.951620 
# 
# From -- ./inp_files/74762.got.cif
#   From: 2010.05.17/outbox.cif.g08.bks.cpg/sg14_38_cif.got.tgz:74762.got - 2010.06.03 17:49:19.
