data_PCOD9241533
_publ_section_title
;
Structure prediction by ZEFSAII (Michael W. Deem and Ramdas Pophale) SiO2 
 PCOD9241533
Probable space group: P 21/C
;
_chemical_formula_sum "Si O2"
_cell_formula_units_Z 32
_cell_length_a 8.920422
_cell_length_b 13.773823
_cell_length_c 16.425889
_cell_angle_alpha 90.000000
_cell_angle_beta 130.227792
_cell_angle_gamma 90.000000
_cell_volume 1540.877341
_symmetry_space_group_name_H-M "P 21/C"
_symmetry_group_IT_number 14
_symmetry_cell_setting 'monoclinic'
loop_
_space_group_symop_operation_xyz
x,y,z
-x,1/2+y,1/2-z
-x,-y,-z
x,1/2-y,1/2+z
loop_
_atom_site_type_symbol
_atom_site_label
_atom_site_fract_x
_atom_site_fract_y
_atom_site_fract_z
Si Si1 0.949582 0.886078 0.226095
Si Si2 0.275607 0.043068 0.332502
Si Si3 0.964993 0.662679 0.980906
Si Si4 0.074039 0.369868 0.600960
Si Si5 0.246989 0.023130 0.003214
Si Si6 0.322960 0.520949 0.286881
Si Si7 0.312570 0.984907 0.595217
Si Si8 0.995754 0.822088 0.677375
O O1 0.985735 0.773076 0.228281
O O2 0.809502 0.924417 0.248887
O O3 0.834081 0.923186 0.104944
O O4 0.154412 0.943768 0.300910
O O5 0.192366 0.093679 0.221025
O O6 0.504277 0.025776 0.399945
O O7 0.200524 0.114872 0.376402
O O8 0.017491 0.702375 0.089838
O O9 0.140764 0.591702 0.014224
O O10 0.932195 0.754832 0.912799
O O11 0.781602 0.591548 0.931845
O O12 0.172330 0.417012 0.555442
O O13 0.858185 0.418240 0.530979
O O14 0.480193 0.016492 0.092251
O O15 0.374478 0.536385 0.210466
O O16 0.177224 0.607417 0.262780
#
# Coordination Sequence:
#
# PCOD9241533 Si02
#       8
#     4   4   4   4   4   4   4   4
#     4  10  21  38  58  84 122 152 186 244 297 337
#     4  10  22  40  60  88 116 151 197 240 284 348
#     4  10  22  40  59  83 121 154 190 239 290 344
#     4  10  20  36  60  89 116 146 191 242 286 339
#     4  10  19  36  60  87 118 148 187 240 296 335
#     4  10  21  37  60  86 115 152 196 238 285 349
#     4  10  22  40  60  85 116 156 196 238 285 342
#     4  10  22  39  57  84 119 154 193 236 289 349
#
# _framework density 20.767389000000001
#
# number of rings (size 3 to 8) (size 9 to 14) (size 15 to 20)
#    0.000    2.000    2.500    0.375    1.750    2.500 
#    0.000    0.000    0.000    0.000    0.000    0.000 
#    0.000    0.000    0.000    0.000    0.000    0.000 
#
# Total GULP energy -178843.234513 kJ/mol
# GULP energy per Si atom -5588.851079 kJ/mol
# Density = 2.072012 g / cm^3
# Si number density = 20.767389 Si / 1000 Ang^3
#
#
#
# Elastic Constant Matrix: (Units=GPa)
#
#
# Indices 1 2 3 4 5 6 
#
# 1 110.3714 29.6134 32.7516 0.0000 24.5409 0.0000
# 2 29.6134 144.4285 17.8131 0.0000 23.7162 0.0000
# 3 32.7516 17.8131 47.5450 0.0000 12.3340 0.0000
# 4 0.0000 0.0000 0.0000 16.0267 0.0000 -9.0417
# 5 24.5409 23.7162 12.3340 0.0000 44.6134 0.0000
# 6 0.0000 0.0000 0.0000 -9.0417 0.0000 15.6522
#
#
#
# Elastic Compliance Matrix: (Units=1/GPa)
#
#
# Indices 1 2 3 4 5 6 
#
# 1 0.012372 -0.000954 -0.007036 0.000000 -0.004353 0.000000
# 2 -0.000954 0.007829 -0.001435 0.000000 -0.003240 0.000000
# 3 -0.007036 -0.001435 0.027163 0.000000 -0.002876 0.000000
# 4 0.000000 0.000000 0.000000 0.092562 0.000000 0.053469
# 5 -0.004353 -0.003240 -0.002876 0.000000 0.027327 0.000000
# 6 0.000000 0.000000 0.000000 0.053469 0.000000 0.094776
#
#
# Mechanical properties :
#
#
# Convention : Reuss Voigt Hill
#
# Bulk Modulus (GPa) = 35.07106 51.41122 43.24114
# Shear Modulus (GPa) = 17.21861 30.06955 23.64408
#
# Velocity S-wave (km/s) = 2.88256 3.80928 3.37786
# Velocity P-wave (km/s) = 5.29180 6.64507 6.00667
#
# Compressibility (1/GPa) = 0.02851354
#
# Stress axis : x y z
#
# Youngs Moduli (GPa) = 80.82734 127.73806 36.81440
#
# Poissons Ratio (x) = 0.12188 0.25902
# Poissons Ratio (y) = 0.07712 0.05284
# Poissons Ratio (z) = 0.56868 0.18334
#
# Static dielectric constant tensor:
#      x y z
#    x 1.755020 0.000000 -0.045400 
#    y 0.000000 1.709160 0.000000 
#    z -0.045400 0.000000 1.753860 
# 
# From -- ./inp_files/65606.got.cif
#   From: 2010.05.17/outbox.cif.g08.bks.cpg/sg14_33_cif.got.tgz:65606.got - 2010.06.03 17:49:19.
