data_PCOD9241513
_publ_section_title
;
Structure prediction by ZEFSAII (Michael W. Deem and Ramdas Pophale) SiO2 
 PCOD9241513
Probable space group: P 21/C
;
_chemical_formula_sum "Si O2"
_cell_formula_units_Z 32
_cell_length_a 14.500206
_cell_length_b 18.096395
_cell_length_c 12.741889
_cell_angle_alpha 90.000000
_cell_angle_beta 150.738267
_cell_angle_gamma 90.000000
_cell_volume 1634.297686
_symmetry_space_group_name_H-M "P 21/C"
_symmetry_group_IT_number 14
_symmetry_cell_setting 'monoclinic'
loop_
_space_group_symop_operation_xyz
x,y,z
-x,1/2+y,1/2-z
-x,-y,-z
x,1/2-y,1/2+z
loop_
_atom_site_type_symbol
_atom_site_label
_atom_site_fract_x
_atom_site_fract_y
_atom_site_fract_z
Si Si1 0.890690 0.512006 0.741599
Si Si2 0.519122 0.330976 0.168773
Si Si3 0.251581 0.453203 0.831498
Si Si4 0.671154 0.027779 0.380343
Si Si5 0.640384 0.170247 0.217930
Si Si6 0.022125 0.123339 0.508790
Si Si7 0.606298 0.868895 0.226785
Si Si8 0.192676 0.961166 0.061525
O O1 0.849896 0.579406 0.778631
O O2 0.777676 0.499325 0.522791
O O3 0.104162 0.528322 0.917415
O O4 0.905175 0.438453 0.826864
O O5 0.567092 0.249167 0.181693
O O6 0.460617 0.332310 0.232188
O O7 0.699131 0.384043 0.332622
O O8 0.352968 0.374213 0.941889
O O9 0.261265 0.489316 0.726820
O O10 0.030851 0.447993 0.643191
O O11 0.347602 0.505579 0.016090
O O12 0.604843 0.105807 0.268897
O O13 0.602736 0.957210 0.245306
O O14 0.863903 0.171332 0.409387
O O15 0.529275 0.150054 0.002476
O O16 0.178942 0.155557 0.586885
#
# Coordination Sequence:
#
# PCOD9241513 Si02
#       8
#     4   4   4   4   4   4   4   4
#     4   8  15  31  59  88 106 135 191 241 280 330
#     4  11  24  37  55  87 122 150 189 243 296 349
#     4   9  20  38  60  84 116 158 201 235 279 350
#     4   8  17  35  60  87 111 142 193 244 278 332
#     4  11  22  36  58  87 116 149 189 237 296 348
#     4   9  18  35  57  84 114 141 184 244 289 336
#     4  10  21  38  59  82 112 152 192 236 290 343
#     4  10  19  36  60  82 114 160 196 237 291 342
#
# _framework density 19.580275
#
# number of rings (size 3 to 8) (size 9 to 14) (size 15 to 20)
#    0.000    2.500    0.000    3.000    0.000    4.000 
#    0.000    1.250    0.000   12.000    0.000    1.750 
#    0.000    0.000    0.000    0.000    0.000    0.000 
#
# Total GULP energy -178594.820326 kJ/mol
# GULP energy per Si atom -5581.088135 kJ/mol
# Density = 1.953571 g / cm^3
# Si number density = 19.580275 Si / 1000 Ang^3
#
#
#
# Elastic Constant Matrix: (Units=GPa)
#
#
# Indices 1 2 3 4 5 6 
#
# 1 102.7745 58.2598 49.0919 0.0000 0.0705 0.0000
# 2 58.2598 116.4967 69.9085 0.0000 -12.7450 0.0000
# 3 49.0919 69.9085 100.8887 0.0000 -13.1876 0.0000
# 4 0.0000 0.0000 0.0000 10.4542 0.0000 8.6252
# 5 0.0705 -12.7450 -13.1876 0.0000 35.7554 0.0000
# 6 0.0000 0.0000 0.0000 8.6252 0.0000 23.2454
#
#
#
# Elastic Compliance Matrix: (Units=1/GPa)
#
#
# Indices 1 2 3 4 5 6 
#
# 1 0.014606 -0.005381 -0.003817 0.000000 -0.003355 0.000000
# 2 -0.005381 0.016759 -0.008628 0.000000 0.002802 0.000000
# 3 -0.003817 -0.008628 0.018226 0.000000 0.003654 0.000000
# 4 0.000000 0.000000 0.000000 0.137858 0.000000 -0.051152
# 5 -0.003355 0.002802 0.003654 0.000000 0.030321 0.000000
# 6 0.000000 0.000000 0.000000 -0.051152 0.000000 0.061999
#
#
# Mechanical properties :
#
#
# Convention : Reuss Voigt Hill
#
# Bulk Modulus (GPa) = 71.74491 74.96447 73.35469
# Shear Modulus (GPa) = 15.62169 23.41766 19.51968
#
# Velocity S-wave (km/s) = 2.82765 3.46205 3.16081
# Velocity P-wave (km/s) = 6.88344 7.37224 7.13203
#
# Compressibility (1/GPa) = 0.01393827
#
# Stress axis : x y z
#
# Youngs Moduli (GPa) = 68.46576 59.66881 54.86720
#
# Poissons Ratio (x) = 0.32106 0.20944
# Poissons Ratio (y) = 0.36839 0.47342
# Poissons Ratio (z) = 0.26135 0.51485
#
# Static dielectric constant tensor:
#      x y z
#    x 1.724890 0.000000 0.022740 
#    y 0.000000 1.653870 0.000000 
#    z 0.022740 0.000000 1.724290 
# 
# From -- ./inp_files/33059.got.cif
#   From: 2010.05.17/outbox.cif.g08.bks.cpg/sg14_17_cif.got.tgz:33059.got - 2010.06.03 17:49:19.
