data_PCOD9241166
_publ_section_title
;
Structure prediction by ZEFSAII (Michael W. Deem and Ramdas Pophale) SiO2 
 PCOD9241166
Probable space group: P 21/C
;
_chemical_formula_sum "Si O2"
_cell_formula_units_Z 28
_cell_length_a 13.722911
_cell_length_b 13.293271
_cell_length_c 11.796155
_cell_angle_alpha 90.000000
_cell_angle_beta 149.216071
_cell_angle_gamma 90.000000
_cell_volume 1101.337637
_symmetry_space_group_name_H-M "P 21/C"
_symmetry_group_IT_number 14
_symmetry_cell_setting 'monoclinic'
loop_
_space_group_symop_operation_xyz
x,y,z
-x,1/2+y,1/2-z
-x,-y,-z
x,1/2-y,1/2+z
loop_
_atom_site_type_symbol
_atom_site_label
_atom_site_fract_x
_atom_site_fract_y
_atom_site_fract_z
Si Si1 0.929852 0.125426 0.798810
Si Si2 0.570134 0.125426 0.701179
Si Si3 0.806236 0.845666 0.133700
Si Si4 0.442639 0.656696 0.394696
Si Si5 0.306220 0.154336 0.633691
Si Si6 0.057373 0.843301 0.605308
Si Si7 0.250003 0.031607 0.249998
O O1 0.042655 0.102421 0.797648
O O2 0.074335 0.101934 0.046802
O O3 0.771783 0.042950 0.665240
O O4 0.873976 0.241468 0.760923
O O5 0.626008 0.241469 0.739069
O O6 0.457318 0.102424 0.702325
O O7 0.425666 0.101936 0.453194
O O8 0.728205 0.042949 0.834759
O O9 0.929360 0.819194 0.367292
O O10 0.603247 0.891174 0.972097
O O11 0.750008 0.750004 0.000000
O O12 0.570648 0.680800 0.632710
O O13 0.250004 0.605125 0.249999
O O14 0.103231 0.108828 0.472089
#
# Coordination Sequence:
#
# PCOD9241166 Si02
#       7
#     4   4   4   4   4   4   4
#     4  10  19  35  51  81 105 139 175 213 267 316
#     4  10  19  35  51  81 105 139 175 213 267 316
#     4   9  19  33  54  80 109 137 174 225 267 310
#     4  10  19  35  55  83 108 136 176 224 270 314
#     4   9  19  33  54  80 109 137 174 225 267 310
#     4  10  19  35  55  83 108 136 176 224 270 314
#     4  10  20  34  54  74 112 140 170 218 256 324
#
# _framework density 25.423628999999998
#
# number of rings (size 3 to 8) (size 9 to 14) (size 15 to 20)
#    0.000    2.286    1.429    3.429    0.000    4.571 
#   10.286    0.000    0.000    6.857    0.000    0.000 
#    0.000    0.000    0.000    0.000    0.000    0.000 
#
# Total GULP energy -156076.473422 kJ/mol
# GULP energy per Si atom -5574.159765 kJ/mol
# Density = 2.536576 g / cm^3
# Si number density = 25.423629 Si / 1000 Ang^3
#
#
#
# Elastic Constant Matrix: (Units=GPa)
#
#
# Indices 1 2 3 4 5 6 
#
# 1 228.6782 21.4099 25.9608 0.0000 45.4374 0.0000
# 2 21.4099 54.2303 -2.0957 0.0000 -0.6381 0.0000
# 3 25.9608 -2.0957 66.0919 0.0000 11.4836 0.0000
# 4 0.0000 0.0000 0.0000 13.8828 0.0000 -3.9747
# 5 45.4374 -0.6381 11.4836 0.0000 52.9519 0.0000
# 6 0.0000 0.0000 0.0000 -3.9747 0.0000 8.7131
#
#
#
# Elastic Compliance Matrix: (Units=1/GPa)
#
#
# Indices 1 2 3 4 5 6 
#
# 1 0.005672 -0.002351 -0.001509 0.000000 -0.004568 0.000000
# 2 -0.002351 0.019438 0.001194 0.000000 0.001993 0.000000
# 3 -0.001509 0.001194 0.016142 0.000000 -0.002192 0.000000
# 4 0.000000 0.000000 0.000000 0.082853 0.000000 0.037795
# 5 -0.004568 0.001993 -0.002192 0.000000 0.023304 0.000000
# 6 0.000000 0.000000 0.000000 0.037795 0.000000 0.132011
#
#
# Mechanical properties :
#
#
# Convention : Reuss Voigt Hill
#
# Bulk Modulus (GPa) = 27.84073 48.83893 38.33983
# Shear Modulus (GPa) = 16.85060 35.35791 26.10425
#
# Velocity S-wave (km/s) = 2.57727 3.73332 3.20780
# Velocity P-wave (km/s) = 4.45319 6.15104 5.36965
#
# Compressibility (1/GPa) = 0.03591860
#
# Stress axis : x y z
#
# Youngs Moduli (GPa) = 176.30180 51.44625 61.95116
#
# Poissons Ratio (x) = 0.12097 0.09347
# Poissons Ratio (y) = 0.41455 -0.07395
# Poissons Ratio (z) = 0.26600 -0.06141
#
# Static dielectric constant tensor:
#      x y z
#    x 2.106620 0.000000 0.077080 
#    y 0.000000 2.012270 0.000000 
#    z 0.077080 0.000000 2.029980 
# 
# From -- ./inp_files/30328.got.cif
#   From: 2010.05.17/outbox.cif.g08.bks.cpg/sg14_16_cif.got.tgz:30328.got - 2010.06.03 17:49:19.
