data_PCOD9241942
_publ_section_title
;
Structure prediction by ZEFSAII (Michael W. Deem and Ramdas Pophale) SiO2 
 PCOD9241942
Probable space group: P 21/C
;
_chemical_formula_sum "Si O2"
_cell_formula_units_Z 24
_cell_length_a 11.640910
_cell_length_b 8.402483
_cell_length_c 9.757349
_cell_angle_alpha 90.000000
_cell_angle_beta 64.278097
_cell_angle_gamma 90.000000
_cell_volume 859.821673
_symmetry_space_group_name_H-M "P 21/C"
_symmetry_group_IT_number 14
_symmetry_cell_setting 'monoclinic'
loop_
_space_group_symop_operation_xyz
x,y,z
-x,1/2+y,1/2-z
-x,-y,-z
x,1/2-y,1/2+z
loop_
_atom_site_type_symbol
_atom_site_label
_atom_site_fract_x
_atom_site_fract_y
_atom_site_fract_z
Si Si1 0.205001 0.967284 0.433588
Si Si2 0.651636 0.848009 0.872297
Si Si3 0.991662 0.170594 0.679169
Si Si4 0.437703 0.750186 0.824445
Si Si5 0.858409 0.510476 0.456354
Si Si6 0.660780 0.970398 0.271557
O O1 0.122064 0.869628 0.365769
O O2 0.315256 0.851480 0.432880
O O3 0.275086 0.105197 0.308166
O O4 0.102496 0.043434 0.587785
O O5 0.729671 0.953840 0.937051
O O6 0.669974 0.656978 0.890160
O O7 0.601244 0.145322 0.286889
O O8 0.052291 0.340496 0.621478
O O9 0.932121 0.141354 0.859845
O O10 0.554237 0.629565 0.739119
O O11 0.503094 0.855578 0.910084
O O12 0.801241 0.510793 0.636766
#
# Coordination Sequence:
#
# PCOD9241942 Si02
#       6
#     4   4   4   4   4   4
#     4  10  19  41  61  77 123 162 193 234 298 344
#     4   9  19  39  60  86 115 153 187 248 298 337
#     4  10  23  39  58  85 120 163 195 239 282 353
#     4  10  19  38  62  87 112 154 194 239 306 344
#     4  11  23  39  59  88 120 154 202 242 286 350
#     4  10  21  38  61  86 120 148 195 248 290 352
#
# _framework density 27.912765
#
# number of rings (size 3 to 8) (size 9 to 14) (size 15 to 20)
#    1.000    1.000    3.333    0.000    2.333    2.000 
#    0.000    5.000    0.000    0.000    0.000    0.000 
#    0.000    0.000    0.000    0.000    0.000    0.000 
#
# Total GULP energy -134195.581854 kJ/mol
# GULP energy per Si atom -5591.482577 kJ/mol
# Density = 2.784923 g / cm^3
# Si number density = 27.912765 Si / 1000 Ang^3
#
#
#
# Elastic Constant Matrix: (Units=GPa)
#
#
# Indices 1 2 3 4 5 6 
#
# 1 164.5795 32.7047 36.0915 0.0000 -34.9675 0.0000
# 2 32.7047 85.6858 28.5231 0.0000 -22.3865 0.0000
# 3 36.0915 28.5231 96.1459 0.0000 -36.2729 0.0000
# 4 0.0000 0.0000 0.0000 46.7642 0.0000 -29.1527
# 5 -34.9675 -22.3865 -36.2729 0.0000 44.7632 0.0000
# 6 0.0000 0.0000 0.0000 -29.1527 0.0000 60.4041
#
#
#
# Elastic Compliance Matrix: (Units=1/GPa)
#
#
# Indices 1 2 3 4 5 6 
#
# 1 0.007481 -0.001438 -0.000646 0.000000 0.004602 0.000000
# 2 -0.001438 0.013999 -0.002010 0.000000 0.004248 0.000000
# 3 -0.000646 -0.002010 0.015368 0.000000 0.010944 0.000000
# 4 0.000000 0.000000 0.000000 0.030586 0.000000 0.014762
# 5 0.004602 0.004248 0.010944 0.000000 0.036927 0.000000
# 6 0.000000 0.000000 0.000000 0.014762 0.000000 0.023680
#
#
# Mechanical properties :
#
#
# Convention : Reuss Voigt Hill
#
# Bulk Modulus (GPa) = 34.89189 60.11663 47.50426
# Shear Modulus (GPa) = 34.29764 46.99242 40.64503
#
# Velocity S-wave (km/s) = 3.50915 4.10756 3.82009
# Velocity P-wave (km/s) = 5.38018 6.63928 6.04261
#
# Compressibility (1/GPa) = 0.02865995
#
# Stress axis : x y z
#
# Youngs Moduli (GPa) = 133.66921 71.43558 65.06905
#
# Poissons Ratio (x) = 0.10275 0.04201
# Poissons Ratio (y) = 0.19226 0.13080
# Poissons Ratio (z) = 0.08629 0.14360
#
# Static dielectric constant tensor:
#      x y z
#    x 2.195550 0.000000 0.119160 
#    y 0.000000 2.215980 0.000000 
#    z 0.119160 0.000000 2.176720 
# 
# From -- ./inp_files/46129.got.cif
#   From: 2010.05.17/outbox.cif.g08.bks.cpg/sg14_24_cif.got.tgz:46129.got - 2010.06.03 17:49:19.
