data_PCOD9241073
_publ_section_title
;
Structure prediction by ZEFSAII (Michael W. Deem and Ramdas Pophale) SiO2 
 PCOD9241073
Probable space group: P 21/C
;
_chemical_formula_sum "Si O2"
_cell_formula_units_Z 20
_cell_length_a 12.519526
_cell_length_b 7.333256
_cell_length_c 12.860239
_cell_angle_alpha 90.000000
_cell_angle_beta 140.549846
_cell_angle_gamma 90.000000
_cell_volume 750.214669
_symmetry_space_group_name_H-M "P 21/C"
_symmetry_group_IT_number 14
_symmetry_cell_setting 'monoclinic'
loop_
_space_group_symop_operation_xyz
x,y,z
-x,1/2+y,1/2-z
-x,-y,-z
x,1/2-y,1/2+z
loop_
_atom_site_type_symbol
_atom_site_label
_atom_site_fract_x
_atom_site_fract_y
_atom_site_fract_z
Si Si1 0.282115 0.345350 0.754634
Si Si2 0.932797 0.534475 0.831909
Si Si3 0.390527 0.636515 0.487823
Si Si4 0.725380 0.933268 0.436326
Si Si5 0.378405 0.677121 0.720663
O O1 0.159006 0.232457 0.738488
O O2 0.265475 0.556771 0.712798
O O3 0.248846 0.234835 0.622080
O O4 0.481728 0.306750 0.921298
O O5 0.794071 0.386581 0.696908
O O6 0.000000 0.500000 0.000000
O O7 0.098933 0.505967 0.887472
O O8 0.500000 0.500000 0.500000
O O9 0.364572 0.605070 0.591289
O O10 0.662537 0.110739 0.323342
O O11 0.573944 0.861735 0.393088
#
# Coordination Sequence:
#
# PCOD9241073 Si02
#       5
#     4   4   4   4   4
#     4   9  19  37  61  83 114 155 192 241 295 353
#     4   9  19  37  58  82 119 159 193 241 297 350
#     4   9  18  35  59  83 114 158 189 234 301 352
#     4  10  19  34  57  84 116 152 192 239 293 341
#     4  11  19  35  61  86 114 157 196 240 292 348
#
# _framework density 26.659037000000001
#
# number of rings (size 3 to 8) (size 9 to 14) (size 15 to 20)
#    0.000    2.400    4.000    1.200    0.000    0.800 
#    7.200    0.000    0.000   63.600    0.000    0.000 
#    0.000    0.000    0.000    0.000    0.000    0.000 
#
# Total GULP energy -111590.645635 kJ/mol
# GULP energy per Si atom -5579.532282 kJ/mol
# Density = 2.659836 g / cm^3
# Si number density = 26.659037 Si / 1000 Ang^3
#
#
#
# Elastic Constant Matrix: (Units=GPa)
#
#
# Indices 1 2 3 4 5 6 
#
# 1 73.8659 18.1723 37.4115 0.0000 3.8571 0.0000
# 2 18.1723 103.6064 6.8057 0.0000 5.5107 0.0000
# 3 37.4115 6.8057 152.4967 0.0000 26.0402 0.0000
# 4 0.0000 0.0000 0.0000 16.5239 0.0000 -13.5880
# 5 3.8571 5.5107 26.0402 0.0000 51.8749 0.0000
# 6 0.0000 0.0000 0.0000 -13.5880 0.0000 39.1330
#
#
#
# Elastic Compliance Matrix: (Units=1/GPa)
#
#
# Indices 1 2 3 4 5 6 
#
# 1 0.016173 -0.002630 -0.004039 0.000000 0.001104 0.000000
# 2 -0.002630 0.010146 0.000375 0.000000 -0.001071 0.000000
# 3 -0.004039 0.000375 0.008189 0.000000 -0.003850 0.000000
# 4 0.000000 0.000000 0.000000 0.084704 0.000000 0.029411
# 5 0.001104 -0.001071 -0.003850 0.000000 0.021242 0.000000
# 6 0.000000 0.000000 0.000000 0.029411 0.000000 0.035766
#
#
# Mechanical properties :
#
#
# Convention : Reuss Voigt Hill
#
# Bulk Modulus (GPa) = 45.62005 50.52757 48.07381
# Shear Modulus (GPa) = 25.49539 39.34498 32.42018
#
# Velocity S-wave (km/s) = 3.09585 3.84586 3.49105
# Velocity P-wave (km/s) = 5.47070 6.22216 5.85849
#
# Compressibility (1/GPa) = 0.02192019
#
# Stress axis : x y z
#
# Youngs Moduli (GPa) = 61.83129 98.56562 122.11362
#
# Poissons Ratio (x) = 0.25924 0.49320
# Poissons Ratio (y) = 0.16263 -0.04583
# Poissons Ratio (z) = 0.24973 -0.03699
#
# Static dielectric constant tensor:
#      x y z
#    x 2.161270 0.000000 0.007470 
#    y 0.000000 2.081890 0.000000 
#    z 0.007470 0.000000 2.150010 
# 
# From -- ./inp_files/60022.got.cif
#   From: 2010.05.17/outbox.cif.g08.bks.cpg/sg14_31_cif.got.tgz:60022.got - 2010.06.03 17:49:19.
