data_PCOD9241038
_publ_section_title
;
Structure prediction by ZEFSAII (Michael W. Deem and Ramdas Pophale) SiO2 
 PCOD9241038
Probable space group: P 21/C
;
_chemical_formula_sum "Si O2"
_cell_formula_units_Z 28
_cell_length_a 22.973230
_cell_length_b 8.645963
_cell_length_c 18.190579
_cell_angle_alpha 90.000000
_cell_angle_beta 158.116574
_cell_angle_gamma 90.000000
_cell_volume 1346.678481
_symmetry_space_group_name_H-M "P 21/C"
_symmetry_group_IT_number 14
_symmetry_cell_setting 'monoclinic'
loop_
_space_group_symop_operation_xyz
x,y,z
-x,1/2+y,1/2-z
-x,-y,-z
x,1/2-y,1/2+z
loop_
_atom_site_type_symbol
_atom_site_label
_atom_site_fract_x
_atom_site_fract_y
_atom_site_fract_z
Si Si1 0.734648 0.072056 0.075262
Si Si2 0.322787 0.457482 0.780189
Si Si3 0.751640 0.721307 0.679486
Si Si4 0.824531 0.857619 0.045307
Si Si5 0.963640 0.113896 0.023923
Si Si6 0.375953 0.103511 0.611884
Si Si7 0.871852 0.367857 0.183574
O O1 0.718027 0.958251 0.125690
O O2 0.838511 0.227256 0.200654
O O3 0.811542 0.974853 0.098254
O O4 0.557608 0.107436 0.842992
O O5 0.278094 0.308239 0.778421
O O6 0.268836 0.422691 0.634450
O O7 0.220024 0.607231 0.682948
O O8 0.500000 0.500000 0.000000
O O9 0.657671 0.826026 0.509021
O O10 0.934562 0.737377 0.871790
O O11 0.725963 0.709906 0.954158
O O12 0.004282 0.819868 0.234022
O O13 0.041323 0.017893 0.181388
O O14 0.000000 0.000000 0.000000
O O15 0.300499 0.933834 0.534667
#
# Coordination Sequence:
#
# PCOD9241038 Si02
#       7
#     4   4   4   4   4   4   4
#     4  11  21  35  57  82 108 140 180 227 270 316
#     4  10  19  34  57  81 107 140 180 225 272 320
#     4   9  19  36  54  79 108 140 179 217 261 326
#     4  10  21  36  54  81 108 139 182 227 270 321
#     4   8  17  34  54  75 104 141 177 209 260 328
#     4  10  20  35  56  80 109 144 183 219 265 326
#     4  10  19  34  56  80 108 142 178 224 272 317
#
# _framework density 20.791896999999999
#
# number of rings (size 3 to 8) (size 9 to 14) (size 15 to 20)
#    0.000    2.286    0.000    3.429    0.000    3.429 
#    0.000    8.571    0.000    3.429    0.000    0.000 
#    0.000    0.000    0.000    0.000    0.000    0.000 
#
# Total GULP energy -155975.850739 kJ/mol
# GULP energy per Si atom -5570.566098 kJ/mol
# Density = 2.074457 g / cm^3
# Si number density = 20.791897 Si / 1000 Ang^3
#
#
#
# Elastic Constant Matrix: (Units=GPa)
#
#
# Indices 1 2 3 4 5 6 
#
# 1 43.0789 -7.3149 -9.0661 0.0000 2.6565 0.0000
# 2 -7.3149 51.0083 7.0312 0.0000 16.1328 0.0000
# 3 -9.0661 7.0312 94.9989 0.0000 21.1421 0.0000
# 4 0.0000 0.0000 0.0000 22.5513 0.0000 5.3759
# 5 2.6565 16.1328 21.1421 0.0000 25.2838 0.0000
# 6 0.0000 0.0000 0.0000 5.3759 0.0000 20.4878
#
#
#
# Elastic Compliance Matrix: (Units=1/GPa)
#
#
# Indices 1 2 3 4 5 6 
#
# 1 0.025849 0.006404 0.004308 0.000000 -0.010404 0.000000
# 2 0.006404 0.026478 0.003147 0.000000 -0.020198 0.000000
# 3 0.004308 0.003147 0.013825 0.000000 -0.014021 0.000000
# 4 0.000000 0.000000 0.000000 0.047302 0.000000 -0.012412
# 5 -0.010404 -0.020198 -0.014021 0.000000 0.065256 0.000000
# 6 0.000000 0.000000 0.000000 -0.012412 0.000000 0.052066
#
#
# Mechanical properties :
#
#
# Convention : Reuss Voigt Hill
#
# Bulk Modulus (GPa) = 10.65315 18.93185 14.79250
# Shear Modulus (GPa) = 21.33577 26.89365 24.11471
#
# Velocity S-wave (km/s) = 3.20685 3.60038 3.40930
# Velocity P-wave (km/s) = 4.34127 5.13895 4.75686
#
# Compressibility (1/GPa) = 0.09386891
#
# Stress axis : x y z
#
# Youngs Moduli (GPa) = 38.68641 37.76781 72.33251
#
# Poissons Ratio (x) = -0.24185 -0.31164
# Poissons Ratio (y) = -0.24774 -0.22760
# Poissons Ratio (z) = -0.16668 -0.11884
#
# Static dielectric constant tensor:
#      x y z
#    x 1.878460 0.000000 -0.101460 
#    y 0.000000 1.809380 0.000000 
#    z -0.101460 0.000000 1.885940 
# 
# From -- ./inp_files/64519.got.cif
#   From: 2010.05.17/outbox.cif.g08.bks.cpg/sg14_33_cif.got.tgz:64519.got - 2010.06.03 17:49:19.
