data_PCOD9241305
_publ_section_title
;
Structure prediction by ZEFSAII (Michael W. Deem and Ramdas Pophale) SiO2 
 PCOD9241305
Probable space group: P 21/C
;
_chemical_formula_sum "Si O2"
_cell_formula_units_Z 28
_cell_length_a 7.480145
_cell_length_b 18.891197
_cell_length_c 10.262747
_cell_angle_alpha 90.000000
_cell_angle_beta 60.067365
_cell_angle_gamma 90.000000
_cell_volume 1256.776795
_symmetry_space_group_name_H-M "P 21/C"
_symmetry_group_IT_number 14
_symmetry_cell_setting 'monoclinic'
loop_
_space_group_symop_operation_xyz
x,y,z
-x,1/2+y,1/2-z
-x,-y,-z
x,1/2-y,1/2+z
loop_
_atom_site_type_symbol
_atom_site_label
_atom_site_fract_x
_atom_site_fract_y
_atom_site_fract_z
Si Si1 0.829728 0.079302 0.328390
Si Si2 0.869405 0.862759 0.378153
Si Si3 0.700300 0.320924 0.532024
Si Si4 0.000764 0.546330 0.629924
Si Si5 0.115559 0.732482 0.262155
Si Si6 0.560212 0.588490 0.216194
Si Si7 0.800699 0.456084 0.118874
O O1 0.931143 0.155647 0.279486
O O2 0.652046 0.076001 0.284738
O O3 0.723291 0.071612 0.507177
O O4 0.993971 0.017816 0.237283
O O5 0.912614 0.780875 0.341771
O O6 0.097747 0.893024 0.336817
O O7 0.821131 0.904568 0.261439
O O8 0.716591 0.881624 0.549952
O O9 0.727024 0.270766 0.396755
O O10 0.793868 0.280803 0.625609
O O11 0.482587 0.353265 0.657774
O O12 0.829851 0.393052 0.456835
O O13 0.000000 0.500000 0.500000
O O14 0.638715 0.511793 0.234395
O O15 0.000000 0.500000 0.000000
#
# Coordination Sequence:
#
# PCOD9241305 Si02
#       7
#     4   4   4   4   4   4   4
#     4  11  20  36  67  85 122 156 209 243 302 360
#     4  10  22  38  63  86 125 157 206 244 316 361
#     4  10  22  39  64  85 127 156 207 247 306 362
#     4  11  19  36  62  92 114 160 204 248 293 369
#     4  10  21  39  59  85 119 170 188 249 310 365
#     4  10  20  36  62  90 113 156 202 255 284 367
#     4  10  19  35  59  89 115 153 193 251 305 346
#
# _framework density 22.279216000000002
#
# number of rings (size 3 to 8) (size 9 to 14) (size 15 to 20)
#    0.000    1.714    5.714    1.286    0.000    0.000 
#    0.000   14.286   15.714    0.000    0.000    0.000 
#    0.000    0.000    0.000    0.000    0.000    0.000 
#
# Total GULP energy -155882.930484 kJ/mol
# GULP energy per Si atom -5567.247517 kJ/mol
# Density = 2.222851 g / cm^3
# Si number density = 22.279216 Si / 1000 Ang^3
#
#
#
# Elastic Constant Matrix: (Units=GPa)
#
#
# Indices 1 2 3 4 5 6 
#
# 1 43.6411 19.6177 19.7580 0.0000 7.9908 0.0000
# 2 19.6177 148.9746 43.5954 0.0000 -9.2964 0.0000
# 3 19.7580 43.5954 154.4003 0.0000 10.6743 0.0000
# 4 0.0000 0.0000 0.0000 49.3158 0.0000 1.3238
# 5 7.9908 -9.2964 10.6743 0.0000 25.3248 0.0000
# 6 0.0000 0.0000 0.0000 1.3238 0.0000 24.5522
#
#
#
# Elastic Compliance Matrix: (Units=1/GPa)
#
#
# Indices 1 2 3 4 5 6 
#
# 1 0.027013 -0.003593 -0.001815 0.000000 -0.009077 0.000000
# 2 -0.003593 0.008141 -0.002187 0.000000 0.005044 0.000000
# 3 -0.001815 -0.002187 0.007563 0.000000 -0.003418 0.000000
# 4 0.000000 0.000000 0.000000 0.020307 0.000000 -0.001095
# 5 -0.009077 0.005044 -0.003418 0.000000 0.045643 0.000000
# 6 0.000000 0.000000 0.000000 -0.001095 0.000000 0.040789
#
#
# Mechanical properties :
#
#
# Convention : Reuss Voigt Hill
#
# Bulk Modulus (GPa) = 36.32860 56.99533 46.66196
# Shear Modulus (GPa) = 28.76537 37.44157 33.10347
#
# Velocity S-wave (km/s) = 3.59713 4.10391 3.85885
# Velocity P-wave (km/s) = 5.79602 6.93498 6.39092
#
# Compressibility (1/GPa) = 0.02752652
#
# Stress axis : x y z
#
# Youngs Moduli (GPa) = 37.01950 122.84225 132.22530
#
# Poissons Ratio (x) = 0.44131 0.23996
# Poissons Ratio (y) = 0.13299 0.28924
# Poissons Ratio (z) = 0.06718 0.26871
#
# Static dielectric constant tensor:
#      x y z
#    x 1.907570 0.000000 0.057010 
#    y 0.000000 1.890710 0.000000 
#    z 0.057010 0.000000 1.893080 
# 
# From -- ./inp_files/26590.got.cif
#   From: 2010.05.17/outbox.cif.g08.bks.cpg/sg14_14_cif.got.tgz:26590.got - 2010.06.03 17:49:19.
