data_PCOD9241778
_publ_section_title
;
Structure prediction by ZEFSAII (Michael W. Deem and Ramdas Pophale) SiO2 
 PCOD9241778
Probable space group: P 21/C
;
_chemical_formula_sum "Si O2"
_cell_formula_units_Z 28
_cell_length_a 21.043560
_cell_length_b 8.332604
_cell_length_c 15.375314
_cell_angle_alpha 90.000000
_cell_angle_beta 31.206866
_cell_angle_gamma 90.000000
_cell_volume 1396.890216
_symmetry_space_group_name_H-M "P 21/C"
_symmetry_group_IT_number 14
_symmetry_cell_setting 'monoclinic'
loop_
_space_group_symop_operation_xyz
x,y,z
-x,1/2+y,1/2-z
-x,-y,-z
x,1/2-y,1/2+z
loop_
_atom_site_type_symbol
_atom_site_label
_atom_site_fract_x
_atom_site_fract_y
_atom_site_fract_z
Si Si1 0.483381 0.401239 0.708785
Si Si2 0.232100 0.643545 0.355210
Si Si3 0.381097 0.049382 0.796977
Si Si4 0.732100 0.143546 0.855209
Si Si5 0.016619 0.098761 0.791215
Si Si6 0.881097 0.549381 0.296976
Si Si7 0.750000 0.375712 0.000000
O O1 0.443871 0.221931 0.729674
O O2 0.533822 0.426572 0.748285
O O3 0.600282 0.444848 0.511898
O O4 0.366251 0.514933 0.840591
O O5 0.342151 0.521602 0.249439
O O6 0.250000 0.749999 0.250000
O O7 0.226472 0.764695 0.444020
O O8 0.100281 0.555151 0.511899
O O9 0.250000 0.064208 0.000000
O O10 0.842152 0.021603 0.749438
O O11 0.726473 0.264695 0.944020
O O12 0.056129 0.278070 0.770327
O O13 0.133750 0.985068 0.659407
O O14 0.966178 0.073429 0.751714
#
# Coordination Sequence:
#
# PCOD9241778 Si02
#       7
#     4   4   4   4   4   4   4
#     4  11  20  38  66  87 120 164 201 248 305 361
#     4  11  24  41  62  91 125 160 204 256 302 358
#     4  10  19  37  62  89 114 158 204 245 300 359
#     4  11  24  41  62  91 125 160 204 256 302 358
#     4  11  20  38  66  87 120 164 201 248 305 361
#     4  10  19  37  62  89 114 158 204 245 300 359
#     4  12  22  40  64  90 120 166 204 248 306 364
#
# _framework density 20.044523999999999
#
# number of rings (size 3 to 8) (size 9 to 14) (size 15 to 20)
#    0.000    1.143    8.571    0.000    0.000    2.286 
#    0.000    1.429    0.000    0.000    0.000    0.000 
#    0.000    0.000    0.000    0.000    0.000    0.000 
#
# Total GULP energy -156194.898393 kJ/mol
# GULP energy per Si atom -5578.389228 kJ/mol
# Density = 1.999890 g / cm^3
# Si number density = 20.044524 Si / 1000 Ang^3
#
#
#
# Elastic Constant Matrix: (Units=GPa)
#
#
# Indices 1 2 3 4 5 6 
#
# 1 46.2875 33.6429 22.9148 0.0000 -12.5658 0.0000
# 2 33.6429 102.1839 13.6593 0.0000 -14.8859 0.0000
# 3 22.9148 13.6593 58.5361 0.0000 -20.6249 0.0000
# 4 0.0000 0.0000 0.0000 25.2919 0.0000 -19.3808
# 5 -12.5658 -14.8859 -20.6249 0.0000 41.1588 0.0000
# 6 0.0000 0.0000 0.0000 -19.3808 0.0000 24.4742
#
#
#
# Elastic Compliance Matrix: (Units=1/GPa)
#
#
# Indices 1 2 3 4 5 6 
#
# 1 0.034305 -0.009634 -0.010588 0.000000 0.001683 0.000000
# 2 -0.009634 0.013122 0.001634 0.000000 0.002623 0.000000
# 3 -0.010588 0.001634 0.024187 0.000000 0.009478 0.000000
# 4 0.000000 0.000000 0.000000 0.100559 0.000000 0.079632
# 5 0.001683 0.002623 0.009478 0.000000 0.030508 0.000000
# 6 0.000000 0.000000 0.000000 0.079632 0.000000 0.103919
#
#
# Mechanical properties :
#
#
# Convention : Reuss Voigt Hill
#
# Bulk Modulus (GPa) = 29.03857 38.60463 33.82160
# Shear Modulus (GPa) = 14.07438 27.30433 20.68935
#
# Velocity S-wave (km/s) = 2.65270 3.69478 3.21623
# Velocity P-wave (km/s) = 4.88885 6.12398 5.54094
#
# Compressibility (1/GPa) = 0.03443696
#
# Stress axis : x y z
#
# Youngs Moduli (GPa) = 29.15033 76.20842 41.34492
#
# Poissons Ratio (x) = 0.73419 0.43776
# Poissons Ratio (y) = 0.28083 -0.06754
# Poissons Ratio (z) = 0.30864 -0.12450
#
# Static dielectric constant tensor:
#      x y z
#    x 1.744940 0.000000 -0.041380 
#    y 0.000000 1.728070 0.000000 
#    z -0.041380 0.000000 1.732930 
# 
# From -- ./inp_files/50219.got.cif
#   From: 2010.05.17/outbox.cif.g08.bks.cpg/sg14_26_cif.got.tgz:50219.got - 2010.06.03 17:49:19.
