data_PCOD9241866
_publ_section_title
;
Structure prediction by ZEFSAII (Michael W. Deem and Ramdas Pophale) SiO2 
 PCOD9241866
Probable space group: P 21/C
;
_chemical_formula_sum "Si O2"
_cell_formula_units_Z 16
_cell_length_a 8.864579
_cell_length_b 9.514972
_cell_length_c 15.701455
_cell_angle_alpha 90.000000
_cell_angle_beta 150.829484
_cell_angle_gamma 90.000000
_cell_volume 645.506048
_symmetry_space_group_name_H-M "P 21/C"
_symmetry_group_IT_number 14
_symmetry_cell_setting 'monoclinic'
loop_
_space_group_symop_operation_xyz
x,y,z
-x,1/2+y,1/2-z
-x,-y,-z
x,1/2-y,1/2+z
loop_
_atom_site_type_symbol
_atom_site_label
_atom_site_fract_x
_atom_site_fract_y
_atom_site_fract_z
Si Si1 0.771889 0.334292 0.421956
Si Si2 0.294564 0.521752 0.082577
Si Si3 0.310427 0.436370 0.483962
Si Si4 0.946047 0.298730 0.843217
O O1 0.559935 0.434220 0.259046
O O2 0.641598 0.186689 0.394861
O O3 0.834146 0.437168 0.531598
O O4 0.008256 0.277664 0.466234
O O5 0.168277 0.432957 0.940562
O O6 0.000000 0.500000 0.000000
O O7 0.500000 0.500000 0.500000
O O8 0.048154 0.324022 0.330369
O O9 0.592144 0.349109 0.668379
#
# Coordination Sequence:
#
# PCOD9241866 Si02
#       4
#     4   4   4   4
#     4  11  20  41  72  99 130 177 232 271 330 397
#     4  10  19  37  69  99 131 169 237 277 318 391
#     4  12  27  46  67 103 141 176 220 285 347 394
#     4  11  23  47  67  98 134 181 232 272 326 415
#
# _framework density 24.786754999999999
#
# number of rings (size 3 to 8) (size 9 to 14) (size 15 to 20)
#    0.000    1.000    7.500    0.750    0.000    4.000 
#    4.500    2.500    0.000    0.000    0.000    0.000 
#    0.000    0.000    0.000    0.000    0.000    0.000 
#
# Total GULP energy -89180.255393 kJ/mol
# GULP energy per Si atom -5573.765962 kJ/mol
# Density = 2.473034 g / cm^3
# Si number density = 24.786755 Si / 1000 Ang^3
#
#
#
# Elastic Constant Matrix: (Units=GPa)
#
#
# Indices 1 2 3 4 5 6 
#
# 1 64.9860 28.7083 6.5498 0.0000 13.8172 0.0000
# 2 28.7083 240.8728 42.0352 0.0000 11.5459 0.0000
# 3 6.5498 42.0352 47.1343 0.0000 12.2453 0.0000
# 4 0.0000 0.0000 0.0000 40.3962 0.0000 12.1217
# 5 13.8172 11.5459 12.2453 0.0000 14.2939 0.0000
# 6 0.0000 0.0000 0.0000 12.1217 0.0000 41.6764
#
#
#
# Elastic Compliance Matrix: (Units=1/GPa)
#
#
# Indices 1 2 3 4 5 6 
#
# 1 0.020641 -0.002252 0.004954 0.000000 -0.022377 0.000000
# 2 -0.002252 0.005163 -0.004854 0.000000 0.002165 0.000000
# 3 0.004954 -0.004854 0.032262 0.000000 -0.028506 0.000000
# 4 0.000000 0.000000 0.000000 0.027122 0.000000 -0.007888
# 5 -0.022377 0.002165 -0.028506 0.000000 0.114263 0.000000
# 6 0.000000 0.000000 0.000000 -0.007888 0.000000 0.026289
#
#
# Mechanical properties :
#
#
# Convention : Reuss Voigt Hill
#
# Bulk Modulus (GPa) = 18.60049 56.39772 37.49911
# Shear Modulus (GPa) = 20.16403 37.65330 28.90867
#
# Velocity S-wave (km/s) = 2.85529 3.90178 3.41881
# Velocity P-wave (km/s) = 4.28844 6.56514 5.54490
#
# Compressibility (1/GPa) = 0.05376202
#
# Stress axis : x y z
#
# Youngs Moduli (GPa) = 48.44644 193.67392 30.99582
#
# Poissons Ratio (x) = 0.43615 -0.15354
# Poissons Ratio (y) = 0.10910 0.15046
# Poissons Ratio (z) = -0.23998 0.94013
#
# Static dielectric constant tensor:
#      x y z
#    x 2.060830 0.000000 -0.065400 
#    y 0.000000 2.117210 0.000000 
#    z -0.065400 0.000000 2.071310 
# 
# From -- ./inp_files/7348.got.cif
#   From: 2010.05.17/outbox.cif.g08.bks.cpg/sg14_4_cif.got.tgz:7348.got - 2010.06.03 17:49:19.
