data_PCOD9241147
_publ_section_title
;
Structure prediction by ZEFSAII (Michael W. Deem and Ramdas Pophale) SiO2 
 PCOD9241147
Probable space group: P 21/C
;
_chemical_formula_sum "Si O2"
_cell_formula_units_Z 24
_cell_length_a 9.365625
_cell_length_b 13.195038
_cell_length_c 11.364284
_cell_angle_alpha 90.000000
_cell_angle_beta 37.417368
_cell_angle_gamma 90.000000
_cell_volume 853.334166
_symmetry_space_group_name_H-M "P 21/C"
_symmetry_group_IT_number 14
_symmetry_cell_setting 'monoclinic'
loop_
_space_group_symop_operation_xyz
x,y,z
-x,1/2+y,1/2-z
-x,-y,-z
x,1/2-y,1/2+z
loop_
_atom_site_type_symbol
_atom_site_label
_atom_site_fract_x
_atom_site_fract_y
_atom_site_fract_z
Si Si1 0.772775 0.834352 0.895881
Si Si2 0.378708 0.993183 0.751531
Si Si3 0.085706 0.317712 0.012919
Si Si4 0.240268 0.833016 0.482726
Si Si5 0.214491 0.108913 0.654580
Si Si6 0.450190 0.622495 0.424707
O O1 0.806405 0.786156 0.003210
O O2 0.776285 0.727478 0.818646
O O3 0.542101 0.890440 0.998832
O O4 0.022608 0.880652 0.697920
O O5 0.560502 0.084220 0.653492
O O6 0.192517 0.039001 0.781927
O O7 0.531771 0.913859 0.572957
O O8 0.314378 0.950115 0.921455
O O9 0.035970 0.387080 0.160858
O O10 0.861677 0.304683 0.078404
O O11 0.292450 0.373844 0.807969
O O12 0.328928 0.731721 0.487517
#
# Coordination Sequence:
#
# PCOD9241147 Si02
#       6
#     4   4   4   4   4   4
#     4   9  19  37  54  81 118 139 181 241 271 328
#     4  10  19  34  62  82 107 155 186 221 278 346
#     4   8  19  34  55  84 112 145 179 234 277 328
#     4  11  20  34  62  84 108 152 189 224 285 324
#     4   8  17  36  53  81 111 141 181 232 268 327
#     4  10  20  35  57  84 113 146 186 231 271 337
#
# _framework density 28.124972
#
# number of rings (size 3 to 8) (size 9 to 14) (size 15 to 20)
#    1.000    1.667    1.667    0.000    0.000   11.333 
#    0.000    0.833    3.667    2.000    0.000    0.000 
#    0.000    0.000    0.000    0.000    0.000    0.000 
#
# Total GULP energy -134147.193591 kJ/mol
# GULP energy per Si atom -5589.466400 kJ/mol
# Density = 2.806096 g / cm^3
# Si number density = 28.124972 Si / 1000 Ang^3
#
#
#
# Elastic Constant Matrix: (Units=GPa)
#
#
# Indices 1 2 3 4 5 6 
#
# 1 210.4114 26.3864 29.9967 0.0000 -3.0413 0.0000
# 2 26.3864 87.0613 20.7894 0.0000 -5.4118 0.0000
# 3 29.9967 20.7894 81.9149 0.0000 3.6086 0.0000
# 4 0.0000 0.0000 0.0000 26.9057 0.0000 19.3804
# 5 -3.0413 -5.4118 3.6086 0.0000 44.1512 0.0000
# 6 0.0000 0.0000 0.0000 19.3804 0.0000 44.8658
#
#
#
# Elastic Compliance Matrix: (Units=1/GPa)
#
#
# Indices 1 2 3 4 5 6 
#
# 1 0.005130 -0.001151 -0.001602 0.000000 0.000343 0.000000
# 2 -0.001151 0.012623 -0.002857 0.000000 0.001701 0.000000
# 3 -0.001602 -0.002857 0.013589 0.000000 -0.001571 0.000000
# 4 0.000000 0.000000 0.000000 0.053955 0.000000 -0.023306
# 5 0.000343 0.001701 -0.001571 0.000000 0.023010 0.000000
# 6 0.000000 0.000000 0.000000 -0.023306 0.000000 0.032356
#
#
# Mechanical properties :
#
#
# Convention : Reuss Voigt Hill
#
# Bulk Modulus (GPa) = 49.69608 59.30362 54.49985
# Shear Modulus (GPa) = 31.52791 43.33222 37.43006
#
# Velocity S-wave (km/s) = 3.35176 3.92944 3.65204
# Velocity P-wave (km/s) = 5.71727 6.45901 6.09942
#
# Compressibility (1/GPa) = 0.02012231
#
# Stress axis : x y z
#
# Youngs Moduli (GPa) = 194.92273 79.22024 73.59099
#
# Poissons Ratio (x) = 0.09119 0.11787
# Poissons Ratio (y) = 0.22437 0.21025
# Poissons Ratio (z) = 0.31220 0.22634
#
# Static dielectric constant tensor:
#      x y z
#    x 2.227500 0.000000 0.063080 
#    y 0.000000 2.195520 0.000000 
#    z 0.063080 0.000000 2.233380 
# 
# From -- ./inp_files/44283.got.cif
#   From: 2010.05.17/outbox.cif.g08.bks.cpg/sg14_23_cif.got.tgz:44283.got - 2010.06.03 17:49:19.
