data_PCOD9241757
_publ_section_title
;
Structure prediction by ZEFSAII (Michael W. Deem and Ramdas Pophale) SiO2 
 PCOD9241757
Probable space group: P 21/C
;
_chemical_formula_sum "Si O2"
_cell_formula_units_Z 20
_cell_length_a 13.902226
_cell_length_b 13.788605
_cell_length_c 11.880146
_cell_angle_alpha 90.000000
_cell_angle_beta 21.792331
_cell_angle_gamma 90.000000
_cell_volume 845.445030
_symmetry_space_group_name_H-M "P 21/C"
_symmetry_group_IT_number 14
_symmetry_cell_setting 'monoclinic'
loop_
_space_group_symop_operation_xyz
x,y,z
-x,1/2+y,1/2-z
-x,-y,-z
x,1/2-y,1/2+z
loop_
_atom_site_type_symbol
_atom_site_label
_atom_site_fract_x
_atom_site_fract_y
_atom_site_fract_z
Si Si1 0.226536 0.288283 0.282770
Si Si2 0.086762 0.424352 0.251077
Si Si3 0.290307 0.887309 0.650696
Si Si4 0.012351 0.470707 0.855593
Si Si5 0.488004 0.093898 0.932088
O O1 0.230732 0.333055 0.150589
O O2 0.347650 0.182654 0.144434
O O3 0.927435 0.305166 0.642897
O O4 0.421283 0.349589 0.148822
O O5 0.232099 0.520222 0.137705
O O6 0.046812 0.440757 0.163312
O O7 0.810908 0.420483 0.615104
O O8 0.303580 0.432235 0.527987
O O9 0.789809 0.390280 0.077139
O O10 0.000000 0.500000 0.000000
O O11 0.500000 0.000000 0.000000
#
# Coordination Sequence:
#
# PCOD9241757 Si02
#       5
#     4   4   4   4   4
#     4  10  19  37  61  89 122 149 204 240 310 364
#     4   9  21  36  65  86 124 147 203 247 310 354
#     4   9  20  34  64  90 115 153 192 258 306 355
#     4  10  22  39  58  79 117 164 198 238 296 350
#     4  10  22  40  59  82 125 165 198 245 292 369
#
# _framework density 23.656181
#
# number of rings (size 3 to 8) (size 9 to 14) (size 15 to 20)
#    1.200    1.200    0.000    1.800    2.800    0.000 
#    0.000   12.000    0.000    0.000    0.000    0.000 
#    0.000    0.000    0.000    0.000    0.000    0.000 
#
# Total GULP energy -111463.185500 kJ/mol
# GULP energy per Si atom -5573.159275 kJ/mol
# Density = 2.360234 g / cm^3
# Si number density = 23.656181 Si / 1000 Ang^3
#
#
#
# Elastic Constant Matrix: (Units=GPa)
#
#
# Indices 1 2 3 4 5 6 
#
# 1 110.1006 25.1930 39.9742 0.0000 -5.9094 0.0000
# 2 25.1930 95.1689 -5.7827 0.0000 -6.0114 0.0000
# 3 39.9742 -5.7827 82.0461 0.0000 -41.2725 0.0000
# 4 0.0000 0.0000 0.0000 24.9466 0.0000 -13.3056
# 5 -5.9094 -6.0114 -41.2725 0.0000 51.9132 0.0000
# 6 0.0000 0.0000 0.0000 -13.3056 0.0000 17.4887
#
#
#
# Elastic Compliance Matrix: (Units=1/GPa)
#
#
# Indices 1 2 3 4 5 6 
#
# 1 0.013700 -0.004766 -0.010838 0.000000 -0.007609 0.000000
# 2 -0.004766 0.012503 0.006097 0.000000 0.005753 0.000000
# 3 -0.010838 0.006097 0.029385 0.000000 0.022834 0.000000
# 4 0.000000 0.000000 0.000000 0.067460 0.000000 0.051324
# 5 -0.007609 0.005753 0.022834 0.000000 0.037217 0.000000
# 6 0.000000 0.000000 0.000000 0.051324 0.000000 0.096228
#
#
# Mechanical properties :
#
#
# Convention : Reuss Voigt Hill
#
# Bulk Modulus (GPa) = 27.34211 45.12052 36.23132
# Shear Modulus (GPa) = 17.37934 34.06511 25.72223
#
# Velocity S-wave (km/s) = 2.71341 3.79886 3.30106
# Velocity P-wave (km/s) = 4.62601 6.19328 5.46611
#
# Compressibility (1/GPa) = 0.03657363
#
# Stress axis : x y z
#
# Youngs Moduli (GPa) = 72.99383 79.98039 34.03073
#
# Poissons Ratio (x) = 0.38117 0.36884
# Poissons Ratio (y) = 0.34787 -0.20748
# Poissons Ratio (z) = 0.79114 -0.48764
#
# Static dielectric constant tensor:
#      x y z
#    x 1.913380 0.000000 0.023960 
#    y 0.000000 1.970660 0.000000 
#    z 0.023960 0.000000 2.185490 
# 
# From -- ./inp_files/29959.got.cif
#   From: 2010.05.17/outbox.cif.g08.bks.cpg/sg14_15_cif.got.tgz:29959.got - 2010.06.03 17:49:19.
