data_PCOD9241476
_publ_section_title
;
Structure prediction by ZEFSAII (Michael W. Deem and Ramdas Pophale) SiO2 
 PCOD9241476
Probable space group: P 21/C
;
_chemical_formula_sum "Si O2"
_cell_formula_units_Z 20
_cell_length_a 14.714867
_cell_length_b 4.967314
_cell_length_c 15.495026
_cell_angle_alpha 90.000000
_cell_angle_beta 50.462624
_cell_angle_gamma 90.000000
_cell_volume 873.459205
_symmetry_space_group_name_H-M "P 21/C"
_symmetry_group_IT_number 14
_symmetry_cell_setting 'monoclinic'
loop_
_space_group_symop_operation_xyz
x,y,z
-x,1/2+y,1/2-z
-x,-y,-z
x,1/2-y,1/2+z
loop_
_atom_site_type_symbol
_atom_site_label
_atom_site_fract_x
_atom_site_fract_y
_atom_site_fract_z
Si Si1 0.487309 0.648680 0.621054
Si Si2 0.356083 0.246776 0.813855
Si Si3 0.073663 0.540120 0.689489
Si Si4 0.679200 0.175436 0.914232
Si Si5 0.763210 0.223339 0.543224
O O1 0.419739 0.376003 0.692889
O O2 0.543668 0.774902 0.672162
O O3 0.390763 0.803521 0.622266
O O4 0.597332 0.570979 0.494574
O O5 0.246729 0.447983 0.899781
O O6 0.303604 0.950373 0.860548
O O7 0.187764 0.578424 0.681864
O O8 0.118884 0.647036 0.568631
O O9 0.029882 0.235967 0.716466
O O10 0.693833 0.335779 0.994811
#
# Coordination Sequence:
#
# PCOD9241476 Si02
#       5
#     4   4   4   4   4
#     4  10  19  36  58  89 123 147 183 232 297 347
#     4  11  20  35  56  86 119 152 177 225 300 349
#     4  10  20  39  61  81 109 152 200 238 279 324
#     4   8  20  35  58  90 112 150 192 240 273 344
#     4   9  21  37  56  86 108 151 192 232 276 339
#
# _framework density 22.897461
#
# number of rings (size 3 to 8) (size 9 to 14) (size 15 to 20)
#    1.200    1.200    0.000    3.600    0.000    0.800 
#    0.000   12.000    0.000    7.200    0.000    0.000 
#    0.000    0.000    0.000    0.000    0.000    0.000 
#
# Total GULP energy -111382.673956 kJ/mol
# GULP energy per Si atom -5569.133698 kJ/mol
# Density = 2.284535 g / cm^3
# Si number density = 22.897461 Si / 1000 Ang^3
#
#
#
# Elastic Constant Matrix: (Units=GPa)
#
#
# Indices 1 2 3 4 5 6 
#
# 1 34.5872 -1.3495 5.3566 0.0000 -3.3086 0.0000
# 2 -1.3495 67.0994 12.3318 0.0000 12.1250 0.0000
# 3 5.3566 12.3318 83.8891 0.0000 0.2685 0.0000
# 4 0.0000 0.0000 0.0000 34.0995 0.0000 0.8131
# 5 -3.3086 12.1250 0.2685 0.0000 28.8727 0.0000
# 6 0.0000 0.0000 0.0000 0.8131 0.0000 17.9546
#
#
#
# Elastic Compliance Matrix: (Units=1/GPa)
#
#
# Indices 1 2 3 4 5 6 
#
# 1 0.029540 0.000365 -0.001950 0.000000 0.003250 0.000000
# 2 0.000365 0.016608 -0.002443 0.000000 -0.006910 0.000000
# 3 -0.001950 -0.002443 0.012402 0.000000 0.000687 0.000000
# 4 0.000000 0.000000 0.000000 0.029358 0.000000 -0.001329
# 5 0.003250 -0.006910 0.000687 0.000000 0.037903 0.000000
# 6 0.000000 0.000000 0.000000 -0.001329 0.000000 0.055756
#
#
# Mechanical properties :
#
#
# Convention : Reuss Voigt Hill
#
# Bulk Modulus (GPa) = 19.80418 24.25040 22.02729
# Shear Modulus (GPa) = 24.21861 27.46783 25.84322
#
# Velocity S-wave (km/s) = 3.25576 3.46728 3.36318
# Velocity P-wave (km/s) = 4.77505 5.16171 4.97214
#
# Compressibility (1/GPa) = 0.05049438
#
# Stress axis : x y z
#
# Youngs Moduli (GPa) = 33.85283 60.21134 80.63284
#
# Poissons Ratio (x) = -0.02199 0.15726
# Poissons Ratio (y) = -0.01237 0.19696
# Poissons Ratio (z) = 0.06602 0.14707
#
# Static dielectric constant tensor:
#      x y z
#    x 1.885530 0.000000 0.030840 
#    y 0.000000 1.849820 0.000000 
#    z 0.030840 0.000000 1.926310 
# 
# From -- ./inp_files/59852.got.cif
#   From: 2010.05.17/outbox.cif.g08.bks.cpg/sg14_30_cif.got.tgz:59852.got - 2010.06.03 17:49:19.
