data_PCOD9241137
_publ_section_title
;
Structure prediction by ZEFSAII (Michael W. Deem and Ramdas Pophale) SiO2 
 PCOD9241137
Probable space group: P 21/C
;
_chemical_formula_sum "Si O2"
_cell_formula_units_Z 32
_cell_length_a 25.494697
_cell_length_b 11.525803
_cell_length_c 19.550394
_cell_angle_alpha 90.000000
_cell_angle_beta 17.253880
_cell_angle_gamma 90.000000
_cell_volume 1703.950032
_symmetry_space_group_name_H-M "P 21/C"
_symmetry_group_IT_number 14
_symmetry_cell_setting 'monoclinic'
loop_
_space_group_symop_operation_xyz
x,y,z
-x,1/2+y,1/2-z
-x,-y,-z
x,1/2-y,1/2+z
loop_
_atom_site_type_symbol
_atom_site_label
_atom_site_fract_x
_atom_site_fract_y
_atom_site_fract_z
Si Si1 0.104280 0.966188 0.193541
Si Si2 0.207615 0.221686 0.239730
Si Si3 0.564535 0.496421 0.497996
Si Si4 0.870224 0.398618 0.189024
Si Si5 0.757290 0.086059 0.127454
Si Si6 0.637333 0.850855 0.338325
Si Si7 0.742804 0.651259 0.102745
Si Si8 0.917963 0.763292 0.756386
O O1 0.049487 0.101427 0.266568
O O2 0.189204 0.930390 0.160496
O O3 0.920893 0.897298 0.414751
O O4 0.219799 0.932753 0.983231
O O5 0.288366 0.328090 0.178940
O O6 0.181788 0.235575 0.191685
O O7 0.007761 0.205684 0.517214
O O8 0.337932 0.113329 0.097708
O O9 0.500000 0.500000 0.500000
O O10 0.709750 0.398068 0.335804
O O11 0.385678 0.454935 0.756587
O O12 0.000000 0.500000 0.000000
O O13 0.569938 0.129238 0.390171
O O14 0.752600 0.955201 0.162907
O O15 0.911435 0.177371 0.956548
O O16 0.659813 0.740121 0.260709
O O17 0.793678 0.717183 0.971033
#
# Coordination Sequence:
#
# PCOD9241137 Si02
#       8
#     4   4   4   4   4   4   4   4
#     4  11  20  41  65  93 126 160 216 268 329 371
#     4  11  23  37  64  92 130 162 210 267 316 387
#     4  11  21  34  61  97 118 157 213 266 320 368
#     4  10  19  34  60  96 122 155 199 268 323 369
#     4  10  26  40  67  90 127 180 209 259 323 393
#     4  11  22  44  62  94 128 167 218 254 319 393
#     4  11  23  38  66  94 126 161 217 272 309 391
#     4  11  24  42  63  93 132 170 206 268 327 379
#
# _framework density 18.779893999999999
#
# number of rings (size 3 to 8) (size 9 to 14) (size 15 to 20)
#    0.000    1.250    6.250    0.750    3.500    1.500 
#    0.000    0.000    5.500    0.000    0.000    0.000 
#    0.000    0.000    0.000    0.000    0.000    0.000 
#
# Total GULP energy -178247.134932 kJ/mol
# GULP energy per Si atom -5570.222967 kJ/mol
# Density = 1.873715 g / cm^3
# Si number density = 18.779894 Si / 1000 Ang^3
#
#
#
# Elastic Constant Matrix: (Units=GPa)
#
#
# Indices 1 2 3 4 5 6 
#
# 1 148.4049 51.2598 40.4873 0.0000 7.0428 0.0000
# 2 51.2598 60.3760 29.8599 0.0000 15.5880 0.0000
# 3 40.4873 29.8599 62.1039 0.0000 8.9762 0.0000
# 4 0.0000 0.0000 0.0000 24.0562 0.0000 8.6571
# 5 7.0428 15.5880 8.9762 0.0000 26.0827 0.0000
# 6 0.0000 0.0000 0.0000 8.6571 0.0000 23.9176
#
#
#
# Elastic Compliance Matrix: (Units=1/GPa)
#
#
# Indices 1 2 3 4 5 6 
#
# 1 0.010197 -0.007793 -0.003342 0.000000 0.003054 0.000000
# 2 -0.007793 0.030410 -0.007596 0.000000 -0.013456 0.000000
# 3 -0.003342 -0.007596 0.022254 0.000000 -0.002216 0.000000
# 4 0.000000 0.000000 0.000000 0.047795 0.000000 -0.017300
# 5 0.003054 -0.013456 -0.002216 0.000000 0.046319 0.000000
# 6 0.000000 0.000000 0.000000 -0.017300 0.000000 0.048072
#
#
# Mechanical properties :
#
#
# Convention : Reuss Voigt Hill
#
# Bulk Modulus (GPa) = 39.37314 57.12210 48.24762
# Shear Modulus (GPa) = 19.92235 24.76316 22.34275
#
# Velocity S-wave (km/s) = 3.26058 3.63519 3.45297
# Velocity P-wave (km/s) = 5.93180 6.93557 6.45323
#
# Compressibility (1/GPa) = 0.02539802
#
# Stress axis : x y z
#
# Youngs Moduli (GPa) = 98.06923 32.88413 44.93674
#
# Poissons Ratio (x) = 0.25626 0.15019
# Poissons Ratio (y) = 0.76424 0.34134
# Poissons Ratio (z) = 0.32777 0.24979
#
# Static dielectric constant tensor:
#      x y z
#    x 1.669860 0.000000 -0.002100 
#    y 0.000000 1.718290 0.000000 
#    z -0.002100 0.000000 1.675330 
# 
# From -- ./inp_files/61976.got.cif
#   From: 2010.05.17/outbox.cif.g08.bks.cpg/sg14_31_cif.got.tgz:61976.got - 2010.06.03 17:49:19.
