data_PCOD9241553
_publ_section_title
;
Structure prediction by ZEFSAII (Michael W. Deem and Ramdas Pophale) SiO2 
 PCOD9241553
Probable space group: P 21/C
;
_chemical_formula_sum "Si O2"
_cell_formula_units_Z 28
_cell_length_a 13.106500
_cell_length_b 12.638989
_cell_length_c 14.449175
_cell_angle_alpha 90.000000
_cell_angle_beta 29.844897
_cell_angle_gamma 90.000000
_cell_volume 1191.158172
_symmetry_space_group_name_H-M "P 21/C"
_symmetry_group_IT_number 14
_symmetry_cell_setting 'monoclinic'
loop_
_space_group_symop_operation_xyz
x,y,z
-x,1/2+y,1/2-z
-x,-y,-z
x,1/2-y,1/2+z
loop_
_atom_site_type_symbol
_atom_site_label
_atom_site_fract_x
_atom_site_fract_y
_atom_site_fract_z
Si Si1 0.450762 0.846236 0.334673
Si Si2 0.749841 0.193617 0.138028
Si Si3 0.711543 0.091432 0.356245
Si Si4 0.157884 0.302346 0.535647
Si Si5 0.094311 0.114810 0.732023
Si Si6 0.966452 0.027480 0.379059
Si Si7 0.930391 0.657184 0.052561
O O1 0.399741 0.734144 0.324661
O O2 0.446607 0.853254 0.449041
O O3 0.652546 0.882765 0.120563
O O4 0.249782 0.917480 0.472794
O O5 0.950227 0.150234 0.928529
O O6 0.838089 0.296864 0.122299
O O7 0.676069 0.115714 0.276092
O O8 0.739239 0.967118 0.357404
O O9 0.934844 0.144718 0.205088
O O10 0.161933 0.215442 0.615273
O O11 0.189528 0.244466 0.410947
O O12 0.966520 0.040926 0.760962
O O13 0.114640 0.114711 0.308836
O O14 0.922671 0.941708 0.491394
#
# Coordination Sequence:
#
# PCOD9241553 Si02
#       7
#     4   4   4   4   4   4   4
#     4  10  20  38  59  88 121 158 205 257 304 355
#     4  10  19  36  61  86 123 161 200 246 310 367
#     4  10  21  40  59  84 121 163 204 244 300 375
#     4  10  20  38  61  87 123 158 202 256 307 356
#     4  10  19  36  61  86 120 161 196 250 309 362
#     4   8  16  33  60  85 112 158 207 243 297 351
#     4   8  16  33  60  81 112 160 199 247 290 353
#
# _framework density 23.506533000000001
#
# number of rings (size 3 to 8) (size 9 to 14) (size 15 to 20)
#    0.000    2.571    1.429    0.429    0.000    0.000 
#   12.857    0.714    0.000    1.714    0.000    0.000 
#    0.000    0.000    0.000    0.000    0.000    0.000 
#
# Total GULP energy -155947.039212 kJ/mol
# GULP energy per Si atom -5569.537115 kJ/mol
# Density = 2.345303 g / cm^3
# Si number density = 23.506533 Si / 1000 Ang^3
#
#
#
# Elastic Constant Matrix: (Units=GPa)
#
#
# Indices 1 2 3 4 5 6 
#
# 1 79.5759 34.0116 44.3531 0.0000 31.5711 0.0000
# 2 34.0116 56.5643 57.7309 0.0000 13.4889 0.0000
# 3 44.3531 57.7309 153.5580 0.0000 21.5841 0.0000
# 4 0.0000 0.0000 0.0000 18.2566 0.0000 9.5907
# 5 31.5711 13.4889 21.5841 0.0000 25.9817 0.0000
# 6 0.0000 0.0000 0.0000 9.5907 0.0000 40.0188
#
#
#
# Elastic Compliance Matrix: (Units=1/GPa)
#
#
# Indices 1 2 3 4 5 6 
#
# 1 0.028636 -0.009718 -0.000493 0.000000 -0.029341 0.000000
# 2 -0.009718 0.033059 -0.010042 0.000000 0.002988 0.000000
# 3 -0.000493 -0.010042 0.010884 0.000000 -0.003229 0.000000
# 4 0.000000 0.000000 0.000000 0.062664 0.000000 -0.015018
# 5 -0.029341 0.002988 -0.003229 0.000000 0.075273 0.000000
# 6 0.000000 0.000000 0.000000 -0.015018 0.000000 0.028587
#
#
# Mechanical properties :
#
#
# Convention : Reuss Voigt Hill
#
# Bulk Modulus (GPa) = 31.17944 62.43216 46.80580
# Shear Modulus (GPa) = 17.22356 27.09159 22.15758
#
# Velocity S-wave (km/s) = 2.70981 3.39855 3.07353
# Velocity P-wave (km/s) = 4.80455 6.48208 5.70531
#
# Compressibility (1/GPa) = 0.03207242
#
# Stress axis : x y z
#
# Youngs Moduli (GPa) = 34.92079 30.24936 91.88038
#
# Poissons Ratio (x) = 0.29397 0.04533
# Poissons Ratio (y) = 0.33936 0.92262
# Poissons Ratio (z) = 0.01723 0.30375
#
# Static dielectric constant tensor:
#      x y z
#    x 2.050770 0.000000 -0.008820 
#    y 0.000000 1.979670 0.000000 
#    z -0.008820 0.000000 1.876660 
# 
# From -- ./inp_files/47339.got.cif
#   From: 2010.05.17/outbox.cif.g08.bks.cpg/sg14_24_cif.got.tgz:47339.got - 2010.06.03 17:49:19.
