data_PCOD9241551
_publ_section_title
;
Structure prediction by ZEFSAII (Michael W. Deem and Ramdas Pophale) SiO2 
 PCOD9241551
Probable space group: P 21/C
;
_chemical_formula_sum "Si O2"
_cell_formula_units_Z 32
_cell_length_a 9.107565
_cell_length_b 12.882805
_cell_length_c 14.092698
_cell_angle_alpha 90.000000
_cell_angle_beta 84.173672
_cell_angle_gamma 90.000000
_cell_volume 1644.968366
_symmetry_space_group_name_H-M "P 21/C"
_symmetry_group_IT_number 14
_symmetry_cell_setting 'monoclinic'
loop_
_space_group_symop_operation_xyz
x,y,z
-x,1/2+y,1/2-z
-x,-y,-z
x,1/2-y,1/2+z
loop_
_atom_site_type_symbol
_atom_site_label
_atom_site_fract_x
_atom_site_fract_y
_atom_site_fract_z
Si Si1 0.323620 0.638526 0.978807
Si Si2 0.215775 0.059225 0.729071
Si Si3 0.144388 0.487023 0.429027
Si Si4 0.335507 0.833046 0.699058
Si Si5 0.433814 0.269466 0.176356
Si Si6 0.866483 0.292150 0.624582
Si Si7 0.852703 0.938032 0.479643
Si Si8 0.798976 0.706839 0.459362
O O1 0.343644 0.681895 0.085005
O O2 0.281213 0.517111 0.988135
O O3 0.459576 0.664559 0.900928
O O4 0.188193 0.697967 0.936513
O O5 0.108268 0.044889 0.823924
O O6 0.325129 0.153545 0.737939
O O7 0.136552 0.072912 0.634710
O O8 0.312853 0.955698 0.713306
O O9 0.209482 0.602956 0.414054
O O10 0.228596 0.391057 0.470580
O O11 0.000000 0.500000 0.500000
O O12 0.470974 0.792843 0.753393
O O13 0.193122 0.784010 0.763781
O O14 0.328474 0.208222 0.110917
O O15 0.041278 0.305405 0.602445
O O16 0.815129 0.819296 0.511566
O O17 0.000000 0.000000 0.500000
#
# Coordination Sequence:
#
# PCOD9241551 Si02
#       8
#     4   4   4   4   4   4   4   4
#     4  10  20  38  61  84 115 156 194 234 301 352
#     4   9  20  38  59  83 120 153 191 246 288 346
#     4   9  19  38  58  83 118 153 188 240 296 338
#     4   9  20  38  59  77 118 160 190 231 296 348
#     4  10  22  38  57  91 118 152 196 247 288 361
#     4   9  18  39  58  82 113 151 195 239 280 356
#     4  10  19  36  61  86 115 153 196 247 293 352
#     4  10  20  36  59  85 119 146 196 250 292 345
#
# _framework density 19.453261999999999
#
# number of rings (size 3 to 8) (size 9 to 14) (size 15 to 20)
#    0.000    2.500    1.250    0.000    1.750    4.500 
#   11.250    4.375    0.000    0.000    0.000    0.000 
#    0.000    0.000    0.000    0.000    0.000    0.000 
#
# Total GULP energy -178143.683114 kJ/mol
# GULP energy per Si atom -5566.990097 kJ/mol
# Density = 1.940899 g / cm^3
# Si number density = 19.453262 Si / 1000 Ang^3
#
#
#
# Elastic Constant Matrix: (Units=GPa)
#
#
# Indices 1 2 3 4 5 6 
#
# 1 54.5758 0.9518 9.3151 0.0000 6.5578 0.0000
# 2 0.9518 75.7660 26.5573 0.0000 0.1561 0.0000
# 3 9.3151 26.5573 62.6872 0.0000 -12.6247 0.0000
# 4 0.0000 0.0000 0.0000 26.1197 0.0000 6.7378
# 5 6.5578 0.1561 -12.6247 0.0000 16.6804 0.0000
# 6 0.0000 0.0000 0.0000 6.7378 0.0000 21.3413
#
#
#
# Elastic Compliance Matrix: (Units=1/GPa)
#
#
# Indices 1 2 3 4 5 6 
#
# 1 0.021040 0.002118 -0.006717 0.000000 -0.013376 0.000000
# 2 0.002118 0.016246 -0.008726 0.000000 -0.007589 0.000000
# 3 -0.006717 -0.008726 0.025007 0.000000 0.021649 0.000000
# 4 0.000000 0.000000 0.000000 0.041680 0.000000 -0.013159
# 5 -0.013376 -0.007589 0.021649 0.000000 0.081666 0.000000
# 6 0.000000 0.000000 0.000000 -0.013159 0.000000 0.051012
#
#
# Mechanical properties :
#
#
# Convention : Reuss Voigt Hill
#
# Bulk Modulus (GPa) = 28.05636 29.63083 28.84359
# Shear Modulus (GPa) = 18.16981 23.24194 20.70588
#
# Velocity S-wave (km/s) = 3.05950 3.46028 3.26604
# Velocity P-wave (km/s) = 5.18984 5.58834 5.39277
#
# Compressibility (1/GPa) = 0.03564255
#
# Stress axis : x y z
#
# Youngs Moduli (GPa) = 47.52860 61.55343 39.98874
#
# Poissons Ratio (x) = -0.13036 0.26862
# Poissons Ratio (y) = -0.10066 0.34893
# Poissons Ratio (z) = 0.31927 0.53709
#
# Static dielectric constant tensor:
#      x y z
#    x 1.716410 0.000000 -0.007200 
#    y 0.000000 1.710520 0.000000 
#    z -0.007200 0.000000 1.688280 
# 
# From -- ./inp_files/40077.got.cif
#   From: 2010.05.17/outbox.cif.g08.bks.cpg/sg14_21_cif.got.tgz:40077.got - 2010.06.03 17:49:19.
