data_PCOD9241534
_publ_section_title
;
Structure prediction by ZEFSAII (Michael W. Deem and Ramdas Pophale) SiO2 
 PCOD9241534
Probable space group: P 21/C
;
_chemical_formula_sum "Si O2"
_cell_formula_units_Z 28
_cell_length_a 14.523609
_cell_length_b 16.227694
_cell_length_c 8.823426
_cell_angle_alpha 90.000000
_cell_angle_beta 136.109120
_cell_angle_gamma 90.000000
_cell_volume 1441.722718
_symmetry_space_group_name_H-M "P 21/C"
_symmetry_group_IT_number 14
_symmetry_cell_setting 'monoclinic'
loop_
_space_group_symop_operation_xyz
x,y,z
-x,1/2+y,1/2-z
-x,-y,-z
x,1/2-y,1/2+z
loop_
_atom_site_type_symbol
_atom_site_label
_atom_site_fract_x
_atom_site_fract_y
_atom_site_fract_z
Si Si1 0.271302 0.143493 0.671105
Si Si2 0.576954 0.359566 0.465039
Si Si3 0.144334 0.247275 0.768816
Si Si4 0.812608 0.019550 0.258962
Si Si5 0.705895 0.232623 0.853408
Si Si6 0.885633 0.325972 0.313555
Si Si7 0.016056 0.083860 0.730616
O O1 0.251974 0.212942 0.777750
O O2 0.199818 0.180575 0.439437
O O3 0.202394 0.061935 0.655771
O O4 0.423926 0.125024 0.816961
O O5 0.670656 0.439432 0.568702
O O6 0.636844 0.301739 0.668579
O O7 0.600326 0.312325 0.334874
O O8 0.099681 0.167896 0.813856
O O9 0.013441 0.277781 0.527038
O O10 0.909069 0.080056 0.466672
O O11 0.885774 0.991235 0.191846
O O12 0.782775 0.171422 0.830416
O O13 0.812619 0.274228 0.093708
O O14 0.937039 0.409138 0.293845
#
# Coordination Sequence:
#
# PCOD9241534 Si02
#       7
#     4   4   4   4   4   4   4
#     4  11  23  37  62  84 120 163 196 238 290 360
#     4  11  21  41  57  87 120 158 205 237 284 363
#     4  11  20  36  61  92 114 149 201 248 294 342
#     4  10  22  38  60  88 120 160 191 239 310 355
#     4  10  21  33  65  88 113 153 200 251 294 338
#     4  11  17  35  60  90 115 143 188 259 297 338
#     4  10  19  36  60  87 119 144 194 249 294 348
#
# _framework density 19.421211
#
# number of rings (size 3 to 8) (size 9 to 14) (size 15 to 20)
#    0.000    1.429    4.286    2.143    0.000    2.286 
#    0.000    2.857    0.000    1.714    0.000    0.000 
#    0.000    0.000    0.000    0.000    0.000    0.000 
#
# Total GULP energy -156304.045094 kJ/mol
# GULP energy per Si atom -5582.287325 kJ/mol
# Density = 1.937701 g / cm^3
# Si number density = 19.421211 Si / 1000 Ang^3
#
#
#
# Elastic Constant Matrix: (Units=GPa)
#
#
# Indices 1 2 3 4 5 6 
#
# 1 102.5018 5.6628 21.0124 0.0000 1.8450 0.0000
# 2 5.6628 41.8491 10.0927 0.0000 -2.9659 0.0000
# 3 21.0124 10.0927 53.2051 0.0000 3.8158 0.0000
# 4 0.0000 0.0000 0.0000 22.8726 0.0000 0.5273
# 5 1.8450 -2.9659 3.8158 0.0000 34.6355 0.0000
# 6 0.0000 0.0000 0.0000 0.5273 0.0000 30.0390
#
#
#
# Elastic Compliance Matrix: (Units=1/GPa)
#
#
# Indices 1 2 3 4 5 6 
#
# 1 0.010624 -0.000460 -0.004097 0.000000 -0.000154 0.000000
# 2 -0.000460 0.025312 -0.004815 0.000000 0.002722 0.000000
# 3 -0.004097 -0.004815 0.021511 0.000000 -0.002564 0.000000
# 4 0.000000 0.000000 0.000000 0.043738 0.000000 -0.000768
# 5 -0.000154 0.002722 -0.002564 0.000000 0.029396 0.000000
# 6 0.000000 0.000000 0.000000 -0.000768 0.000000 0.033303
#
#
# Mechanical properties :
#
#
# Convention : Reuss Voigt Hill
#
# Bulk Modulus (GPa) = 25.83903 30.12131 27.98017
# Shear Modulus (GPa) = 25.57154 28.22864 26.90009
#
# Velocity S-wave (km/s) = 3.63255 3.81661 3.72571
# Velocity P-wave (km/s) = 5.56123 5.91314 5.73988
#
# Compressibility (1/GPa) = 0.03870114
#
# Stress axis : x y z
#
# Youngs Moduli (GPa) = 94.12579 39.50720 46.48863
#
# Poissons Ratio (x) = 0.01819 0.19048
# Poissons Ratio (y) = 0.04333 0.22384
# Poissons Ratio (z) = 0.38567 0.19022
#
# Static dielectric constant tensor:
#      x y z
#    x 1.712030 0.000000 -0.012150 
#    y 0.000000 1.686880 0.000000 
#    z -0.012150 0.000000 1.650960 
# 
# From -- ./inp_files/16193.got.cif
#   From: 2010.05.17/outbox.cif.g08.bks.cpg/sg14_9_cif.got.tgz:16193.got - 2010.06.03 17:49:19.
