data_PCOD9241406
_publ_section_title
;
Structure prediction by ZEFSAII (Michael W. Deem and Ramdas Pophale) SiO2 
 PCOD9241406
Probable space group: P 21/C
;
_chemical_formula_sum "Si O2"
_cell_formula_units_Z 32
_cell_length_a 24.471620
_cell_length_b 15.799961
_cell_length_c 9.830770
_cell_angle_alpha 90.000000
_cell_angle_beta 153.073338
_cell_angle_gamma 90.000000
_cell_volume 1721.314813
_symmetry_space_group_name_H-M "P 21/C"
_symmetry_group_IT_number 14
_symmetry_cell_setting 'monoclinic'
loop_
_space_group_symop_operation_xyz
x,y,z
-x,1/2+y,1/2-z
-x,-y,-z
x,1/2-y,1/2+z
loop_
_atom_site_type_symbol
_atom_site_label
_atom_site_fract_x
_atom_site_fract_y
_atom_site_fract_z
Si Si1 0.920499 0.736485 0.741624
Si Si2 0.916747 0.246745 0.649308
Si Si3 0.506318 0.830554 0.866797
Si Si4 0.758372 0.591216 0.256516
Si Si5 0.227988 0.100017 0.538883
Si Si6 0.248437 0.597814 0.773486
Si Si7 0.768630 0.408859 0.938207
Si Si8 0.505256 0.338129 0.337560
O O1 0.831682 0.660851 0.502932
O O2 0.852705 0.826136 0.577655
O O3 0.034257 0.735149 0.893575
O O4 0.970212 0.731419 0.004216
O O5 0.822805 0.323768 0.447432
O O6 0.854619 0.160859 0.563044
O O7 0.391028 0.886975 0.572905
O O8 0.500611 0.744378 0.769342
O O9 0.632279 0.878042 0.123015
O O10 0.497152 0.812731 0.008179
O O11 0.787279 0.494613 0.358726
O O12 0.786733 0.601921 0.158284
O O13 0.615330 0.607602 0.954287
O O14 0.199231 0.005592 0.524686
O O15 0.224459 0.598515 0.882691
O O16 0.630050 0.387959 0.591753
#
# Coordination Sequence:
#
# PCOD9241406 Si02
#       8
#     4   4   4   4   4   4   4   4
#     4  12  24  39  61  86 118 161 204 240 287 344
#     4  12  24  39  61  86 118 161 204 240 287 344
#     4  10  19  35  65  91 116 149 191 241 301 353
#     4  10  21  39  63  90 119 153 196 245 293 349
#     4  10  21  39  64  90 116 155 199 241 292 356
#     4  10  21  39  63  90 119 153 196 245 293 349
#     4  10  21  39  64  90 116 155 199 241 292 356
#     4  10  19  35  65  91 116 149 191 241 301 353
#
# _framework density 18.590440000000001
#
# number of rings (size 3 to 8) (size 9 to 14) (size 15 to 20)
#    0.000    1.500    5.000    0.750    0.000    5.000 
#    0.000    0.000    0.000    1.500    0.000    0.000 
#    0.000    0.000    0.000    0.000    0.000    0.000 
#
# Total GULP energy -178711.794706 kJ/mol
# GULP energy per Si atom -5584.743585 kJ/mol
# Density = 1.854813 g / cm^3
# Si number density = 18.590440 Si / 1000 Ang^3
#
#
#
# Elastic Constant Matrix: (Units=GPa)
#
#
# Indices 1 2 3 4 5 6 
#
# 1 25.3640 7.0092 -15.5207 0.0000 11.0238 0.0000
# 2 7.0092 119.2259 22.8057 0.0000 2.5050 0.0000
# 3 -15.5207 22.8057 57.2572 0.0000 5.8866 0.0000
# 4 0.0000 0.0000 0.0000 1.8189 0.0000 -8.9007
# 5 11.0238 2.5050 5.8866 0.0000 17.4043 0.0000
# 6 0.0000 0.0000 0.0000 -8.9007 0.0000 24.9469
#
#
#
# Elastic Compliance Matrix: (Units=1/GPa)
#
#
# Indices 1 2 3 4 5 6 
#
# 1 0.098756 -0.011720 0.039053 0.000000 -0.074073 0.000000
# 2 -0.011720 0.010470 -0.008242 0.000000 0.008704 0.000000
# 3 0.039053 -0.008242 0.034971 0.000000 -0.035378 0.000000
# 4 0.000000 0.000000 0.000000 -0.737072 0.000000 -0.262976
# 5 -0.074073 0.008704 -0.035378 0.000000 0.115087 0.000000
# 6 0.000000 0.000000 0.000000 -0.262976 0.000000 -0.053741
#
#
# Mechanical properties :
#
#
# Convention : Reuss Voigt Hill
#
# Bulk Modulus (GPa) = 5.48307 25.60397 15.54352
# Shear Modulus (GPa) = -9.82477 21.33754 5.75639
#
# Velocity S-wave (km/s) = -2.30137 3.39155 1.76157
# Velocity P-wave (km/s) = 2.02632 5.39809 3.53790
#
# Compressibility (1/GPa) = 0.18237968
#
# Stress axis : x y z
#
# Youngs Moduli (GPa) = 10.12600 95.51010 28.59508
#
# Poissons Ratio (x) = 1.11934 -1.11672
# Poissons Ratio (y) = 0.11867 0.23568
# Poissons Ratio (z) = -0.39545 0.78719
#
# Static dielectric constant tensor:
#      x y z
#    x 1.620900 0.000000 0.015140 
#    y 0.000000 1.621160 0.000000 
#    z 0.015140 0.000000 1.637080 
# 
# From -- ./inp_files/19549.got.cif
#   From: 2010.05.17/outbox.cif.g08.bks.cpg/sg14_10_cif.got.tgz:19549.got - 2010.06.03 17:49:19.
