data_PCOD9241872
_publ_section_title
;
Structure prediction by ZEFSAII (Michael W. Deem and Ramdas Pophale) SiO2 
 PCOD9241872
Probable space group: P 21/C
;
_chemical_formula_sum "Si O2"
_cell_formula_units_Z 32
_cell_length_a 10.530274
_cell_length_b 10.054455
_cell_length_c 16.965008
_cell_angle_alpha 90.000000
_cell_angle_beta 69.263616
_cell_angle_gamma 90.000000
_cell_volume 1679.831699
_symmetry_space_group_name_H-M "P 21/C"
_symmetry_group_IT_number 14
_symmetry_cell_setting 'monoclinic'
loop_
_space_group_symop_operation_xyz
x,y,z
-x,1/2+y,1/2-z
-x,-y,-z
x,1/2-y,1/2+z
loop_
_atom_site_type_symbol
_atom_site_label
_atom_site_fract_x
_atom_site_fract_y
_atom_site_fract_z
Si Si1 0.844281 0.528834 0.234211
Si Si2 0.470755 0.642654 0.542036
Si Si3 0.136867 0.327589 0.317136
Si Si4 0.854400 0.482009 0.829840
Si Si5 0.168647 0.818909 0.125575
Si Si6 0.596011 0.971191 0.679582
Si Si7 0.569196 0.824654 0.197202
Si Si8 0.374476 0.407007 0.007064
O O1 0.842274 0.689822 0.236692
O O2 0.827240 0.447135 0.318265
O O3 0.726124 0.488172 0.201414
O O4 0.994173 0.494681 0.170965
O O5 0.500000 0.500000 0.500000
O O6 0.316022 0.680616 0.552386
O O7 0.493628 0.639380 0.632142
O O8 0.575993 0.756131 0.491858
O O9 0.149587 0.449201 0.254075
O O10 0.266492 0.334932 0.346329
O O11 0.980782 0.324415 0.382849
O O12 0.832115 0.323469 0.829670
O O13 0.748220 0.549295 0.911368
O O14 0.539531 0.829412 0.722088
O O15 0.645126 0.938519 0.580901
O O16 0.483310 0.082202 0.720663
O O17 0.500000 0.500000 0.000000
#
# Coordination Sequence:
#
# PCOD9241872 Si02
#       8
#     4   4   4   4   4   4   4   4
#     4   9  19  36  58  84 108 149 186 230 280 328
#     4  11  24  38  58  81 115 149 185 230 283 336
#     4   9  20  35  61  83 109 148 188 229 276 326
#     4  10  20  35  58  83 116 143 187 233 275 331
#     4  10  19  38  56  83 113 146 187 227 275 331
#     4  10  21  36  57  81 113 143 189 231 277 332
#     4  10  21  37  57  83 110 145 185 236 270 333
#     4  11  22  36  54  83 110 148 186 229 281 327
#
# _framework density 19.049527000000001
#
# number of rings (size 3 to 8) (size 9 to 14) (size 15 to 20)
#    0.000    2.000    2.500    0.750    3.500    1.500 
#    0.000    0.625    0.000    0.000    0.000    0.000 
#    0.000    0.000    0.000    0.000    0.000    0.000 
#
# Total GULP energy -178262.085394 kJ/mol
# GULP energy per Si atom -5570.690169 kJ/mol
# Density = 1.900617 g / cm^3
# Si number density = 19.049527 Si / 1000 Ang^3
#
#
#
# Elastic Constant Matrix: (Units=GPa)
#
#
# Indices 1 2 3 4 5 6 
#
# 1 57.6556 -9.8552 -7.1282 0.0000 -3.6948 0.0000
# 2 -9.8552 43.8333 -3.0137 0.0000 3.2033 0.0000
# 3 -7.1282 -3.0137 9.6804 0.0000 -7.3217 0.0000
# 4 0.0000 0.0000 0.0000 27.1323 0.0000 -2.2898
# 5 -3.6948 3.2033 -7.3217 0.0000 18.6575 0.0000
# 6 0.0000 0.0000 0.0000 -2.2898 0.0000 26.2618
#
#
#
# Elastic Compliance Matrix: (Units=1/GPa)
#
#
# Indices 1 2 3 4 5 6 
#
# 1 0.023223 0.006200 0.030864 0.000000 0.015646 0.000000
# 2 0.006200 0.025003 0.014265 0.000000 0.002533 0.000000
# 3 0.030864 0.014265 0.189479 0.000000 0.078019 0.000000
# 4 0.000000 0.000000 0.000000 0.037130 0.000000 0.003237
# 5 0.015646 0.002533 0.078019 0.000000 0.086878 0.000000
# 6 0.000000 0.000000 0.000000 0.003237 0.000000 0.038360
#
#
# Mechanical properties :
#
#
# Convention : Reuss Voigt Hill
#
# Bulk Modulus (GPa) = 2.93804 7.90835 5.42320
# Shear Modulus (GPa) = 12.16934 23.15475 17.66204
#
# Velocity S-wave (km/s) = 2.53024 3.49019 3.04824
# Velocity P-wave (km/s) = 3.17519 4.51690 3.90411
#
# Compressibility (1/GPa) = 0.34036241
#
# Stress axis : x y z
#
# Youngs Moduli (GPa) = 43.06140 39.99469 5.27764
#
# Poissons Ratio (x) = -0.24796 -0.16289
# Poissons Ratio (y) = -0.26697 -0.07529
# Poissons Ratio (z) = -1.32905 -0.57052
#
# Static dielectric constant tensor:
#      x y z
#    x 1.708190 0.000000 -0.003110 
#    y 0.000000 1.677670 0.000000 
#    z -0.003110 0.000000 1.610980 
# 
# From -- ./inp_files/57253.got.cif
#   From: 2010.05.17/outbox.cif.g08.bks.cpg/sg14_29_cif.got.tgz:57253.got - 2010.06.03 17:49:19.
