data_PCOD9241123
_publ_section_title
;
Structure prediction by ZEFSAII (Michael W. Deem and Ramdas Pophale) SiO2 
 PCOD9241123
Probable space group: P 21/C
;
_chemical_formula_sum "Si O2"
_cell_formula_units_Z 24
_cell_length_a 8.584245
_cell_length_b 9.742436
_cell_length_c 13.550458
_cell_angle_alpha 90.000000
_cell_angle_beta 55.941459
_cell_angle_gamma 90.000000
_cell_volume 938.854348
_symmetry_space_group_name_H-M "P 21/C"
_symmetry_group_IT_number 14
_symmetry_cell_setting 'monoclinic'
loop_
_space_group_symop_operation_xyz
x,y,z
-x,1/2+y,1/2-z
-x,-y,-z
x,1/2-y,1/2+z
loop_
_atom_site_type_symbol
_atom_site_label
_atom_site_fract_x
_atom_site_fract_y
_atom_site_fract_z
Si Si1 0.415533 0.600877 0.386012
Si Si2 0.094457 0.222232 0.955109
Si Si3 0.039748 0.006940 0.123950
Si Si4 0.735013 0.389613 0.054710
Si Si5 0.740502 0.095644 0.788275
Si Si6 0.487030 0.352250 0.867775
O O1 0.233935 0.536921 0.501080
O O2 0.597777 0.261426 0.087662
O O3 0.593879 0.524768 0.365138
O O4 0.421767 0.590033 0.265272
O O5 0.305870 0.264951 0.899167
O O6 0.012270 0.159309 0.088584
O O7 0.100877 0.100029 0.874564
O O8 0.949354 0.334779 0.961080
O O9 0.072229 0.957602 0.223796
O O10 0.749882 0.410585 0.167295
O O11 0.629886 0.519462 0.043224
O O12 0.644094 0.243189 0.851897
#
# Coordination Sequence:
#
# PCOD9241123 Si02
#       6
#     4   4   4   4   4   4
#     4   9  18  34  57  80 107 144 186 227 269 330
#     4  10  20  36  57  81 114 152 181 227 285 335
#     4  10  20  36  59  83 109 147 196 226 266 339
#     4   9  20  36  55  82 117 145 180 230 292 329
#     4  10  19  36  59  84 105 146 198 230 264 332
#     4  10  19  34  60  80 112 144 183 231 281 328
#
# _framework density 25.563071000000001
#
# number of rings (size 3 to 8) (size 9 to 14) (size 15 to 20)
#    0.000    2.333    1.667    1.000    0.000    0.000 
#    6.000    3.333    3.667    0.000    0.000    0.000 
#    0.000    0.000    0.000    0.000    0.000    0.000 
#
# Total GULP energy -133815.801765 kJ/mol
# GULP energy per Si atom -5575.658407 kJ/mol
# Density = 2.550489 g / cm^3
# Si number density = 25.563071 Si / 1000 Ang^3
#
#
#
# Elastic Constant Matrix: (Units=GPa)
#
#
# Indices 1 2 3 4 5 6 
#
# 1 67.8149 58.9875 16.8955 0.0000 10.6671 0.0000
# 2 58.9875 104.6742 3.7549 0.0000 0.4871 0.0000
# 3 16.8955 3.7549 51.5453 0.0000 9.3669 0.0000
# 4 0.0000 0.0000 0.0000 22.7767 0.0000 -17.2235
# 5 10.6671 0.4871 9.3669 0.0000 44.8451 0.0000
# 6 0.0000 0.0000 0.0000 -17.2235 0.0000 13.8420
#
#
#
# Elastic Compliance Matrix: (Units=1/GPa)
#
#
# Indices 1 2 3 4 5 6 
#
# 1 0.034544 -0.019122 -0.008809 0.000000 -0.006169 0.000000
# 2 -0.019122 0.020164 0.004171 0.000000 0.003458 0.000000
# 3 -0.008809 0.004171 0.022464 0.000000 -0.002642 0.000000
# 4 0.000000 0.000000 0.000000 0.743117 0.000000 0.924653
# 5 -0.006169 0.003458 -0.002642 0.000000 0.024281 0.000000
# 6 0.000000 0.000000 0.000000 0.924653 0.000000 1.222781
#
#
# Mechanical properties :
#
#
# Convention : Reuss Voigt Hill
#
# Bulk Modulus (GPa) = 33.72553 42.59004 38.15778
# Shear Modulus (GPa) = 2.35321 25.91920 14.13621
#
# Velocity S-wave (km/s) = 0.96049 3.18768 2.35413
# Velocity P-wave (km/s) = 3.80155 5.49958 4.72743
#
# Compressibility (1/GPa) = 0.02965113
#
# Stress axis : x y z
#
# Youngs Moduli (GPa) = 28.94857 49.59410 44.51555
#
# Poissons Ratio (x) = 0.94834 0.39213
# Poissons Ratio (y) = 0.55356 -0.18565
# Poissons Ratio (z) = 0.25500 -0.20683
#
# Static dielectric constant tensor:
#      x y z
#    x 2.054740 0.000000 0.005640 
#    y 0.000000 2.135020 0.000000 
#    z 0.005640 0.000000 2.059120 
# 
# From -- ./inp_files/39573.got.cif
#   From: 2010.05.17/outbox.cif.g08.bks.cpg/sg14_20_cif.got.tgz:39573.got - 2010.06.03 17:49:19.
