data_PCOD9241079
_publ_section_title
;
Structure prediction by ZEFSAII (Michael W. Deem and Ramdas Pophale) SiO2 
 PCOD9241079
Probable space group: P 21/C
;
_chemical_formula_sum "Si O2"
_cell_formula_units_Z 28
_cell_length_a 9.258713
_cell_length_b 4.976753
_cell_length_c 29.029730
_cell_angle_alpha 90.000000
_cell_angle_beta 89.951848
_cell_angle_gamma 90.000000
_cell_volume 1337.640940
_symmetry_space_group_name_H-M "P 21/C"
_symmetry_group_IT_number 14
_symmetry_cell_setting 'monoclinic'
loop_
_space_group_symop_operation_xyz
x,y,z
-x,1/2+y,1/2-z
-x,-y,-z
x,1/2-y,1/2+z
loop_
_atom_site_type_symbol
_atom_site_label
_atom_site_fract_x
_atom_site_fract_y
_atom_site_fract_z
Si Si1 0.985560 0.744220 0.144880
Si Si2 0.647839 0.045097 0.410814
Si Si3 0.906743 0.634795 0.741141
Si Si4 0.158699 0.445797 0.441044
Si Si5 0.908020 0.680903 0.966903
Si Si6 0.183537 0.250203 0.164489
Si Si7 0.485249 0.945901 0.945377
O O1 0.051064 0.454570 0.155392
O O2 0.880291 0.827054 0.187059
O O3 0.899170 0.738940 0.097131
O O4 0.121437 0.959292 0.148084
O O5 0.796858 0.995271 0.438397
O O6 0.685533 0.894177 0.362723
O O7 0.532655 0.856998 0.436085
O O8 0.589005 0.346225 0.417242
O O9 0.796590 0.735609 0.780242
O O10 0.953989 0.328403 0.749731
O O11 0.169650 0.368730 0.495258
O O12 0.320321 0.527305 0.429273
O O13 0.026130 0.654117 0.438966
O O14 0.000000 0.500000 0.000000
O O15 0.500000 0.000000 0.000000
#
# Coordination Sequence:
#
# PCOD9241079 Si02
#       7
#     4   4   4   4   4   4   4
#     4  10  19  34  57  88 113 145 185 244 290 332
#     4  12  24  40  60  81 116 155 197 231 286 347
#     4   8  16  30  53  83 115 140 176 235 295 333
#     4  11  24  37  57  84 116 148 195 240 288 339
#     4  11  23  37  60  84 111 150 192 247 286 327
#     4  10  19  35  58  86 114 144 190 237 284 346
#     4  12  26  42  56  80 118 160 193 231 285 346
#
# _framework density 20.932376000000001
#
# number of rings (size 3 to 8) (size 9 to 14) (size 15 to 20)
#    0.000    1.429    2.857    3.000    4.000    0.000 
#    0.000    0.000    0.000    1.714    0.000    0.000 
#    0.000    0.000    0.000    0.000    0.000    0.000 
#
# Total GULP energy -156100.824694 kJ/mol
# GULP energy per Si atom -5575.029453 kJ/mol
# Density = 2.088473 g / cm^3
# Si number density = 20.932376 Si / 1000 Ang^3
#
#
#
# Elastic Constant Matrix: (Units=GPa)
#
#
# Indices 1 2 3 4 5 6 
#
# 1 77.8976 -2.4681 8.9412 0.0000 1.1463 0.0000
# 2 -2.4681 66.5613 -1.5606 0.0000 7.1643 0.0000
# 3 8.9412 -1.5606 86.5043 0.0000 -19.3180 0.0000
# 4 0.0000 0.0000 0.0000 28.4815 0.0000 -3.8952
# 5 1.1463 7.1643 -19.3180 0.0000 19.3274 0.0000
# 6 0.0000 0.0000 0.0000 -3.8952 0.0000 18.5148
#
#
#
# Elastic Compliance Matrix: (Units=1/GPa)
#
#
# Indices 1 2 3 4 5 6 
#
# 1 0.013141 0.000773 -0.002037 0.000000 -0.003102 0.000000
# 2 0.000773 0.015809 -0.001434 0.000000 -0.007339 0.000000
# 3 -0.002037 -0.001434 0.015307 0.000000 0.015952 0.000000
# 4 0.000000 0.000000 0.000000 0.036151 0.000000 0.007605
# 5 -0.003102 -0.007339 0.015952 0.000000 0.070589 0.000000
# 6 0.000000 0.000000 0.000000 0.007605 0.000000 0.055611
#
#
# Mechanical properties :
#
#
# Convention : Reuss Voigt Hill
#
# Bulk Modulus (GPa) = 25.73168 26.75423 26.24296
# Shear Modulus (GPa) = 22.22654 28.33480 25.28067
#
# Velocity S-wave (km/s) = 3.26210 3.68317 3.47901
# Velocity P-wave (km/s) = 5.14858 5.55848 5.35745
#
# Compressibility (1/GPa) = 0.03886260
#
# Stress axis : x y z
#
# Youngs Moduli (GPa) = 76.09575 63.25629 65.32868
#
# Poissons Ratio (x) = -0.04892 0.13308
# Poissons Ratio (y) = -0.05885 0.09366
# Poissons Ratio (z) = 0.15502 0.09069
#
# Static dielectric constant tensor:
#      x y z
#    x 2.254380 0.000000 -0.656520 
#    y 0.000000 1.704730 0.000000 
#    z -0.656520 0.000000 2.527070 
# 
# From -- ./inp_files/79035.got.cif
#   From: 2010.05.17/outbox.cif.g08.bks.cpg/sg14_40_cif.got.tgz:79035.got - 2010.06.03 17:49:19.
