data_PCOD9241136
_publ_section_title
;
Structure prediction by ZEFSAII (Michael W. Deem and Ramdas Pophale) SiO2 
 PCOD9241136
Probable space group: P 21/C
;
_chemical_formula_sum "Si O2"
_cell_formula_units_Z 28
_cell_length_a 11.866752
_cell_length_b 7.046721
_cell_length_c 13.638130
_cell_angle_alpha 90.000000
_cell_angle_beta 92.682452
_cell_angle_gamma 90.000000
_cell_volume 1139.193851
_symmetry_space_group_name_H-M "P 21/C"
_symmetry_group_IT_number 14
_symmetry_cell_setting 'monoclinic'
loop_
_space_group_symop_operation_xyz
x,y,z
-x,1/2+y,1/2-z
-x,-y,-z
x,1/2-y,1/2+z
loop_
_atom_site_type_symbol
_atom_site_label
_atom_site_fract_x
_atom_site_fract_y
_atom_site_fract_z
Si Si1 0.487548 0.856916 0.357163
Si Si2 0.143762 0.512205 0.781000
Si Si3 0.204883 0.280426 0.453609
Si Si4 0.099307 0.945794 0.820443
Si Si5 0.662178 0.335290 0.321489
Si Si6 0.540269 0.718921 0.572642
Si Si7 0.741065 0.929798 0.346761
O O1 0.394924 0.768748 0.282872
O O2 0.490447 0.771608 0.464992
O O3 0.615078 0.852258 0.321271
O O4 0.455866 0.079414 0.369870
O O5 0.171513 0.380836 0.873821
O O6 0.243175 0.516260 0.704423
O O7 0.027520 0.461164 0.723377
O O8 0.133956 0.727532 0.818839
O O9 0.122502 0.453811 0.424966
O O10 0.332722 0.348392 0.435980
O O11 0.206676 0.183781 0.560068
O O12 0.177622 0.054803 0.743076
O O13 0.553950 0.405688 0.377164
O O14 0.717020 0.151514 0.374762
#
# Coordination Sequence:
#
# PCOD9241136 Si02
#       7
#     4   4   4   4   4   4   4
#     4   9  16  33  58  91 121 161 208 253 324 396
#     4  11  23  40  66  95 130 175 221 264 334 384
#     4  11  21  43  71  90 132 173 211 286 323 386
#     4  11  23  44  64  93 130 171 224 275 320 393
#     4  10  19  34  60  95 125 164 213 260 320 398
#     4   9  18  32  61  91 120 166 207 255 330 383
#     4   9  22  38  65  96 123 174 218 264 340 377
#
# _framework density 24.578783999999999
#
# number of rings (size 3 to 8) (size 9 to 14) (size 15 to 20)
#    0.000    2.000    2.857    1.714    0.000    0.571 
#    0.000    3.571    6.286    6.857    0.000    0.000 
#    0.000    0.000    0.000    0.000    0.000    0.000 
#
# Total GULP energy -156878.924331 kJ/mol
# GULP energy per Si atom -5602.818726 kJ/mol
# Density = 2.452284 g / cm^3
# Si number density = 24.578784 Si / 1000 Ang^3
#
#
#
# Elastic Constant Matrix: (Units=GPa)
#
#
# Indices 1 2 3 4 5 6 
#
# 1 98.2029 6.2297 25.3657 0.0000 12.9527 0.0000
# 2 6.2297 108.5637 46.2761 0.0000 10.9779 0.0000
# 3 25.3657 46.2761 61.4626 0.0000 18.2763 0.0000
# 4 0.0000 0.0000 0.0000 43.9883 0.0000 5.2018
# 5 12.9527 10.9779 18.2763 0.0000 29.6150 0.0000
# 6 0.0000 0.0000 0.0000 5.2018 0.0000 33.8650
#
#
#
# Elastic Compliance Matrix: (Units=1/GPa)
#
#
# Indices 1 2 3 4 5 6 
#
# 1 0.011837 0.001975 -0.005652 0.000000 -0.002421 0.000000
# 2 0.001975 0.013953 -0.011667 0.000000 0.001164 0.000000
# 3 -0.005652 -0.011667 0.031067 0.000000 -0.012375 0.000000
# 4 0.000000 0.000000 0.000000 0.023154 0.000000 -0.003557
# 5 -0.002421 0.001164 -0.012375 0.000000 0.042031 0.000000
# 6 0.000000 0.000000 0.000000 -0.003557 0.000000 0.030075
#
#
# Mechanical properties :
#
#
# Convention : Reuss Voigt Hill
#
# Bulk Modulus (GPa) = 38.21330 47.10805 42.66067
# Shear Modulus (GPa) = 26.10584 34.18416 30.14500
#
# Velocity S-wave (km/s) = 3.26257 3.73339 3.50589
# Velocity P-wave (km/s) = 5.45651 6.14752 5.81229
#
# Compressibility (1/GPa) = 0.02616890
#
# Stress axis : x y z
#
# Youngs Moduli (GPa) = 84.48094 71.66825 32.18894
#
# Poissons Ratio (x) = -0.14153 0.18194
# Poissons Ratio (y) = -0.16684 0.37554
# Poissons Ratio (z) = 0.47749 0.83613
#
# Static dielectric constant tensor:
#      x y z
#    x 1.919870 0.000000 -0.045220 
#    y 0.000000 1.999980 0.000000 
#    z -0.045220 0.000000 1.920270 
# 
# From -- ./inp_files/43192.got.cif
#   From: 2010.05.17/outbox.cif.g08.bks.cpg/sg14_22_cif.got.tgz:43192.got - 2010.06.03 17:49:19.
