data_PCOD9241893
_publ_section_title
;
Structure prediction by ZEFSAII (Michael W. Deem and Ramdas Pophale) SiO2 
 PCOD9241893
Probable space group: P 21/C
;
_chemical_formula_sum "Si O2"
_cell_formula_units_Z 28
_cell_length_a 29.054620
_cell_length_b 11.350238
_cell_length_c 23.636166
_cell_angle_alpha 90.000000
_cell_angle_beta 169.377117
_cell_angle_gamma 90.000000
_cell_volume 1436.898134
_symmetry_space_group_name_H-M "P 21/C"
_symmetry_group_IT_number 14
_symmetry_cell_setting 'monoclinic'
loop_
_space_group_symop_operation_xyz
x,y,z
-x,1/2+y,1/2-z
-x,-y,-z
x,1/2-y,1/2+z
loop_
_atom_site_type_symbol
_atom_site_label
_atom_site_fract_x
_atom_site_fract_y
_atom_site_fract_z
Si Si1 0.418661 0.790647 0.675934
Si Si2 0.365677 0.164686 0.346733
Si Si3 0.647160 0.878680 0.536035
Si Si4 0.228277 0.199458 0.484831
Si Si5 0.086706 0.166123 0.436120
Si Si6 0.896781 0.072780 0.992582
Si Si7 0.722641 0.961792 0.978136
O O1 0.131260 0.763991 0.336732
O O2 0.511802 0.917818 0.768318
O O3 0.570079 0.743574 0.912601
O O4 0.515122 0.705612 0.740946
O O5 0.331639 0.140533 0.372129
O O6 0.659424 0.152988 0.689718
O O7 0.220713 0.056238 0.141800
O O8 0.252192 0.285639 0.186918
O O9 0.426348 0.968517 0.250773
O O10 0.899109 0.924028 0.810712
O O11 0.240074 0.158304 0.563111
O O12 0.160308 0.338866 0.401399
O O13 0.031349 0.124570 0.210662
O O14 0.933822 0.045661 0.258374
#
# Coordination Sequence:
#
# PCOD9241893 Si02
#       7
#     4   4   4   4   4   4   4
#     4   8  19  37  60  80 113 149 195 239 284 334
#     4  11  24  32  58  90 116 151 192 226 304 344
#     4  10  19  38  59  83 118 145 186 250 283 332
#     4   9  21  37  60  81 115 149 199 237 286 334
#     4  11  21  36  58  87 118 149 195 243 280 351
#     4  10  21  37  57  81 117 154 181 245 287 334
#     4   9  20  39  61  85 108 152 203 234 282 342
#
# _framework density 19.486419999999999
#
# number of rings (size 3 to 8) (size 9 to 14) (size 15 to 20)
#    0.857    1.429    0.000    3.000    6.000    1.143 
#    0.000    1.429    0.000    0.000    0.000    0.000 
#    0.000    0.000    0.000    0.000    0.000    0.000 
#
# Total GULP energy -156069.157539 kJ/mol
# GULP energy per Si atom -5573.898484 kJ/mol
# Density = 1.944207 g / cm^3
# Si number density = 19.486420 Si / 1000 Ang^3
#
#
#
# Elastic Constant Matrix: (Units=GPa)
#
#
# Indices 1 2 3 4 5 6 
#
# 1 81.7481 28.1523 26.8377 0.0000 -8.3714 0.0000
# 2 28.1523 47.5069 -6.3584 0.0000 -12.9119 0.0000
# 3 26.8377 -6.3584 47.6507 0.0000 5.4957 0.0000
# 4 0.0000 0.0000 0.0000 18.9028 0.0000 -7.8782
# 5 -8.3714 -12.9119 5.4957 0.0000 24.2364 0.0000
# 6 0.0000 0.0000 0.0000 -7.8782 0.0000 16.8418
#
#
#
# Elastic Compliance Matrix: (Units=1/GPa)
#
#
# Indices 1 2 3 4 5 6 
#
# 1 0.022445 -0.014352 -0.014960 0.000000 0.003499 0.000000
# 2 -0.014352 0.033945 0.011397 0.000000 0.010543 0.000000
# 3 -0.014960 0.011397 0.031656 0.000000 -0.006274 0.000000
# 4 0.000000 0.000000 0.000000 0.065714 0.000000 0.030739
# 5 0.003499 0.010543 -0.006274 0.000000 0.049508 0.000000
# 6 0.000000 0.000000 0.000000 0.030739 0.000000 0.073755
#
#
# Mechanical properties :
#
#
# Convention : Reuss Voigt Hill
#
# Bulk Modulus (GPa) = 19.15115 30.46321 24.80718
# Shear Modulus (GPa) = 15.13965 20.54780 17.84373
#
# Velocity S-wave (km/s) = 2.79038 3.25078 3.02934
# Velocity P-wave (km/s) = 4.49788 5.45500 4.99940
#
# Compressibility (1/GPa) = 0.05221619
#
# Stress axis : x y z
#
# Youngs Moduli (GPa) = 44.55362 29.45920 31.58945
#
# Poissons Ratio (x) = 0.42280 0.47258
# Poissons Ratio (y) = 0.63943 -0.36002
# Poissons Ratio (z) = 0.66652 -0.33575
#
# Static dielectric constant tensor:
#      x y z
#    x 1.689450 0.000000 0.023760 
#    y 0.000000 1.719720 0.000000 
#    z 0.023760 0.000000 1.677860 
# 
# From -- ./inp_files/75316.got.cif
#   From: 2010.05.17/outbox.cif.g08.bks.cpg/sg14_38_cif.got.tgz:75316.got - 2010.06.03 17:49:19.
