data_PCOD9241733
_publ_section_title
;
Structure prediction by ZEFSAII (Michael W. Deem and Ramdas Pophale) SiO2 
 PCOD9241733
Probable space group: P 21/C
;
_chemical_formula_sum "Si O2"
_cell_formula_units_Z 32
_cell_length_a 13.911764
_cell_length_b 11.540215
_cell_length_c 16.122965
_cell_angle_alpha 90.000000
_cell_angle_beta 146.814469
_cell_angle_gamma 90.000000
_cell_volume 1416.797038
_symmetry_space_group_name_H-M "P 21/C"
_symmetry_group_IT_number 14
_symmetry_cell_setting 'monoclinic'
loop_
_space_group_symop_operation_xyz
x,y,z
-x,1/2+y,1/2-z
-x,-y,-z
x,1/2-y,1/2+z
loop_
_atom_site_type_symbol
_atom_site_label
_atom_site_fract_x
_atom_site_fract_y
_atom_site_fract_z
Si Si1 0.326535 0.636858 0.036848
Si Si2 0.771024 0.040086 0.952561
Si Si3 0.424336 0.219164 0.982661
Si Si4 0.265659 0.636351 0.396310
Si Si5 0.410324 0.954052 0.340210
Si Si6 0.659711 0.793372 0.886848
Si Si7 0.855464 0.879335 0.762175
Si Si8 0.112958 0.424833 0.913757
O O1 0.435945 0.546971 0.059867
O O2 0.478150 0.693212 0.204389
O O3 0.239484 0.734740 0.916846
O O4 0.186095 0.554312 0.981479
O O5 0.633623 0.080975 0.785436
O O6 0.782480 0.901495 0.947848
O O7 0.716628 0.061024 0.007744
O O8 0.947372 0.111392 0.064128
O O9 0.557321 0.138567 0.029254
O O10 0.526823 0.340555 0.068788
O O11 0.377632 0.186220 0.042560
O O12 0.250118 0.258782 0.807009
O O13 0.093930 0.596341 0.221668
O O14 0.250341 0.020035 0.267285
O O15 0.763934 0.672413 0.955091
O O16 0.869617 0.903367 0.673542
#
# Coordination Sequence:
#
# PCOD9241733 Si02
#       8
#     4   4   4   4   4   4   4   4
#     4  11  21  40  65  90 121 163 210 258 314 366
#     4  10  24  38  60  92 127 160 203 254 319 373
#     4  11  21  38  61  90 121 164 204 256 304 377
#     4  11  24  38  64  90 125 167 205 253 319 371
#     4  11  19  36  64  91 120 150 209 267 308 346
#     4  10  23  39  64  85 128 164 203 258 314 376
#     4  10  19  37  60  94 118 150 208 267 302 347
#     4  10  23  39  60  94 124 160 212 257 314 370
#
# _framework density 22.586157
#
# number of rings (size 3 to 8) (size 9 to 14) (size 15 to 20)
#    0.000    1.500    3.750    2.250    7.000    0.500 
#    0.000    0.625    0.000    0.000    0.000    0.000 
#    0.000    0.000    0.000    0.000    0.000    0.000 
#
# Total GULP energy -178757.457476 kJ/mol
# GULP energy per Si atom -5586.170546 kJ/mol
# Density = 2.253475 g / cm^3
# Si number density = 22.586157 Si / 1000 Ang^3
#
#
#
# Elastic Constant Matrix: (Units=GPa)
#
#
# Indices 1 2 3 4 5 6 
#
# 1 44.7188 -3.2996 7.5475 0.0000 11.6951 0.0000
# 2 -3.2996 69.2401 20.6310 0.0000 -3.2944 0.0000
# 3 7.5475 20.6310 95.1987 0.0000 -7.1643 0.0000
# 4 0.0000 0.0000 0.0000 23.9969 0.0000 -0.9267
# 5 11.6951 -3.2944 -7.1643 0.0000 22.2592 0.0000
# 6 0.0000 0.0000 0.0000 -0.9267 0.0000 34.4842
#
#
#
# Elastic Compliance Matrix: (Units=1/GPa)
#
#
# Indices 1 2 3 4 5 6 
#
# 1 0.027060 0.001655 -0.003644 0.000000 -0.015145 0.000000
# 2 0.001655 0.015574 -0.003483 0.000000 0.000315 0.000000
# 3 -0.003644 -0.003483 0.011943 0.000000 0.005243 0.000000
# 4 0.000000 0.000000 0.000000 0.041715 0.000000 0.001121
# 5 -0.015145 0.000315 0.005243 0.000000 0.054617 0.000000
# 6 0.000000 0.000000 0.000000 0.001121 0.000000 0.029029
#
#
# Mechanical properties :
#
#
# Convention : Reuss Voigt Hill
#
# Bulk Modulus (GPa) = 22.91846 28.76839 25.84343
# Shear Modulus (GPa) = 24.33976 28.43329 26.38653
#
# Velocity S-wave (km/s) = 3.28631 3.55192 3.42169
# Velocity P-wave (km/s) = 4.95670 5.43933 5.20362
#
# Compressibility (1/GPa) = 0.04363294
#
# Stress axis : x y z
#
# Youngs Moduli (GPa) = 36.95511 64.20955 83.73445
#
# Poissons Ratio (x) = -0.10624 0.30510
# Poissons Ratio (y) = -0.06115 0.29162
# Poissons Ratio (z) = 0.13465 0.22362
#
# Static dielectric constant tensor:
#      x y z
#    x 1.864320 0.000000 0.019470 
#    y 0.000000 1.865910 0.000000 
#    z 0.019470 0.000000 1.876150 
# 
# From -- ./inp_files/59484.got.cif
#   From: 2010.05.17/outbox.cif.g08.bks.cpg/sg14_30_cif.got.tgz:59484.got - 2010.06.03 17:49:19.
