data_PCOD9241465
_publ_section_title
;
Structure prediction by ZEFSAII (Michael W. Deem and Ramdas Pophale) SiO2 
 PCOD9241465
Probable space group: P 21/C
;
_chemical_formula_sum "Si O2"
_cell_formula_units_Z 32
_cell_length_a 7.941803
_cell_length_b 7.606375
_cell_length_c 21.336742
_cell_angle_alpha 90.000000
_cell_angle_beta 64.600908
_cell_angle_gamma 90.000000
_cell_volume 1164.332968
_symmetry_space_group_name_H-M "P 21/C"
_symmetry_group_IT_number 14
_symmetry_cell_setting 'monoclinic'
loop_
_space_group_symop_operation_xyz
x,y,z
-x,1/2+y,1/2-z
-x,-y,-z
x,1/2-y,1/2+z
loop_
_atom_site_type_symbol
_atom_site_label
_atom_site_fract_x
_atom_site_fract_y
_atom_site_fract_z
Si Si1 0.563092 0.823450 0.589200
Si Si2 0.973850 0.706736 0.500540
Si Si3 0.521247 0.805937 0.969882
Si Si4 0.770748 0.352869 0.785033
Si Si5 0.986468 0.239519 0.369520
Si Si6 0.666102 0.748440 0.759854
Si Si7 0.315898 0.703341 0.881792
Si Si8 0.119008 0.136142 0.156934
O O1 0.754617 0.730738 0.541990
O O2 0.466529 0.820956 0.535883
O O3 0.414863 0.751202 0.663251
O O4 0.621793 0.011087 0.606436
O O5 0.051733 0.795741 0.551959
O O6 0.000000 0.500000 0.500000
O O7 0.094491 0.774370 0.422405
O O8 0.394787 0.810223 0.928453
O O9 0.732373 0.772996 0.912427
O O10 0.500000 0.000000 0.000000
O O11 0.715534 0.547614 0.771190
O O12 0.882350 0.371047 0.833179
O O13 0.924455 0.280416 0.712169
O O14 0.209486 0.219763 0.321245
O O15 0.929075 0.442603 0.362585
O O16 0.442015 0.761205 0.802254
O O17 0.759682 0.870337 0.798122
#
# Coordination Sequence:
#
# PCOD9241465 Si02
#       8
#     4   4   4   4   4   4   4   4
#     4  11  22  37  56  81 111 149 189 230 279 338
#     4  12  25  39  55  80 116 155 190 233 288 345
#     4  11  20  34  60  90 115 145 187 234 285 336
#     4   9  18  35  59  81 107 142 186 236 280 329
#     4  10  19  36  58  83 112 146 184 227 279 340
#     4   8  18  35  59  86 109 137 183 237 283 330
#     4  10  21  39  58  79 110 146 187 237 281 332
#     4   9  17  31  55  84 111 138 178 232 280 326
#
# _framework density 27.483543999999998
#
# number of rings (size 3 to 8) (size 9 to 14) (size 15 to 20)
#    0.000    2.000    0.000    4.500    0.000    3.000 
#    0.000    6.250    0.000    0.000    0.000    0.000 
#    0.000    0.000    0.000    0.000    0.000    0.000 
#
# Total GULP energy -179020.467166 kJ/mol
# GULP energy per Si atom -5594.389599 kJ/mol
# Density = 2.742099 g / cm^3
# Si number density = 27.483544 Si / 1000 Ang^3
#
#
#
# Elastic Constant Matrix: (Units=GPa)
#
#
# Indices 1 2 3 4 5 6 
#
# 1 83.0400 -10.2788 47.1945 0.0000 -24.7301 0.0000
# 2 -10.2788 51.0859 4.7222 0.0000 0.7381 0.0000
# 3 47.1945 4.7222 252.6752 0.0000 -40.7390 0.0000
# 4 0.0000 0.0000 0.0000 29.6543 0.0000 -4.2811
# 5 -24.7301 0.7381 -40.7390 0.0000 66.8223 0.0000
# 6 0.0000 0.0000 0.0000 -4.2811 0.0000 20.1375
#
#
#
# Elastic Compliance Matrix: (Units=1/GPa)
#
#
# Indices 1 2 3 4 5 6 
#
# 1 0.014903 0.003139 -0.002172 0.000000 0.004157 0.000000
# 2 0.003139 0.020284 -0.000903 0.000000 0.000387 0.000000
# 3 -0.002172 -0.000903 0.004716 0.000000 0.002081 0.000000
# 4 0.000000 0.000000 0.000000 0.034790 0.000000 0.007396
# 5 0.004157 0.000387 0.002081 0.000000 0.017768 0.000000
# 6 0.000000 0.000000 0.000000 0.007396 0.000000 0.051231
#
#
# Mechanical properties :
#
#
# Convention : Reuss Voigt Hill
#
# Bulk Modulus (GPa) = 24.98002 52.23076 38.60539
# Shear Modulus (GPa) = 31.86591 46.33371 39.09981
#
# Velocity S-wave (km/s) = 3.40877 4.11039 3.77591
# Velocity P-wave (km/s) = 4.96002 6.44769 5.75215
#
# Compressibility (1/GPa) = 0.04003200
#
# Stress axis : x y z
#
# Youngs Moduli (GPa) = 67.09892 49.29890 212.05413
#
# Poissons Ratio (x) = -0.15477 0.46061
# Poissons Ratio (y) = -0.21065 0.19149
# Poissons Ratio (z) = 0.14575 0.04452
#
# Static dielectric constant tensor:
#      x y z
#    x 2.357830 0.000000 -0.080220 
#    y 0.000000 2.086260 0.000000 
#    z -0.080220 0.000000 2.150950 
# 
# From -- ./inp_files/76344.got.cif
#   From: 2010.05.17/outbox.cif.g08.bks.cpg/sg14_39_cif.got.tgz:76344.got - 2010.06.03 17:49:19.
