data_PCOD9241572
_publ_section_title
;
Structure prediction by ZEFSAII (Michael W. Deem and Ramdas Pophale) SiO2 
 PCOD9241572
Probable space group: P 21/C
;
_chemical_formula_sum "Si O2"
_cell_formula_units_Z 30
_cell_length_a 7.074827
_cell_length_b 19.833129
_cell_length_c 7.689536
_cell_angle_alpha 90.000000
_cell_angle_beta 98.197775
_cell_angle_gamma 90.000000
_cell_volume 1067.939490
_symmetry_space_group_name_H-M "P 21/C"
_symmetry_group_IT_number 14
_symmetry_cell_setting 'monoclinic'
loop_
_space_group_symop_operation_xyz
x,y,z
-x,1/2+y,1/2-z
-x,-y,-z
x,1/2-y,1/2+z
loop_
_atom_site_type_symbol
_atom_site_label
_atom_site_fract_x
_atom_site_fract_y
_atom_site_fract_z
Si Si1 0.722335 0.354461 0.048819
Si Si2 0.500000 0.000000 0.000000
Si Si3 0.263284 0.154501 0.451963
Si Si4 0.803541 0.423570 0.605626
Si Si5 0.746215 0.286216 0.694353
Si Si6 0.770333 0.604846 0.709049
Si Si7 0.704932 0.794649 0.913681
Si Si8 0.880984 0.474538 0.272104
O O1 0.492634 0.351874 0.006827
O O2 0.796273 0.292462 0.181897
O O3 0.778222 0.430503 0.112369
O O4 0.800115 0.326598 0.875834
O O5 0.598239 0.941946 0.136200
O O6 0.595046 0.061506 0.156784
O O7 0.187563 0.100092 0.579813
O O8 0.200566 0.222838 0.541186
O O9 0.221536 0.163700 0.243286
O O10 0.811806 0.344292 0.567464
O O11 0.984419 0.459461 0.723227
O O12 0.750195 0.475928 0.430049
O O13 0.517495 0.283292 0.654232
O O14 0.720152 0.672779 0.604982
O O15 0.960348 0.578473 0.640934
#
# Coordination Sequence:
#
# PCOD9241572 Si02
#       8
#     4   2   4   4   4   4   4   4
#     4  10  21  37  59  92 117 160 204 259 308 373
#     4  10  20  36  72  84 120 166 208 258 304 364
#     4  10  20  36  63  87 119 158 204 262 304 361
#     4  10  20  40  63  90 119 167 208 252 307 381
#     4  10  20  36  64  86 119 156 214 256 305 369
#     4  11  21  39  60  90 125 163 200 257 307 375
#     4  10  19  36  61  94 115 156 211 258 310 360
#     4  10  23  39  59  89 126 165 203 239 325 373
#
# _framework density 28.091481999999999
#
# number of rings (size 3 to 8) (size 9 to 14) (size 15 to 20)
#    0.000    1.867    2.667    1.600    1.867    0.533 
#    7.200    0.667    8.800    0.000    0.000    0.000 
#    0.000    0.000    0.000    0.000    0.000    0.000 
#
# Total GULP energy -167037.618174 kJ/mol
# GULP energy per Si atom -5567.920606 kJ/mol
# Density = 2.802754 g / cm^3
# Si number density = 28.091482 Si / 1000 Ang^3
#
#
#
# Elastic Constant Matrix: (Units=GPa)
#
#
# Indices 1 2 3 4 5 6 
#
# 1 97.9195 15.2539 19.3019 0.0000 10.8636 0.0000
# 2 15.2539 88.3702 10.7675 0.0000 2.0391 0.0000
# 3 19.3019 10.7675 115.2613 0.0000 -9.3797 0.0000
# 4 0.0000 0.0000 0.0000 25.1337 0.0000 -2.3491
# 5 10.8636 2.0391 -9.3797 0.0000 35.5968 0.0000
# 6 0.0000 0.0000 0.0000 -2.3491 0.0000 21.0675
#
#
#
# Elastic Compliance Matrix: (Units=1/GPa)
#
#
# Indices 1 2 3 4 5 6 
#
# 1 0.011302 -0.001610 -0.002060 0.000000 -0.003900 0.000000
# 2 -0.001610 0.011708 -0.000857 0.000000 -0.000405 0.000000
# 3 -0.002060 -0.000857 0.009357 0.000000 0.003143 0.000000
# 4 0.000000 0.000000 0.000000 0.040206 0.000000 0.004483
# 5 -0.003900 -0.000405 0.003143 0.000000 0.030134 0.000000
# 6 0.000000 0.000000 0.000000 0.004483 0.000000 0.047966
#
#
# Mechanical properties :
#
#
# Convention : Reuss Voigt Hill
#
# Bulk Modulus (GPa) = 42.89435 43.57751 43.23593
# Shear Modulus (GPa) = 29.85126 33.44143 31.64635
#
# Velocity S-wave (km/s) = 3.26336 3.45403 3.36005
# Velocity P-wave (km/s) = 5.43158 5.60834 5.52067
#
# Compressibility (1/GPa) = 0.02331309
#
# Stress axis : x y z
#
# Youngs Moduli (GPa) = 88.48071 85.41384 106.87536
#
# Poissons Ratio (x) = 0.13751 0.22012
# Poissons Ratio (y) = 0.14245 0.09160
# Poissons Ratio (z) = 0.18223 0.07321
#
# Static dielectric constant tensor:
#      x y z
#    x 3.912600 0.000000 -1.057410 
#    y 0.000000 2.441560 0.000000 
#    z -1.057410 0.000000 3.009040 
# 
# From -- ./inp_files/10248.got.cif
#   From: 2010.05.17/outbox.cif.g08.bks.cpg/sg14_6_cif.got.tgz:10248.got - 2010.06.03 17:49:19.
