data_PCOD9241134
_publ_section_title
;
Structure prediction by ZEFSAII (Michael W. Deem and Ramdas Pophale) SiO2 
 PCOD9241134
Probable space group: P 21/C
;
_chemical_formula_sum "Si O2"
_cell_formula_units_Z 28
_cell_length_a 18.381965
_cell_length_b 14.839131
_cell_length_c 10.230386
_cell_angle_alpha 90.000000
_cell_angle_beta 30.658351
_cell_angle_gamma 90.000000
_cell_volume 1422.959536
_symmetry_space_group_name_H-M "P 21/C"
_symmetry_group_IT_number 14
_symmetry_cell_setting 'monoclinic'
loop_
_space_group_symop_operation_xyz
x,y,z
-x,1/2+y,1/2-z
-x,-y,-z
x,1/2-y,1/2+z
loop_
_atom_site_type_symbol
_atom_site_label
_atom_site_fract_x
_atom_site_fract_y
_atom_site_fract_z
Si Si1 0.155239 0.685920 0.536784
Si Si2 0.608944 0.929997 0.408852
Si Si3 0.924239 0.950395 0.493490
Si Si4 0.335532 0.599453 0.026917
Si Si5 0.638173 0.128576 0.058913
Si Si6 0.332696 0.088025 0.955669
Si Si7 0.789611 0.377647 0.065745
O O1 0.254456 0.656823 0.262033
O O2 0.250385 0.679794 0.521800
O O3 0.110872 0.789264 0.586591
O O4 0.032607 0.613103 0.748657
O O5 0.516046 0.860423 0.636327
O O6 0.500000 0.000000 0.500000
O O7 0.685117 0.996544 0.391093
O O8 0.493775 0.119142 0.738495
O O9 0.795683 0.888838 0.749631
O O10 0.865390 0.031324 0.495182
O O11 0.000000 0.000000 0.500000
O O12 0.304646 0.390777 0.346351
O O13 0.274507 0.610691 0.977951
O O14 0.665741 0.144309 0.864301
O O15 0.666798 0.021315 0.030690
#
# Coordination Sequence:
#
# PCOD9241134 Si02
#       7
#     4   4   4   4   4   4   4
#     4  12  20  39  62  85 126 164 210 260 299 378
#     4   8  13  29  57  84 111 145 188 236 301 357
#     4  11  22  39  63  89 121 174 211 239 311 385
#     4  10  19  34  60  89 118 149 200 266 301 354
#     4   9  16  33  55  86 110 154 197 236 298 365
#     4   9  16  34  62  87 115 151 202 241 305 365
#     4  11  24  34  59  98 120 157 215 260 309 357
#
# _framework density 19.677299999999999
#
# number of rings (size 3 to 8) (size 9 to 14) (size 15 to 20)
#    0.000    2.286    7.143    0.857    0.000    5.714 
#    0.000    0.000    3.143    5.143    0.000    0.000 
#    0.000    0.000    0.000    0.000    0.000    0.000 
#
# Total GULP energy -155930.594709 kJ/mol
# GULP energy per Si atom -5568.949811 kJ/mol
# Density = 1.963251 g / cm^3
# Si number density = 19.677300 Si / 1000 Ang^3
#
#
#
# Elastic Constant Matrix: (Units=GPa)
#
#
# Indices 1 2 3 4 5 6 
#
# 1 94.8998 29.6964 62.3104 0.0000 24.1947 0.0000
# 2 29.6964 71.3340 59.4954 0.0000 1.7659 0.0000
# 3 62.3104 59.4954 131.5804 0.0000 9.2760 0.0000
# 4 0.0000 0.0000 0.0000 5.2113 0.0000 -2.3246
# 5 24.1947 1.7659 9.2760 0.0000 28.0212 0.0000
# 6 0.0000 0.0000 0.0000 -2.3246 0.0000 7.2852
#
#
#
# Elastic Compliance Matrix: (Units=1/GPa)
#
#
# Indices 1 2 3 4 5 6 
#
# 1 0.019677 -0.001459 -0.007645 0.000000 -0.014367 0.000000
# 2 -0.001459 0.022724 -0.009800 0.000000 0.003072 0.000000
# 3 -0.007645 -0.009800 0.015505 0.000000 0.002086 0.000000
# 4 0.000000 0.000000 0.000000 0.223737 0.000000 0.071390
# 5 -0.014367 0.003072 0.002086 0.000000 0.047208 0.000000
# 6 0.000000 0.000000 0.000000 0.071390 0.000000 0.160044
#
#
# Mechanical properties :
#
#
# Convention : Reuss Voigt Hill
#
# Bulk Modulus (GPa) = 49.76278 66.75761 58.26020
# Shear Modulus (GPa) = 9.37378 17.85766 13.61572
#
# Velocity S-wave (km/s) = 2.18497 3.01578 2.63335
# Velocity P-wave (km/s) = 5.63115 6.79165 6.23844
#
# Compressibility (1/GPa) = 0.02009534
#
# Stress axis : x y z
#
# Youngs Moduli (GPa) = 50.82126 44.00655 64.49669
#
# Poissons Ratio (x) = 0.06422 0.49310
# Poissons Ratio (y) = 0.07416 0.63209
# Poissons Ratio (z) = 0.38855 0.43128
#
# Static dielectric constant tensor:
#      x y z
#    x 1.688040 0.000000 -0.014130 
#    y 0.000000 1.715350 0.000000 
#    z -0.014130 0.000000 1.791810 
# 
# From -- ./inp_files/17971.got.cif
#   From: 2010.05.17/outbox.cif.g08.bks.cpg/sg14_9_cif.got.tgz:17971.got - 2010.06.03 17:49:19.
