data_PCOD9241813
_publ_section_title
;
Structure prediction by ZEFSAII (Michael W. Deem and Ramdas Pophale) SiO2 
 PCOD9241813
Probable space group: P 21/C
;
_chemical_formula_sum "Si O2"
_cell_formula_units_Z 28
_cell_length_a 9.572539
_cell_length_b 9.753351
_cell_length_c 14.931123
_cell_angle_alpha 90.000000
_cell_angle_beta 111.394802
_cell_angle_gamma 90.000000
_cell_volume 1297.969918
_symmetry_space_group_name_H-M "P 21/C"
_symmetry_group_IT_number 14
_symmetry_cell_setting 'monoclinic'
loop_
_space_group_symop_operation_xyz
x,y,z
-x,1/2+y,1/2-z
-x,-y,-z
x,1/2-y,1/2+z
loop_
_atom_site_type_symbol
_atom_site_label
_atom_site_fract_x
_atom_site_fract_y
_atom_site_fract_z
Si Si1 0.723077 0.398955 0.040405
Si Si2 0.783787 0.502373 0.861260
Si Si3 0.945692 0.354200 0.637114
Si Si4 0.930260 0.849480 0.646677
Si Si5 0.319936 0.033493 0.855043
Si Si6 0.535260 0.788661 0.966640
Si Si7 0.846066 0.716126 0.456116
O O1 0.834614 0.269110 0.081474
O O2 0.803150 0.532466 0.103226
O O3 0.710399 0.433222 0.931527
O O4 0.564371 0.347529 0.043691
O O5 0.682952 0.544329 0.752943
O O6 0.870750 0.634962 0.918006
O O7 0.910296 0.406302 0.849289
O O8 0.840807 0.478613 0.645991
O O9 0.047253 0.309099 0.745532
O O10 0.060686 0.385612 0.583641
O O11 0.901380 0.729283 0.569936
O O12 0.387435 0.165285 0.921599
O O13 0.426640 0.909237 0.909857
O O14 0.667345 0.789825 0.924462
#
# Coordination Sequence:
#
# PCOD9241813 Si02
#       7
#     4   4   4   4   4   4   4
#     4  10  19  40  61  85 123 160 197 252 306 360
#     4  10  19  37  64  86 115 157 210 249 302 357
#     4  10  20  37  65  86 119 159 201 250 304 349
#     4  10  20  35  62  93 116 155 209 253 296 361
#     4   9  22  42  57  83 122 162 198 251 303 370
#     4  10  23  39  57  86 124 158 200 247 313 360
#     4  11  21  36  60  90 116 157 203 248 301 361
#
# _framework density 21.572147999999999
#
# number of rings (size 3 to 8) (size 9 to 14) (size 15 to 20)
#    0.000    2.000    2.857    0.857    2.000    4.000 
#    2.571    0.000    0.000    0.000    0.000    0.000 
#    0.000    0.000    0.000    0.000    0.000    0.000 
#
# Total GULP energy -156216.667702 kJ/mol
# GULP energy per Si atom -5579.166704 kJ/mol
# Density = 2.152305 g / cm^3
# Si number density = 21.572148 Si / 1000 Ang^3
#
#
#
# Elastic Constant Matrix: (Units=GPa)
#
#
# Indices 1 2 3 4 5 6 
#
# 1 124.1848 8.6181 25.7309 0.0000 -13.0672 0.0000
# 2 8.6181 30.3444 29.4087 0.0000 -19.6915 0.0000
# 3 25.7309 29.4087 137.6372 0.0000 -3.3463 0.0000
# 4 0.0000 0.0000 0.0000 15.1348 0.0000 -3.4523
# 5 -13.0672 -19.6915 -3.3463 0.0000 16.6178 0.0000
# 6 0.0000 0.0000 0.0000 -3.4523 0.0000 28.1625
#
#
#
# Elastic Compliance Matrix: (Units=1/GPa)
#
#
# Indices 1 2 3 4 5 6 
#
# 1 0.018012 0.087980 -0.019382 0.000000 0.114513 0.000000
# 2 0.087980 0.867516 -0.175996 0.000000 1.061714 0.000000
# 3 -0.019382 -0.175996 0.043265 0.000000 -0.215076 0.000000
# 4 0.000000 0.000000 0.000000 0.067973 0.000000 0.008332
# 5 0.114513 1.061714 -0.215076 0.000000 1.365002 0.000000
# 6 0.000000 0.000000 0.000000 0.008332 0.000000 0.036530
#
#
# Mechanical properties :
#
#
# Convention : Reuss Voigt Hill
#
# Bulk Modulus (GPa) = 1.40056 46.63134 24.01595
# Shear Modulus (GPa) = 1.75371 27.21027 14.48199
#
# Velocity S-wave (km/s) = 0.90262 3.55542 2.59381
# Velocity P-wave (km/s) = 1.31793 6.20629 4.48637
#
# Compressibility (1/GPa) = 0.71399769
#
# Stress axis : x y z
#
# Youngs Moduli (GPa) = 55.51765 1.15272 23.11361
#
# Poissons Ratio (x) = -0.10142 0.44798
# Poissons Ratio (y) = -4.88443 4.06789
# Poissons Ratio (z) = 1.07603 0.20287
#
# Static dielectric constant tensor:
#      x y z
#    x 1.848970 0.000000 0.015150 
#    y 0.000000 1.817500 0.000000 
#    z 0.015150 0.000000 1.801740 
# 
# From -- ./inp_files/40093.got.cif
#   From: 2010.05.17/outbox.cif.g08.bks.cpg/sg14_21_cif.got.tgz:40093.got - 2010.06.03 17:49:19.
