data_PCOD9241012
_publ_section_title
;
Structure prediction by ZEFSAII (Michael W. Deem and Ramdas Pophale) SiO2 
 PCOD9241012
Probable space group: P 21/C
;
_chemical_formula_sum "Si O2"
_cell_formula_units_Z 32
_cell_length_a 11.467363
_cell_length_b 7.519644
_cell_length_c 19.037211
_cell_angle_alpha 90.000000
_cell_angle_beta 42.521765
_cell_angle_gamma 90.000000
_cell_volume 1109.500446
_symmetry_space_group_name_H-M "P 21/C"
_symmetry_group_IT_number 14
_symmetry_cell_setting 'monoclinic'
loop_
_space_group_symop_operation_xyz
x,y,z
-x,1/2+y,1/2-z
-x,-y,-z
x,1/2-y,1/2+z
loop_
_atom_site_type_symbol
_atom_site_label
_atom_site_fract_x
_atom_site_fract_y
_atom_site_fract_z
Si Si1 0.147271 0.296255 0.130041
Si Si2 0.224578 0.554152 0.694377
Si Si3 0.677374 0.968230 0.329509
Si Si4 0.726441 0.103808 0.597526
Si Si5 0.777294 0.932957 0.017923
Si Si6 0.176669 0.911888 0.857270
Si Si7 0.359938 0.179970 0.255195
Si Si8 0.320782 0.779838 0.520990
O O1 0.215143 0.459783 0.147233
O O2 0.254072 0.242347 0.013804
O O3 0.951796 0.351253 0.203055
O O4 0.170688 0.119669 0.169645
O O5 0.341934 0.480186 0.705336
O O6 0.307283 0.699533 0.604952
O O7 0.690923 0.121399 0.265982
O O8 0.752915 0.823821 0.238788
O O9 0.498163 0.887658 0.434140
O O10 0.850125 0.226634 0.588761
O O11 0.699250 0.916872 0.647707
O O12 0.540718 0.211749 0.684885
O O13 0.792083 0.111935 0.487640
O O14 0.749548 0.960695 0.112936
O O15 0.984306 0.959870 0.918171
O O16 0.686540 0.091440 0.017140
#
# Coordination Sequence:
#
# PCOD9241012 Si02
#       8
#     4   4   4   4   4   4   4   4
#     4  10  20  36  59  83 112 147 190 238 286 340
#     4  10  21  38  60  84 112 149 192 239 288 343
#     4  10  20  34  56  86 116 150 188 235 287 338
#     4  10  19  34  55  80 112 148 187 235 284 336
#     4   9  19  34  58  84 109 150 196 234 279 345
#     4  10  19  35  60  84 110 148 195 238 283 338
#     4  10  21  34  55  83 114 151 190 234 286 340
#     4   9  19  34  55  82 113 145 188 235 283 337
#
# _framework density 28.841809000000001
#
# number of rings (size 3 to 8) (size 9 to 14) (size 15 to 20)
#    0.000    2.250    0.000    3.750    0.000    9.000 
#    0.000    1.250    0.000   26.250    0.000    0.000 
#    0.000    0.000    0.000    0.000    0.000    0.000 
#
# Total GULP energy -178674.442372 kJ/mol
# GULP energy per Si atom -5583.576324 kJ/mol
# Density = 2.877616 g / cm^3
# Si number density = 28.841809 Si / 1000 Ang^3
#
#
#
# Elastic Constant Matrix: (Units=GPa)
#
#
# Indices 1 2 3 4 5 6 
#
# 1 105.8701 -7.8526 41.5556 0.0000 34.3628 0.0000
# 2 -7.8526 78.6609 -19.0832 0.0000 1.9554 0.0000
# 3 41.5556 -19.0832 101.8495 0.0000 38.0246 0.0000
# 4 0.0000 0.0000 0.0000 23.0415 0.0000 3.8218
# 5 34.3628 1.9554 38.0246 0.0000 72.6776 0.0000
# 6 0.0000 0.0000 0.0000 3.8218 0.0000 31.8333
#
#
#
# Elastic Compliance Matrix: (Units=1/GPa)
#
#
# Indices 1 2 3 4 5 6 
#
# 1 0.012089 0.000491 -0.003357 0.000000 -0.003973 0.000000
# 2 0.000491 0.013593 0.003194 0.000000 -0.002269 0.000000
# 3 -0.003357 0.003194 0.013951 0.000000 -0.005798 0.000000
# 4 0.000000 0.000000 0.000000 0.044282 0.000000 -0.005316
# 5 -0.003973 -0.002269 -0.005798 0.000000 0.018732 0.000000
# 6 0.000000 0.000000 0.000000 -0.005316 0.000000 0.032052
#
#
# Mechanical properties :
#
#
# Convention : Reuss Voigt Hill
#
# Bulk Modulus (GPa) = 24.82142 35.06889 29.94515
# Shear Modulus (GPa) = 33.90437 43.62788 38.76612
#
# Velocity S-wave (km/s) = 3.43232 3.89351 3.67017
# Velocity P-wave (km/s) = 4.93280 5.69193 5.32590
#
# Compressibility (1/GPa) = 0.04028779
#
# Stress axis : x y z
#
# Youngs Moduli (GPa) = 82.71866 73.56740 71.67880
#
# Poissons Ratio (x) = -0.03613 0.24065
# Poissons Ratio (y) = -0.04062 -0.22891
# Poissons Ratio (z) = 0.27772 -0.23494
#
# Static dielectric constant tensor:
#      x y z
#    x 2.314020 0.000000 0.142220 
#    y 0.000000 2.595380 0.000000 
#    z 0.142220 0.000000 2.409800 
# 
# From -- ./inp_files/67014.got.cif
#   From: 2010.05.17/outbox.cif.g08.bks.cpg/sg14_34_cif.got.tgz:67014.got - 2010.06.03 17:49:19.
