data_PCOD9241195
_publ_section_title
;
Structure prediction by ZEFSAII (Michael W. Deem and Ramdas Pophale) SiO2 
 PCOD9241195
Probable space group: P 21/C
;
_chemical_formula_sum "Si O2"
_cell_formula_units_Z 20
_cell_length_a 11.300689
_cell_length_b 5.548630
_cell_length_c 25.041313
_cell_angle_alpha 90.000000
_cell_angle_beta 149.242266
_cell_angle_gamma 90.000000
_cell_volume 803.001259
_symmetry_space_group_name_H-M "P 21/C"
_symmetry_group_IT_number 14
_symmetry_cell_setting 'monoclinic'
loop_
_space_group_symop_operation_xyz
x,y,z
-x,1/2+y,1/2-z
-x,-y,-z
x,1/2-y,1/2+z
loop_
_atom_site_type_symbol
_atom_site_label
_atom_site_fract_x
_atom_site_fract_y
_atom_site_fract_z
Si Si1 0.224366 0.869594 0.621287
Si Si2 0.134574 0.629642 0.370194
Si Si3 0.508498 0.865592 0.926521
Si Si4 0.354863 0.371220 0.638193
Si Si5 0.957729 0.632089 0.128993
O O1 0.223398 0.625537 0.586783
O O2 0.486184 0.876909 0.747641
O O3 0.070989 0.852891 0.614938
O O4 0.205679 0.126866 0.584762
O O5 0.331845 0.591744 0.492613
O O6 0.277090 0.632504 0.370821
O O7 0.990020 0.382642 0.319987
O O8 0.997461 0.874356 0.327146
O O9 0.496735 0.858023 0.858468
O O10 0.678292 0.652067 0.012642
#
# Coordination Sequence:
#
# PCOD9241195 Si02
#       5
#     4   4   4   4   4
#     4  10  22  38  52  77 109 138 178 215 258 307
#     4   9  20  34  55  80 107 133 170 220 262 307
#     4   9  21  34  58  77 108 137 176 209 270 306
#     4  10  22  37  55  74 107 146 171 213 264 314
#     4  10  19  35  55  78 109 133 172 223 255 302
#
# _framework density 24.906559999999999
#
# number of rings (size 3 to 8) (size 9 to 14) (size 15 to 20)
#    1.200    1.200    0.000    1.800    2.800    1.600 
#    0.000    2.000    0.000    0.000    0.000    0.000 
#    0.000    0.000    0.000    0.000    0.000    0.000 
#
# Total GULP energy -111719.502065 kJ/mol
# GULP energy per Si atom -5585.975103 kJ/mol
# Density = 2.484987 g / cm^3
# Si number density = 24.906560 Si / 1000 Ang^3
#
#
#
# Elastic Constant Matrix: (Units=GPa)
#
#
# Indices 1 2 3 4 5 6 
#
# 1 156.4499 97.7573 -9.7587 0.0000 18.8394 0.0000
# 2 97.7573 245.0635 17.6437 0.0000 13.6268 0.0000
# 3 -9.7587 17.6437 30.2699 0.0000 -9.1283 0.0000
# 4 0.0000 0.0000 0.0000 35.2086 0.0000 6.3787
# 5 18.8394 13.6268 -9.1283 0.0000 28.8054 0.0000
# 6 0.0000 0.0000 0.0000 6.3787 0.0000 32.5822
#
#
#
# Elastic Compliance Matrix: (Units=1/GPa)
#
#
# Indices 1 2 3 4 5 6 
#
# 1 0.009488 -0.003945 0.004477 0.000000 -0.002920 0.000000
# 2 -0.003945 0.006165 -0.005491 0.000000 -0.002077 0.000000
# 3 0.004477 -0.005491 0.041552 0.000000 0.012837 0.000000
# 4 0.000000 0.000000 0.000000 0.029447 0.000000 -0.005765
# 5 -0.002920 -0.002077 0.012837 0.000000 0.041676 0.000000
# 6 0.000000 0.000000 0.000000 -0.005765 0.000000 0.031820
#
#
# Mechanical properties :
#
#
# Convention : Reuss Voigt Hill
#
# Bulk Modulus (GPa) = 21.14763 71.45199 46.29981
# Shear Modulus (GPa) = 26.90682 41.06197 33.98440
#
# Velocity S-wave (km/s) = 3.29037 4.06475 3.69789
# Velocity P-wave (km/s) = 4.79006 7.12600 6.07143
#
# Compressibility (1/GPa) = 0.04728663
#
# Stress axis : x y z
#
# Youngs Moduli (GPa) = 105.40174 162.20771 24.06646
#
# Poissons Ratio (x) = 0.63984 -0.10775
# Poissons Ratio (y) = 0.41577 0.13216
# Poissons Ratio (z) = -0.47191 0.89074
#
# Static dielectric constant tensor:
#      x y z
#    x 1.851030 0.000000 0.013410 
#    y 0.000000 1.961630 0.000000 
#    z 0.013410 0.000000 2.071110 
# 
# From -- ./inp_files/59907.got.cif
#   From: 2010.05.17/outbox.cif.g08.bks.cpg/sg14_30_cif.got.tgz:59907.got - 2010.06.03 17:49:19.
