data_PCOD9241577
_publ_section_title
;
Structure prediction by ZEFSAII (Michael W. Deem and Ramdas Pophale) SiO2 
 PCOD9241577
Probable space group: P 21/C
;
_chemical_formula_sum "Si O2"
_cell_formula_units_Z 28
_cell_length_a 5.730575
_cell_length_b 27.370090
_cell_length_c 8.149130
_cell_angle_alpha 90.000000
_cell_angle_beta 105.115205
_cell_angle_gamma 90.000000
_cell_volume 1233.941372
_symmetry_space_group_name_H-M "P 21/C"
_symmetry_group_IT_number 14
_symmetry_cell_setting 'monoclinic'
loop_
_space_group_symop_operation_xyz
x,y,z
-x,1/2+y,1/2-z
-x,-y,-z
x,1/2-y,1/2+z
loop_
_atom_site_type_symbol
_atom_site_label
_atom_site_fract_x
_atom_site_fract_y
_atom_site_fract_z
Si Si1 0.878362 0.825022 0.770997
Si Si2 0.930040 0.339352 0.179032
Si Si3 0.448272 0.884803 0.576733
Si Si4 0.750354 0.768833 0.079318
Si Si5 0.715050 0.010520 0.403805
Si Si6 0.340921 0.087132 0.746727
Si Si7 0.659101 0.161950 0.974427
O O1 0.678185 0.866597 0.719407
O O2 0.820398 0.787102 0.615071
O O3 0.837098 0.793641 0.928149
O O4 0.147658 0.844527 0.846447
O O5 0.127563 0.297656 0.245056
O O6 0.072774 0.390473 0.196252
O O7 0.786214 0.336999 0.321966
O O8 0.741187 0.341249 0.996694
O O9 0.322016 0.932065 0.631551
O O10 0.546551 0.898905 0.411240
O O11 0.472577 0.785781 0.031415
O O12 0.500000 0.000000 0.500000
O O13 0.660065 0.971320 0.250246
O O14 0.000000 0.000000 0.500000
O O15 0.475515 0.116775 0.915721
#
# Coordination Sequence:
#
# PCOD9241577 Si02
#       7
#     4   4   4   4   4   4   4
#     4  11  25  39  59  89 123 161 214 261 323 383
#     4   9  18  36  60  84 116 160 203 258 309 373
#     4  10  21  35  60  93 129 159 212 264 318 380
#     4  10  24  39  59  83 120 164 208 257 321 383
#     4  10  19  36  62 102 132 170 218 269 322 392
#     4   9  18  36  65  90 122 166 208 262 318 379
#     4   9  21  40  56  83 121 160 206 256 322 381
#
# _framework density 22.691517000000001
#
# number of rings (size 3 to 8) (size 9 to 14) (size 15 to 20)
#    0.000    2.286    1.429    0.000    8.000    2.286 
#    0.000    0.714    0.000    7.714    0.000    0.000 
#    0.000    0.000    0.000    0.000    0.000    0.000 
#
# Total GULP energy -156133.905168 kJ/mol
# GULP energy per Si atom -5576.210899 kJ/mol
# Density = 2.263987 g / cm^3
# Si number density = 22.691517 Si / 1000 Ang^3
#
#
#
# Elastic Constant Matrix: (Units=GPa)
#
#
# Indices 1 2 3 4 5 6 
#
# 1 70.6510 8.5396 36.7059 0.0000 24.7852 0.0000
# 2 8.5396 85.4194 34.9399 0.0000 19.8079 0.0000
# 3 36.7059 34.9399 108.9243 0.0000 23.4796 0.0000
# 4 0.0000 0.0000 0.0000 13.7197 0.0000 -2.7572
# 5 24.7852 19.8079 23.4796 0.0000 55.1566 0.0000
# 6 0.0000 0.0000 0.0000 -2.7572 0.0000 21.7202
#
#
#
# Elastic Compliance Matrix: (Units=1/GPa)
#
#
# Indices 1 2 3 4 5 6 
#
# 1 0.019292 0.001997 -0.005635 0.000000 -0.006987 0.000000
# 2 0.001997 0.014251 -0.004346 0.000000 -0.004165 0.000000
# 3 -0.005635 -0.004346 0.012763 0.000000 -0.001340 0.000000
# 4 0.000000 0.000000 0.000000 0.074796 0.000000 0.009495
# 5 -0.006987 -0.004165 -0.001340 0.000000 0.023336 0.000000
# 6 0.000000 0.000000 0.000000 0.009495 0.000000 0.047245
#
#
# Mechanical properties :
#
#
# Convention : Reuss Voigt Hill
#
# Bulk Modulus (GPa) = 32.96507 47.26282 40.11395
# Shear Modulus (GPa) = 22.96062 30.43995 26.70028
#
# Velocity S-wave (km/s) = 3.18442 3.66658 3.43397
# Velocity P-wave (km/s) = 5.29903 6.22886 5.78267
#
# Compressibility (1/GPa) = 0.03033514
#
# Stress axis : x y z
#
# Youngs Moduli (GPa) = 51.83593 70.17077 78.35315
#
# Poissons Ratio (x) = -0.14011 0.44155
# Poissons Ratio (y) = -0.10350 0.34055
# Poissons Ratio (z) = 0.29211 0.30499
#
# Static dielectric constant tensor:
#      x y z
#    x 1.947590 0.000000 0.022030 
#    y 0.000000 1.860320 0.000000 
#    z 0.022030 0.000000 1.849840 
# 
# From -- ./inp_files/6818.got.cif
#   From: 2010.05.17/outbox.cif.g08.bks.cpg/sg14_4_cif.got.tgz:6818.got - 2010.06.03 17:49:19.
