data_PCOD9241109
_publ_section_title
;
Structure prediction by ZEFSAII (Michael W. Deem and Ramdas Pophale) SiO2 
 PCOD9241109
Probable space group: P 21/C
;
_chemical_formula_sum "Si O2"
_cell_formula_units_Z 20
_cell_length_a 7.494272
_cell_length_b 7.112801
_cell_length_c 16.832646
_cell_angle_alpha 90.000000
_cell_angle_beta 69.686456
_cell_angle_gamma 90.000000
_cell_volume 841.464740
_symmetry_space_group_name_H-M "P 21/C"
_symmetry_group_IT_number 14
_symmetry_cell_setting 'monoclinic'
loop_
_space_group_symop_operation_xyz
x,y,z
-x,1/2+y,1/2-z
-x,-y,-z
x,1/2-y,1/2+z
loop_
_atom_site_type_symbol
_atom_site_label
_atom_site_fract_x
_atom_site_fract_y
_atom_site_fract_z
Si Si1 0.256149 0.712395 0.730421
Si Si2 0.239930 0.841449 0.414173
Si Si3 0.197636 0.177110 0.530746
Si Si4 0.173418 0.384995 0.211997
Si Si5 0.576949 0.920758 0.892741
O O1 0.275953 0.630384 0.815328
O O2 0.257594 0.936571 0.742543
O O3 0.400074 0.629241 0.643674
O O4 0.042451 0.662771 0.732647
O O5 0.375032 0.677042 0.423212
O O6 0.019472 0.783987 0.460403
O O7 0.282628 0.033723 0.454427
O O8 0.316521 0.358033 0.542252
O O9 0.176952 0.063892 0.617467
O O10 0.301016 0.199262 0.192353
#
# Coordination Sequence:
#
# PCOD9241109 Si02
#       5
#     4   4   4   4   4
#     4  11  19  36  57  84 110 145 187 228 275 325
#     4  10  19  34  59  83 106 148 184 223 280 320
#     4   8  19  38  58  76 113 146 180 228 275 328
#     4   9  19  35  57  77 111 145 181 224 277 324
#     4  10  21  34  58  79 110 147 180 225 277 327
#
# _framework density 23.768077000000002
#
# number of rings (size 3 to 8) (size 9 to 14) (size 15 to 20)
#    1.200    1.200    2.000    0.600    2.800    0.000 
#    0.000    1.000    4.400    4.800    0.000    0.000 
#    0.000    0.000    0.000    0.000    0.000    0.000 
#
# Total GULP energy -111641.861053 kJ/mol
# GULP energy per Si atom -5582.093053 kJ/mol
# Density = 2.371398 g / cm^3
# Si number density = 23.768077 Si / 1000 Ang^3
#
#
#
# Elastic Constant Matrix: (Units=GPa)
#
#
# Indices 1 2 3 4 5 6 
#
# 1 60.6126 11.6948 6.8446 0.0000 3.6681 0.0000
# 2 11.6948 58.3977 21.8426 0.0000 3.0130 0.0000
# 3 6.8446 21.8426 62.2554 0.0000 -3.5896 0.0000
# 4 0.0000 0.0000 0.0000 35.0072 0.0000 -11.1942
# 5 3.6681 3.0130 -3.5896 0.0000 15.0220 0.0000
# 6 0.0000 0.0000 0.0000 -11.1942 0.0000 -18.8039
#
#
#
# Elastic Compliance Matrix: (Units=1/GPa)
#
#
# Indices 1 2 3 4 5 6 
#
# 1 0.017418 -0.002858 -0.001140 0.000000 -0.003952 0.000000
# 2 -0.002858 0.020670 -0.007237 0.000000 -0.005177 0.000000
# 3 -0.001140 -0.007237 0.019090 0.000000 0.006292 0.000000
# 4 0.000000 0.000000 0.000000 0.023997 0.000000 -0.014286
# 5 -0.003952 -0.005177 0.006292 0.000000 0.070076 0.000000
# 6 0.000000 0.000000 0.000000 -0.014286 0.000000 -0.044676
#
#
# Mechanical properties :
#
#
# Convention : Reuss Voigt Hill
#
# Bulk Modulus (GPa) = 28.81116 29.11439 28.96278
# Shear Modulus (GPa) = 35.55845 15.63731 25.59788
#
# Velocity S-wave (km/s) = 3.87209 2.56776 3.28531
# Velocity P-wave (km/s) = 5.66912 4.58990 5.15781
#
# Compressibility (1/GPa) = 0.03470877
#
# Stress axis : x y z
#
# Youngs Moduli (GPa) = 57.41338 48.37911 52.38356
#
# Poissons Ratio (x) = 0.13825 0.05973
# Poissons Ratio (y) = 0.16407 0.37908
# Poissons Ratio (z) = 0.06546 0.35010
#
# Static dielectric constant tensor:
#      x y z
#    x 1.924800 0.000000 -0.017710 
#    y 0.000000 1.918140 0.000000 
#    z -0.017710 0.000000 1.926280 
# 
# From -- ./inp_files/54261.got.cif
#   From: 2010.05.17/outbox.cif.g08.bks.cpg/sg14_28_cif.got.tgz:54261.got - 2010.06.03 17:49:19.
