data_PCOD9241405
_publ_section_title
;
Structure prediction by ZEFSAII (Michael W. Deem and Ramdas Pophale) SiO2 
 PCOD9241405
Probable space group: P 21/C
;
_chemical_formula_sum "Si O2"
_cell_formula_units_Z 32
_cell_length_a 22.978514
_cell_length_b 10.474745
_cell_length_c 18.096002
_cell_angle_alpha 90.000000
_cell_angle_beta 20.636768
_cell_angle_gamma 90.000000
_cell_volume 1535.097697
_symmetry_space_group_name_H-M "P 21/C"
_symmetry_group_IT_number 14
_symmetry_cell_setting 'monoclinic'
loop_
_space_group_symop_operation_xyz
x,y,z
-x,1/2+y,1/2-z
-x,-y,-z
x,1/2-y,1/2+z
loop_
_atom_site_type_symbol
_atom_site_label
_atom_site_fract_x
_atom_site_fract_y
_atom_site_fract_z
Si Si1 0.418998 0.265420 0.706274
Si Si2 0.887021 0.054977 0.820770
Si Si3 0.621537 0.710482 0.485242
Si Si4 0.985684 0.259269 0.828767
Si Si5 0.666329 0.154842 0.789270
Si Si6 0.448737 0.442673 0.283912
Si Si7 0.697332 0.893505 0.505982
Si Si8 0.824566 0.622262 0.117722
O O1 0.578551 0.300429 0.468716
O O2 0.427735 0.126792 0.731193
O O3 0.392342 0.351139 0.811091
O O4 0.261163 0.285480 0.840903
O O5 0.949149 0.906439 0.765609
O O6 0.936241 0.167233 0.819301
O O7 0.689681 0.053413 0.049952
O O8 0.988898 0.090055 0.625669
O O9 0.470406 0.674992 0.612059
O O10 0.613101 0.637146 0.572273
O O11 0.620659 0.852708 0.517957
O O12 0.785450 0.677520 0.244386
O O13 0.128548 0.174127 0.696455
O O14 0.830402 0.274489 0.067367
O O15 0.718926 0.007845 0.734710
O O16 0.644132 0.460246 0.067462
#
# Coordination Sequence:
#
# PCOD9241405 Si02
#       8
#     4   4   4   4   4   4   4   4
#     4  10  19  40  60  89 119 163 211 248 305 381
#     4  11  21  41  62  94 121 167 208 256 313 376
#     4  10  20  36  58  92 118 155 200 258 316 357
#     4  11  23  41  65  91 126 161 215 256 309 376
#     4  10  21  37  65  89 117 165 209 254 309 372
#     4  11  22  36  61  88 125 164 202 255 314 372
#     4  11  21  40  58  87 129 157 197 262 312 360
#     4  10  19  35  65  89 120 155 210 263 305 367
#
# _framework density 20.845576999999999
#
# number of rings (size 3 to 8) (size 9 to 14) (size 15 to 20)
#    0.000    1.500    3.750    3.750    1.750    0.500 
#    2.250    7.500    0.000    0.000    0.000    0.000 
#    0.000    0.000    0.000    0.000    0.000    0.000 
#
# Total GULP energy -178158.793924 kJ/mol
# GULP energy per Si atom -5567.462310 kJ/mol
# Density = 2.079813 g / cm^3
# Si number density = 20.845577 Si / 1000 Ang^3
#
#
#
# Elastic Constant Matrix: (Units=GPa)
#
#
# Indices 1 2 3 4 5 6 
#
# 1 58.5601 9.9525 28.7575 0.0000 19.4526 0.0000
# 2 9.9525 25.0770 19.7339 0.0000 1.8933 0.0000
# 3 28.7575 19.7339 128.1706 0.0000 8.3917 0.0000
# 4 0.0000 0.0000 0.0000 25.1391 0.0000 -6.1044
# 5 19.4526 1.8933 8.3917 0.0000 25.7987 0.0000
# 6 0.0000 0.0000 0.0000 -6.1044 0.0000 14.0994
#
#
#
# Elastic Compliance Matrix: (Units=1/GPa)
#
#
# Indices 1 2 3 4 5 6 
#
# 1 0.025841 -0.005991 -0.003708 0.000000 -0.017839 0.000000
# 2 -0.005991 0.046794 -0.006060 0.000000 0.003055 0.000000
# 3 -0.003708 -0.006060 0.009558 0.000000 0.000131 0.000000
# 4 0.000000 0.000000 0.000000 0.044452 0.000000 0.019246
# 5 -0.017839 0.003055 0.000131 0.000000 0.051946 0.000000
# 6 0.000000 0.000000 0.000000 0.019246 0.000000 0.079257
#
#
# Mechanical properties :
#
#
# Convention : Reuss Voigt Hill
#
# Bulk Modulus (GPa) = 19.73372 36.52171 28.12772
# Shear Modulus (GPa) = 16.32610 23.23171 19.77891
#
# Velocity S-wave (km/s) = 2.80159 3.34199 3.08365
# Velocity P-wave (km/s) = 4.46681 5.69649 5.11871
#
# Compressibility (1/GPa) = 0.05067468
#
# Stress axis : x y z
#
# Youngs Moduli (GPa) = 38.69789 21.37047 104.61941
#
# Poissons Ratio (x) = 0.12804 0.38788
# Poissons Ratio (y) = 0.23185 0.63403
# Poissons Ratio (z) = 0.14347 0.12951
#
# Static dielectric constant tensor:
#      x y z
#    x 1.778870 0.000000 -0.104860 
#    y 0.000000 1.805770 0.000000 
#    z -0.104860 0.000000 1.907220 
# 
# From -- ./inp_files/61975.got.cif
#   From: 2010.05.17/outbox.cif.g08.bks.cpg/sg14_31_cif.got.tgz:61975.got - 2010.06.03 17:49:19.
