data_PCOD9241225
_publ_section_title
;
Structure prediction by ZEFSAII (Michael W. Deem and Ramdas Pophale) SiO2 
 PCOD9241225
Probable space group: P 21/C
;
_chemical_formula_sum "Si O2"
_cell_formula_units_Z 24
_cell_length_a 10.345975
_cell_length_b 5.730680
_cell_length_c 18.714085
_cell_angle_alpha 90.000000
_cell_angle_beta 98.532770
_cell_angle_gamma 90.000000
_cell_volume 1097.266810
_symmetry_space_group_name_H-M "P 21/C"
_symmetry_group_IT_number 14
_symmetry_cell_setting 'monoclinic'
loop_
_space_group_symop_operation_xyz
x,y,z
-x,1/2+y,1/2-z
-x,-y,-z
x,1/2-y,1/2+z
loop_
_atom_site_type_symbol
_atom_site_label
_atom_site_fract_x
_atom_site_fract_y
_atom_site_fract_z
Si Si1 0.669890 0.505282 0.223180
Si Si2 0.186695 0.737448 0.887182
Si Si3 0.423550 0.247411 0.157385
Si Si4 0.318980 0.092878 0.518280
Si Si5 0.956782 0.747407 0.462713
Si Si6 0.599172 0.622240 0.599131
O O1 0.783369 0.375780 0.187795
O O2 0.546335 0.329172 0.215646
O O3 0.684245 0.630179 0.300520
O O4 0.626459 0.705775 0.165803
O O5 0.034320 0.751382 0.893911
O O6 0.265608 0.977737 0.896456
O O7 0.256853 0.592889 0.958072
O O8 0.383982 0.457539 0.100492
O O9 0.483664 0.049133 0.111323
O O10 0.197846 0.245979 0.538153
O O11 0.416657 0.234832 0.474995
O O12 0.000000 0.500000 0.500000
O O13 0.000000 0.000000 0.500000
#
# Coordination Sequence:
#
# PCOD9241225 Si02
#       6
#     4   4   4   4   4   4
#     4  10  21  36  55  77 116 161 189 236 294 370
#     4   9  20  36  58  83 115 148 194 244 304 350
#     4  11  21  36  54  82 116 153 202 231 299 350
#     4  10  21  34  59  88 112 145 198 254 289 348
#     4  10  19  38  62  89 119 152 195 245 307 350
#     4  10  19  35  56  83 112 150 187 244 295 350
#
# _framework density 21.872530000000001
#
# number of rings (size 3 to 8) (size 9 to 14) (size 15 to 20)
#    0.000    2.000    3.333    0.500    0.000    7.333 
#    0.000    0.000    3.667    0.000    0.000    0.000 
#    0.000    0.000    0.000    0.000    0.000    0.000 
#
# Total GULP energy -133632.787927 kJ/mol
# GULP energy per Si atom -5568.032830 kJ/mol
# Density = 2.182275 g / cm^3
# Si number density = 21.872530 Si / 1000 Ang^3
#
#
#
# Elastic Constant Matrix: (Units=GPa)
#
#
# Indices 1 2 3 4 5 6 
#
# 1 60.9043 5.2199 29.6561 0.0000 -37.6876 0.0000
# 2 5.2199 66.4170 16.6712 0.0000 -9.4740 0.0000
# 3 29.6561 16.6712 102.7885 0.0000 -30.6650 0.0000
# 4 0.0000 0.0000 0.0000 28.0838 0.0000 -11.4965
# 5 -37.6876 -9.4740 -30.6650 0.0000 38.2871 0.0000
# 6 0.0000 0.0000 0.0000 -11.4965 0.0000 27.3150
#
#
#
# Elastic Compliance Matrix: (Units=1/GPa)
#
#
# Indices 1 2 3 4 5 6 
#
# 1 0.042474 0.002726 -0.000029 0.000000 0.042460 0.000000
# 2 0.002726 0.016043 -0.001844 0.000000 0.005176 0.000000
# 3 -0.000029 -0.001844 0.012997 0.000000 0.009924 0.000000
# 4 0.000000 0.000000 0.000000 0.043020 0.000000 0.018107
# 5 0.042460 0.005176 0.009924 0.000000 0.077143 0.000000
# 6 0.000000 0.000000 0.000000 0.018107 0.000000 0.044231
#
#
# Mechanical properties :
#
#
# Convention : Reuss Voigt Hill
#
# Bulk Modulus (GPa) = 13.65768 37.02269 25.34019
# Shear Modulus (GPa) = 19.33408 30.64135 24.98772
#
# Velocity S-wave (km/s) = 2.97634 3.74693 3.38364
# Velocity P-wave (km/s) = 4.25080 5.97349 5.18420
#
# Compressibility (1/GPa) = 0.07321889
#
# Stress axis : x y z
#
# Youngs Moduli (GPa) = 23.54369 62.33087 76.94045
#
# Poissons Ratio (x) = -0.16991 0.00226
# Poissons Ratio (y) = -0.06418 0.14191
# Poissons Ratio (z) = 0.00069 0.11496
#
# Static dielectric constant tensor:
#      x y z
#    x 1.833400 0.000000 0.013090 
#    y 0.000000 1.928980 0.000000 
#    z 0.013090 0.000000 1.823510 
# 
# From -- ./inp_files/56581.got.cif
#   From: 2010.05.17/outbox.cif.g08.bks.cpg/sg14_29_cif.got.tgz:56581.got - 2010.06.03 17:49:19.
