data_PCOD9241707
_publ_section_title
;
Structure prediction by ZEFSAII (Michael W. Deem and Ramdas Pophale) SiO2 
 PCOD9241707
Probable space group: P 21/C
;
_chemical_formula_sum "Si O2"
_cell_formula_units_Z 28
_cell_length_a 27.396577
_cell_length_b 8.780026
_cell_length_c 9.484987
_cell_angle_alpha 90.000000
_cell_angle_beta 35.332450
_cell_angle_gamma 90.000000
_cell_volume 1319.461969
_symmetry_space_group_name_H-M "P 21/C"
_symmetry_group_IT_number 14
_symmetry_cell_setting 'monoclinic'
loop_
_space_group_symop_operation_xyz
x,y,z
-x,1/2+y,1/2-z
-x,-y,-z
x,1/2-y,1/2+z
loop_
_atom_site_type_symbol
_atom_site_label
_atom_site_fract_x
_atom_site_fract_y
_atom_site_fract_z
Si Si1 0.869931 0.046137 0.736430
Si Si2 0.965409 0.741619 0.082478
Si Si3 0.760395 0.181396 0.547388
Si Si4 0.566468 0.554952 0.060148
Si Si5 0.520939 0.701361 0.903573
Si Si6 0.907753 0.036482 0.341114
Si Si7 0.348341 0.706079 0.971541
O O1 0.856038 0.062903 0.603570
O O2 0.957928 0.133661 0.554747
O O3 0.888268 0.870530 0.728718
O O4 0.799969 0.148598 0.975662
O O5 0.938610 0.863984 0.261932
O O6 0.010646 0.853442 0.861526
O O7 0.841821 0.073343 0.372126
O O8 0.716312 0.168454 0.501076
O O9 0.690763 0.165927 0.833614
O O10 0.495774 0.442856 0.159104
O O11 0.541210 0.661433 0.250127
O O12 0.631668 0.435985 0.973354
O O13 0.586577 0.657472 0.873915
O O14 0.434984 0.743349 0.190835
#
# Coordination Sequence:
#
# PCOD9241707 Si02
#       7
#     4   4   4   4   4   4   4
#     4  10  19  37  60  90 120 157 214 257 312 368
#     4   9  20  34  60  90 117 159 205 276 302 359
#     4  11  23  39  65  85 125 176 205 247 322 390
#     4  11  23  41  70  99 129 160 214 268 319 382
#     4  11  23  41  71 101 126 167 212 276 316 382
#     4  10  19  37  59  89 118 162 213 254 314 368
#     4  12  22  43  65  94 126 170 209 256 323 396
#
# _framework density 21.220770000000002
#
# number of rings (size 3 to 8) (size 9 to 14) (size 15 to 20)
#    0.000    1.429    4.286    1.286    0.000    0.000 
#    5.143    1.429    0.000    0.000    0.000    0.000 
#    0.000    0.000    0.000    0.000    0.000    0.000 
#
# Total GULP energy -156039.267856 kJ/mol
# GULP energy per Si atom -5572.830995 kJ/mol
# Density = 2.117247 g / cm^3
# Si number density = 21.220770 Si / 1000 Ang^3
#
#
#
# Elastic Constant Matrix: (Units=GPa)
#
#
# Indices 1 2 3 4 5 6 
#
# 1 64.8539 29.9685 11.9795 0.0000 -1.9763 0.0000
# 2 29.9685 97.0527 20.1412 0.0000 -7.9384 0.0000
# 3 11.9795 20.1412 44.9056 0.0000 9.2974 0.0000
# 4 0.0000 0.0000 0.0000 13.9253 0.0000 10.0511
# 5 -1.9763 -7.9384 9.2974 0.0000 18.6553 0.0000
# 6 0.0000 0.0000 0.0000 10.0511 0.0000 39.6039
#
#
#
# Elastic Compliance Matrix: (Units=1/GPa)
#
#
# Indices 1 2 3 4 5 6 
#
# 1 0.018279 -0.004929 -0.002935 0.000000 0.001302 0.000000
# 2 -0.004929 0.013946 -0.006758 0.000000 0.008781 0.000000
# 3 -0.002935 -0.006758 0.029820 0.000000 -0.018048 0.000000
# 4 0.000000 0.000000 0.000000 0.087916 0.000000 -0.022312
# 5 0.001302 0.008781 -0.018048 0.000000 0.066473 0.000000
# 6 0.000000 0.000000 0.000000 -0.022312 0.000000 0.030913
#
#
# Mechanical properties :
#
#
# Convention : Reuss Voigt Hill
#
# Bulk Modulus (GPa) = 30.48722 36.77674 33.63198
# Shear Modulus (GPa) = 17.38977 24.08510 20.73743
#
# Velocity S-wave (km/s) = 2.86574 3.37260 3.12945
# Velocity P-wave (km/s) = 5.03467 5.70386 5.37968
#
# Compressibility (1/GPa) = 0.03280063
#
# Stress axis : x y z
#
# Youngs Moduli (GPa) = 54.70888 71.70353 33.53446
#
# Poissons Ratio (x) = 0.35339 0.09843
# Poissons Ratio (y) = 0.26963 0.22664
# Poissons Ratio (z) = 0.16058 0.48460
#
# Static dielectric constant tensor:
#      x y z
#    x 1.786510 0.000000 0.028940 
#    y 0.000000 1.803110 0.000000 
#    z 0.028940 0.000000 1.786500 
# 
# From -- ./inp_files/19720.got.cif
#   From: 2010.05.17/outbox.cif.g08.bks.cpg/sg14_10_cif.got.tgz:19720.got - 2010.06.03 17:49:19.
