data_PCOD9241535
_publ_section_title
;
Structure prediction by ZEFSAII (Michael W. Deem and Ramdas Pophale) SiO2 
 PCOD9241535
Probable space group: P 21/C
;
_chemical_formula_sum "Si O2"
_cell_formula_units_Z 32
_cell_length_a 15.272282
_cell_length_b 11.341277
_cell_length_c 15.548458
_cell_angle_alpha 90.000000
_cell_angle_beta 28.342540
_cell_angle_gamma 90.000000
_cell_volume 1278.529313
_symmetry_space_group_name_H-M "P 21/C"
_symmetry_group_IT_number 14
_symmetry_cell_setting 'monoclinic'
loop_
_space_group_symop_operation_xyz
x,y,z
-x,1/2+y,1/2-z
-x,-y,-z
x,1/2-y,1/2+z
loop_
_atom_site_type_symbol
_atom_site_label
_atom_site_fract_x
_atom_site_fract_y
_atom_site_fract_z
Si Si1 0.205535 0.629890 0.201561
Si Si2 0.535889 0.796619 0.950305
Si Si3 0.815804 0.276059 0.975563
Si Si4 0.976774 0.991407 0.394040
Si Si5 0.400401 0.490134 0.473286
Si Si6 0.151470 0.382405 0.175914
Si Si7 0.610235 0.705954 0.634499
Si Si8 0.125542 0.243026 0.433302
O O1 0.156235 0.685606 0.149377
O O2 0.216592 0.490250 0.178649
O O3 0.048776 0.673199 0.402839
O O4 0.394715 0.690428 0.066824
O O5 0.498960 0.888133 0.058818
O O6 0.745051 0.752214 0.761614
O O7 0.499229 0.886380 0.901539
O O8 0.882012 0.381651 0.980448
O O9 0.953574 0.169433 0.873679
O O10 0.600212 0.254634 0.173504
O O11 0.194736 0.999834 0.188880
O O12 0.889307 0.940590 0.382062
O O13 0.935561 0.892741 0.500322
O O14 0.391849 0.433249 0.387161
O O15 0.292944 0.279260 0.026103
O O16 0.735974 0.721700 0.608999
#
# Coordination Sequence:
#
# PCOD9241535 Si02
#       8
#     4   4   4   4   4   4   4   4
#     4  11  21  39  56  87 125 154 201 250 298 358
#     4  11  24  40  62  91 126 163 196 248 306 366
#     4  11  19  36  60  87 119 152 200 257 299 350
#     4  10  19  36  60  87 120 152 195 254 299 351
#     4  11  22  42  63  90 129 160 198 248 305 369
#     4  10  21  36  59  89 118 154 197 257 301 343
#     4  11  21  37  63  91 116 158 207 248 302 360
#     4  11  21  38  62  90 119 158 198 253 305 349
#
# _framework density 25.028758
#
# number of rings (size 3 to 8) (size 9 to 14) (size 15 to 20)
#    0.000    1.250    6.250    1.500    0.000    1.500 
#    4.500    0.625    0.000    1.500    0.000    0.000 
#    0.000    0.000    0.000    0.000    0.000    0.000 
#
# Total GULP energy -179295.830298 kJ/mol
# GULP energy per Si atom -5602.994697 kJ/mol
# Density = 2.497179 g / cm^3
# Si number density = 25.028758 Si / 1000 Ang^3
#
#
#
# Elastic Constant Matrix: (Units=GPa)
#
#
# Indices 1 2 3 4 5 6 
#
# 1 43.4335 3.3752 1.5926 0.0000 6.0424 0.0000
# 2 3.3752 81.9704 11.7652 0.0000 -5.9662 0.0000
# 3 1.5926 11.7652 131.2270 0.0000 -7.8019 0.0000
# 4 0.0000 0.0000 0.0000 29.3044 0.0000 -14.7855
# 5 6.0424 -5.9662 -7.8019 0.0000 32.3274 0.0000
# 6 0.0000 0.0000 0.0000 -14.7855 0.0000 39.1597
#
#
#
# Elastic Compliance Matrix: (Units=1/GPa)
#
#
# Indices 1 2 3 4 5 6 
#
# 1 0.023806 -0.001263 -0.000461 0.000000 -0.004794 0.000000
# 2 -0.001263 0.012560 -0.000973 0.000000 0.002319 0.000000
# 3 -0.000461 -0.000973 0.007820 0.000000 0.001794 0.000000
# 4 0.000000 0.000000 0.000000 0.042155 0.000000 0.015917
# 5 -0.004794 0.002319 0.001794 0.000000 0.032691 0.000000
# 6 0.000000 0.000000 0.000000 0.015917 0.000000 0.031546
#
#
# Mechanical properties :
#
#
# Convention : Reuss Voigt Hill
#
# Bulk Modulus (GPa) = 25.77826 32.23299 29.00563
# Shear Modulus (GPa) = 29.60310 36.15149 32.87729
#
# Velocity S-wave (km/s) = 3.44286 3.80465 3.62827
# Velocity P-wave (km/s) = 5.11138 5.67510 5.40060
#
# Compressibility (1/GPa) = 0.03879237
#
# Stress axis : x y z
#
# Youngs Moduli (GPa) = 42.00682 79.61801 127.87984
#
# Poissons Ratio (x) = 0.10056 0.05891
# Poissons Ratio (y) = 0.05306 0.12441
# Poissons Ratio (z) = 0.01935 0.07746
#
# Static dielectric constant tensor:
#      x y z
#    x 2.058330 0.000000 0.043760 
#    y 0.000000 1.945360 0.000000 
#    z 0.043760 0.000000 1.926370 
# 
# From -- ./inp_files/69912.got.cif
#   From: 2010.05.17/outbox.cif.g08.bks.cpg/sg14_35_cif.got.tgz:69912.got - 2010.06.03 17:49:19.
