data_PCOD9241382
_publ_section_title
;
Structure prediction by ZEFSAII (Michael W. Deem and Ramdas Pophale) SiO2 
 PCOD9241382
Probable space group: P 21/C
;
_chemical_formula_sum "Si O2"
_cell_formula_units_Z 16
_cell_length_a 8.650078
_cell_length_b 5.207644
_cell_length_c 18.875243
_cell_angle_alpha 90.000000
_cell_angle_beta 49.388700
_cell_angle_gamma 90.000000
_cell_volume 645.472023
_symmetry_space_group_name_H-M "P 21/C"
_symmetry_group_IT_number 14
_symmetry_cell_setting 'monoclinic'
loop_
_space_group_symop_operation_xyz
x,y,z
-x,1/2+y,1/2-z
-x,-y,-z
x,1/2-y,1/2+z
loop_
_atom_site_type_symbol
_atom_site_label
_atom_site_fract_x
_atom_site_fract_y
_atom_site_fract_z
Si Si1 0.234460 0.047383 0.403950
Si Si2 0.519921 0.247389 0.444106
Si Si3 0.067271 0.493203 0.700165
Si Si4 0.872232 0.461285 0.610832
O O1 0.367261 0.169990 0.426655
O O2 0.230073 0.264940 0.346164
O O3 0.282663 0.769430 0.357789
O O4 0.000000 0.000000 0.500000
O O5 0.500000 0.500000 0.500000
O O6 0.737695 0.321795 0.346531
O O7 0.500000 0.000000 0.500000
O O8 0.094617 0.213590 0.727425
O O9 0.020870 0.420454 0.632421
O O10 0.000000 0.500000 0.500000
#
# Coordination Sequence:
#
# PCOD9241382 Si02
#       4
#     4   4   4   4
#     4  10  19  35  62  96 126 166 228 291 332 397
#     4  12  23  41  70 103 137 189 249 296 353 448
#     4  12  26  45  68 104 149 188 234 311 383 428
#     4  10  20  39  65  93 129 179 230 278 341 427
#
# _framework density 24.788062
#
# number of rings (size 3 to 8) (size 9 to 14) (size 15 to 20)
#    0.000    1.000    0.000   10.500    0.000    0.000 
#    0.000    5.000    0.000    0.000    0.000    0.000 
#    0.000    0.000    0.000    0.000    0.000    0.000 
#
# Total GULP energy -89190.028288 kJ/mol
# GULP energy per Si atom -5574.376768 kJ/mol
# Density = 2.473164 g / cm^3
# Si number density = 24.788062 Si / 1000 Ang^3
#
#
#
# Elastic Constant Matrix: (Units=GPa)
#
#
# Indices 1 2 3 4 5 6 
#
# 1 167.6547 26.6507 22.4834 0.0000 35.2020 0.0000
# 2 26.6507 246.8991 11.9045 0.0000 12.9338 0.0000
# 3 22.4834 11.9045 37.2351 0.0000 13.0028 0.0000
# 4 0.0000 0.0000 0.0000 28.2221 0.0000 7.8542
# 5 35.2020 12.9338 13.0028 0.0000 39.9842 0.0000
# 6 0.0000 0.0000 0.0000 7.8542 0.0000 49.6732
#
#
#
# Elastic Compliance Matrix: (Units=1/GPa)
#
#
# Indices 1 2 3 4 5 6 
#
# 1 0.007558 -0.000398 -0.002434 0.000000 -0.005734 0.000000
# 2 -0.000398 0.004172 -0.000840 0.000000 -0.000726 0.000000
# 3 -0.002434 -0.000840 0.031307 0.000000 -0.007766 0.000000
# 4 0.000000 0.000000 0.000000 0.037064 0.000000 -0.005861
# 5 -0.005734 -0.000726 -0.007766 0.000000 0.032818 0.000000
# 6 0.000000 0.000000 0.000000 -0.005861 0.000000 0.021058
#
#
# Mechanical properties :
#
#
# Convention : Reuss Voigt Hill
#
# Bulk Modulus (GPa) = 28.01726 63.76290 45.89008
# Shear Modulus (GPa) = 32.63290 49.62591 41.12941
#
# Velocity S-wave (km/s) = 3.63226 4.47924 4.07780
# Velocity P-wave (km/s) = 5.37758 7.24779 6.38157
#
# Compressibility (1/GPa) = 0.03569229
#
# Stress axis : x y z
#
# Youngs Moduli (GPa) = 132.30480 239.70869 31.94194
#
# Poissons Ratio (x) = 0.09543 0.07775
# Poissons Ratio (y) = 0.05267 0.02683
# Poissons Ratio (z) = 0.32206 0.20133
#
# Static dielectric constant tensor:
#      x y z
#    x 2.052060 0.000000 -0.112870 
#    y 0.000000 2.801350 0.000000 
#    z -0.112870 0.000000 2.210060 
# 
# From -- ./inp_files/64086.got.cif
#   From: 2010.05.17/outbox.cif.g08.bks.cpg/sg14_33_cif.got.tgz:64086.got - 2010.06.03 17:49:19.
