data_PCOD9241425
_publ_section_title
;
Structure prediction by ZEFSAII (Michael W. Deem and Ramdas Pophale) SiO2 
 PCOD9241425
Probable space group: P 21/C
;
_chemical_formula_sum "Si O2"
_cell_formula_units_Z 28
_cell_length_a 9.349182
_cell_length_b 5.408467
_cell_length_c 24.958653
_cell_angle_alpha 90.000000
_cell_angle_beta 90.096085
_cell_angle_gamma 90.000000
_cell_volume 1262.026083
_symmetry_space_group_name_H-M "P 21/C"
_symmetry_group_IT_number 14
_symmetry_cell_setting 'monoclinic'
loop_
_space_group_symop_operation_xyz
x,y,z
-x,1/2+y,1/2-z
-x,-y,-z
x,1/2-y,1/2+z
loop_
_atom_site_type_symbol
_atom_site_label
_atom_site_fract_x
_atom_site_fract_y
_atom_site_fract_z
Si Si1 0.166574 0.980773 0.108600
Si Si2 0.672306 0.527979 0.719964
Si Si3 0.145969 0.480502 0.076648
Si Si4 0.155411 0.384644 0.497647
Si Si5 0.674421 0.470685 0.279888
Si Si6 0.518108 0.505745 0.934616
Si Si7 0.643806 0.509229 0.598726
O O1 0.081052 0.728534 0.099844
O O2 0.264377 0.973006 0.160169
O O3 0.085135 0.241543 0.107228
O O4 0.241129 0.005727 0.049511
O O5 0.498122 0.528158 0.719549
O O6 0.720305 0.283140 0.751365
O O7 0.709346 0.511305 0.657814
O O8 0.719695 0.781071 0.748557
O O9 0.317421 0.493392 0.085441
O O10 0.141367 0.403828 0.013887
O O11 0.235036 0.458542 0.445426
O O12 0.000000 0.500000 0.500000
O O13 0.450021 0.257082 0.910209
O O14 0.441472 0.754336 0.912741
O O15 0.500000 0.500000 0.000000
#
# Coordination Sequence:
#
# PCOD9241425 Si02
#       7
#     4   4   4   4   4   4   4
#     4  10  20  37  60  85 114 158 199 244 292 354
#     4  10  21  33  56  84 119 159 184 241 295 360
#     4  10  20  34  57  89 111 156 183 243 299 356
#     4  10  25  42  60  86 121 160 207 247 303 349
#     4  10  19  36  55  83 119 153 195 230 298 365
#     4  12  20  34  55  86 124 151 192 235 304 370
#     4  12  24  37  58  89 127 158 194 248 303 371
#
# _framework density 22.186547000000001
#
# number of rings (size 3 to 8) (size 9 to 14) (size 15 to 20)
#    0.857    0.571    1.429    5.571    0.000    2.857 
#    0.000    0.000    0.000    1.714    0.000    0.000 
#    0.000    0.000    0.000    0.000    0.000    0.000 
#
# Total GULP energy -156239.140959 kJ/mol
# GULP energy per Si atom -5579.969320 kJ/mol
# Density = 2.213605 g / cm^3
# Si number density = 22.186547 Si / 1000 Ang^3
#
#
#
# Elastic Constant Matrix: (Units=GPa)
#
#
# Indices 1 2 3 4 5 6 
#
# 1 46.8320 21.0084 18.8608 0.0000 0.5977 0.0000
# 2 21.0084 199.5633 62.1806 0.0000 4.0242 0.0000
# 3 18.8608 62.1806 171.2905 0.0000 8.6676 0.0000
# 4 0.0000 0.0000 0.0000 38.3089 0.0000 11.1280
# 5 0.5977 4.0242 8.6676 0.0000 7.6714 0.0000
# 6 0.0000 0.0000 0.0000 11.1280 0.0000 21.2637
#
#
#
# Elastic Compliance Matrix: (Units=1/GPa)
#
#
# Indices 1 2 3 4 5 6 
#
# 1 0.022937 -0.001842 -0.001926 0.000000 0.001355 0.000000
# 2 -0.001842 0.005801 -0.001863 0.000000 -0.000795 0.000000
# 3 -0.001926 -0.001863 0.007074 0.000000 -0.006865 0.000000
# 4 0.000000 0.000000 0.000000 0.030783 0.000000 -0.016110
# 5 0.001355 -0.000795 -0.006865 0.000000 0.138423 0.000000
# 6 0.000000 0.000000 0.000000 -0.016110 0.000000 0.055459
#
#
# Mechanical properties :
#
#
# Convention : Reuss Voigt Hill
#
# Bulk Modulus (GPa) = 40.73058 69.08726 54.90892
# Shear Modulus (GPa) = 17.86210 34.49119 26.17665
#
# Velocity S-wave (km/s) = 2.84048 3.94712 3.43861
# Velocity P-wave (km/s) = 5.39962 7.20971 6.36929
#
# Compressibility (1/GPa) = 0.02455158
#
# Stress axis : x y z
#
# Youngs Moduli (GPa) = 43.59686 172.37407 141.36882
#
# Poissons Ratio (x) = 0.31752 0.27221
# Poissons Ratio (y) = 0.08031 0.26336
# Poissons Ratio (z) = 0.08395 0.32112
#
# Static dielectric constant tensor:
#      x y z
#    x 1.808190 0.000000 0.023610 
#    y 0.000000 1.982250 0.000000 
#    z 0.023610 0.000000 1.825620 
# 
# From -- ./inp_files/72647.got.cif
#   From: 2010.05.17/outbox.cif.g08.bks.cpg/sg14_37_cif.got.tgz:72647.got - 2010.06.03 17:49:19.
