data_PCOD9241304
_publ_section_title
;
Structure prediction by ZEFSAII (Michael W. Deem and Ramdas Pophale) SiO2 
 PCOD9241304
Probable space group: P 21/C
;
_chemical_formula_sum "Si O2"
_cell_formula_units_Z 28
_cell_length_a 16.479089
_cell_length_b 12.487232
_cell_length_c 10.799104
_cell_angle_alpha 90.000000
_cell_angle_beta 32.703449
_cell_angle_gamma 90.000000
_cell_volume 1200.645554
_symmetry_space_group_name_H-M "P 21/C"
_symmetry_group_IT_number 14
_symmetry_cell_setting 'monoclinic'
loop_
_space_group_symop_operation_xyz
x,y,z
-x,1/2+y,1/2-z
-x,-y,-z
x,1/2-y,1/2+z
loop_
_atom_site_type_symbol
_atom_site_label
_atom_site_fract_x
_atom_site_fract_y
_atom_site_fract_z
Si Si1 0.924659 0.464069 0.946904
Si Si2 0.100860 0.718887 0.506383
Si Si3 0.792202 0.824456 0.546077
Si Si4 0.448829 0.070709 0.306351
Si Si5 0.239044 0.943510 0.019732
Si Si6 0.727201 0.604725 0.745343
Si Si7 0.176637 0.561250 0.194507
O O1 0.883719 0.344956 0.039175
O O2 0.819765 0.567916 0.088751
O O3 0.924923 0.445529 0.795595
O O4 0.088498 0.507766 0.772640
O O5 0.197591 0.663159 0.493556
O O6 0.147579 0.660487 0.319796
O O7 0.931478 0.696463 0.773458
O O8 0.641414 0.846380 0.662603
O O9 0.780860 0.721649 0.645170
O O10 0.624514 0.067261 0.060910
O O11 0.424994 0.107225 0.479565
O O12 0.350319 0.960234 0.426139
O O13 0.287880 0.033416 0.856862
O O14 0.837323 0.541365 0.697295
#
# Coordination Sequence:
#
# PCOD9241304 Si02
#       7
#     4   4   4   4   4   4   4
#     4  10  20  37  62  87 119 151 192 244 285 346
#     4  10  20  33  55  88 117 146 191 242 281 342
#     4  10  20  35  58  83 118 151 190 239 294 336
#     4   9  20  36  58  89 106 153 197 238 282 343
#     4  10  19  35  59  88 112 145 197 241 286 338
#     4   9  18  35  60  85 112 148 193 240 280 344
#     4   8  20  36  63  84 111 156 197 230 289 341
#
# _framework density 23.320788
#
# number of rings (size 3 to 8) (size 9 to 14) (size 15 to 20)
#    0.857    1.714    1.429    0.429    2.000    2.286 
#    5.143    0.000    9.429    3.429    0.000    0.000 
#    0.000    0.000    0.000    0.000    0.000    0.000 
#
# Total GULP energy -156346.346250 kJ/mol
# GULP energy per Si atom -5583.798080 kJ/mol
# Density = 2.326771 g / cm^3
# Si number density = 23.320788 Si / 1000 Ang^3
#
#
#
# Elastic Constant Matrix: (Units=GPa)
#
#
# Indices 1 2 3 4 5 6 
#
# 1 48.1544 35.9492 31.7342 0.0000 -20.0650 0.0000
# 2 35.9492 203.7106 40.6553 0.0000 -5.7098 0.0000
# 3 31.7342 40.6553 90.5179 0.0000 -30.4134 0.0000
# 4 0.0000 0.0000 0.0000 21.0451 0.0000 9.5130
# 5 -20.0650 -5.7098 -30.4134 0.0000 37.2525 0.0000
# 6 0.0000 0.0000 0.0000 9.5130 0.0000 26.6736
#
#
#
# Elastic Compliance Matrix: (Units=1/GPa)
#
#
# Indices 1 2 3 4 5 6 
#
# 1 0.032797 -0.004381 -0.005265 0.000000 0.012695 0.000000
# 2 -0.004381 0.006046 -0.002289 0.000000 -0.003302 0.000000
# 3 -0.005265 -0.002289 0.017708 0.000000 0.011271 0.000000
# 4 0.000000 0.000000 0.000000 0.056650 0.000000 -0.020204
# 5 0.012695 -0.003302 0.011271 0.000000 0.042377 0.000000
# 6 0.000000 0.000000 0.000000 -0.020204 0.000000 0.044696
#
#
# Mechanical properties :
#
#
# Convention : Reuss Voigt Hill
#
# Bulk Modulus (GPa) = 30.59853 62.11782 46.35817
# Shear Modulus (GPa) = 21.27316 32.59717 26.93517
#
# Velocity S-wave (km/s) = 3.02354 3.74274 3.40219
# Velocity P-wave (km/s) = 5.03371 6.73584 5.94600
#
# Compressibility (1/GPa) = 0.03268131
#
# Stress axis : x y z
#
# Youngs Moduli (GPa) = 30.49088 165.38836 56.47070
#
# Poissons Ratio (x) = 0.72459 0.29730
# Poissons Ratio (y) = 0.13359 0.12927
# Poissons Ratio (z) = 0.16053 0.37859
#
# Static dielectric constant tensor:
#      x y z
#    x 1.913060 0.000000 0.023740 
#    y 0.000000 1.854620 0.000000 
#    z 0.023740 0.000000 2.000960 
# 
# From -- ./inp_files/48769.got.cif
#   From: 2010.05.17/outbox.cif.g08.bks.cpg/sg14_25_cif.got.tgz:48769.got - 2010.06.03 17:49:19.
