data_PCOD9241547
_publ_section_title
;
Structure prediction by ZEFSAII (Michael W. Deem and Ramdas Pophale) SiO2 
 PCOD9241547
Probable space group: P 21/C
;
_chemical_formula_sum "Si O2"
_cell_formula_units_Z 32
_cell_length_a 11.957863
_cell_length_b 16.946526
_cell_length_c 9.455449
_cell_angle_alpha 90.000000
_cell_angle_beta 63.782158
_cell_angle_gamma 90.000000
_cell_volume 1718.966282
_symmetry_space_group_name_H-M "P 21/C"
_symmetry_group_IT_number 14
_symmetry_cell_setting 'monoclinic'
loop_
_space_group_symop_operation_xyz
x,y,z
-x,1/2+y,1/2-z
-x,-y,-z
x,1/2-y,1/2+z
loop_
_atom_site_type_symbol
_atom_site_label
_atom_site_fract_x
_atom_site_fract_y
_atom_site_fract_z
Si Si1 0.600008 0.540590 0.045165
Si Si2 0.064436 0.174080 0.054351
Si Si3 0.432344 0.973081 0.892753
Si Si4 0.188476 0.894984 0.143624
Si Si5 0.270560 0.087662 0.788361
Si Si6 0.819605 0.428860 0.023120
Si Si7 0.928570 0.238223 0.378766
Si Si8 0.036749 0.995453 0.795251
O O1 0.529887 0.565756 0.227729
O O2 0.695850 0.471803 0.036653
O O3 0.500000 0.500000 0.000000
O O4 0.666188 0.602544 0.900951
O O5 0.007200 0.087833 0.118997
O O6 0.047108 0.218313 0.212881
O O7 0.198962 0.157751 0.909562
O O8 0.980818 0.222951 0.991723
O O9 0.366492 0.045282 0.842656
O O10 0.500000 0.000000 0.000000
O O11 0.318274 0.916543 0.998216
O O12 0.189193 0.923980 0.304493
O O13 0.156158 0.803343 0.149849
O O14 0.074321 0.942284 0.136567
O O15 0.159549 0.027162 0.805224
O O16 0.849577 0.340667 0.951858
O O17 0.927037 0.481000 0.888934
#
# Coordination Sequence:
#
# PCOD9241547 Si02
#       8
#     4   4   4   4   4   4   4   4
#     4   9  20  38  60  88 112 159 210 255 295 344
#     4  11  20  37  54  89 123 160 194 239 318 387
#     4  11  21  35  60  92 115 155 208 266 294 342
#     4  12  20  36  61  95 125 155 204 264 313 357
#     4  10  19  36  61  84 120 149 198 254 294 364
#     4  10  21  37  56  95 129 157 195 263 313 369
#     4  11  23  35  59  90 132 160 192 246 330 390
#     4  10  20  34  62  91 120 153 201 250 316 368
#
# _framework density 18.615838
#
# number of rings (size 3 to 8) (size 9 to 14) (size 15 to 20)
#    0.000    1.500    5.000    1.500    0.000    1.000 
#    0.000    1.250    0.000    6.000    0.000    0.000 
#    0.000    0.000    0.000    0.000    0.000    0.000 
#
# Total GULP energy -178303.715073 kJ/mol
# GULP energy per Si atom -5571.991096 kJ/mol
# Density = 1.857347 g / cm^3
# Si number density = 18.615838 Si / 1000 Ang^3
#
#
#
# Elastic Constant Matrix: (Units=GPa)
#
#
# Indices 1 2 3 4 5 6 
#
# 1 79.0912 18.4864 36.1733 0.0000 -1.9100 0.0000
# 2 18.4864 46.0163 22.1098 0.0000 -11.9365 0.0000
# 3 36.1733 22.1098 163.9708 0.0000 -15.4289 0.0000
# 4 0.0000 0.0000 0.0000 21.6266 0.0000 -7.3078
# 5 -1.9100 -11.9365 -15.4289 0.0000 39.4993 0.0000
# 6 0.0000 0.0000 0.0000 -7.3078 0.0000 16.9365
#
#
#
# Elastic Compliance Matrix: (Units=1/GPa)
#
#
# Indices 1 2 3 4 5 6 
#
# 1 0.015103 -0.005221 -0.002811 0.000000 -0.001946 0.000000
# 2 -0.005221 0.026508 -0.001757 0.000000 0.007072 0.000000
# 3 -0.002811 -0.001757 0.007156 0.000000 0.002128 0.000000
# 4 0.000000 0.000000 0.000000 0.054132 0.000000 0.023357
# 5 -0.001946 0.007072 0.002128 0.000000 0.028191 0.000000
# 6 0.000000 0.000000 0.000000 0.023357 0.000000 0.069122
#
#
# Mechanical properties :
#
#
# Convention : Reuss Voigt Hill
#
# Bulk Modulus (GPa) = 34.26083 49.17969 41.72026
# Shear Modulus (GPa) = 21.78468 29.76640 25.77554
#
# Velocity S-wave (km/s) = 3.42456 4.00307 3.72506
# Velocity P-wave (km/s) = 5.83789 6.91676 6.40010
#
# Compressibility (1/GPa) = 0.02918785
#
# Stress axis : x y z
#
# Youngs Moduli (GPa) = 66.21365 37.72495 139.74481
#
# Poissons Ratio (x) = 0.19698 0.39279
# Poissons Ratio (y) = 0.34573 0.24553
# Poissons Ratio (z) = 0.18611 0.06628
#
# Static dielectric constant tensor:
#      x y z
#    x 1.634860 0.000000 -0.012710 
#    y 0.000000 1.620770 0.000000 
#    z -0.012710 0.000000 1.729290 
# 
# From -- ./inp_files/13711.got.cif
#   From: 2010.05.17/outbox.cif.g08.bks.cpg/sg14_7_cif.got.tgz:13711.got - 2010.06.03 17:49:19.
