data_PCOD9241010
_publ_section_title
;
Structure prediction by ZEFSAII (Michael W. Deem and Ramdas Pophale) SiO2 
 PCOD9241010
Probable space group: P 21/C
;
_chemical_formula_sum "Si O2"
_cell_formula_units_Z 32
_cell_length_a 11.407285
_cell_length_b 18.113320
_cell_length_c 6.044026
_cell_angle_alpha 90.000000
_cell_angle_beta 98.100735
_cell_angle_gamma 90.000000
_cell_volume 1236.378532
_symmetry_space_group_name_H-M "P 21/C"
_symmetry_group_IT_number 14
_symmetry_cell_setting 'monoclinic'
loop_
_space_group_symop_operation_xyz
x,y,z
-x,1/2+y,1/2-z
-x,-y,-z
x,1/2-y,1/2+z
loop_
_atom_site_type_symbol
_atom_site_label
_atom_site_fract_x
_atom_site_fract_y
_atom_site_fract_z
Si Si1 0.848491 0.471888 0.575434
Si Si2 0.741743 0.830100 0.047445
Si Si3 0.610379 0.421572 0.653193
Si Si4 0.395588 0.077094 0.360891
Si Si5 0.947966 0.879809 0.880221
Si Si6 0.172352 0.061842 0.545370
Si Si7 0.523105 0.683034 0.725682
Si Si8 0.713469 0.273879 0.810952
O O1 0.707162 0.467985 0.546115
O O2 0.894061 0.540038 0.442347
O O3 0.884968 0.495314 0.834759
O O4 0.914836 0.395635 0.534160
O O5 0.673620 0.873288 0.837189
O O6 0.871807 0.815300 0.976348
O O7 0.774114 0.885571 0.252824
O O8 0.641102 0.781913 0.142318
O O9 0.510243 0.459562 0.777289
O O10 0.534782 0.374710 0.459633
O O11 0.691814 0.361916 0.805061
O O12 0.287789 0.032843 0.444640
O O13 0.445788 0.134685 0.553423
O O14 0.912853 0.884947 0.615890
O O15 0.419031 0.740164 0.739749
O O16 0.762302 0.250587 0.572177
#
# Coordination Sequence:
#
# PCOD9241010 Si02
#       8
#     4   4   4   4   4   4   4   4
#     4  10  20  32  48  73 105 143 185 221 264 317
#     4   8  16  30  52  73  96 132 177 217 264 313
#     4  10  20  31  47  77 107 136 176 219 273 336
#     4   9  16  31  48  71 103 134 170 214 265 327
#     4   9  18  34  50  69 103 143 184 227 260 312
#     4   9  17  31  50  70  98 141 178 221 267 313
#     4   9  17  31  51  75 104 133 166 214 272 335
#     4  10  19  34  55  79 112 142 173 220 276 339
#
# _framework density 25.882041999999998
#
# number of rings (size 3 to 8) (size 9 to 14) (size 15 to 20)
#    0.000    2.750    1.250    0.375    0.000    1.500 
#    0.000   21.250    0.000    0.000    0.000   14.000 
#    0.000    0.000    0.000    0.000    0.000    0.000 
#
# Total GULP energy -178410.013234 kJ/mol
# GULP energy per Si atom -5575.312914 kJ/mol
# Density = 2.582313 g / cm^3
# Si number density = 25.882042 Si / 1000 Ang^3
#
#
#
# Elastic Constant Matrix: (Units=GPa)
#
#
# Indices 1 2 3 4 5 6 
#
# 1 57.6123 -1.9341 6.2792 0.0000 -7.6854 0.0000
# 2 -1.9341 50.1746 1.2694 0.0000 -5.1419 0.0000
# 3 6.2792 1.2694 106.4601 0.0000 -8.1023 0.0000
# 4 0.0000 0.0000 0.0000 19.4923 0.0000 -11.5235
# 5 -7.6854 -5.1419 -8.1023 0.0000 24.0552 0.0000
# 6 0.0000 0.0000 0.0000 -11.5235 0.0000 34.8961
#
#
#
# Elastic Compliance Matrix: (Units=1/GPa)
#
#
# Indices 1 2 3 4 5 6 
#
# 1 0.018259 0.001325 -0.000644 0.000000 0.005900 0.000000
# 2 0.001325 0.020474 0.000044 0.000000 0.004814 0.000000
# 3 -0.000644 0.000044 0.009663 0.000000 0.003059 0.000000
# 4 0.000000 0.000000 0.000000 0.063747 0.000000 0.021051
# 5 0.005900 0.004814 0.003059 0.000000 0.045515 0.000000
# 6 0.000000 0.000000 0.000000 0.021051 0.000000 0.035608
#
#
# Mechanical properties :
#
#
# Convention : Reuss Voigt Hill
#
# Bulk Modulus (GPa) = 20.06155 25.05289 22.55722
# Shear Modulus (GPa) = 23.98867 29.59755 26.79311
#
# Velocity S-wave (km/s) = 3.04772 3.38532 3.22094
# Velocity P-wave (km/s) = 4.48918 4.99812 4.75047
#
# Compressibility (1/GPa) = 0.04984661
#
# Stress axis : x y z
#
# Youngs Moduli (GPa) = 54.76732 48.84306 103.48312
#
# Poissons Ratio (x) = -0.06471 0.06661
# Poissons Ratio (y) = -0.07255 -0.00457
# Poissons Ratio (z) = 0.03525 -0.00216
#
# Static dielectric constant tensor:
#      x y z
#    x 2.147510 0.000000 -0.084970 
#    y 0.000000 2.031960 0.000000 
#    z -0.084970 0.000000 2.142280 
# 
# From -- ./inp_files/3297.got.cif
#   From: 2010.05.17/outbox.cif.g08.bks.cpg/sg14_2_cif.got.tgz:3297.got - 2010.06.03 17:49:19.
