data_PCOD9241877
_publ_section_title
;
Structure prediction by ZEFSAII (Michael W. Deem and Ramdas Pophale) SiO2 
 PCOD9241877
Probable space group: P 21/C
;
_chemical_formula_sum "Si O2"
_cell_formula_units_Z 20
_cell_length_a 9.027999
_cell_length_b 7.460154
_cell_length_c 22.226834
_cell_angle_alpha 90.000000
_cell_angle_beta 144.530276
_cell_angle_gamma 90.000000
_cell_volume 868.658407
_symmetry_space_group_name_H-M "P 21/C"
_symmetry_group_IT_number 14
_symmetry_cell_setting 'monoclinic'
loop_
_space_group_symop_operation_xyz
x,y,z
-x,1/2+y,1/2-z
-x,-y,-z
x,1/2-y,1/2+z
loop_
_atom_site_type_symbol
_atom_site_label
_atom_site_fract_x
_atom_site_fract_y
_atom_site_fract_z
Si Si1 0.716665 0.568799 0.889470
Si Si2 0.065155 0.280614 0.354684
Si Si3 0.498436 0.601445 0.436586
Si Si4 0.274722 0.979744 0.337382
Si Si5 0.458097 0.578223 0.295581
O O1 0.518716 0.495677 0.874694
O O2 0.591628 0.516407 0.783505
O O3 0.694095 0.784714 0.876442
O O4 0.000000 0.500000 0.000000
O O5 0.212870 0.323486 0.464084
O O6 0.983179 0.451231 0.287153
O O7 0.795846 0.197456 0.282388
O O8 0.224213 0.134689 0.368710
O O9 0.500000 0.500000 0.500000
O O10 0.325897 0.781038 0.381635
O O11 0.462638 0.488294 0.363607
#
# Coordination Sequence:
#
# PCOD9241877 Si02
#       5
#     4   4   4   4   4
#     4  10  22  43  63  89 127 163 204 258 313 374
#     4  10  19  38  57  86 120 153 205 259 305 364
#     4  10  20  35  57  88 123 155 196 253 309 366
#     4  10  22  37  62  89 119 164 208 256 311 370
#     4  10  22  39  62  88 120 161 206 254 307 372
#
# _framework density 23.024010000000001
#
# number of rings (size 3 to 8) (size 9 to 14) (size 15 to 20)
#    0.000    2.400    0.000    5.400    0.000    3.200 
#    0.000   15.000    0.000    0.000    0.000    0.000 
#    0.000    0.000    0.000    0.000    0.000    0.000 
#
# Total GULP energy -111414.797407 kJ/mol
# GULP energy per Si atom -5570.739870 kJ/mol
# Density = 2.297161 g / cm^3
# Si number density = 23.024010 Si / 1000 Ang^3
#
#
#
# Elastic Constant Matrix: (Units=GPa)
#
#
# Indices 1 2 3 4 5 6 
#
# 1 107.1149 47.3418 35.4580 0.0000 -21.9415 0.0000
# 2 47.3418 47.5300 35.0356 0.0000 -13.2995 0.0000
# 3 35.4580 35.0356 151.1519 0.0000 -22.9416 0.0000
# 4 0.0000 0.0000 0.0000 35.7420 0.0000 -9.2868
# 5 -21.9415 -13.2995 -22.9416 0.0000 44.8962 0.0000
# 6 0.0000 0.0000 0.0000 -9.2868 0.0000 33.8427
#
#
#
# Elastic Compliance Matrix: (Units=1/GPa)
#
#
# Indices 1 2 3 4 5 6 
#
# 1 0.017216 -0.016335 0.000315 0.000000 0.003736 0.000000
# 2 -0.016335 0.041904 -0.005647 0.000000 0.001545 0.000000
# 3 0.000315 -0.005647 0.008261 0.000000 0.002702 0.000000
# 4 0.000000 0.000000 0.000000 0.030126 0.000000 0.008267
# 5 0.003736 0.001545 0.002702 0.000000 0.025938 0.000000
# 6 0.000000 0.000000 0.000000 0.008267 0.000000 0.031817
#
#
# Mechanical properties :
#
#
# Convention : Reuss Voigt Hill
#
# Bulk Modulus (GPa) = 41.58387 60.16307 50.87347
# Shear Modulus (GPa) = 24.19990 35.42693 29.81342
#
# Velocity S-wave (km/s) = 3.24554 3.92688 3.60235
# Velocity P-wave (km/s) = 5.66966 6.83723 6.28064
#
# Compressibility (1/GPa) = 0.02404778
#
# Stress axis : x y z
#
# Youngs Moduli (GPa) = 58.08397 23.86405 121.04974
#
# Poissons Ratio (x) = 0.38982 -0.03808
# Poissons Ratio (y) = 0.94879 0.68352
# Poissons Ratio (z) = -0.01827 0.13475
#
# Static dielectric constant tensor:
#      x y z
#    x 1.955960 0.000000 -0.012980 
#    y 0.000000 2.112730 0.000000 
#    z -0.012980 0.000000 2.012120 
# 
# From -- ./inp_files/64666.got.cif
#   From: 2010.05.17/outbox.cif.g08.bks.cpg/sg14_33_cif.got.tgz:64666.got - 2010.06.03 17:49:19.
