data_PCOD9241394
_publ_section_title
;
Structure prediction by ZEFSAII (Michael W. Deem and Ramdas Pophale) SiO2 
 PCOD9241394
Probable space group: P 21/C
;
_chemical_formula_sum "Si O2"
_cell_formula_units_Z 24
_cell_length_a 10.297062
_cell_length_b 11.640307
_cell_length_c 15.796626
_cell_angle_alpha 90.000000
_cell_angle_beta 145.087685
_cell_angle_gamma 90.000000
_cell_volume 1083.634057
_symmetry_space_group_name_H-M "P 21/C"
_symmetry_group_IT_number 14
_symmetry_cell_setting 'monoclinic'
loop_
_space_group_symop_operation_xyz
x,y,z
-x,1/2+y,1/2-z
-x,-y,-z
x,1/2-y,1/2+z
loop_
_atom_site_type_symbol
_atom_site_label
_atom_site_fract_x
_atom_site_fract_y
_atom_site_fract_z
Si Si1 0.907116 0.683854 0.625716
Si Si2 0.585625 0.469268 0.452400
Si Si3 0.906597 0.570304 0.872450
Si Si4 0.754980 0.571651 0.037921
Si Si5 0.985554 0.201419 0.134208
Si Si6 0.278245 0.502478 0.786805
O O1 0.728550 0.583800 0.508125
O O2 0.820483 0.803034 0.539583
O O3 0.923071 0.729711 0.732555
O O4 0.145465 0.623142 0.728252
O O5 0.500000 0.500000 0.500000
O O6 0.754226 0.360313 0.538929
O O7 0.362567 0.438418 0.279878
O O8 0.011978 0.696486 0.930962
O O9 0.024533 0.505666 0.856573
O O10 0.000000 0.500000 0.000000
O O11 0.521275 0.523444 0.874811
O O12 0.701562 0.558221 0.109350
O O13 0.126503 0.097614 0.165982
#
# Coordination Sequence:
#
# PCOD9241394 Si02
#       6
#     4   4   4   4   4   4
#     4  10  19  35  63  98 126 152 214 283 332 382
#     4  11  22  40  69  99 130 170 223 283 338 386
#     4  12  26  44  61  94 136 180 223 257 330 410
#     4  10  21  35  60  90 127 165 209 274 329 383
#     4  10  21  38  64  95 132 169 213 273 340 391
#     4   9  19  35  61  95 119 157 219 274 331 377
#
# _framework density 22.1477
#
# number of rings (size 3 to 8) (size 9 to 14) (size 15 to 20)
#    0.000    1.667    3.333    2.000    7.000    0.000 
#    3.000    0.000    0.000    4.000    0.000    0.000 
#    0.000    0.000    0.000    0.000    0.000    0.000 
#
# Total GULP energy -133684.676598 kJ/mol
# GULP energy per Si atom -5570.194858 kJ/mol
# Density = 2.209729 g / cm^3
# Si number density = 22.147700 Si / 1000 Ang^3
#
#
#
# Elastic Constant Matrix: (Units=GPa)
#
#
# Indices 1 2 3 4 5 6 
#
# 1 32.4195 37.6565 29.7915 0.0000 15.5980 0.0000
# 2 37.6565 195.5364 62.0742 0.0000 27.7502 0.0000
# 3 29.7915 62.0742 74.7487 0.0000 29.8238 0.0000
# 4 0.0000 0.0000 0.0000 15.9693 0.0000 12.1816
# 5 15.5980 27.7502 29.8238 0.0000 31.0467 0.0000
# 6 0.0000 0.0000 0.0000 12.1816 0.0000 19.8124
#
#
#
# Elastic Compliance Matrix: (Units=1/GPa)
#
#
# Indices 1 2 3 4 5 6 
#
# 1 0.053288 -0.004581 -0.013598 0.000000 -0.009616 0.000000
# 2 -0.004581 0.007361 -0.004184 0.000000 -0.000259 0.000000
# 3 -0.013598 -0.004184 0.029274 0.000000 -0.017550 0.000000
# 4 0.000000 0.000000 0.000000 0.117932 0.000000 -0.072510
# 5 -0.009616 -0.000259 -0.017550 0.000000 0.054131 0.000000
# 6 0.000000 0.000000 0.000000 -0.072510 0.000000 0.095056
#
#
# Mechanical properties :
#
#
# Convention : Reuss Voigt Hill
#
# Bulk Modulus (GPa) = 22.12451 62.41658 42.27054
# Shear Modulus (GPa) = 11.99519 24.91118 18.45318
#
# Velocity S-wave (km/s) = 2.32975 3.35740 2.88963
# Velocity P-wave (km/s) = 4.15310 6.57820 5.50095
#
# Compressibility (1/GPa) = 0.04519875
#
# Stress axis : x y z
#
# Youngs Moduli (GPa) = 18.76584 135.84454 34.15959
#
# Poissons Ratio (x) = 0.62231 0.46449
# Poissons Ratio (y) = 0.08597 0.14292
# Poissons Ratio (z) = 0.25517 0.56838
#
# Static dielectric constant tensor:
#      x y z
#    x 1.557020 0.000000 0.793010 
#    y 0.000000 1.833510 0.000000 
#    z 0.793010 0.000000 0.221610 
# 
# From -- ./inp_files/24097.got.cif
#   From: 2010.05.17/outbox.cif.g08.bks.cpg/sg14_13_cif.got.tgz:24097.got - 2010.06.03 17:49:19.
