data_PCOD9241803
_publ_section_title
;
Structure prediction by ZEFSAII (Michael W. Deem and Ramdas Pophale) SiO2 
 PCOD9241803
Probable space group: P 21/C
;
_chemical_formula_sum "Si O2"
_cell_formula_units_Z 28
_cell_length_a 10.329658
_cell_length_b 13.240579
_cell_length_c 17.844108
_cell_angle_alpha 90.000000
_cell_angle_beta 26.620242
_cell_angle_gamma 90.000000
_cell_volume 1093.549466
_symmetry_space_group_name_H-M "P 21/C"
_symmetry_group_IT_number 14
_symmetry_cell_setting 'monoclinic'
loop_
_space_group_symop_operation_xyz
x,y,z
-x,1/2+y,1/2-z
-x,-y,-z
x,1/2-y,1/2+z
loop_
_atom_site_type_symbol
_atom_site_label
_atom_site_fract_x
_atom_site_fract_y
_atom_site_fract_z
Si Si1 0.366645 0.046922 0.386082
Si Si2 0.413574 0.278801 0.099633
Si Si3 0.032440 0.857910 0.598294
Si Si4 0.046666 0.057372 0.861008
Si Si5 0.391067 0.735942 0.168660
Si Si6 0.494098 0.064673 0.831434
Si Si7 0.080986 0.292227 0.472224
O O1 0.118540 0.975727 0.550448
O O2 0.669261 0.005339 0.263483
O O3 0.369633 0.014519 0.296892
O O4 0.380430 0.164780 0.401727
O O5 0.164556 0.363641 0.239652
O O6 0.243820 0.175797 0.208940
O O7 0.677200 0.303639 0.019591
O O8 0.542533 0.288274 0.950904
O O9 0.962781 0.808524 0.553196
O O10 0.951849 0.123924 0.981807
O O11 0.772281 0.988464 0.989101
O O12 0.366879 0.858038 0.183217
O O13 0.093318 0.705178 0.361105
O O14 0.386008 0.154452 0.829939
#
# Coordination Sequence:
#
# PCOD9241803 Si02
#       7
#     4   4   4   4   4   4   4
#     4  10  19  37  63  92 114 160 217 254 299 363
#     4  10  25  39  64  95 127 167 202 257 318 374
#     4  10  22  43  64  88 129 171 201 252 322 365
#     4   9  18  38  62  85 120 163 205 255 311 360
#     4  12  23  34  63  97 119 153 217 261 299 373
#     4  11  20  36  65  93 120 161 205 272 306 356
#     4  10  19  37  64  87 120 158 213 249 302 371
#
# _framework density 25.604696000000001
#
# number of rings (size 3 to 8) (size 9 to 14) (size 15 to 20)
#    0.000    1.714    4.286    1.714    2.000    3.429 
#    0.000    0.714    6.286    4.286    0.000    0.000 
#    0.000    0.000    0.000    0.000    0.000    0.000 
#
# Total GULP energy -156340.096295 kJ/mol
# GULP energy per Si atom -5583.574868 kJ/mol
# Density = 2.554642 g / cm^3
# Si number density = 25.604696 Si / 1000 Ang^3
#
#
#
# Elastic Constant Matrix: (Units=GPa)
#
#
# Indices 1 2 3 4 5 6 
#
# 1 40.5530 17.5379 51.5199 0.0000 3.6404 0.0000
# 2 17.5379 141.5823 52.5376 0.0000 -16.3742 0.0000
# 3 51.5199 52.5376 147.6014 0.0000 31.3191 0.0000
# 4 0.0000 0.0000 0.0000 44.1759 0.0000 -11.2062
# 5 3.6404 -16.3742 31.3191 0.0000 40.9342 0.0000
# 6 0.0000 0.0000 0.0000 -11.2062 0.0000 22.2852
#
#
#
# Elastic Compliance Matrix: (Units=1/GPa)
#
#
# Indices 1 2 3 4 5 6 
#
# 1 0.048590 0.003207 -0.020840 0.000000 0.012907 0.000000
# 2 0.003207 0.010133 -0.006597 0.000000 0.008815 0.000000
# 3 -0.020840 -0.006597 0.019774 0.000000 -0.015915 0.000000
# 4 0.000000 0.000000 0.000000 0.025947 0.000000 0.013047
# 5 0.012907 0.008815 -0.015915 0.000000 0.038985 0.000000
# 6 0.000000 0.000000 0.000000 0.013047 0.000000 0.051434
#
#
# Mechanical properties :
#
#
# Convention : Reuss Voigt Hill
#
# Bulk Modulus (GPa) = 33.29200 63.65863 48.47531
# Shear Modulus (GPa) = 19.73674 35.35515 27.54594
#
# Velocity S-wave (km/s) = 2.77939 3.71995 3.28352
# Velocity P-wave (km/s) = 4.83017 6.58535 5.77483
#
# Compressibility (1/GPa) = 0.03003725
#
# Stress axis : x y z
#
# Youngs Moduli (GPa) = 20.58045 98.68562 50.57067
#
# Poissons Ratio (x) = -0.31650 1.05391
# Poissons Ratio (y) = -0.06601 0.33361
# Poissons Ratio (z) = 0.42890 0.65101
#
# Static dielectric constant tensor:
#      x y z
#    x 2.127080 0.000000 -0.056300 
#    y 0.000000 2.118140 0.000000 
#    z -0.056300 0.000000 1.997230 
# 
# From -- ./inp_files/57855.got.cif
#   From: 2010.05.17/outbox.cif.g08.bks.cpg/sg14_29_cif.got.tgz:57855.got - 2010.06.03 17:49:19.
