data_PCOD9241780
_publ_section_title
;
Structure prediction by ZEFSAII (Michael W. Deem and Ramdas Pophale) SiO2 
 PCOD9241780
Probable space group: P 21/C
;
_chemical_formula_sum "Si O2"
_cell_formula_units_Z 32
_cell_length_a 29.783456
_cell_length_b 5.221989
_cell_length_c 17.878370
_cell_angle_alpha 90.000000
_cell_angle_beta 148.114609
_cell_angle_gamma 90.000000
_cell_volume 1468.775187
_symmetry_space_group_name_H-M "P 21/C"
_symmetry_group_IT_number 14
_symmetry_cell_setting 'monoclinic'
loop_
_space_group_symop_operation_xyz
x,y,z
-x,1/2+y,1/2-z
-x,-y,-z
x,1/2-y,1/2+z
loop_
_atom_site_type_symbol
_atom_site_label
_atom_site_fract_x
_atom_site_fract_y
_atom_site_fract_z
Si Si1 0.195906 0.697214 0.598298
Si Si2 0.555277 0.775353 0.662962
Si Si3 0.088853 0.023340 0.534903
Si Si4 0.798453 0.883667 0.740194
Si Si5 0.390512 0.778750 0.851091
Si Si6 0.068288 0.720468 0.647696
Si Si7 0.687413 0.932609 0.453168
Si Si8 0.211474 0.562757 0.454211
O O1 0.194402 0.525121 0.670509
O O2 0.292248 0.796708 0.731937
O O3 0.184632 0.566700 0.502514
O O4 0.121704 0.905127 0.505183
O O5 0.585521 0.554004 0.648539
O O6 0.453685 0.781783 0.509498
O O7 0.594837 0.665633 0.795899
O O8 0.590972 0.046929 0.682230
O O9 0.175963 0.098283 0.701392
O O10 0.022067 0.255747 0.438298
O O11 0.048778 0.820440 0.535763
O O12 0.710206 0.926861 0.573216
O O13 0.872059 0.979338 0.787027
O O14 0.130784 0.889181 0.787278
O O15 0.745954 0.707290 0.502372
O O16 0.721809 0.203726 0.469637
#
# Coordination Sequence:
#
# PCOD9241780 Si02
#       8
#     4   4   4   4   4   4   4   4
#     4  11  23  37  57  93 123 156 196 265 318 349
#     4  10  19  37  62  90 115 161 205 247 291 378
#     4  10  20  38  60  83 119 161 201 252 306 364
#     4  10  22  36  63  85 120 165 203 253 304 373
#     4  10  21  35  62  90 123 154 200 251 310 354
#     4   9  20  40  59  85 114 162 216 236 297 373
#     4  11  20  39  64  88 116 160 213 236 299 369
#     4  11  22  38  62  90 119 159 202 259 292 362
#
# _framework density 21.786857999999999
#
# number of rings (size 3 to 8) (size 9 to 14) (size 15 to 20)
#    0.000    1.750    3.750    0.375    3.500    0.000 
#    2.250    0.000    2.750    0.000    0.000    0.000 
#    0.000    0.000    0.000    0.000    0.000    0.000 
#
# Total GULP energy -178256.060311 kJ/mol
# GULP energy per Si atom -5570.501885 kJ/mol
# Density = 2.173727 g / cm^3
# Si number density = 21.786858 Si / 1000 Ang^3
#
#
#
# Elastic Constant Matrix: (Units=GPa)
#
#
# Indices 1 2 3 4 5 6 
#
# 1 53.0993 9.4748 -6.9822 0.0000 -5.9096 0.0000
# 2 9.4748 73.1027 -4.9109 0.0000 -4.0595 0.0000
# 3 -6.9822 -4.9109 78.8832 0.0000 -8.4665 0.0000
# 4 0.0000 0.0000 0.0000 29.5300 0.0000 0.3311
# 5 -5.9096 -4.0595 -8.4665 0.0000 34.1713 0.0000
# 6 0.0000 0.0000 0.0000 0.3311 0.0000 17.5731
#
#
#
# Elastic Compliance Matrix: (Units=1/GPa)
#
#
# Indices 1 2 3 4 5 6 
#
# 1 0.019907 -0.002240 0.002017 0.000000 0.003676 0.000000
# 2 -0.002240 0.014109 0.000841 0.000000 0.001497 0.000000
# 3 0.002017 0.000841 0.013310 0.000000 0.003746 0.000000
# 4 0.000000 0.000000 0.000000 0.033871 0.000000 -0.000638
# 5 0.003676 0.001497 0.003746 0.000000 0.031006 0.000000
# 6 0.000000 0.000000 0.000000 -0.000638 0.000000 0.056917
#
#
# Mechanical properties :
#
#
# Convention : Reuss Voigt Hill
#
# Bulk Modulus (GPa) = 20.59269 22.24985 21.42127
# Shear Modulus (GPa) = 27.16316 30.08843 28.62579
#
# Velocity S-wave (km/s) = 3.53479 3.72026 3.62871
# Velocity P-wave (km/s) = 5.11195 5.35616 5.23548
#
# Compressibility (1/GPa) = 0.04856091
#
# Stress axis : x y z
#
# Youngs Moduli (GPa) = 50.23406 70.87479 75.13173
#
# Poissons Ratio (x) = 0.15879 -0.15155
# Poissons Ratio (y) = 0.11255 -0.06317
# Poissons Ratio (z) = -0.10133 -0.05959
#
# Static dielectric constant tensor:
#      x y z
#    x 1.784040 0.000000 -0.014940 
#    y 0.000000 1.873980 0.000000 
#    z -0.014940 0.000000 1.906220 
# 
# From -- ./inp_files/62512.got.cif
#   From: 2010.05.17/outbox.cif.g08.bks.cpg/sg14_32_cif.got.tgz:62512.got - 2010.06.03 17:49:19.
