data_PCOD9241199
_publ_section_title
;
Structure prediction by ZEFSAII (Michael W. Deem and Ramdas Pophale) SiO2 
 PCOD9241199
Probable space group: P 21/C
;
_chemical_formula_sum "Si O2"
_cell_formula_units_Z 28
_cell_length_a 8.135477
_cell_length_b 18.171621
_cell_length_c 8.647434
_cell_angle_alpha 90.000000
_cell_angle_beta 84.301615
_cell_angle_gamma 90.000000
_cell_volume 1272.074377
_symmetry_space_group_name_H-M "P 21/C"
_symmetry_group_IT_number 14
_symmetry_cell_setting 'monoclinic'
loop_
_space_group_symop_operation_xyz
x,y,z
-x,1/2+y,1/2-z
-x,-y,-z
x,1/2-y,1/2+z
loop_
_atom_site_type_symbol
_atom_site_label
_atom_site_fract_x
_atom_site_fract_y
_atom_site_fract_z
Si Si1 0.166961 0.415099 0.617940
Si Si2 0.260584 0.737549 0.413625
Si Si3 0.239973 0.509133 0.083195
Si Si4 0.011958 0.073902 0.808286
Si Si5 0.341401 0.854645 0.183551
Si Si6 0.553751 0.987617 0.748572
Si Si7 0.924116 0.161285 0.348937
O O1 0.117261 0.398951 0.446044
O O2 0.355092 0.433763 0.641719
O O3 0.067813 0.492625 0.654638
O O4 0.095640 0.356304 0.746926
O O5 0.367417 0.802527 0.327771
O O6 0.363888 0.690856 0.525853
O O7 0.192809 0.687080 0.282414
O O8 0.108478 0.776553 0.519760
O O9 0.130638 0.441449 0.153085
O O10 0.370780 0.527391 0.207167
O O11 0.136753 0.583711 0.075394
O O12 0.333530 0.489860 0.917312
O O13 0.854532 0.125093 0.797916
O O14 0.437721 0.930170 0.186034
#
# Coordination Sequence:
#
# PCOD9241199 Si02
#       7
#     4   4   4   4   4   4   4
#     4   9  18  32  53  79 105 128 169 222 264 306
#     4  10  20  32  56  78 106 140 178 218 260 324
#     4  10  21  35  54  79 109 142 178 223 269 314
#     4   9  18  32  53  79 105 128 169 222 264 306
#     4  10  19  35  55  82 102 138 179 222 266 319
#     4  10  21  35  54  79 109 142 178 223 269 314
#     4  10  19  35  55  82 102 138 179 222 266 319
#
# _framework density 22.011291
#
# number of rings (size 3 to 8) (size 9 to 14) (size 15 to 20)
#    0.000    2.286    2.857    0.000    4.000    2.286 
#    0.000    0.000    0.000   10.286    0.000    0.000 
#    0.000    0.000    0.000    0.000    0.000    0.000 
#
# Total GULP energy -156410.898924 kJ/mol
# GULP energy per Si atom -5586.103533 kJ/mol
# Density = 2.196119 g / cm^3
# Si number density = 22.011291 Si / 1000 Ang^3
#
#
#
# Elastic Constant Matrix: (Units=GPa)
#
#
# Indices 1 2 3 4 5 6 
#
# 1 54.9760 6.0077 24.2411 0.0000 15.1791 0.0000
# 2 6.0077 36.2066 12.7749 0.0000 -5.6064 0.0000
# 3 24.2411 12.7749 82.9795 0.0000 8.1579 0.0000
# 4 0.0000 0.0000 0.0000 32.2293 0.0000 4.2510
# 5 15.1791 -5.6064 8.1579 0.0000 31.1847 0.0000
# 6 0.0000 0.0000 0.0000 4.2510 0.0000 8.1075
#
#
#
# Elastic Compliance Matrix: (Units=1/GPa)
#
#
# Indices 1 2 3 4 5 6 
#
# 1 0.023987 -0.003791 -0.005347 0.000000 -0.010959 0.000000
# 2 -0.003791 0.031189 -0.004544 0.000000 0.008641 0.000000
# 3 -0.005347 -0.004544 0.014510 0.000000 -0.002010 0.000000
# 4 0.000000 0.000000 0.000000 0.033333 0.000000 -0.017477
# 5 -0.010959 0.008641 -0.002010 0.000000 0.039480 0.000000
# 6 0.000000 0.000000 0.000000 -0.017477 0.000000 0.132506
#
#
# Mechanical properties :
#
#
# Convention : Reuss Voigt Hill
#
# Bulk Modulus (GPa) = 23.62671 28.91216 26.26944
# Shear Modulus (GPa) = 15.79895 23.04686 19.42291
#
# Velocity S-wave (km/s) = 2.68202 3.23932 2.97376
# Velocity P-wave (km/s) = 4.51090 5.21101 4.87354
#
# Compressibility (1/GPa) = 0.04232498
#
# Stress axis : x y z
#
# Youngs Moduli (GPa) = 41.68891 32.06212 68.91680
#
# Poissons Ratio (x) = 0.12153 0.36847
# Poissons Ratio (y) = 0.15802 0.31315
# Poissons Ratio (z) = 0.22289 0.14569
#
# Static dielectric constant tensor:
#      x y z
#    x 1.810020 0.000000 -0.021570 
#    y 0.000000 1.805590 0.000000 
#    z -0.021570 0.000000 1.854360 
# 
# From -- ./inp_files/9923.got.cif
#   From: 2010.05.17/outbox.cif.g08.bks.cpg/sg14_5_cif.got.tgz:9923.got - 2010.06.03 17:49:19.
