data_PCOD9241730
_publ_section_title
;
Structure prediction by ZEFSAII (Michael W. Deem and Ramdas Pophale) SiO2 
 PCOD9241730
Probable space group: P 21/C
;
_chemical_formula_sum "Si O2"
_cell_formula_units_Z 24
_cell_length_a 7.991683
_cell_length_b 9.486948
_cell_length_c 28.511845
_cell_angle_alpha 90.000000
_cell_angle_beta 30.565024
_cell_angle_gamma 90.000000
_cell_volume 1099.245290
_symmetry_space_group_name_H-M "P 21/C"
_symmetry_group_IT_number 14
_symmetry_cell_setting 'monoclinic'
loop_
_space_group_symop_operation_xyz
x,y,z
-x,1/2+y,1/2-z
-x,-y,-z
x,1/2-y,1/2+z
loop_
_atom_site_type_symbol
_atom_site_label
_atom_site_fract_x
_atom_site_fract_y
_atom_site_fract_z
Si Si1 0.155778 0.807558 0.732624
Si Si2 0.506766 0.455081 0.195945
Si Si3 0.445726 0.542337 0.709686
Si Si4 0.259955 0.614230 0.110686
Si Si5 0.595900 0.304953 0.609648
Si Si6 0.815087 0.373776 0.974817
O O1 0.245743 0.965313 0.726516
O O2 0.340251 0.698607 0.721135
O O3 0.280146 0.782703 0.649687
O O4 0.764908 0.794868 0.826941
O O5 0.399942 0.454422 0.275867
O O6 0.585354 0.302569 0.156133
O O7 0.840337 0.545388 0.110888
O O8 0.640739 0.457607 0.622384
O O9 0.097264 0.459066 0.798230
O O10 0.271729 0.681576 0.056339
O O11 0.537771 0.494378 0.049746
O O12 0.824151 0.240210 0.514054
#
# Coordination Sequence:
#
# PCOD9241730 Si02
#       6
#     4   4   4   4   4   4
#     4  11  20  37  56  86 115 152 185 232 288 336
#     4  11  22  36  61  85 113 149 194 239 271 333
#     4  10  21  36  56  87 120 146 185 231 290 334
#     4   9  19  35  60  85 114 148 187 236 274 335
#     4  11  20  37  59  86 112 152 190 232 282 337
#     4  10  19  37  60  89 108 145 200 234 272 326
#
# _framework density 21.833159999999999
#
# number of rings (size 3 to 8) (size 9 to 14) (size 15 to 20)
#    0.000    1.667    3.333    2.500    0.000    0.000 
#    0.000    1.667    0.000    0.000    0.000    0.000 
#    0.000    0.000    0.000    0.000    0.000    0.000 
#
# Total GULP energy -134101.123078 kJ/mol
# GULP energy per Si atom -5587.546795 kJ/mol
# Density = 2.178347 g / cm^3
# Si number density = 21.833160 Si / 1000 Ang^3
#
#
#
# Elastic Constant Matrix: (Units=GPa)
#
#
# Indices 1 2 3 4 5 6 
#
# 1 66.1414 0.4520 6.2563 0.0000 7.6140 0.0000
# 2 0.4520 31.7234 -7.0189 0.0000 7.6171 0.0000
# 3 6.2563 -7.0189 35.3252 0.0000 4.8982 0.0000
# 4 0.0000 0.0000 0.0000 21.5351 0.0000 -6.1372
# 5 7.6140 7.6171 4.8982 0.0000 23.8247 0.0000
# 6 0.0000 0.0000 0.0000 -6.1372 0.0000 9.3425
#
#
#
# Elastic Compliance Matrix: (Units=1/GPa)
#
#
# Indices 1 2 3 4 5 6 
#
# 1 0.015862 0.000473 -0.002050 0.000000 -0.004799 0.000000
# 2 0.000473 0.036859 0.009156 0.000000 -0.013818 0.000000
# 3 -0.002050 0.009156 0.031710 0.000000 -0.008792 0.000000
# 4 0.000000 0.000000 0.000000 0.057132 0.000000 0.037531
# 5 -0.004799 -0.013818 -0.008792 0.000000 0.049732 0.000000
# 6 0.000000 0.000000 0.000000 0.037531 0.000000 0.131693
#
#
# Mechanical properties :
#
#
# Convention : Reuss Voigt Hill
#
# Bulk Modulus (GPa) = 10.04127 14.72987 12.38557
# Shear Modulus (GPa) = 14.66161 19.84050 17.25106
#
# Velocity S-wave (km/s) = 2.59420 3.01779 2.81398
# Velocity P-wave (km/s) = 3.68541 4.34787 4.03027
#
# Compressibility (1/GPa) = 0.09958902
#
# Stress axis : x y z
#
# Youngs Moduli (GPa) = 63.04274 27.13015 31.53608
#
# Poissons Ratio (x) = -0.01283 0.06465
# Poissons Ratio (y) = -0.02980 -0.28874
# Poissons Ratio (z) = 0.12923 -0.24840
#
# Static dielectric constant tensor:
#      x y z
#    x 1.792060 0.000000 0.023980 
#    y 0.000000 1.792620 0.000000 
#    z 0.023980 0.000000 1.831130 
# 
# From -- ./inp_files/61672.got.cif
#   From: 2010.05.17/outbox.cif.g08.bks.cpg/sg14_31_cif.got.tgz:61672.got - 2010.06.03 17:49:19.
