data_PCOD9241630
_publ_section_title
;
Structure prediction by ZEFSAII (Michael W. Deem and Ramdas Pophale) SiO2 
 PCOD9241630
Probable space group: P 21/C
;
_chemical_formula_sum "Si O2"
_cell_formula_units_Z 28
_cell_length_a 9.034921
_cell_length_b 14.726315
_cell_length_c 15.987524
_cell_angle_alpha 90.000000
_cell_angle_beta 139.557416
_cell_angle_gamma 90.000000
_cell_volume 1379.856720
_symmetry_space_group_name_H-M "P 21/C"
_symmetry_group_IT_number 14
_symmetry_cell_setting 'monoclinic'
loop_
_space_group_symop_operation_xyz
x,y,z
-x,1/2+y,1/2-z
-x,-y,-z
x,1/2-y,1/2+z
loop_
_atom_site_type_symbol
_atom_site_label
_atom_site_fract_x
_atom_site_fract_y
_atom_site_fract_z
Si Si1 0.706532 0.169822 0.213388
Si Si2 0.952517 0.002817 0.231800
Si Si3 0.759471 0.924393 0.989075
Si Si4 0.900701 0.302546 0.156665
Si Si5 0.195114 0.897759 0.080074
Si Si6 0.181225 0.357233 0.723700
Si Si7 0.353970 0.713530 0.130532
O O1 0.829700 0.077193 0.236770
O O2 0.434203 0.150991 0.094195
O O3 0.766859 0.251209 0.174723
O O4 0.773633 0.186533 0.338833
O O5 0.158845 0.059297 0.277495
O O6 0.038719 0.907231 0.303501
O O7 0.770726 0.974640 0.082392
O O8 0.714874 0.002040 0.899989
O O9 0.020970 0.893843 0.083113
O O10 0.122822 0.238031 0.243247
O O11 0.771008 0.297557 0.011918
O O12 0.386919 0.821531 0.159836
O O13 0.021005 0.874928 0.929371
O O14 0.417062 0.343408 0.779312
#
# Coordination Sequence:
#
# PCOD9241630 Si02
#       7
#     4   4   4   4   4   4   4
#     4  11  23  40  63  95 120 161 212 253 302 366
#     4  10  22  39  60  87 126 160 205 257 300 361
#     4  10  19  36  64  91 119 153 214 261 296 346
#     4  10  24  40  61  92 122 168 202 247 318 360
#     4   9  19  36  61  92 118 157 204 260 300 346
#     4   9  20  39  59  88 126 156 208 259 290 363
#     4  11  22  40  62  88 128 160 201 250 311 369
#
# _framework density 20.291962000000002
#
# number of rings (size 3 to 8) (size 9 to 14) (size 15 to 20)
#    0.000    2.000    1.429    2.143    4.000    1.143 
#    0.000    0.000    0.000    0.000    0.000    0.000 
#    0.000    0.000    0.000    0.000    0.000    0.000 
#
# Total GULP energy -156033.448786 kJ/mol
# GULP energy per Si atom -5572.623171 kJ/mol
# Density = 2.024578 g / cm^3
# Si number density = 20.291962 Si / 1000 Ang^3
#
#
#
# Elastic Constant Matrix: (Units=GPa)
#
#
# Indices 1 2 3 4 5 6 
#
# 1 86.7082 27.5671 37.5696 0.0000 -28.9179 0.0000
# 2 27.5671 113.7757 35.0396 0.0000 -13.0117 0.0000
# 3 37.5696 35.0396 41.2236 0.0000 -16.3235 0.0000
# 4 0.0000 0.0000 0.0000 24.3142 0.0000 -2.0042
# 5 -28.9179 -13.0117 -16.3235 0.0000 18.8489 0.0000
# 6 0.0000 0.0000 0.0000 -2.0042 0.0000 30.2382
#
#
#
# Elastic Compliance Matrix: (Units=1/GPa)
#
#
# Indices 1 2 3 4 5 6 
#
# 1 0.027463 0.001109 -0.013673 0.000000 0.031058 0.000000
# 2 0.001109 0.011959 -0.011008 0.000000 0.000423 0.000000
# 3 -0.013673 -0.011008 0.052901 0.000000 0.017238 0.000000
# 4 0.000000 0.000000 0.000000 0.041354 0.000000 0.002741
# 5 0.031058 0.000423 0.017238 0.000000 0.115923 0.000000
# 6 0.000000 0.000000 0.000000 0.002741 0.000000 0.033252
#
#
# Mechanical properties :
#
#
# Convention : Reuss Voigt Hill
#
# Bulk Modulus (GPa) = 22.13418 49.11780 35.62599
# Shear Modulus (GPa) = 14.49041 24.11566 19.30303
#
# Velocity S-wave (km/s) = 2.67516 3.45111 3.08760
# Velocity P-wave (km/s) = 4.52476 6.33548 5.50508
#
# Compressibility (1/GPa) = 0.04517900
#
# Stress axis : x y z
#
# Youngs Moduli (GPa) = 36.41297 83.61809 18.90324
#
# Poissons Ratio (x) = -0.09270 0.25846
# Poissons Ratio (y) = -0.04037 0.20808
# Poissons Ratio (z) = 0.49786 0.92045
#
# Static dielectric constant tensor:
#      x y z
#    x 1.798310 0.000000 -0.047630 
#    y 0.000000 1.747930 0.000000 
#    z -0.047630 0.000000 1.729380 
# 
# From -- ./inp_files/41441.got.cif
#   From: 2010.05.17/outbox.cif.g08.bks.cpg/sg14_21_cif.got.tgz:41441.got - 2010.06.03 17:49:19.
