data_PCOD9241894
_publ_section_title
;
Structure prediction by ZEFSAII (Michael W. Deem and Ramdas Pophale) SiO2 
 PCOD9241894
Probable space group: P 21/C
;
_chemical_formula_sum "Si O2"
_cell_formula_units_Z 28
_cell_length_a 24.513481
_cell_length_b 12.596626
_cell_length_c 13.762849
_cell_angle_alpha 90.000000
_cell_angle_beta 158.935964
_cell_angle_gamma 90.000000
_cell_volume 1527.422173
_symmetry_space_group_name_H-M "P 21/C"
_symmetry_group_IT_number 14
_symmetry_cell_setting 'monoclinic'
loop_
_space_group_symop_operation_xyz
x,y,z
-x,1/2+y,1/2-z
-x,-y,-z
x,1/2-y,1/2+z
loop_
_atom_site_type_symbol
_atom_site_label
_atom_site_fract_x
_atom_site_fract_y
_atom_site_fract_z
Si Si1 0.758738 0.884188 0.703106
Si Si2 0.032944 0.744825 0.081463
Si Si3 0.771307 0.124574 0.736601
Si Si4 0.264004 0.880827 0.092336
Si Si5 0.561301 0.694334 0.374238
Si Si6 0.775873 0.898585 0.086819
Si Si7 0.610172 0.810088 0.640276
O O1 0.622245 0.809302 0.437428
O O2 0.711298 0.884058 0.737510
O O3 0.771630 0.005158 0.694357
O O4 0.911101 0.819148 0.934204
O O5 0.099232 0.807171 0.099685
O O6 0.168453 0.708609 0.376730
O O7 0.940097 0.641526 0.891688
O O8 0.782966 0.120041 0.872687
O O9 0.609857 0.175091 0.439778
O O10 0.444273 0.857951 0.384698
O O11 0.232495 0.990484 0.982776
O O12 0.666941 0.606015 0.500066
O O13 0.586762 0.707003 0.532750
O O14 0.703535 0.810141 0.894123
#
# Coordination Sequence:
#
# PCOD9241894 Si02
#       7
#     4   4   4   4   4   4   4
#     4   9  21  39  56  83 119 156 192 230 297 350
#     4  11  25  38  55  91 128 151 192 243 294 347
#     4  12  21  37  64  85 118 161 192 239 296 351
#     4  12  22  37  63  91 113 153 204 243 284 346
#     4   9  20  35  59  88 111 146 198 247 277 338
#     4  11  21  39  61  87 116 158 194 244 285 344
#     4  10  19  38  59  85 113 144 203 238 284 343
#
# _framework density 18.331538999999999
#
# number of rings (size 3 to 8) (size 9 to 14) (size 15 to 20)
#    0.857    0.571    4.286    2.143    2.000    0.000 
#    0.000    0.000    0.000   11.143    0.000    0.000 
#    0.000    0.000    0.000    0.000    0.000    0.000 
#
# Total GULP energy -155903.515003 kJ/mol
# GULP energy per Si atom -5567.982679 kJ/mol
# Density = 1.828982 g / cm^3
# Si number density = 18.331539 Si / 1000 Ang^3
#
#
#
# Elastic Constant Matrix: (Units=GPa)
#
#
# Indices 1 2 3 4 5 6 
#
# 1 95.8429 38.3178 5.2439 0.0000 9.1253 0.0000
# 2 38.3178 54.7285 2.4409 0.0000 2.9684 0.0000
# 3 5.2439 2.4409 74.4942 0.0000 7.8464 0.0000
# 4 0.0000 0.0000 0.0000 8.3558 0.0000 -10.6414
# 5 9.1253 2.9684 7.8464 0.0000 34.1959 0.0000
# 6 0.0000 0.0000 0.0000 -10.6414 0.0000 23.5134
#
#
#
# Elastic Compliance Matrix: (Units=1/GPa)
#
#
# Indices 1 2 3 4 5 6 
#
# 1 0.014814 -0.010193 -0.000395 0.000000 -0.002978 0.000000
# 2 -0.010193 0.025386 -0.000173 0.000000 0.000556 0.000000
# 3 -0.000395 -0.000173 0.013778 0.000000 -0.003041 0.000000
# 4 0.000000 0.000000 0.000000 0.282495 0.000000 0.127848
# 5 -0.002978 0.000556 -0.003041 0.000000 0.030687 0.000000
# 6 0.000000 0.000000 0.000000 0.127848 0.000000 0.100389
#
#
# Mechanical properties :
#
#
# Convention : Reuss Voigt Hill
#
# Bulk Modulus (GPa) = 30.81102 35.23009 33.02056
# Shear Modulus (GPa) = 10.00222 25.15056 17.57639
#
# Velocity S-wave (km/s) = 2.33840 3.70805 3.09982
# Velocity P-wave (km/s) = 4.91274 6.13130 5.55553
#
# Compressibility (1/GPa) = 0.03245592
#
# Stress axis : x y z
#
# Youngs Moduli (GPa) = 67.50415 39.39186 72.58139
#
# Poissons Ratio (x) = 0.40151 0.02868
# Poissons Ratio (y) = 0.68805 0.01255
# Poissons Ratio (z) = 0.02668 0.00681
#
# Static dielectric constant tensor:
#      x y z
#    x 1.667310 0.000000 0.007620 
#    y 0.000000 1.643720 0.000000 
#    z 0.007620 0.000000 1.605090 
# 
# From -- ./inp_files/51994.got.cif
#   From: 2010.05.17/outbox.cif.g08.bks.cpg/sg14_26_cif.got.tgz:51994.got - 2010.06.03 17:49:19.
