data_PCOD9241180
_publ_section_title
;
Structure prediction by ZEFSAII (Michael W. Deem and Ramdas Pophale) SiO2 
 PCOD9241180
Probable space group: P 21/C
;
_chemical_formula_sum "Si O2"
_cell_formula_units_Z 24
_cell_length_a 5.077298
_cell_length_b 17.536087
_cell_length_c 16.767562
_cell_angle_alpha 90.000000
_cell_angle_beta 51.532828
_cell_angle_gamma 90.000000
_cell_volume 1168.900246
_symmetry_space_group_name_H-M "P 21/C"
_symmetry_group_IT_number 14
_symmetry_cell_setting 'monoclinic'
loop_
_space_group_symop_operation_xyz
x,y,z
-x,1/2+y,1/2-z
-x,-y,-z
x,1/2-y,1/2+z
loop_
_atom_site_type_symbol
_atom_site_label
_atom_site_fract_x
_atom_site_fract_y
_atom_site_fract_z
Si Si1 0.823751 0.597197 0.190379
Si Si2 0.868792 0.965056 0.442546
Si Si3 0.565590 0.842225 0.073286
Si Si4 0.974854 0.434681 0.399584
Si Si5 0.292155 0.419215 0.610083
Si Si6 0.452559 0.336336 0.918016
O O1 0.898643 0.506151 0.166523
O O2 0.180024 0.641799 0.117966
O O3 0.702326 0.611931 0.302366
O O4 0.598560 0.624841 0.159128
O O5 0.814212 0.875911 0.470665
O O6 0.500000 0.000000 0.500000
O O7 0.000000 0.000000 0.500000
O O8 0.187970 0.870947 0.127358
O O9 0.589579 0.753306 0.084493
O O10 0.722228 0.896261 0.111259
O O11 0.752023 0.859932 0.953791
O O12 0.671350 0.450147 0.520781
O O13 0.982584 0.513915 0.350661
#
# Coordination Sequence:
#
# PCOD9241180 Si02
#       6
#     4   4   4   4   4   4
#     4  10  20  33  57  78 104 138 188 218 252 311
#     4   8  16  32  49  71  98 137 172 204 253 306
#     4  10  19  35  54  75 107 141 175 209 280 319
#     4   9  20  34  58  75 104 144 174 215 269 314
#     4   9  21  34  59  78 105 137 188 219 256 311
#     4  10  20  34  53  78 111 144 167 218 274 321
#
# _framework density 20.532121
#
# number of rings (size 3 to 8) (size 9 to 14) (size 15 to 20)
#    1.000    1.667    0.000    1.500    2.333    0.000 
#    0.000    3.333    0.000    4.000    0.000    0.000 
#    0.000    0.000    0.000    0.000    0.000    0.000 
#
# Total GULP energy -133616.786264 kJ/mol
# GULP energy per Si atom -5567.366094 kJ/mol
# Density = 2.048539 g / cm^3
# Si number density = 20.532121 Si / 1000 Ang^3
#
#
#
# Elastic Constant Matrix: (Units=GPa)
#
#
# Indices 1 2 3 4 5 6 
#
# 1 83.6686 0.7252 5.1883 0.0000 24.3591 0.0000
# 2 0.7252 95.1299 12.7543 0.0000 3.6711 0.0000
# 3 5.1883 12.7543 40.5902 0.0000 14.8203 0.0000
# 4 0.0000 0.0000 0.0000 13.7047 0.0000 7.6873
# 5 24.3591 3.6711 14.8203 0.0000 20.6562 0.0000
# 6 0.0000 0.0000 0.0000 7.6873 0.0000 21.4500
#
#
#
# Elastic Compliance Matrix: (Units=1/GPa)
#
#
# Indices 1 2 3 4 5 6 
#
# 1 0.020041 -0.000120 0.008262 0.000000 -0.029539 0.000000
# 2 -0.000120 0.010983 -0.003760 0.000000 0.000888 0.000000
# 3 0.008262 -0.003760 0.038040 0.000000 -0.036367 0.000000
# 4 0.000000 0.000000 0.000000 0.091326 0.000000 -0.032730
# 5 -0.029539 0.000888 -0.036367 0.000000 0.109181 0.000000
# 6 0.000000 0.000000 0.000000 -0.032730 0.000000 0.058350
#
#
# Mechanical properties :
#
#
# Convention : Reuss Voigt Hill
#
# Bulk Modulus (GPa) = 12.84907 28.52492 20.68700
# Shear Modulus (GPa) = 14.48854 24.54358 19.51606
#
# Velocity S-wave (km/s) = 2.65929 3.46117 3.08638
# Velocity P-wave (km/s) = 3.96242 5.46772 4.77476
#
# Compressibility (1/GPa) = 0.07782663
#
# Stress axis : x y z
#
# Youngs Moduli (GPa) = 49.89840 91.05249 26.28794
#
# Poissons Ratio (x) = 0.01097 -0.21718
# Poissons Ratio (y) = 0.00601 0.09883
# Poissons Ratio (z) = -0.41224 0.34233
#
# Static dielectric constant tensor:
#      x y z
#    x 1.761190 0.000000 -0.030450 
#    y 0.000000 1.748260 0.000000 
#    z -0.030450 0.000000 1.774790 
# 
# From -- ./inp_files/37461.got.cif
#   From: 2010.05.17/outbox.cif.g08.bks.cpg/sg14_19_cif.got.tgz:37461.got - 2010.06.03 17:49:19.
