data_PCOD9241550
_publ_section_title
;
Structure prediction by ZEFSAII (Michael W. Deem and Ramdas Pophale) SiO2 
 PCOD9241550
Probable space group: P 21/C
;
_chemical_formula_sum "Si O2"
_cell_formula_units_Z 28
_cell_length_a 6.034431
_cell_length_b 27.108166
_cell_length_c 8.576969
_cell_angle_alpha 90.000000
_cell_angle_beta 67.854125
_cell_angle_gamma 90.000000
_cell_volume 1299.534422
_symmetry_space_group_name_H-M "P 21/C"
_symmetry_group_IT_number 14
_symmetry_cell_setting 'monoclinic'
loop_
_space_group_symop_operation_xyz
x,y,z
-x,1/2+y,1/2-z
-x,-y,-z
x,1/2-y,1/2+z
loop_
_atom_site_type_symbol
_atom_site_label
_atom_site_fract_x
_atom_site_fract_y
_atom_site_fract_z
Si Si1 0.700066 0.808341 0.325636
Si Si2 0.931976 0.775435 0.962383
Si Si3 0.972759 0.112948 0.594467
Si Si4 0.862147 0.521514 0.382395
Si Si5 0.172369 0.688228 0.101169
Si Si6 0.516745 0.433627 0.351109
Si Si7 0.258727 0.477442 0.122426
O O1 0.443395 0.818463 0.470200
O O2 0.776378 0.756815 0.384304
O O3 0.881402 0.849869 0.335434
O O4 0.750975 0.803691 0.127138
O O5 0.078507 0.736754 0.031879
O O6 0.113285 0.804839 0.799785
O O7 0.958326 0.140292 0.433667
O O8 0.710427 0.105790 0.742764
O O9 0.114785 0.061550 0.557193
O O10 0.687740 0.478727 0.361762
O O11 0.690561 0.567917 0.461669
O O12 0.000000 0.500000 0.500000
O O13 0.082738 0.522767 0.207235
O O14 0.352887 0.447671 0.247932
O O15 0.500000 0.500000 0.000000
#
# Coordination Sequence:
#
# PCOD9241550 Si02
#       7
#     4   4   4   4   4   4   4
#     4  10  19  36  61  87 123 157 195 242 295 355
#     4   9  20  35  61  93 112 157 204 229 291 367
#     4  10  21  34  57  82 119 160 191 245 309 352
#     4   8  16  31  56  81  98 135 192 236 281 342
#     4  10  19  36  61  85 124 153 193 246 290 354
#     4   9  17  34  58  74 107 146 187 240 290 343
#     4  10  20  35  60  80 109 152 202 247 303 362
#
# _framework density 21.546178999999999
#
# number of rings (size 3 to 8) (size 9 to 14) (size 15 to 20)
#    0.000    2.571    0.000    1.714    0.000    2.286 
#    0.000    0.000   81.714    0.000    0.000    0.000 
#    0.000    0.000    0.000    0.000    0.000    0.000 
#
# Total GULP energy -155880.818385 kJ/mol
# GULP energy per Si atom -5567.172085 kJ/mol
# Density = 2.149714 g / cm^3
# Si number density = 21.546179 Si / 1000 Ang^3
#
#
#
# Elastic Constant Matrix: (Units=GPa)
#
#
# Indices 1 2 3 4 5 6 
#
# 1 79.3156 8.5876 39.9505 0.0000 -14.1097 0.0000
# 2 8.5876 33.4301 31.2542 0.0000 -6.3804 0.0000
# 3 39.9505 31.2542 141.9701 0.0000 -25.3112 0.0000
# 4 0.0000 0.0000 0.0000 13.8822 0.0000 -8.0507
# 5 -14.1097 -6.3804 -25.3112 0.0000 47.2565 0.0000
# 6 0.0000 0.0000 0.0000 -8.0507 0.0000 21.7790
#
#
#
# Elastic Compliance Matrix: (Units=1/GPa)
#
#
# Indices 1 2 3 4 5 6 
#
# 1 0.014942 0.000191 -0.003811 0.000000 0.002446 0.000000
# 2 0.000191 0.037689 -0.008218 0.000000 0.000744 0.000000
# 3 -0.003811 -0.008218 0.010530 0.000000 0.003393 0.000000
# 4 0.000000 0.000000 0.000000 0.091691 0.000000 0.033894
# 5 0.002446 0.000744 0.003393 0.000000 0.023809 0.000000
# 6 0.000000 0.000000 0.000000 0.033894 0.000000 0.058445
#
#
# Mechanical properties :
#
#
# Convention : Reuss Voigt Hill
#
# Bulk Modulus (GPa) = 25.32564 46.03340 35.67952
# Shear Modulus (GPa) = 18.25195 28.24510 23.24853
#
# Velocity S-wave (km/s) = 2.91367 3.62458 3.28839
# Velocity P-wave (km/s) = 4.80614 6.23924 5.56898
#
# Compressibility (1/GPa) = 0.03948567
#
# Stress axis : x y z
#
# Youngs Moduli (GPa) = 66.92704 26.53262 94.96541
#
# Poissons Ratio (x) = -0.00507 0.36187
# Poissons Ratio (y) = -0.01279 0.78046
# Poissons Ratio (z) = 0.25503 0.21805
#
# Static dielectric constant tensor:
#      x y z
#    x 1.774450 0.000000 0.030460 
#    y 0.000000 1.801590 0.000000 
#    z 0.030460 0.000000 1.663710 
# 
# From -- ./inp_files/6739.got.cif
#   From: 2010.05.17/outbox.cif.g08.bks.cpg/sg14_4_cif.got.tgz:6739.got - 2010.06.03 17:49:19.
