data_PCOD9241800
_publ_section_title
;
Structure prediction by ZEFSAII (Michael W. Deem and Ramdas Pophale) SiO2 
 PCOD9241800
Probable space group: P 21/C
;
_chemical_formula_sum "Si O2"
_cell_formula_units_Z 24
_cell_length_a 5.324172
_cell_length_b 12.050198
_cell_length_c 14.208238
_cell_angle_alpha 90.000000
_cell_angle_beta 81.421362
_cell_angle_gamma 90.000000
_cell_volume 901.364065
_symmetry_space_group_name_H-M "P 21/C"
_symmetry_group_IT_number 14
_symmetry_cell_setting 'monoclinic'
loop_
_space_group_symop_operation_xyz
x,y,z
-x,1/2+y,1/2-z
-x,-y,-z
x,1/2-y,1/2+z
loop_
_atom_site_type_symbol
_atom_site_label
_atom_site_fract_x
_atom_site_fract_y
_atom_site_fract_z
Si Si1 0.428274 0.015797 0.275247
Si Si2 0.678074 0.821072 0.994081
Si Si3 0.738658 0.027337 0.085253
Si Si4 0.691889 0.201796 0.369082
Si Si5 0.942354 0.808217 0.800952
Si Si6 0.256854 0.934614 0.469465
O O1 0.546585 0.970283 0.173350
O O2 0.639658 0.083661 0.322438
O O3 0.235571 0.111665 0.251400
O O4 0.308824 0.929745 0.355356
O O5 0.440124 0.895163 0.969515
O O6 0.776161 0.755033 0.895835
O O7 0.580488 0.749203 0.086165
O O8 0.854062 0.918740 0.027618
O O9 0.893620 0.109025 0.143566
O O10 0.792300 0.176977 0.468528
O O11 0.883469 0.257356 0.283983
O O12 0.500000 0.000000 0.500000
O O13 0.000000 0.000000 0.500000
#
# Coordination Sequence:
#
# PCOD9241800 Si02
#       6
#     4   4   4   4   4   4
#     4   9  19  37  59  87 121 162 208 257 327 388
#     4  10  21  39  61  89 122 164 215 260 326 392
#     4   9  20  39  62  85 121 167 211 263 321 400
#     4  10  21  37  62  90 128 161 212 273 317 396
#     4  10  19  38  63  84 125 167 206 266 328 388
#     4  10  19  37  63  90 126 170 207 258 329 393
#
# _framework density 26.626311000000001
#
# number of rings (size 3 to 8) (size 9 to 14) (size 15 to 20)
#    0.000    2.333    1.667    0.500    0.000    1.333 
#    9.000    0.000    3.667    0.000    0.000    0.000 
#    0.000    0.000    0.000    0.000    0.000    0.000 
#
# Total GULP energy -133847.136987 kJ/mol
# GULP energy per Si atom -5576.964041 kJ/mol
# Density = 2.656571 g / cm^3
# Si number density = 26.626311 Si / 1000 Ang^3
#
#
#
# Elastic Constant Matrix: (Units=GPa)
#
#
# Indices 1 2 3 4 5 6 
#
# 1 38.9192 -7.4444 -10.0627 0.0000 5.4713 0.0000
# 2 -7.4444 39.5433 37.2735 0.0000 -9.7070 0.0000
# 3 -10.0627 37.2735 178.8278 0.0000 -24.1139 0.0000
# 4 0.0000 0.0000 0.0000 43.6404 0.0000 -2.1801
# 5 5.4713 -9.7070 -24.1139 0.0000 43.3546 0.0000
# 6 0.0000 0.0000 0.0000 -2.1801 0.0000 32.5739
#
#
#
# Elastic Compliance Matrix: (Units=1/GPa)
#
#
# Indices 1 2 3 4 5 6 
#
# 1 0.026902 0.004193 0.000334 0.000000 -0.002271 0.000000
# 2 0.004193 0.032676 -0.006119 0.000000 0.003384 0.000000
# 3 0.000334 -0.006119 0.007239 0.000000 0.002614 0.000000
# 4 0.000000 0.000000 0.000000 0.022991 0.000000 0.001539
# 5 -0.002271 0.003384 0.002614 0.000000 0.025564 0.000000
# 6 0.000000 0.000000 0.000000 0.001539 0.000000 0.030802
#
#
# Mechanical properties :
#
#
# Convention : Reuss Voigt Hill
#
# Bulk Modulus (GPa) = 15.71544 32.98035 24.34790
# Shear Modulus (GPa) = 29.31366 39.74870 34.53118
#
# Velocity S-wave (km/s) = 3.32162 3.86791 3.60513
# Velocity P-wave (km/s) = 4.54158 5.68867 5.14718
#
# Compressibility (1/GPa) = 0.06363168
#
# Stress axis : x y z
#
# Youngs Moduli (GPa) = 37.17237 30.60348 138.14954
#
# Poissons Ratio (x) = -0.12831 -0.04610
# Poissons Ratio (y) = -0.15585 0.84527
# Poissons Ratio (z) = -0.01241 0.18725
#
# Static dielectric constant tensor:
#      x y z
#    x 2.382290 0.000000 -0.244540 
#    y 0.000000 2.141630 0.000000 
#    z -0.244540 0.000000 2.160120 
# 
# From -- ./inp_files/37151.got.cif
#   From: 2010.05.17/outbox.cif.g08.bks.cpg/sg14_19_cif.got.tgz:37151.got - 2010.06.03 17:49:19.
