data_PCOD9241902
_publ_section_title
;
Structure prediction by ZEFSAII (Michael W. Deem and Ramdas Pophale) SiO2 
 PCOD9241902
Probable space group: P 21/C
;
_chemical_formula_sum "Si O2"
_cell_formula_units_Z 32
_cell_length_a 5.614391
_cell_length_b 21.448481
_cell_length_c 13.641123
_cell_angle_alpha 90.000000
_cell_angle_beta 97.254487
_cell_angle_gamma 90.000000
_cell_volume 1629.516758
_symmetry_space_group_name_H-M "P 21/C"
_symmetry_group_IT_number 14
_symmetry_cell_setting 'monoclinic'
loop_
_space_group_symop_operation_xyz
x,y,z
-x,1/2+y,1/2-z
-x,-y,-z
x,1/2-y,1/2+z
loop_
_atom_site_type_symbol
_atom_site_label
_atom_site_fract_x
_atom_site_fract_y
_atom_site_fract_z
Si Si1 0.702516 0.291744 0.606270
Si Si2 0.433524 0.559647 0.796103
Si Si3 0.525511 0.701989 0.770235
Si Si4 0.001782 0.107503 0.025402
Si Si5 0.273740 0.211401 0.935658
Si Si6 0.942741 0.690454 0.954154
Si Si7 0.024258 0.049470 0.587527
Si Si8 0.671887 0.497748 0.415535
O O1 0.631885 0.261965 0.706707
O O2 0.863477 0.353078 0.601705
O O3 0.469586 0.303889 0.528852
O O4 0.835086 0.234064 0.560629
O O5 0.404316 0.634391 0.778092
O O6 0.700244 0.548742 0.856501
O O7 0.436941 0.524091 0.692577
O O8 0.196817 0.540270 0.846781
O O9 0.617825 0.706544 0.665199
O O10 0.749689 0.700866 0.856993
O O11 0.855146 0.056393 0.957032
O O12 0.208580 0.065793 0.084996
O O13 0.078112 0.158813 0.949025
O O14 0.172470 0.279764 0.954720
O O15 0.007242 0.618689 0.958745
O O16 0.000000 0.000000 0.500000
O O17 0.500000 0.500000 0.500000
#
# Coordination Sequence:
#
# PCOD9241902 Si02
#       8
#     4   4   4   4   4   4   4   4
#     4  10  19  38  59  89 124 163 204 271 320 388
#     4  11  24  41  72  97 126 177 231 267 333 398
#     4  10  20  36  64  92 121 159 224 264 316 389
#     4  10  22  37  63  88 137 166 207 261 343 386
#     4  10  21  38  62  93 121 170 209 265 330 394
#     4   9  21  38  62  87 128 161 211 265 327 374
#     4  11  24  46  69  96 130 176 230 282 322 383
#     4  11  24  40  63  96 134 172 213 273 331 412
#
# _framework density 19.637723999999999
#
# number of rings (size 3 to 8) (size 9 to 14) (size 15 to 20)
#    0.000    1.750    1.250    2.625    7.000    2.000 
#    0.000    6.250    0.000    0.000    0.000    0.000 
#    0.000    0.000    0.000    0.000    0.000    0.000 
#
# Total GULP energy -178489.832156 kJ/mol
# GULP energy per Si atom -5577.807255 kJ/mol
# Density = 1.959303 g / cm^3
# Si number density = 19.637724 Si / 1000 Ang^3
#
#
#
# Elastic Constant Matrix: (Units=GPa)
#
#
# Indices 1 2 3 4 5 6 
#
# 1 71.1773 31.1697 33.2220 0.0000 -19.8069 0.0000
# 2 31.1697 109.6177 52.3915 0.0000 -6.1512 0.0000
# 3 33.2220 52.3915 105.4712 0.0000 -28.6959 0.0000
# 4 0.0000 0.0000 0.0000 26.0501 0.0000 -2.6850
# 5 -19.8069 -6.1512 -28.6959 0.0000 28.4005 0.0000
# 6 0.0000 0.0000 0.0000 -2.6850 0.0000 32.6521
#
#
#
# Elastic Compliance Matrix: (Units=1/GPa)
#
#
# Indices 1 2 3 4 5 6 
#
# 1 0.019748 -0.004643 -0.000607 0.000000 0.012153 0.000000
# 2 -0.004643 0.013529 -0.007367 0.000000 -0.007751 0.000000
# 3 -0.000607 -0.007367 0.017629 0.000000 0.015793 0.000000
# 4 0.000000 0.000000 0.000000 0.038716 0.000000 0.003184
# 5 0.012153 -0.007751 0.015793 0.000000 0.057965 0.000000
# 6 0.000000 0.000000 0.000000 0.003184 0.000000 0.030888
#
#
# Mechanical properties :
#
#
# Convention : Reuss Voigt Hill
#
# Bulk Modulus (GPa) = 38.95385 57.75916 48.35650
# Shear Modulus (GPa) = 23.55539 28.71940 26.13739
#
# Velocity S-wave (km/s) = 3.46713 3.82836 3.65222
# Velocity P-wave (km/s) = 5.99227 7.00129 6.51634
#
# Compressibility (1/GPa) = 0.02567140
#
# Stress axis : x y z
#
# Youngs Moduli (GPa) = 50.63755 73.91644 56.72548
#
# Poissons Ratio (x) = 0.34320 0.03446
# Poissons Ratio (y) = 0.23511 0.41788
# Poissons Ratio (z) = 0.03076 0.54452
#
# Static dielectric constant tensor:
#      x y z
#    x 1.777110 0.000000 -0.028560 
#    y 0.000000 1.720080 0.000000 
#    z -0.028560 0.000000 1.568860 
# 
# From -- ./inp_files/21791.got.cif
#   From: 2010.05.17/outbox.cif.g08.bks.cpg/sg14_11_cif.got.tgz:21791.got - 2010.06.03 17:49:19.
