data_PCOD9241864
_publ_section_title
;
Structure prediction by ZEFSAII (Michael W. Deem and Ramdas Pophale) SiO2 
 PCOD9241864
Probable space group: P 21/C
;
_chemical_formula_sum "Si O2"
_cell_formula_units_Z 24
_cell_length_a 11.588666
_cell_length_b 13.634499
_cell_length_c 14.125833
_cell_angle_alpha 90.000000
_cell_angle_beta 29.978364
_cell_angle_gamma 90.000000
_cell_volume 1115.250754
_symmetry_space_group_name_H-M "P 21/C"
_symmetry_group_IT_number 14
_symmetry_cell_setting 'monoclinic'
loop_
_space_group_symop_operation_xyz
x,y,z
-x,1/2+y,1/2-z
-x,-y,-z
x,1/2-y,1/2+z
loop_
_atom_site_type_symbol
_atom_site_label
_atom_site_fract_x
_atom_site_fract_y
_atom_site_fract_z
Si Si1 0.019222 0.111785 0.867665
Si Si2 0.536780 0.717689 0.950330
Si Si3 0.652661 0.052968 0.273577
Si Si4 0.138576 0.996194 0.194935
Si Si5 0.300881 0.614223 0.955933
Si Si6 0.608467 0.402106 0.322855
O O1 0.189460 0.203476 0.758698
O O2 0.166901 0.017528 0.799823
O O3 0.958520 0.089850 0.802455
O O4 0.794277 0.111413 0.093159
O O5 0.405341 0.701139 0.944978
O O6 0.459364 0.627512 0.072913
O O7 0.466083 0.814939 0.054283
O O8 0.463682 0.980457 0.362826
O O9 0.952961 0.083061 0.330594
O O10 0.194820 0.960879 0.260690
O O11 0.379306 0.031243 0.978492
O O12 0.315848 0.632460 0.833895
#
# Coordination Sequence:
#
# PCOD9241864 Si02
#       6
#     4   4   4   4   4   4
#     4  10  19  38  68  92 120 167 207 257 317 372
#     4  11  23  40  65  99 124 157 222 273 303 366
#     4  10  19  37  69  97 118 163 218 259 308 377
#     4  11  22  44  63  86 133 175 204 251 325 387
#     4  11  21  44  67  90 127 173 213 258 317 382
#     4  11  27  40  59  98 132 166 210 260 323 375
#
# _framework density 21.519825999999998
#
# number of rings (size 3 to 8) (size 9 to 14) (size 15 to 20)
#    0.000    1.333    5.000    1.500    0.000    4.000 
#    0.000    0.000    0.000    0.000    0.000    0.000 
#    0.000    0.000    0.000    0.000    0.000    0.000 
#
# Total GULP energy -134247.257859 kJ/mol
# GULP energy per Si atom -5593.635744 kJ/mol
# Density = 2.147085 g / cm^3
# Si number density = 21.519826 Si / 1000 Ang^3
#
#
#
# Elastic Constant Matrix: (Units=GPa)
#
#
# Indices 1 2 3 4 5 6 
#
# 1 115.8323 1.5728 31.2414 0.0000 1.9853 0.0000
# 2 1.5728 32.4923 -12.0501 0.0000 -3.2234 0.0000
# 3 31.2414 -12.0501 59.6055 0.0000 5.9603 0.0000
# 4 0.0000 0.0000 0.0000 16.9371 0.0000 12.7971
# 5 1.9853 -3.2234 5.9603 0.0000 35.6160 0.0000
# 6 0.0000 0.0000 0.0000 12.7971 0.0000 7.0443
#
#
#
# Elastic Compliance Matrix: (Units=1/GPa)
#
#
# Indices 1 2 3 4 5 6 
#
# 1 0.010269 -0.002683 -0.005943 0.000000 0.000179 0.000000
# 2 -0.002683 0.034101 0.008113 0.000000 0.001878 0.000000
# 3 -0.005943 0.008113 0.021790 0.000000 -0.002581 0.000000
# 4 0.000000 0.000000 0.000000 -0.158457 0.000000 0.287863
# 5 0.000179 0.001878 -0.002581 0.000000 0.028669 0.000000
# 6 0.000000 0.000000 0.000000 0.287863 0.000000 -0.380991
#
#
# Mechanical properties :
#
#
# Convention : Reuss Voigt Hill
#
# Bulk Modulus (GPa) = 15.35299 27.71756 21.53527
# Shear Modulus (GPa) = -11.85174 24.39721 6.27274
#
# Velocity S-wave (km/s) = -2.34932 3.37071 1.70915
# Velocity P-wave (km/s) = 0.45744 5.29688 3.73146
#
# Compressibility (1/GPa) = 0.06513390
#
# Stress axis : x y z
#
# Youngs Moduli (GPa) = 97.37646 29.32423 45.89240
#
# Poissons Ratio (x) = 0.07869 0.27274
# Poissons Ratio (y) = 0.26129 -0.37231
# Poissons Ratio (z) = 0.57871 -0.23790
#
# Static dielectric constant tensor:
#      x y z
#    x 1.773000 0.000000 -0.019520 
#    y 0.000000 1.772960 0.000000 
#    z -0.019520 0.000000 1.777530 
# 
# From -- ./inp_files/44874.got.cif
#   From: 2010.05.17/outbox.cif.g08.bks.cpg/sg14_23_cif.got.tgz:44874.got - 2010.06.03 17:49:19.
