data_PCOD9241828
_publ_section_title
;
Structure prediction by ZEFSAII (Michael W. Deem and Ramdas Pophale) SiO2 
 PCOD9241828
Probable space group: P 21/C
;
_chemical_formula_sum "Si O2"
_cell_formula_units_Z 24
_cell_length_a 10.816499
_cell_length_b 13.774591
_cell_length_c 13.199154
_cell_angle_alpha 90.000000
_cell_angle_beta 145.978510
_cell_angle_gamma 90.000000
_cell_volume 1100.308766
_symmetry_space_group_name_H-M "P 21/C"
_symmetry_group_IT_number 14
_symmetry_cell_setting 'monoclinic'
loop_
_space_group_symop_operation_xyz
x,y,z
-x,1/2+y,1/2-z
-x,-y,-z
x,1/2-y,1/2+z
loop_
_atom_site_type_symbol
_atom_site_label
_atom_site_fract_x
_atom_site_fract_y
_atom_site_fract_z
Si Si1 0.392966 0.191513 0.283520
Si Si2 0.977941 0.097155 0.914822
Si Si3 0.303023 0.981095 0.599269
Si Si4 0.521911 0.601595 0.954341
Si Si5 0.505198 0.397798 0.412311
Si Si6 0.858208 0.540844 0.697625
O O1 0.547815 0.108847 0.338393
O O2 0.378698 0.171020 0.394183
O O3 0.496469 0.297526 0.346508
O O4 0.152304 0.175491 0.073084
O O5 0.040285 0.071633 0.841239
O O6 0.724798 0.130720 0.745216
O O7 0.000000 0.000000 0.000000
O O8 0.048871 0.954332 0.411417
O O9 0.337277 0.072291 0.546426
O O10 0.396493 0.018409 0.768423
O O11 0.500000 0.500000 0.000000
O O12 0.747337 0.435110 0.606238
O O13 0.345657 0.394481 0.401452
#
# Coordination Sequence:
#
# PCOD9241828 Si02
#       6
#     4   4   4   4   4   4
#     4  11  23  40  64 101 127 163 232 266 320 392
#     4  12  19  39  70  95 125 174 209 272 324 373
#     4  11  21  45  67  91 134 174 215 274 324 385
#     4  10  19  37  64  93 123 159 213 273 315 368
#     4  11  26  43  62  98 132 178 215 265 331 398
#     4  11  23  44  66  86 140 177 207 269 335 381
#
# _framework density 21.812059000000001
#
# number of rings (size 3 to 8) (size 9 to 14) (size 15 to 20)
#    0.000    1.000    8.333    0.500    0.000    2.667 
#    9.000    0.000    0.000    0.000    0.000    0.000 
#    0.000    0.000    0.000    0.000    0.000    0.000 
#
# Total GULP energy -134059.063425 kJ/mol
# GULP energy per Si atom -5585.794309 kJ/mol
# Density = 2.176241 g / cm^3
# Si number density = 21.812059 Si / 1000 Ang^3
#
#
#
# Elastic Constant Matrix: (Units=GPa)
#
#
# Indices 1 2 3 4 5 6 
#
# 1 55.2895 -4.1306 -18.1259 0.0000 -5.2972 0.0000
# 2 -4.1306 81.3915 8.7631 0.0000 -5.9478 0.0000
# 3 -18.1259 8.7631 107.3091 0.0000 5.7211 0.0000
# 4 0.0000 0.0000 0.0000 16.3265 0.0000 -6.6306
# 5 -5.2972 -5.9478 5.7211 0.0000 36.2483 0.0000
# 6 0.0000 0.0000 0.0000 -6.6306 0.0000 13.4638
#
#
#
# Elastic Compliance Matrix: (Units=1/GPa)
#
#
# Indices 1 2 3 4 5 6 
#
# 1 0.019395 0.000835 0.003075 0.000000 0.002486 0.000000
# 2 0.000835 0.012610 -0.001014 0.000000 0.002351 0.000000
# 3 0.003075 -0.001014 0.009990 0.000000 -0.001294 0.000000
# 4 0.000000 0.000000 0.000000 0.076564 0.000000 0.037706
# 5 0.002486 0.002351 -0.001294 0.000000 0.028541 0.000000
# 6 0.000000 0.000000 0.000000 0.037706 0.000000 0.092843
#
#
# Mechanical properties :
#
#
# Convention : Reuss Voigt Hill
#
# Bulk Modulus (GPa) = 20.92592 24.11148 22.51870
# Shear Modulus (GPa) = 19.99366 30.37327 25.18346
#
# Velocity S-wave (km/s) = 3.03088 3.73567 3.40158
# Velocity P-wave (km/s) = 4.67578 5.44841 5.07681
#
# Compressibility (1/GPa) = 0.04778762
#
# Stress axis : x y z
#
# Youngs Moduli (GPa) = 51.55862 79.30433 100.09877
#
# Poissons Ratio (x) = -0.06621 -0.30785
# Poissons Ratio (y) = -0.04304 0.10151
# Poissons Ratio (z) = -0.15856 0.08042
#
# Static dielectric constant tensor:
#      x y z
#    x 1.843130 0.000000 -0.006710 
#    y 0.000000 1.757570 0.000000 
#    z -0.006710 0.000000 1.818710 
# 
# From -- ./inp_files/45141.got.cif
#   From: 2010.05.17/outbox.cif.g08.bks.cpg/sg14_23_cif.got.tgz:45141.got - 2010.06.03 17:49:19.
