data_PCOD9241524
_publ_section_title
;
Structure prediction by ZEFSAII (Michael W. Deem and Ramdas Pophale) SiO2 
 PCOD9241524
Probable space group: P 21/C
;
_chemical_formula_sum "Si O2"
_cell_formula_units_Z 20
_cell_length_a 22.917216
_cell_length_b 5.401848
_cell_length_c 16.177586
_cell_angle_alpha 90.000000
_cell_angle_beta 24.194636
_cell_angle_gamma 90.000000
_cell_volume 820.785691
_symmetry_space_group_name_H-M "P 21/C"
_symmetry_group_IT_number 14
_symmetry_cell_setting 'monoclinic'
loop_
_space_group_symop_operation_xyz
x,y,z
-x,1/2+y,1/2-z
-x,-y,-z
x,1/2-y,1/2+z
loop_
_atom_site_type_symbol
_atom_site_label
_atom_site_fract_x
_atom_site_fract_y
_atom_site_fract_z
Si Si1 0.427067 0.341037 0.318952
Si Si2 0.931398 0.650944 0.453537
Si Si3 0.852833 0.161499 0.557684
Si Si4 0.134451 0.324688 0.271233
Si Si5 0.463693 0.752266 0.998876
O O1 0.478436 0.625447 0.258865
O O2 0.271262 0.301868 0.556962
O O3 0.553736 0.762239 0.299979
O O4 0.875354 0.411584 0.476194
O O5 0.854529 0.650041 0.644183
O O6 0.091672 0.578061 0.276146
O O7 0.877362 0.901077 0.482340
O O8 0.705342 0.203347 0.794997
O O9 0.990545 0.171577 0.439083
O O10 0.500000 0.500000 0.000000
O O11 0.500000 0.000000 0.000000
#
# Coordination Sequence:
#
# PCOD9241524 Si02
#       5
#     4   4   4   4   4
#     4  12  26  42  69 104 134 169 228 291 333 387
#     4   9  18  31  61  90 126 152 215 261 339 369
#     4  10  19  36  60  85 119 175 213 256 317 405
#     4   9  21  33  61  92 126 163 212 275 319 393
#     4  12  26  46  65  95 140 186 219 270 351 415
#
# _framework density 24.366896000000001
#
# number of rings (size 3 to 8) (size 9 to 14) (size 15 to 20)
#    1.200    0.400    0.000    5.400    2.800    0.000 
#    0.000    2.000    0.000    0.000    0.000    0.000 
#    0.000    0.000    0.000    0.000    0.000    0.000 
#
# Total GULP energy -111501.836033 kJ/mol
# GULP energy per Si atom -5575.091802 kJ/mol
# Density = 2.431144 g / cm^3
# Si number density = 24.366896 Si / 1000 Ang^3
#
#
#
# Elastic Constant Matrix: (Units=GPa)
#
#
# Indices 1 2 3 4 5 6 
#
# 1 38.3235 7.1584 32.8019 0.0000 2.6299 0.0000
# 2 7.1584 164.4868 -2.7679 0.0000 -15.0525 0.0000
# 3 32.8019 -2.7679 151.4825 0.0000 -27.3229 0.0000
# 4 0.0000 0.0000 0.0000 104.3610 0.0000 -5.4943
# 5 2.6299 -15.0525 -27.3229 0.0000 38.6093 0.0000
# 6 0.0000 0.0000 0.0000 -5.4943 0.0000 36.9894
#
#
#
# Elastic Compliance Matrix: (Units=1/GPa)
#
#
# Indices 1 2 3 4 5 6 
#
# 1 0.035485 -0.002641 -0.009576 0.000000 -0.010224 0.000000
# 2 -0.002641 0.006556 0.001359 0.000000 0.003697 0.000000
# 3 -0.009576 0.001359 0.010217 0.000000 0.008412 0.000000
# 4 0.000000 0.000000 0.000000 0.009658 0.000000 0.001435
# 5 -0.010224 0.003697 0.008412 0.000000 0.033992 0.000000
# 6 0.000000 0.000000 0.000000 0.001435 0.000000 0.027248
#
#
# Mechanical properties :
#
#
# Convention : Reuss Voigt Hill
#
# Bulk Modulus (GPa) = 32.74339 47.63084 40.18711
# Shear Modulus (GPa) = 32.24712 57.13197 44.68955
#
# Velocity S-wave (km/s) = 3.64180 4.84742 4.28720
# Velocity P-wave (km/s) = 5.58126 7.13581 6.40586
#
# Compressibility (1/GPa) = 0.03054052
#
# Stress axis : x y z
#
# Youngs Moduli (GPa) = 28.18087 152.54035 97.87391
#
# Poissons Ratio (x) = 0.40286 0.93726
# Poissons Ratio (y) = 0.07443 -0.13296
# Poissons Ratio (z) = 0.26987 -0.20723
#
# Static dielectric constant tensor:
#      x y z
#    x 1.859080 0.000000 -0.186070 
#    y 0.000000 2.172880 0.000000 
#    z -0.186070 0.000000 1.839180 
# 
# From -- ./inp_files/49567.got.cif
#   From: 2010.05.17/outbox.cif.g08.bks.cpg/sg14_25_cif.got.tgz:49567.got - 2010.06.03 17:49:19.
