data_PCOD9241889
_publ_section_title
;
Structure prediction by ZEFSAII (Michael W. Deem and Ramdas Pophale) SiO2 
 PCOD9241889
Probable space group: P 21/C
;
_chemical_formula_sum "Si O2"
_cell_formula_units_Z 30
_cell_length_a 11.742319
_cell_length_b 15.255107
_cell_length_c 8.726040
_cell_angle_alpha 90.000000
_cell_angle_beta 59.416523
_cell_angle_gamma 90.000000
_cell_volume 1345.653931
_symmetry_space_group_name_H-M "P 21/C"
_symmetry_group_IT_number 14
_symmetry_cell_setting 'monoclinic'
loop_
_space_group_symop_operation_xyz
x,y,z
-x,1/2+y,1/2-z
-x,-y,-z
x,1/2-y,1/2+z
loop_
_atom_site_type_symbol
_atom_site_label
_atom_site_fract_x
_atom_site_fract_y
_atom_site_fract_z
Si Si1 0.312558 0.846990 0.177846
Si Si2 0.700970 0.742466 0.559422
Si Si3 0.580276 0.630300 0.371510
Si Si4 0.827676 0.990309 0.697391
Si Si5 0.220705 0.383220 0.225576
Si Si6 0.064416 0.970267 0.711018
Si Si7 0.304273 0.846270 0.549368
Si Si8 0.500000 0.000000 0.500000
O O1 0.332439 0.845344 0.347403
O O2 0.306720 0.749915 0.117336
O O3 0.186163 0.908713 0.242775
O O4 0.430665 0.894582 0.004418
O O5 0.626752 0.682690 0.488733
O O6 0.595892 0.801573 0.723411
O O7 0.787919 0.813324 0.408258
O O8 0.771466 0.678841 0.631520
O O9 0.683850 0.552742 0.277091
O O10 0.915431 0.945105 0.768154
O O11 0.887141 0.989490 0.486677
O O12 0.100587 0.452595 0.304005
O O13 0.356875 0.440148 0.114992
O O14 0.159999 0.888746 0.674565
O O15 0.412899 0.910704 0.546412
#
# Coordination Sequence:
#
# PCOD9241889 Si02
#       8
#     4   4   4   4   4   4   4   2
#     4  11  22  40  61  91 123 158 204 254 306 364
#     4  10  21  35  59  88 120 146 200 248 302 353
#     4  11  20  37  58  93 121 155 195 258 303 362
#     4  10  21  40  61  89 118 164 205 250 301 368
#     4  10  19  38  58  88 113 157 193 249 294 365
#     4   9  20  42  63  81 123 165 204 236 310 373
#     4  10  22  42  63  90 122 163 201 251 309 365
#     4  10  20  34  62  82 118 158 198 228 308 366
#
# _framework density 22.293996
#
# number of rings (size 3 to 8) (size 9 to 14) (size 15 to 20)
#    0.000    1.867    1.333    3.600    0.000    0.000 
#   14.400    0.667    0.000    0.000    0.000    0.000 
#    0.000    0.000    0.000    0.000    0.000    0.000 
#
# Total GULP energy -167042.944232 kJ/mol
# GULP energy per Si atom -5568.098141 kJ/mol
# Density = 2.224325 g / cm^3
# Si number density = 22.293996 Si / 1000 Ang^3
#
#
#
# Elastic Constant Matrix: (Units=GPa)
#
#
# Indices 1 2 3 4 5 6 
#
# 1 35.4580 24.7109 -12.2953 0.0000 -4.8389 0.0000
# 2 24.7109 66.9244 18.1123 0.0000 -6.2736 0.0000
# 3 -12.2953 18.1123 49.1523 0.0000 13.9558 0.0000
# 4 0.0000 0.0000 0.0000 23.2680 0.0000 3.5750
# 5 -4.8389 -6.2736 13.9558 0.0000 15.1701 0.0000
# 6 0.0000 0.0000 0.0000 3.5750 0.0000 24.6228
#
#
#
# Elastic Compliance Matrix: (Units=1/GPa)
#
#
# Indices 1 2 3 4 5 6 
#
# 1 0.061551 -0.035280 0.036499 0.000000 -0.028534 0.000000
# 2 -0.035280 0.040789 -0.034447 0.000000 0.037305 0.000000
# 3 0.036499 -0.034447 0.058078 0.000000 -0.056032 0.000000
# 4 0.000000 0.000000 0.000000 0.043958 0.000000 -0.006382
# 5 -0.028534 0.037305 -0.056032 0.000000 0.123792 0.000000
# 6 0.000000 0.000000 0.000000 -0.006382 0.000000 0.041539
#
#
# Mechanical properties :
#
#
# Convention : Reuss Voigt Hill
#
# Bulk Modulus (GPa) = 10.64271 23.62117 17.13194
# Shear Modulus (GPa) = 10.69554 20.67929 15.68742
#
# Velocity S-wave (km/s) = 2.19270 3.04891 2.65554
# Velocity P-wave (km/s) = 3.34585 4.79716 4.13567
#
# Compressibility (1/GPa) = 0.09396107
#
# Stress axis : x y z
#
# Youngs Moduli (GPa) = 16.24661 24.51668 17.21829
#
# Poissons Ratio (x) = 0.86494 -0.62845
# Poissons Ratio (y) = 0.57318 0.59312
# Poissons Ratio (z) = -0.59298 0.84453
#
# Static dielectric constant tensor:
#      x y z
#    x 1.905850 0.000000 -0.031180 
#    y 0.000000 1.789050 0.000000 
#    z -0.031180 0.000000 1.866030 
# 
# From -- ./inp_files/13257.got.cif
#   From: 2010.05.17/outbox.cif.g08.bks.cpg/sg14_7_cif.got.tgz:13257.got - 2010.06.03 17:49:19.
