data_PCOD9241310
_publ_section_title
;
Structure prediction by ZEFSAII (Michael W. Deem and Ramdas Pophale) SiO2 
 PCOD9241310
Probable space group: P 21/C
;
_chemical_formula_sum "Si O2"
_cell_formula_units_Z 32
_cell_length_a 26.268863
_cell_length_b 12.566579
_cell_length_c 8.391843
_cell_angle_alpha 90.000000
_cell_angle_beta 143.955708
_cell_angle_gamma 90.000000
_cell_volume 1630.031852
_symmetry_space_group_name_H-M "P 21/C"
_symmetry_group_IT_number 14
_symmetry_cell_setting 'monoclinic'
loop_
_space_group_symop_operation_xyz
x,y,z
-x,1/2+y,1/2-z
-x,-y,-z
x,1/2-y,1/2+z
loop_
_atom_site_type_symbol
_atom_site_label
_atom_site_fract_x
_atom_site_fract_y
_atom_site_fract_z
Si Si1 0.744806 0.013197 0.940354
Si Si2 0.619524 0.828658 0.638789
Si Si3 0.429420 0.125926 0.123073
Si Si4 0.071677 0.589948 0.213418
Si Si5 0.538869 0.421364 0.464217
Si Si6 0.752168 0.352092 0.757684
Si Si7 0.127463 0.793906 0.158761
Si Si8 0.383890 0.681127 0.047065
O O1 0.838200 0.032677 0.102997
O O2 0.744381 0.045729 0.125776
O O3 0.682840 0.097042 0.694243
O O4 0.703850 0.897656 0.817007
O O5 0.629446 0.704003 0.631660
O O6 0.588441 0.851910 0.738578
O O7 0.542130 0.868005 0.328097
O O8 0.527508 0.159492 0.324160
O O9 0.416606 0.003640 0.043795
O O10 0.073496 0.698899 0.109717
O O11 0.074390 0.632578 0.402370
O O12 0.000000 0.500000 0.000000
O O13 0.500000 0.500000 0.500000
O O14 0.595179 0.343591 0.715712
O O15 0.800899 0.266379 0.767093
O O16 0.661505 0.295992 0.572488
O O17 0.816835 0.359622 0.070771
#
# Coordination Sequence:
#
# PCOD9241310 Si02
#       8
#     4   4   4   4   4   4   4   4
#     4  11  23  39  62  90 122 162 208 258 318 373
#     4  12  25  41  54  81 123 164 221 254 313 374
#     4  11  25  38  54  80 119 171 209 270 301 363
#     4  10  21  43  70  98 131 160 199 267 325 384
#     4  10  21  36  56  79 112 160 210 259 308 363
#     4  10  19  35  59  93 120 149 201 265 305 358
#     4   9  18  37  63  98 126 154 201 255 313 378
#     4  11  21  36  59  89 118 161 211 263 318 351
#
# _framework density 19.631518
#
# number of rings (size 3 to 8) (size 9 to 14) (size 15 to 20)
#    0.000    1.500    6.250    1.875    3.500    1.000 
#    0.000    6.875    0.000    0.000    0.000    0.000 
#    0.000    0.000    0.000    0.000    0.000    0.000 
#
# Total GULP energy -178732.856592 kJ/mol
# GULP energy per Si atom -5585.401768 kJ/mol
# Density = 1.958684 g / cm^3
# Si number density = 19.631518 Si / 1000 Ang^3
#
#
#
# Elastic Constant Matrix: (Units=GPa)
#
#
# Indices 1 2 3 4 5 6 
#
# 1 72.7755 14.6313 46.0284 0.0000 -11.8852 0.0000
# 2 14.6313 79.0465 52.4621 0.0000 16.4889 0.0000
# 3 46.0284 52.4621 113.4939 0.0000 -9.9462 0.0000
# 4 0.0000 0.0000 0.0000 40.7314 0.0000 -3.0613
# 5 -11.8852 16.4889 -9.9462 0.0000 33.8197 0.0000
# 6 0.0000 0.0000 0.0000 -3.0613 0.0000 21.9881
#
#
#
# Elastic Compliance Matrix: (Units=1/GPa)
#
#
# Indices 1 2 3 4 5 6 
#
# 1 0.019167 0.000752 -0.007763 0.000000 0.004086 0.000000
# 2 0.000752 0.024242 -0.012855 0.000000 -0.015336 0.000000
# 3 -0.007763 -0.012855 0.018693 0.000000 0.009037 0.000000
# 4 0.000000 0.000000 0.000000 0.024811 0.000000 0.003454
# 5 0.004086 -0.015336 0.009037 0.000000 0.041139 0.000000
# 6 0.000000 0.000000 0.000000 0.003454 0.000000 0.045960
#
#
# Mechanical properties :
#
#
# Convention : Reuss Voigt Hill
#
# Bulk Modulus (GPa) = 44.70053 54.61771 49.65912
# Shear Modulus (GPa) = 22.60400 29.45411 26.02906
#
# Velocity S-wave (km/s) = 3.39693 3.87764 3.64522
# Velocity P-wave (km/s) = 6.18100 6.92314 6.56257
#
# Compressibility (1/GPa) = 0.02237110
#
# Stress axis : x y z
#
# Youngs Moduli (GPa) = 52.17382 41.25067 53.49520
#
# Poissons Ratio (x) = -0.03102 0.41527
# Poissons Ratio (y) = -0.03923 0.68766
# Poissons Ratio (z) = 0.40501 0.53026
#
# Static dielectric constant tensor:
#      x y z
#    x 1.724390 0.000000 -0.027530 
#    y 0.000000 1.753110 0.000000 
#    z -0.027530 0.000000 1.687780 
# 
# From -- ./inp_files/20000.got.cif
#   From: 2010.05.17/outbox.cif.g08.bks.cpg/sg14_10_cif.got.tgz:20000.got - 2010.06.03 17:49:19.
