data_PCOD9241786
_publ_section_title
;
Structure prediction by ZEFSAII (Michael W. Deem and Ramdas Pophale) SiO2 
 PCOD9241786
Probable space group: P 21/C
;
_chemical_formula_sum "Si O2"
_cell_formula_units_Z 32
_cell_length_a 18.452784
_cell_length_b 9.911521
_cell_length_c 15.939787
_cell_angle_alpha 90.000000
_cell_angle_beta 148.572798
_cell_angle_gamma 90.000000
_cell_volume 1520.085718
_symmetry_space_group_name_H-M "P 21/C"
_symmetry_group_IT_number 14
_symmetry_cell_setting 'monoclinic'
loop_
_space_group_symop_operation_xyz
x,y,z
-x,1/2+y,1/2-z
-x,-y,-z
x,1/2-y,1/2+z
loop_
_atom_site_type_symbol
_atom_site_label
_atom_site_fract_x
_atom_site_fract_y
_atom_site_fract_z
Si Si1 0.602294 0.613928 0.636674
Si Si2 0.580569 0.436327 0.764117
Si Si3 0.940586 0.642021 0.382309
Si Si4 0.890562 0.563448 0.825503
Si Si5 0.729683 0.590234 0.042784
Si Si6 0.466988 0.676379 0.893988
Si Si7 0.785003 0.514554 0.362495
Si Si8 0.254782 0.404060 0.486015
O O1 0.500000 0.500000 0.500000
O O2 0.606076 0.574108 0.736750
O O3 0.747216 0.586416 0.734172
O O4 0.532091 0.753675 0.540565
O O5 0.688074 0.463075 0.944935
O O6 0.599547 0.300499 0.727224
O O7 0.419253 0.432510 0.632731
O O8 0.957571 0.793655 0.370635
O O9 0.837143 0.642046 0.360288
O O10 0.092168 0.585150 0.544608
O O11 0.859512 0.560165 0.230736
O O12 0.833847 0.521864 0.676124
O O13 0.000000 0.500000 0.000000
O O14 0.594710 0.620204 0.966391
O O15 0.759860 0.739964 0.033458
O O16 0.357166 0.559310 0.801437
O O17 0.783716 0.545161 0.459678
#
# Coordination Sequence:
#
# PCOD9241786 Si02
#       8
#     4   4   4   4   4   4   4   4
#     4  10  19  37  62  93 125 153 204 263 306 369
#     4  10  20  36  65  95 122 158 210 266 307 370
#     4  10  25  45  59  89 132 165 211 261 313 390
#     4  11  23  42  66  94 126 168 211 261 323 375
#     4  10  20  41  62  91 126 156 208 262 309 370
#     4  10  20  39  64  91 124 164 207 259 315 373
#     4  11  24  44  63  85 130 174 203 260 322 376
#     4  10  21  41  62  92 127 157 209 263 307 375
#
# _framework density 21.051444
#
# number of rings (size 3 to 8) (size 9 to 14) (size 15 to 20)
#    0.000    1.750    6.250    0.000    5.250    1.500 
#    9.000    1.250    0.000    0.000    0.000    0.000 
#    0.000    0.000    0.000    0.000    0.000    0.000 
#
# Total GULP energy -178255.772143 kJ/mol
# GULP energy per Si atom -5570.492879 kJ/mol
# Density = 2.100353 g / cm^3
# Si number density = 21.051444 Si / 1000 Ang^3
#
#
#
# Elastic Constant Matrix: (Units=GPa)
#
#
# Indices 1 2 3 4 5 6 
#
# 1 62.7977 4.8793 1.1358 0.0000 -0.6462 0.0000
# 2 4.8793 32.2016 10.3622 0.0000 3.9228 0.0000
# 3 1.1358 10.3622 89.9826 0.0000 -2.7127 0.0000
# 4 0.0000 0.0000 0.0000 37.0909 0.0000 -7.0010
# 5 -0.6462 3.9228 -2.7127 0.0000 29.9856 0.0000
# 6 0.0000 0.0000 0.0000 -7.0010 0.0000 12.3288
#
#
#
# Elastic Compliance Matrix: (Units=1/GPa)
#
#
# Indices 1 2 3 4 5 6 
#
# 1 0.016129 -0.002565 0.000113 0.000000 0.000693 0.000000
# 2 -0.002565 0.033293 -0.003945 0.000000 -0.004768 0.000000
# 3 0.000113 -0.003945 0.011613 0.000000 0.001569 0.000000
# 4 0.000000 0.000000 0.000000 0.030197 0.000000 0.017148
# 5 0.000693 -0.004768 0.001569 0.000000 0.034130 0.000000
# 6 0.000000 0.000000 0.000000 0.017148 0.000000 0.090848
#
#
# Mechanical properties :
#
#
# Convention : Reuss Voigt Hill
#
# Bulk Modulus (GPa) = 20.72937 24.19296 22.46116
# Shear Modulus (GPa) = 20.40104 27.12136 23.76120
#
# Velocity S-wave (km/s) = 3.11642 3.59324 3.36329
# Velocity P-wave (km/s) = 4.77680 5.36026 5.07692
#
# Compressibility (1/GPa) = 0.04824074
#
# Stress axis : x y z
#
# Youngs Moduli (GPa) = 62.00201 30.03608 86.10678
#
# Poissons Ratio (x) = 0.07703 -0.00970
# Poissons Ratio (y) = 0.15901 0.33972
# Poissons Ratio (z) = -0.00698 0.11850
#
# Static dielectric constant tensor:
#      x y z
#    x 1.834870 0.000000 -0.251600 
#    y 0.000000 1.918300 0.000000 
#    z -0.251600 0.000000 2.450900 
# 
# From -- ./inp_files/49040.got.cif
#   From: 2010.05.17/outbox.cif.g08.bks.cpg/sg14_25_cif.got.tgz:49040.got - 2010.06.03 17:49:19.
