data_PCOD9241578
_publ_section_title
;
Structure prediction by ZEFSAII (Michael W. Deem and Ramdas Pophale) SiO2 
 PCOD9241578
Probable space group: P 21/C
;
_chemical_formula_sum "Si O2"
_cell_formula_units_Z 24
_cell_length_a 11.594901
_cell_length_b 7.504826
_cell_length_c 10.561342
_cell_angle_alpha 90.000000
_cell_angle_beta 84.090173
_cell_angle_gamma 90.000000
_cell_volume 914.139389
_symmetry_space_group_name_H-M "P 21/C"
_symmetry_group_IT_number 14
_symmetry_cell_setting 'monoclinic'
loop_
_space_group_symop_operation_xyz
x,y,z
-x,1/2+y,1/2-z
-x,-y,-z
x,1/2-y,1/2+z
loop_
_atom_site_type_symbol
_atom_site_label
_atom_site_fract_x
_atom_site_fract_y
_atom_site_fract_z
Si Si1 0.868277 0.625469 0.713018
Si Si2 0.656594 0.088467 0.992907
Si Si3 0.454829 0.297542 0.659826
Si Si4 0.877143 0.513742 0.348275
Si Si5 0.264318 0.068600 0.369224
Si Si6 0.666479 0.065167 0.365930
O O1 0.810004 0.749792 0.613171
O O2 0.777934 0.476749 0.767302
O O3 0.993456 0.556386 0.662479
O O4 0.877821 0.772205 0.826413
O O5 0.588751 0.350951 0.626531
O O6 0.606131 0.900179 0.951351
O O7 0.794539 0.067878 0.965521
O O8 0.620779 0.235317 0.890175
O O9 0.381884 0.370014 0.785916
O O10 0.573633 0.590476 0.850678
O O11 0.811552 0.457890 0.224217
O O12 0.287404 0.973525 0.496308
#
# Coordination Sequence:
#
# PCOD9241578 Si02
#       6
#     4   4   4   4   4   4
#     4   9  19  36  58  77 119 149 180 242 283 332
#     4  10  19  36  62  77 113 157 182 229 288 331
#     4   9  20  41  55  83 122 147 185 237 277 337
#     4   9  18  38  55  79 114 151 180 234 284 327
#     4   8  20  36  56  83 119 139 194 239 269 339
#     4  11  19  37  61  87 110 153 189 230 288 333
#
# _framework density 26.254203
#
# number of rings (size 3 to 8) (size 9 to 14) (size 15 to 20)
#    1.000    1.667    1.667    1.500    0.000    0.667 
#    9.000    9.167    0.000    0.000    0.000    0.000 
#    0.000    0.000    0.000    0.000    0.000    0.000 
#
# Total GULP energy -134278.674303 kJ/mol
# GULP energy per Si atom -5594.944763 kJ/mol
# Density = 2.619445 g / cm^3
# Si number density = 26.254203 Si / 1000 Ang^3
#
#
#
# Elastic Constant Matrix: (Units=GPa)
#
#
# Indices 1 2 3 4 5 6 
#
# 1 224.4275 58.9404 37.7543 0.0000 -33.4368 0.0000
# 2 58.9404 134.0629 7.9367 0.0000 -11.7193 0.0000
# 3 37.7543 7.9367 68.5671 0.0000 -4.3785 0.0000
# 4 0.0000 0.0000 0.0000 32.4028 0.0000 -2.0286
# 5 -33.4368 -11.7193 -4.3785 0.0000 34.1598 0.0000
# 6 0.0000 0.0000 0.0000 -2.0286 0.0000 47.4405
#
#
#
# Elastic Compliance Matrix: (Units=1/GPa)
#
#
# Indices 1 2 3 4 5 6 
#
# 1 0.006248 -0.002138 -0.002872 0.000000 0.005014 0.000000
# 2 -0.002138 0.008458 0.000252 0.000000 0.000841 0.000000
# 3 -0.002872 0.000252 0.016094 0.000000 -0.000662 0.000000
# 4 0.000000 0.000000 0.000000 0.030944 0.000000 0.001323
# 5 0.005014 0.000841 -0.000662 0.000000 0.034385 0.000000
# 6 0.000000 0.000000 0.000000 0.001323 0.000000 0.021136
#
#
# Mechanical properties :
#
#
# Convention : Reuss Voigt Hill
#
# Bulk Modulus (GPa) = 46.98679 70.70225 58.84452
# Shear Modulus (GPa) = 37.34790 44.29571 40.82180
#
# Velocity S-wave (km/s) = 3.77576 4.11199 3.94746
# Velocity P-wave (km/s) = 6.07818 7.03797 6.57561
#
# Compressibility (1/GPa) = 0.02128258
#
# Stress axis : x y z
#
# Youngs Moduli (GPa) = 160.06335 118.23261 62.13361
#
# Poissons Ratio (x) = 0.25283 0.17847
# Poissons Ratio (y) = 0.34228 -0.01567
# Poissons Ratio (z) = 0.45976 -0.02981
#
# Static dielectric constant tensor:
#      x y z
#    x 1.997700 0.000000 0.045180 
#    y 0.000000 2.069420 0.000000 
#    z 0.045180 0.000000 2.121310 
# 
# From -- ./inp_files/28093.got.cif
#   From: 2010.05.17/outbox.cif.g08.bks.cpg/sg14_15_cif.got.tgz:28093.got - 2010.06.03 17:49:19.
