data_PCOD9241353
_publ_section_title
;
Structure prediction by ZEFSAII (Michael W. Deem and Ramdas Pophale) SiO2 
 PCOD9241353
Probable space group: P 21/C
;
_chemical_formula_sum "Si O2"
_cell_formula_units_Z 28
_cell_length_a 14.255650
_cell_length_b 14.391691
_cell_length_c 10.764317
_cell_angle_alpha 90.000000
_cell_angle_beta 139.159630
_cell_angle_gamma 90.000000
_cell_volume 1444.216841
_symmetry_space_group_name_H-M "P 21/C"
_symmetry_group_IT_number 14
_symmetry_cell_setting 'monoclinic'
loop_
_space_group_symop_operation_xyz
x,y,z
-x,1/2+y,1/2-z
-x,-y,-z
x,1/2-y,1/2+z
loop_
_atom_site_type_symbol
_atom_site_label
_atom_site_fract_x
_atom_site_fract_y
_atom_site_fract_z
Si Si1 0.635274 0.932022 0.656811
Si Si2 0.795322 0.977219 0.064540
Si Si3 0.487080 0.089164 0.123167
Si Si4 0.330994 0.075101 0.590764
Si Si5 0.917410 0.042405 0.534535
Si Si6 0.497700 0.238669 0.331708
Si Si7 0.714430 0.362726 0.661273
O O1 0.702744 0.918537 0.588928
O O2 0.579742 0.834143 0.655499
O O3 0.500000 0.000000 0.500000
O O4 0.738914 0.971899 0.867802
O O5 0.776852 0.078723 0.108322
O O6 0.956471 0.940375 0.241064
O O7 0.684296 0.918524 0.040221
O O8 0.524719 0.184774 0.230417
O O9 0.572495 0.088913 0.080113
O O10 0.548717 0.004704 0.267200
O O11 0.397616 0.171987 0.704595
O O12 0.195040 0.033344 0.527187
O O13 0.828039 0.128466 0.387309
O O14 0.000000 0.000000 0.500000
O O15 0.648308 0.268667 0.543415
#
# Coordination Sequence:
#
# PCOD9241353 Si02
#       7
#     4   4   4   4   4   4   4
#     4  11  21  39  64  93 129 155 208 265 319 366
#     4  10  19  36  62  88 123 166 201 258 317 367
#     4  10  20  35  63  89 123 158 211 261 312 360
#     4  11  21  40  62  93 122 166 206 258 318 365
#     4   9  22  37  63  88 126 165 209 252 311 372
#     4  11  21  34  64  96 122 159 214 263 314 369
#     4  10  19  35  61  90 116 161 211 259 299 369
#
# _framework density 19.38767
#
# number of rings (size 3 to 8) (size 9 to 14) (size 15 to 20)
#    0.000    1.714    4.286    1.286    4.000    0.571 
#    0.000    0.000   31.429    0.000    0.000    0.000 
#    0.000    0.000    0.000    0.000    0.000    0.000 
#
# Total GULP energy -156066.372831 kJ/mol
# GULP energy per Si atom -5573.799030 kJ/mol
# Density = 1.934354 g / cm^3
# Si number density = 19.387670 Si / 1000 Ang^3
#
#
#
# Elastic Constant Matrix: (Units=GPa)
#
#
# Indices 1 2 3 4 5 6 
#
# 1 86.9766 20.4128 42.4234 0.0000 -7.1978 0.0000
# 2 20.4128 80.6834 47.6970 0.0000 0.5635 0.0000
# 3 42.4234 47.6970 158.4424 0.0000 -4.3231 0.0000
# 4 0.0000 0.0000 0.0000 24.4193 0.0000 -6.4959
# 5 -7.1978 0.5635 -4.3231 0.0000 36.4460 0.0000
# 6 0.0000 0.0000 0.0000 -6.4959 0.0000 23.1157
#
#
#
# Elastic Compliance Matrix: (Units=1/GPa)
#
#
# Indices 1 2 3 4 5 6 
#
# 1 0.013576 -0.001630 -0.003080 0.000000 0.002341 0.000000
# 2 -0.001630 0.015295 -0.004197 0.000000 -0.001056 0.000000
# 3 -0.003080 -0.004197 0.008412 0.000000 0.000454 0.000000
# 4 0.000000 0.000000 0.000000 0.044260 0.000000 0.012438
# 5 0.002341 -0.001056 0.000454 0.000000 0.027970 0.000000
# 6 0.000000 0.000000 0.000000 0.012438 0.000000 0.046756
#
#
# Mechanical properties :
#
#
# Convention : Reuss Voigt Hill
#
# Bulk Modulus (GPa) = 51.36481 60.79655 56.08068
# Shear Modulus (GPa) = 27.68963 31.16746 29.42854
#
# Velocity S-wave (km/s) = 3.78326 4.01383 3.90025
# Velocity P-wave (km/s) = 6.75538 7.27376 7.01936
#
# Compressibility (1/GPa) = 0.01946858
#
# Stress axis : x y z
#
# Youngs Moduli (GPa) = 73.65854 65.38162 118.87779
#
# Poissons Ratio (x) = 0.10657 0.36620
# Poissons Ratio (y) = 0.12007 0.49889
# Poissons Ratio (z) = 0.22690 0.27439
#
# Static dielectric constant tensor:
#      x y z
#    x 1.695210 0.000000 -0.009550 
#    y 0.000000 1.701050 0.000000 
#    z -0.009550 0.000000 1.750090 
# 
# From -- ./inp_files/32619.got.cif
#   From: 2010.05.17/outbox.cif.g08.bks.cpg/sg14_17_cif.got.tgz:32619.got - 2010.06.03 17:49:19.
