data_PCOD9241126
_publ_section_title
;
Structure prediction by ZEFSAII (Michael W. Deem and Ramdas Pophale) SiO2 
 PCOD9241126
Probable space group: P 21/C
;
_chemical_formula_sum "Si O2"
_cell_formula_units_Z 16
_cell_length_a 7.680859
_cell_length_b 5.372777
_cell_length_c 23.991430
_cell_angle_alpha 90.000000
_cell_angle_beta 38.969997
_cell_angle_gamma 90.000000
_cell_volume 622.666581
_symmetry_space_group_name_H-M "P 21/C"
_symmetry_group_IT_number 14
_symmetry_cell_setting 'monoclinic'
loop_
_space_group_symop_operation_xyz
x,y,z
-x,1/2+y,1/2-z
-x,-y,-z
x,1/2-y,1/2+z
loop_
_atom_site_type_symbol
_atom_site_label
_atom_site_fract_x
_atom_site_fract_y
_atom_site_fract_z
Si Si1 0.823542 0.544364 0.140370
Si Si2 0.873960 0.045047 0.092190
Si Si3 0.070309 0.856737 0.701462
Si Si4 0.642395 0.664654 0.011101
O O1 0.693082 0.286649 0.152726
O O2 0.927284 0.568851 0.178021
O O3 0.704856 0.805623 0.152163
O O4 0.109982 0.517260 0.031851
O O5 0.162270 0.101999 0.055328
O O6 0.000000 0.000000 0.000000
O O7 0.391232 0.774111 0.613338
O O8 0.932330 0.612346 0.762600
O O9 0.500000 0.500000 0.000000
#
# Coordination Sequence:
#
# PCOD9241126 Si02
#       4
#     4   4   4   4
#     4   9  20  35  56  80 112 140 193 231 284 333
#     4  10  19  34  60  83 105 145 195 240 282 336
#     4  11  22  33  54  84 116 148 179 232 298 345
#     4   8  20  34  56  82 113 141 187 241 284 329
#
# _framework density 25.695934000000001
#
# number of rings (size 3 to 8) (size 9 to 14) (size 15 to 20)
#    1.500    1.000    0.000    2.250    3.500    2.000 
#    0.000    0.000    0.000    6.000    0.000    0.000 
#    0.000    0.000    0.000    0.000    0.000    0.000 
#
# Total GULP energy -89072.678293 kJ/mol
# GULP energy per Si atom -5567.042393 kJ/mol
# Density = 2.563745 g / cm^3
# Si number density = 25.695934 Si / 1000 Ang^3
#
#
#
# Elastic Constant Matrix: (Units=GPa)
#
#
# Indices 1 2 3 4 5 6 
#
# 1 73.2924 14.5334 19.0966 0.0000 9.9824 0.0000
# 2 14.5334 208.4791 18.5325 0.0000 26.3049 0.0000
# 3 19.0966 18.5325 92.8500 0.0000 -1.1131 0.0000
# 4 0.0000 0.0000 0.0000 10.7612 0.0000 26.0573
# 5 9.9824 26.3049 -1.1131 0.0000 40.7024 0.0000
# 6 0.0000 0.0000 0.0000 26.0573 0.0000 20.5131
#
#
#
# Elastic Compliance Matrix: (Units=1/GPa)
#
#
# Indices 1 2 3 4 5 6 
#
# 1 0.014989 -0.000325 -0.003061 0.000000 -0.003550 0.000000
# 2 -0.000325 0.005341 -0.001040 0.000000 -0.003400 0.000000
# 3 -0.003061 -0.001040 0.011628 0.000000 0.001741 0.000000
# 4 0.000000 0.000000 0.000000 -0.044765 0.000000 0.056864
# 5 -0.003550 -0.003400 0.001741 0.000000 0.027684 0.000000
# 6 0.000000 0.000000 0.000000 0.056864 0.000000 -0.023484
#
#
# Mechanical properties :
#
#
# Convention : Reuss Voigt Hill
#
# Bulk Modulus (GPa) = 43.27659 53.21628 48.24644
# Shear Modulus (GPa) = 629.17979 35.89259 332.53619
#
# Velocity S-wave (km/s) = 15.66484 3.74146 11.38828
# Velocity P-wave (km/s) = 18.54889 6.27851 13.84704
#
# Compressibility (1/GPa) = 0.02310718
#
# Stress axis : x y z
#
# Youngs Moduli (GPa) = 66.71398 187.23848 85.99955
#
# Poissons Ratio (x) = 0.06084 0.26321
# Poissons Ratio (y) = 0.02168 0.08943
# Poissons Ratio (z) = 0.20418 0.19471
#
# Static dielectric constant tensor:
#      x y z
#    x 2.075770 0.000000 -0.005200 
#    y 0.000000 2.319740 0.000000 
#    z -0.005200 0.000000 2.114490 
# 
# From -- ./inp_files/45756.got.cif
#   From: 2010.05.17/outbox.cif.g08.bks.cpg/sg14_23_cif.got.tgz:45756.got - 2010.06.03 17:49:19.
