data_PCOD9241178
_publ_section_title
;
Structure prediction by ZEFSAII (Michael W. Deem and Ramdas Pophale) SiO2 
 PCOD9241178
Probable space group: P 21/C
;
_chemical_formula_sum "Si O2"
_cell_formula_units_Z 32
_cell_length_a 6.511059
_cell_length_b 9.394336
_cell_length_c 27.319477
_cell_angle_alpha 90.000000
_cell_angle_beta 83.380134
_cell_angle_gamma 90.000000
_cell_volume 1659.911374
_symmetry_space_group_name_H-M "P 21/C"
_symmetry_group_IT_number 14
_symmetry_cell_setting 'monoclinic'
loop_
_space_group_symop_operation_xyz
x,y,z
-x,1/2+y,1/2-z
-x,-y,-z
x,1/2-y,1/2+z
loop_
_atom_site_type_symbol
_atom_site_label
_atom_site_fract_x
_atom_site_fract_y
_atom_site_fract_z
Si Si1 0.906507 0.638875 0.633463
Si Si2 0.185624 0.401980 0.014161
Si Si3 0.036082 0.842682 0.018179
Si Si4 0.180241 0.387089 0.218247
Si Si5 0.502353 0.124449 0.793724
Si Si6 0.884512 0.561950 0.300222
Si Si7 0.606516 0.157111 0.447131
Si Si8 0.760277 0.157016 0.338833
O O1 0.677887 0.623447 0.660648
O O2 0.928563 0.662574 0.574981
O O3 0.036470 0.502921 0.650215
O O4 0.016408 0.773278 0.657182
O O5 0.283657 0.502035 0.052380
O O6 0.376907 0.368500 0.972729
O O7 0.000000 0.500000 0.000000
O O8 0.072205 0.252483 0.020810
O O9 0.261624 0.771368 0.023976
O O10 0.000000 0.000000 0.000000
O O11 0.385606 0.371444 0.245479
O O12 0.099653 0.231138 0.206122
O O13 0.225928 0.490996 0.171889
O O14 0.020991 0.477389 0.256215
O O15 0.648356 0.261481 0.797668
O O16 0.650632 0.989599 0.797396
O O17 0.628911 0.197772 0.390378
#
# Coordination Sequence:
#
# PCOD9241178 Si02
#       8
#     4   4   4   4   4   4   4   4
#     4   9  20  37  54  76 106 139 176 217 262 317
#     4   9  18  35  56  78 108 143 181 221 266 324
#     4  10  20  34  55  81 108 141 177 221 276 323
#     4  11  21  35  54  79 105 137 176 216 262 311
#     4  10  19  35  54  74 104 140 174 214 263 314
#     4  10  21  35  53  76 106 137 173 216 259 313
#     4   9  19  36  56  79 107 142 182 223 267 322
#     4  10  20  35  57  79 104 139 178 220 268 314
#
# _framework density 19.278138999999999
#
# number of rings (size 3 to 8) (size 9 to 14) (size 15 to 20)
#    0.000    2.250    0.000    3.750    0.000    2.500 
#    0.000    3.750    0.000    0.000    0.000    0.000 
#    0.000    0.000    0.000    0.000    0.000    0.000 
#
# Total GULP energy -178225.527825 kJ/mol
# GULP energy per Si atom -5569.547745 kJ/mol
# Density = 1.923426 g / cm^3
# Si number density = 19.278139 Si / 1000 Ang^3
#
#
#
# Elastic Constant Matrix: (Units=GPa)
#
#
# Indices 1 2 3 4 5 6 
#
# 1 90.6918 34.9835 24.2815 0.0000 2.2872 0.0000
# 2 34.9835 161.0525 13.6126 0.0000 17.9709 0.0000
# 3 24.2815 13.6126 38.6656 0.0000 11.0891 0.0000
# 4 0.0000 0.0000 0.0000 25.0835 0.0000 -1.3103
# 5 2.2872 17.9709 11.0891 0.0000 20.7455 0.0000
# 6 0.0000 0.0000 0.0000 -1.3103 0.0000 8.7942
#
#
#
# Elastic Compliance Matrix: (Units=1/GPa)
#
#
# Indices 1 2 3 4 5 6 
#
# 1 0.014724 -0.003065 -0.009996 0.000000 0.006375 0.000000
# 2 -0.003065 0.007535 0.001237 0.000000 -0.006850 0.000000
# 3 -0.009996 0.001237 0.037435 0.000000 -0.019979 0.000000
# 4 0.000000 0.000000 0.000000 0.040180 0.000000 0.005986
# 5 0.006375 -0.006850 -0.019979 0.000000 0.064114 0.000000
# 6 0.000000 0.000000 0.000000 0.005986 0.000000 0.114603
#
#
# Mechanical properties :
#
#
# Convention : Reuss Voigt Hill
#
# Bulk Modulus (GPa) = 27.74279 48.46279 38.10279
# Shear Modulus (GPa) = 15.91079 25.42680 20.66880
#
# Velocity S-wave (km/s) = 2.87597 3.63567 3.27790
# Velocity P-wave (km/s) = 5.04483 6.54350 5.84242
#
# Compressibility (1/GPa) = 0.03604541
#
# Stress axis : x y z
#
# Youngs Moduli (GPa) = 67.91636 132.71889 26.71332
#
# Poissons Ratio (x) = 0.40675 0.26702
# Poissons Ratio (y) = 0.20815 -0.03303
# Poissons Ratio (z) = 0.67887 -0.16411
#
# Static dielectric constant tensor:
#      x y z
#    x 1.703560 0.000000 -0.001460 
#    y 0.000000 1.742700 0.000000 
#    z -0.001460 0.000000 1.687740 
# 
# From -- ./inp_files/78711.got.cif
#   From: 2010.05.17/outbox.cif.g08.bks.cpg/sg14_40_cif.got.tgz:78711.got - 2010.06.03 17:49:19.
