data_PCOD9241283
_publ_section_title
;
Structure prediction by ZEFSAII (Michael W. Deem and Ramdas Pophale) SiO2 
 PCOD9241283
Probable space group: P 21/C
;
_chemical_formula_sum "Si O2"
_cell_formula_units_Z 28
_cell_length_a 14.655521
_cell_length_b 9.510654
_cell_length_c 20.574920
_cell_angle_alpha 90.000000
_cell_angle_beta 29.038482
_cell_angle_gamma 90.000000
_cell_volume 1392.024350
_symmetry_space_group_name_H-M "P 21/C"
_symmetry_group_IT_number 14
_symmetry_cell_setting 'monoclinic'
loop_
_space_group_symop_operation_xyz
x,y,z
-x,1/2+y,1/2-z
-x,-y,-z
x,1/2-y,1/2+z
loop_
_atom_site_type_symbol
_atom_site_label
_atom_site_fract_x
_atom_site_fract_y
_atom_site_fract_z
Si Si1 0.073429 0.584765 0.238274
Si Si2 0.377614 0.221794 0.662019
Si Si3 0.816658 0.079669 0.533872
Si Si4 0.975207 0.303222 0.344820
Si Si5 0.373910 0.741232 0.620228
Si Si6 0.250649 0.502918 0.785301
Si Si7 0.608266 0.955908 0.552411
O O1 0.932377 0.463454 0.350451
O O2 0.185015 0.667552 0.225048
O O3 0.001203 0.701740 0.232644
O O4 0.231828 0.497760 0.099629
O O5 0.173224 0.191932 0.758994
O O6 0.517509 0.259805 0.515763
O O7 0.355974 0.354356 0.722461
O O8 0.458293 0.082447 0.643948
O O9 0.734418 0.088958 0.657161
O O10 0.707171 0.963023 0.560189
O O11 0.828932 0.221785 0.482902
O O12 0.031856 0.030491 0.408371
O O13 0.323674 0.590251 0.678814
O O14 0.505477 0.819028 0.590461
#
# Coordination Sequence:
#
# PCOD9241283 Si02
#       7
#     4   4   4   4   4   4   4
#     4  10  20  33  56  87 113 147 180 232 290 330
#     4  10  19  36  58  84 113 140 182 236 285 324
#     4   9  22  40  57  75 115 157 186 217 288 331
#     4  10  19  35  59  80 115 147 185 228 280 341
#     4  11  20  34  59  86 111 141 189 236 286 321
#     4  10  22  38  58  80 111 151 191 230 265 343
#     4  10  19  37  58  79 115 148 178 233 289 333
#
# _framework density 20.11459
#
# number of rings (size 3 to 8) (size 9 to 14) (size 15 to 20)
#    0.000    2.000    2.857    1.286    6.000    1.143 
#    2.571    0.714    0.000    0.000    0.000    0.000 
#    0.000    0.000    0.000    0.000    0.000    0.000 
#
# Total GULP energy -156264.660981 kJ/mol
# GULP energy per Si atom -5580.880749 kJ/mol
# Density = 2.006881 g / cm^3
# Si number density = 20.114590 Si / 1000 Ang^3
#
#
#
# Elastic Constant Matrix: (Units=GPa)
#
#
# Indices 1 2 3 4 5 6 
#
# 1 52.1535 1.3308 6.0419 0.0000 4.4238 0.0000
# 2 1.3308 53.3808 7.2444 0.0000 -2.2795 0.0000
# 3 6.0419 7.2444 27.1705 0.0000 0.7430 0.0000
# 4 0.0000 0.0000 0.0000 19.8706 0.0000 0.9023
# 5 4.4238 -2.2795 0.7430 0.0000 17.2721 0.0000
# 6 0.0000 0.0000 0.0000 0.9023 0.0000 11.5603
#
#
#
# Elastic Compliance Matrix: (Units=1/GPa)
#
#
# Indices 1 2 3 4 5 6 
#
# 1 0.020098 -0.000130 -0.004298 0.000000 -0.004980 0.000000
# 2 -0.000130 0.019573 -0.005267 0.000000 0.002843 0.000000
# 3 -0.004298 -0.005267 0.039200 0.000000 -0.001280 0.000000
# 4 0.000000 0.000000 0.000000 0.050505 0.000000 -0.003942
# 5 -0.004980 0.002843 -0.001280 0.000000 0.059602 0.000000
# 6 0.000000 0.000000 0.000000 -0.003942 0.000000 0.086811
#
#
# Mechanical properties :
#
#
# Convention : Reuss Voigt Hill
#
# Bulk Modulus (GPa) = 16.81276 17.99319 17.40297
# Shear Modulus (GPa) = 15.87270 17.61312 16.74291
#
# Velocity S-wave (km/s) = 2.81216 2.96233 2.88822
# Velocity P-wave (km/s) = 4.34983 4.54591 4.44895
#
# Compressibility (1/GPa) = 0.05947864
#
# Stress axis : x y z
#
# Youngs Moduli (GPa) = 49.75654 51.09121 25.51030
#
# Poissons Ratio (x) = 0.00666 0.10965
# Poissons Ratio (y) = 0.00649 0.13437
# Poissons Ratio (z) = 0.21386 0.26912
#
# Static dielectric constant tensor:
#      x y z
#    x 1.723130 0.000000 -0.005810 
#    y 0.000000 1.728390 0.000000 
#    z -0.005810 0.000000 1.708540 
# 
# From -- ./inp_files/43470.got.cif
#   From: 2010.05.17/outbox.cif.g08.bks.cpg/sg14_22_cif.got.tgz:43470.got - 2010.06.03 17:49:19.
