data_PCOD9241141
_publ_section_title
;
Structure prediction by ZEFSAII (Michael W. Deem and Ramdas Pophale) SiO2 
 PCOD9241141
Probable space group: P 21/C
;
_chemical_formula_sum "Si O2"
_cell_formula_units_Z 28
_cell_length_a 7.488528
_cell_length_b 30.966054
_cell_length_c 5.559943
_cell_angle_alpha 90.000000
_cell_angle_beta 59.848144
_cell_angle_gamma 90.000000
_cell_volume 1114.850676
_symmetry_space_group_name_H-M "P 21/C"
_symmetry_group_IT_number 14
_symmetry_cell_setting 'monoclinic'
loop_
_space_group_symop_operation_xyz
x,y,z
-x,1/2+y,1/2-z
-x,-y,-z
x,1/2-y,1/2+z
loop_
_atom_site_type_symbol
_atom_site_label
_atom_site_fract_x
_atom_site_fract_y
_atom_site_fract_z
Si Si1 0.268002 0.417577 0.069143
Si Si2 0.251811 0.271329 0.265406
Si Si3 0.144636 0.355180 0.528523
Si Si4 0.534213 0.356448 0.588686
Si Si5 0.143739 0.899874 0.477120
Si Si6 0.871846 0.492709 0.836882
Si Si7 0.710395 0.261647 0.476454
O O1 0.204921 0.401199 0.374987
O O2 0.296520 0.468898 0.045326
O O3 0.455109 0.387627 0.853868
O O4 0.065812 0.408320 0.037883
O O5 0.194702 0.253568 0.564926
O O6 0.161908 0.319428 0.311805
O O7 0.501523 0.267527 0.099514
O O8 0.323415 0.343289 0.594308
O O9 0.924324 0.361483 0.798240
O O10 0.648846 0.311514 0.557241
O O11 0.676672 0.384830 0.318391
O O12 0.197732 0.943285 0.586409
O O13 0.000000 0.500000 0.500000
O O14 0.000000 0.500000 0.000000
O O15 0.813382 0.255688 0.147731
#
# Coordination Sequence:
#
# PCOD9241141 Si02
#       7
#     4   4   4   4   4   4   4
#     4  10  22  40  68  90 127 175 211 260 330 387
#     4  10  19  34  61  86 117 166 211 254 315 383
#     4  11  21  39  65  89 123 167 212 264 320 380
#     4  11  23  39  64  96 126 166 218 270 320 384
#     4  10  24  41  62  97 129 165 215 271 319 386
#     4  10  20  43  67  91 133 175 210 261 331 388
#     4  10  19  37  60  86 124 169 207 261 321 378
#
# _framework density 25.115472
#
# number of rings (size 3 to 8) (size 9 to 14) (size 15 to 20)
#    0.000    1.714    4.286    1.714    2.000    1.714 
#    0.000    2.143    0.000    0.000    0.000    0.000 
#    0.000    0.000    0.000    0.000    0.000    0.000 
#
# Total GULP energy -156673.941642 kJ/mol
# GULP energy per Si atom -5595.497916 kJ/mol
# Density = 2.505831 g / cm^3
# Si number density = 25.115472 Si / 1000 Ang^3
#
#
#
# Elastic Constant Matrix: (Units=GPa)
#
#
# Indices 1 2 3 4 5 6 
#
# 1 76.2194 9.9451 19.6013 0.0000 11.7380 0.0000
# 2 9.9451 113.4444 36.8039 0.0000 0.0406 0.0000
# 3 19.6013 36.8039 167.1738 0.0000 8.4889 0.0000
# 4 0.0000 0.0000 0.0000 49.6173 0.0000 12.2343
# 5 11.7380 0.0406 8.4889 0.0000 30.1644 0.0000
# 6 0.0000 0.0000 0.0000 12.2343 0.0000 -3.8038
#
#
#
# Elastic Compliance Matrix: (Units=1/GPa)
#
#
# Indices 1 2 3 4 5 6 
#
# 1 0.014355 -0.000858 -0.001228 0.000000 -0.005239 0.000000
# 2 -0.000858 0.009554 -0.002048 0.000000 0.000898 0.000000
# 3 -0.001228 -0.002048 0.006647 0.000000 -0.001390 0.000000
# 4 0.000000 0.000000 0.000000 0.011240 0.000000 0.036152
# 5 -0.005239 0.000898 -0.001390 0.000000 0.035580 0.000000
# 6 0.000000 0.000000 0.000000 0.036152 0.000000 -0.146617
#
#
# Mechanical properties :
#
#
# Convention : Reuss Voigt Hill
#
# Bulk Modulus (GPa) = 44.86904 54.39315 49.63110
# Shear Modulus (GPa) = -93.38416 34.56140 -29.41138
#
# Velocity S-wave (km/s) = -6.10431 3.71361 -3.42577
# Velocity P-wave (km/s) = 5.63734 6.33183 2.03868
#
# Compressibility (1/GPa) = 0.02228708
#
# Stress axis : x y z
#
# Youngs Moduli (GPa) = 69.66382 104.66446 150.43597
#
# Poissons Ratio (x) = 0.08981 0.18476
# Poissons Ratio (y) = 0.05978 0.30815
# Poissons Ratio (z) = 0.08556 0.21439
#
# Static dielectric constant tensor:
#      x y z
#    x 2.016590 0.000000 0.041280 
#    y 0.000000 1.930330 0.000000 
#    z 0.041280 0.000000 1.981990 
# 
# From -- ./inp_files/2063.got.cif
#   From: 2010.05.17/outbox.cif.g08.bks.cpg/sg14_2_cif.got.tgz:2063.got - 2010.06.03 17:49:19.
