data_PCOD9241301
_publ_section_title
;
Structure prediction by ZEFSAII (Michael W. Deem and Ramdas Pophale) SiO2 
 PCOD9241301
Probable space group: P 21/C
;
_chemical_formula_sum "Si O2"
_cell_formula_units_Z 32
_cell_length_a 8.000961
_cell_length_b 23.702848
_cell_length_c 8.405172
_cell_angle_alpha 90.000000
_cell_angle_beta 104.591156
_cell_angle_gamma 90.000000
_cell_volume 1542.593876
_symmetry_space_group_name_H-M "P 21/C"
_symmetry_group_IT_number 14
_symmetry_cell_setting 'monoclinic'
loop_
_space_group_symop_operation_xyz
x,y,z
-x,1/2+y,1/2-z
-x,-y,-z
x,1/2-y,1/2+z
loop_
_atom_site_type_symbol
_atom_site_label
_atom_site_fract_x
_atom_site_fract_y
_atom_site_fract_z
Si Si1 0.345683 0.126531 0.556213
Si Si2 0.952043 0.184776 0.942036
Si Si3 0.234959 0.775479 0.806337
Si Si4 0.484240 0.564588 0.437931
Si Si5 0.366382 0.471366 0.849155
Si Si6 0.485540 0.779883 0.602448
Si Si7 0.288760 0.913567 0.187053
Si Si8 0.702117 0.834336 0.131547
O O1 0.272756 0.074805 0.435858
O O2 0.383375 0.176551 0.442570
O O3 0.532693 0.108372 0.683412
O O4 0.232952 0.147377 0.677641
O O5 0.881752 0.241019 0.842173
O O6 0.863176 0.131417 0.832991
O O7 0.153871 0.184481 0.958051
O O8 0.882828 0.187792 0.105623
O O9 0.392874 0.801477 0.741046
O O10 0.334154 0.730224 0.939403
O O11 0.500000 0.500000 0.500000
O O12 0.519239 0.559569 0.259192
O O13 0.320285 0.583318 0.503596
O O14 0.621495 0.609512 0.536440
O O15 0.260406 0.522986 0.745501
O O16 0.500000 0.500000 0.000000
O O17 0.571574 0.717658 0.637411
#
# Coordination Sequence:
#
# PCOD9241301 Si02
#       8
#     4   4   4   4   4   4   4   4
#     4  10  19  35  59  86 113 155 205 248 291 353
#     4  11  23  39  56  87 130 157 194 248 321 369
#     4  10  21  37  59  81 116 163 199 236 299 376
#     4   9  18  37  63  85 113 155 206 247 288 352
#     4   9  19  33  61  89 110 142 211 260 290 334
#     4  11  20  37  58  87 116 157 209 243 289 369
#     4   9  18  39  57  84 116 156 201 251 298 363
#     4  11  24  37  58  90 127 157 198 257 306 356
#
# _framework density 20.74428
#
# number of rings (size 3 to 8) (size 9 to 14) (size 15 to 20)
#    0.000    2.000    2.500    3.000    5.250    0.000 
#    0.000    3.125    0.000    0.000    0.000    0.000 
#    0.000    0.000    0.000    0.000    0.000    0.000 
#
# Total GULP energy -178191.131094 kJ/mol
# GULP energy per Si atom -5568.472847 kJ/mol
# Density = 2.069706 g / cm^3
# Si number density = 20.744280 Si / 1000 Ang^3
#
#
#
# Elastic Constant Matrix: (Units=GPa)
#
#
# Indices 1 2 3 4 5 6 
#
# 1 50.9561 25.5624 18.0213 0.0000 -24.7969 0.0000
# 2 25.5624 101.5802 35.3587 0.0000 -18.4386 0.0000
# 3 18.0213 35.3587 114.7374 0.0000 -37.4559 0.0000
# 4 0.0000 0.0000 0.0000 35.7960 0.0000 -8.1127
# 5 -24.7969 -18.4386 -37.4559 0.0000 25.2361 0.0000
# 6 0.0000 0.0000 0.0000 -8.1127 0.0000 14.6916
#
#
#
# Elastic Compliance Matrix: (Units=1/GPa)
#
#
# Indices 1 2 3 4 5 6 
#
# 1 0.051332 -0.005888 0.017097 0.000000 0.071512 0.000000
# 2 -0.005888 0.012166 -0.003514 0.000000 -0.002112 0.000000
# 3 0.017097 -0.003514 0.022812 0.000000 0.048090 0.000000
# 4 0.000000 0.000000 0.000000 0.031932 0.000000 0.017633
# 5 0.071512 -0.002112 0.048090 0.000000 0.179727 0.000000
# 6 0.000000 0.000000 0.000000 0.017633 0.000000 0.077803
#
#
# Mechanical properties :
#
#
# Convention : Reuss Voigt Hill
#
# Bulk Modulus (GPa) = 9.83278 47.23982 28.53630
# Shear Modulus (GPa) = 12.68130 27.70017 20.19073
#
# Velocity S-wave (km/s) = 2.47516 3.65816 3.12319
# Velocity P-wave (km/s) = 3.59428 6.37689 5.17608
#
# Compressibility (1/GPa) = 0.10170064
#
# Stress axis : x y z
#
# Youngs Moduli (GPa) = 19.48096 82.19684 43.83661
#
# Poissons Ratio (x) = 0.48398 -0.74948
# Poissons Ratio (y) = 0.11471 0.15403
# Poissons Ratio (z) = -0.33307 0.28882
#
# Static dielectric constant tensor:
#      x y z
#    x 1.923870 0.000000 -0.069920 
#    y 0.000000 1.783780 0.000000 
#    z -0.069920 0.000000 1.801760 
# 
# From -- ./inp_files/10689.got.cif
#   From: 2010.05.17/outbox.cif.g08.bks.cpg/sg14_6_cif.got.tgz:10689.got - 2010.06.03 17:49:19.
