data_PCOD9241775
_publ_section_title
;
Structure prediction by ZEFSAII (Michael W. Deem and Ramdas Pophale) SiO2 
 PCOD9241775
Probable space group: P 21/C
;
_chemical_formula_sum "Si O2"
_cell_formula_units_Z 24
_cell_length_a 9.687519
_cell_length_b 22.264229
_cell_length_c 7.507662
_cell_angle_alpha 90.000000
_cell_angle_beta 142.140299
_cell_angle_gamma 90.000000
_cell_volume 993.807626
_symmetry_space_group_name_H-M "P 21/C"
_symmetry_group_IT_number 14
_symmetry_cell_setting 'monoclinic'
loop_
_space_group_symop_operation_xyz
x,y,z
-x,1/2+y,1/2-z
-x,-y,-z
x,1/2-y,1/2+z
loop_
_atom_site_type_symbol
_atom_site_label
_atom_site_fract_x
_atom_site_fract_y
_atom_site_fract_z
Si Si1 0.728995 0.839583 0.855307
Si Si2 0.879535 0.060322 0.803116
Si Si3 0.787292 0.794555 0.533974
Si Si4 0.806372 0.523585 0.930733
Si Si5 0.848875 0.379420 0.602494
Si Si6 0.516245 0.876990 0.981690
O O1 0.668868 0.819853 0.592447
O O2 0.795321 0.775930 0.010042
O O3 0.537679 0.862490 0.795932
O O4 0.930835 0.889689 0.057762
O O5 0.749038 0.030493 0.504953
O O6 0.733875 0.089883 0.814231
O O7 0.000000 0.000000 0.000000
O O8 0.666348 0.827388 0.243827
O O9 0.045823 0.814917 0.824035
O O10 0.930770 0.578514 0.157623
O O11 0.618805 0.557840 0.629770
O O12 0.000000 0.500000 0.000000
O O13 0.717769 0.377140 0.652463
#
# Coordination Sequence:
#
# PCOD9241775 Si02
#       6
#     4   4   4   4   4   4
#     4  11  20  40  66  85 125 167 199 257 314 375
#     4   9  19  39  61  86 122 162 203 254 309 367
#     4  10  22  42  61  85 123 163 200 251 317 365
#     4  10  19  37  62  87 121 163 202 249 312 363
#     4   9  22  40  60  91 122 155 209 257 299 372
#     4  11  22  41  62  91 123 159 209 255 307 368
#
# _framework density 24.149543999999999
#
# number of rings (size 3 to 8) (size 9 to 14) (size 15 to 20)
#    0.000    2.000    3.333    1.000    0.000    1.333 
#    9.000    0.000    0.000    0.000    0.000    0.000 
#    0.000    0.000    0.000    0.000    0.000    0.000 
#
# Total GULP energy -133929.708404 kJ/mol
# GULP energy per Si atom -5580.404517 kJ/mol
# Density = 2.409458 g / cm^3
# Si number density = 24.149544 Si / 1000 Ang^3
#
#
#
# Elastic Constant Matrix: (Units=GPa)
#
#
# Indices 1 2 3 4 5 6 
#
# 1 142.6066 40.5719 13.8572 0.0000 -23.0229 0.0000
# 2 40.5719 173.5328 28.2914 0.0000 0.0021 0.0000
# 3 13.8572 28.2914 49.5698 0.0000 -24.8883 0.0000
# 4 0.0000 0.0000 0.0000 32.3181 0.0000 -10.3352
# 5 -23.0229 0.0021 -24.8883 0.0000 35.7237 0.0000
# 6 0.0000 0.0000 0.0000 -10.3352 0.0000 47.2787
#
#
#
# Elastic Compliance Matrix: (Units=1/GPa)
#
#
# Indices 1 2 3 4 5 6 
#
# 1 0.008659 -0.002474 0.002759 0.000000 0.007503 0.000000
# 2 -0.002474 0.007432 -0.006692 0.000000 -0.006257 0.000000
# 3 0.002759 -0.006692 0.037088 0.000000 0.027617 0.000000
# 4 0.000000 0.000000 0.000000 0.033268 0.000000 0.007272
# 5 0.007503 -0.006257 0.027617 0.000000 0.052069 0.000000
# 6 0.000000 0.000000 0.000000 0.007272 0.000000 0.022741
#
#
# Mechanical properties :
#
#
# Convention : Reuss Voigt Hill
#
# Bulk Modulus (GPa) = 24.77453 59.01670 41.89561
# Shear Modulus (GPa) = 26.66281 41.92999 34.29640
#
# Velocity S-wave (km/s) = 3.32636 4.17137 3.77260
# Velocity P-wave (km/s) = 5.00340 6.90590 6.03015
#
# Compressibility (1/GPa) = 0.04036404
#
# Stress axis : x y z
#
# Youngs Moduli (GPa) = 115.48020 134.55036 26.96312
#
# Poissons Ratio (x) = 0.33293 -0.07438
# Poissons Ratio (y) = 0.28574 0.18043
# Poissons Ratio (z) = -0.31855 0.90038
#
# Static dielectric constant tensor:
#      x y z
#    x 1.978160 0.000000 0.015960 
#    y 0.000000 1.993940 0.000000 
#    z 0.015960 0.000000 2.191400 
# 
# From -- ./inp_files/10290.got.cif
#   From: 2010.05.17/outbox.cif.g08.bks.cpg/sg14_6_cif.got.tgz:10290.got - 2010.06.03 17:49:19.
