data_PCOD9241523
_publ_section_title
;
Structure prediction by ZEFSAII (Michael W. Deem and Ramdas Pophale) SiO2 
 PCOD9241523
Probable space group: P 21/C
;
_chemical_formula_sum "Si O2"
_cell_formula_units_Z 32
_cell_length_a 11.743760
_cell_length_b 8.733393
_cell_length_c 29.111642
_cell_angle_alpha 90.000000
_cell_angle_beta 147.040234
_cell_angle_gamma 90.000000
_cell_volume 1624.410043
_symmetry_space_group_name_H-M "P 21/C"
_symmetry_group_IT_number 14
_symmetry_cell_setting 'monoclinic'
loop_
_space_group_symop_operation_xyz
x,y,z
-x,1/2+y,1/2-z
-x,-y,-z
x,1/2-y,1/2+z
loop_
_atom_site_type_symbol
_atom_site_label
_atom_site_fract_x
_atom_site_fract_y
_atom_site_fract_z
Si Si1 0.659410 0.575127 0.006453
Si Si2 0.176154 0.211308 0.263777
Si Si3 0.999174 0.733321 0.572348
Si Si4 0.815490 0.464645 0.152912
Si Si5 0.247793 0.476333 0.695283
Si Si6 0.939381 0.686932 0.450089
Si Si7 0.284650 0.509876 0.127137
Si Si8 0.357764 0.707914 0.060744
O O1 0.771654 0.573070 0.093873
O O2 0.791591 0.682801 0.018288
O O3 0.413786 0.615323 0.920800
O O4 0.665951 0.398150 0.991784
O O5 0.195225 0.139159 0.219087
O O6 0.409145 0.273229 0.355527
O O7 0.998818 0.341121 0.207341
O O8 0.142000 0.071704 0.288414
O O9 0.087898 0.616984 0.639709
O O10 0.173647 0.862390 0.620806
O O11 0.960832 0.647755 0.510842
O O12 0.223207 0.395952 0.637657
O O13 0.484798 0.534527 0.778518
O O14 0.164859 0.678708 0.501532
O O15 0.865045 0.864514 0.426230
O O16 0.326910 0.589588 0.092564
#
# Coordination Sequence:
#
# PCOD9241523 Si02
#       8
#     4   4   4   4   4   4   4   4
#     4  10  19  39  65  84 112 162 201 235 296 358
#     4  10  23  41  60  86 118 149 201 251 300 338
#     4  11  21  37  60  88 117 159 195 231 291 358
#     4  10  23  41  63  86 114 155 208 250 293 346
#     4  11  24  36  56  89 126 148 186 254 298 339
#     4  11  19  37  60  87 123 152 194 229 289 364
#     4  10  19  36  60  85 117 158 194 223 285 370
#     4   9  17  36  63  83 113 156 190 231 286 362
#
# _framework density 19.699459999999998
#
# number of rings (size 3 to 8) (size 9 to 14) (size 15 to 20)
#    0.000    1.750    2.500    2.625    1.750    0.000 
#    2.250    0.625    0.000    0.000    0.000    0.000 
#    0.000    0.000    0.000    0.000    0.000    0.000 
#
# Total GULP energy -178548.067641 kJ/mol
# GULP energy per Si atom -5579.627114 kJ/mol
# Density = 1.965462 g / cm^3
# Si number density = 19.699460 Si / 1000 Ang^3
#
#
#
# Elastic Constant Matrix: (Units=GPa)
#
#
# Indices 1 2 3 4 5 6 
#
# 1 72.0853 7.0010 34.4638 0.0000 17.7666 0.0000
# 2 7.0010 36.3448 25.2796 0.0000 13.2317 0.0000
# 3 34.4638 25.2796 114.3811 0.0000 17.9909 0.0000
# 4 0.0000 0.0000 0.0000 26.6587 0.0000 2.8395
# 5 17.7666 13.2317 17.9909 0.0000 38.4215 0.0000
# 6 0.0000 0.0000 0.0000 2.8395 0.0000 27.7110
#
#
#
# Elastic Compliance Matrix: (Units=1/GPa)
#
#
# Indices 1 2 3 4 5 6 
#
# 1 0.017574 0.002372 -0.004764 0.000000 -0.006713 0.000000
# 2 0.002372 0.035592 -0.006996 0.000000 -0.010078 0.000000
# 3 -0.004764 -0.006996 0.011873 0.000000 -0.000948 0.000000
# 4 0.000000 0.000000 0.000000 0.037925 0.000000 -0.003886
# 5 -0.006713 -0.010078 -0.000948 0.000000 0.033046 0.000000
# 6 0.000000 0.000000 0.000000 -0.003886 0.000000 0.036485
#
#
# Mechanical properties :
#
#
# Convention : Reuss Voigt Hill
#
# Bulk Modulus (GPa) = 21.61473 39.58889 30.60181
# Shear Modulus (GPa) = 24.19060 28.96270 26.57665
#
# Velocity S-wave (km/s) = 3.50806 3.83852 3.67700
# Velocity P-wave (km/s) = 5.23495 6.30759 5.79614
#
# Compressibility (1/GPa) = 0.04626475
#
# Stress axis : x y z
#
# Youngs Moduli (GPa) = 56.90220 28.09587 84.22314
#
# Poissons Ratio (x) = -0.06664 0.40120
# Poissons Ratio (y) = -0.13497 0.58921
# Poissons Ratio (z) = 0.27106 0.19655
#
# Static dielectric constant tensor:
#      x y z
#    x 1.717190 0.000000 -0.005720 
#    y 0.000000 1.708450 0.000000 
#    z -0.005720 0.000000 1.698430 
# 
# From -- ./inp_files/80024.got.cif
#   From: 2010.05.17/outbox.cif.g08.bks.cpg/sg14_41_cif.got.tgz:80024.got - 2010.06.03 17:49:19.
