data_PCOD9241153
_publ_section_title
;
Structure prediction by ZEFSAII (Michael W. Deem and Ramdas Pophale) SiO2 
 PCOD9241153
Probable space group: P 21/C
;
_chemical_formula_sum "Si O2"
_cell_formula_units_Z 24
_cell_length_a 22.508371
_cell_length_b 5.129905
_cell_length_c 17.666474
_cell_angle_alpha 90.000000
_cell_angle_beta 31.964116
_cell_angle_gamma 90.000000
_cell_volume 1079.884694
_symmetry_space_group_name_H-M "P 21/C"
_symmetry_group_IT_number 14
_symmetry_cell_setting 'monoclinic'
loop_
_space_group_symop_operation_xyz
x,y,z
-x,1/2+y,1/2-z
-x,-y,-z
x,1/2-y,1/2+z
loop_
_atom_site_type_symbol
_atom_site_label
_atom_site_fract_x
_atom_site_fract_y
_atom_site_fract_z
Si Si1 0.190408 0.993799 0.328204
Si Si2 0.417396 0.768732 0.053670
Si Si3 0.065481 0.573138 0.203558
Si Si4 0.420213 0.958447 0.711551
Si Si5 0.026456 0.188250 0.903621
Si Si6 0.296236 0.058698 0.374106
O O1 0.293952 0.870777 0.171493
O O2 0.092049 0.834018 0.477616
O O3 0.123214 0.138074 0.334981
O O4 0.253039 0.109554 0.334369
O O5 0.393605 0.576916 0.150340
O O6 0.464162 0.614358 0.930020
O O7 0.500000 0.000000 0.000000
O O8 0.061276 0.472716 0.293509
O O9 0.017860 0.865950 0.248212
O O10 0.189692 0.536087 0.036388
O O11 0.391713 0.667905 0.771434
O O12 0.346840 0.160648 0.839069
O O13 0.000000 0.000000 0.000000
#
# Coordination Sequence:
#
# PCOD9241153 Si02
#       6
#     4   4   4   4   4   4
#     4  10  22  39  58  97 134 170 210 279 323 390
#     4  10  19  34  62  95 128 165 219 268 321 376
#     4  12  25  42  67  95 129 180 230 269 328 412
#     4  10  20  34  57  97 124 162 210 274 320 365
#     4  11  25  41  63  95 138 178 215 270 343 394
#     4  11  21  38  62  92 132 164 215 273 320 381
#
# _framework density 22.224596999999999
#
# number of rings (size 3 to 8) (size 9 to 14) (size 15 to 20)
#    0.000    1.333    5.000    2.000    9.333    0.000 
#    0.000    0.000    0.000    0.000    8.667    0.000 
#    0.000    0.000    0.000    0.000    0.000    0.000 
#
# Total GULP energy -133619.702934 kJ/mol
# GULP energy per Si atom -5567.487622 kJ/mol
# Density = 2.217401 g / cm^3
# Si number density = 22.224597 Si / 1000 Ang^3
#
#
#
# Elastic Constant Matrix: (Units=GPa)
#
#
# Indices 1 2 3 4 5 6 
#
# 1 27.0301 7.3625 30.5733 0.0000 -3.6730 0.0000
# 2 7.3625 79.6026 23.4188 0.0000 -11.5371 0.0000
# 3 30.5733 23.4188 121.7058 0.0000 -10.7193 0.0000
# 4 0.0000 0.0000 0.0000 -93.2049 0.0000 104.0615
# 5 -3.6730 -11.5371 -10.7193 0.0000 33.4491 0.0000
# 6 0.0000 0.0000 0.0000 104.0615 0.0000 -72.8753
#
#
#
# Elastic Compliance Matrix: (Units=1/GPa)
#
#
# Indices 1 2 3 4 5 6 
#
# 1 0.051812 -0.000855 -0.012735 0.000000 0.001313 0.000000
# 2 -0.000855 0.013839 -0.002095 0.000000 0.004008 0.000000
# 3 -0.012735 -0.002095 0.011970 0.000000 0.001715 0.000000
# 4 0.000000 0.000000 0.000000 0.018054 0.000000 0.025780
# 5 0.001313 0.004008 0.001715 0.000000 0.031972 0.000000
# 6 0.000000 0.000000 0.000000 0.025780 0.000000 0.023091
#
#
# Mechanical properties :
#
#
# Convention : Reuss Voigt Hill
#
# Bulk Modulus (GPa) = 21.62182 39.00530 30.31356
# Shear Modulus (GPa) = 25.31323 -15.39396 4.95963
#
# Velocity S-wave (km/s) = 3.37853 -2.63469 1.49547
# Velocity P-wave (km/s) = 4.99692 2.88672 4.08059
#
# Compressibility (1/GPa) = 0.04624957
#
# Stress axis : x y z
#
# Youngs Moduli (GPa) = 19.30062 72.26103 83.54291
#
# Poissons Ratio (x) = 0.06179 1.06394
# Poissons Ratio (y) = 0.01650 0.17503
# Poissons Ratio (z) = 0.24580 0.15139
#
# Static dielectric constant tensor:
#      x y z
#    x 1.737430 0.000000 0.011730 
#    y 0.000000 1.915100 0.000000 
#    z 0.011730 0.000000 1.825780 
# 
# From -- ./inp_files/61558.got.cif
#   From: 2010.05.17/outbox.cif.g08.bks.cpg/sg14_31_cif.got.tgz:61558.got - 2010.06.03 17:49:19.
