data_PCOD9241827
_publ_section_title
;
Structure prediction by ZEFSAII (Michael W. Deem and Ramdas Pophale) SiO2 
 PCOD9241827
Probable space group: P 21/C
;
_chemical_formula_sum "Si O2"
_cell_formula_units_Z 28
_cell_length_a 19.426693
_cell_length_b 10.285430
_cell_length_c 14.942590
_cell_angle_alpha 90.000000
_cell_angle_beta 28.420563
_cell_angle_gamma 90.000000
_cell_volume 1421.017101
_symmetry_space_group_name_H-M "P 21/C"
_symmetry_group_IT_number 14
_symmetry_cell_setting 'monoclinic'
loop_
_space_group_symop_operation_xyz
x,y,z
-x,1/2+y,1/2-z
-x,-y,-z
x,1/2-y,1/2+z
loop_
_atom_site_type_symbol
_atom_site_label
_atom_site_fract_x
_atom_site_fract_y
_atom_site_fract_z
Si Si1 0.780311 0.067404 0.910240
Si Si2 0.567123 0.231285 0.723907
Si Si3 0.276764 0.984269 0.218852
Si Si4 0.511690 0.773387 0.988451
Si Si5 0.326599 0.341788 0.357506
Si Si6 0.857084 0.091162 0.450650
Si Si7 0.953746 0.672199 0.808054
O O1 0.640935 0.158655 0.079644
O O2 0.759943 0.972180 0.018382
O O3 0.781655 0.998322 0.813781
O O4 0.925893 0.150783 0.752637
O O5 0.434689 0.176270 0.818255
O O6 0.698214 0.131538 0.596428
O O7 0.517785 0.280643 0.878254
O O8 0.164015 0.970660 0.427617
O O9 0.377848 0.106628 0.124695
O O10 0.368683 0.849117 0.117515
O O11 0.577838 0.673275 0.841322
O O12 0.202796 0.232040 0.493641
O O13 0.959552 0.216695 0.345512
O O14 0.922011 0.976392 0.314569
#
# Coordination Sequence:
#
# PCOD9241827 Si02
#       7
#     4   4   4   4   4   4   4
#     4  11  23  40  64  91 126 172 210 253 321 379
#     4  10  23  39  64  94 127 161 211 262 318 368
#     4  10  19  37  64  93 120 159 223 261 299 374
#     4  10  20  36  62  97 123 157 210 270 310 363
#     4  12  22  38  65  92 125 164 208 266 316 367
#     4  10  22  41  65  90 128 163 210 265 316 369
#     4  11  23  41  59  92 130 167 203 260 320 374
#
# _framework density 19.704197000000001
#
# number of rings (size 3 to 8) (size 9 to 14) (size 15 to 20)
#    0.000    1.429    5.714    0.000    2.000    1.143 
#    2.571    0.000    0.000    4.286    0.000    0.000 
#    0.000    0.000    0.000    0.000    0.000    0.000 
#
# Total GULP energy -155909.183436 kJ/mol
# GULP energy per Si atom -5568.185123 kJ/mol
# Density = 1.965935 g / cm^3
# Si number density = 19.704197 Si / 1000 Ang^3
#
#
#
# Elastic Constant Matrix: (Units=GPa)
#
#
# Indices 1 2 3 4 5 6 
#
# 1 51.3291 2.0104 42.4241 0.0000 13.5114 0.0000
# 2 2.0104 52.9197 24.3255 0.0000 7.5195 0.0000
# 3 42.4241 24.3255 92.5661 0.0000 -7.7483 0.0000
# 4 0.0000 0.0000 0.0000 39.8385 0.0000 4.2358
# 5 13.5114 7.5195 -7.7483 0.0000 22.3020 0.0000
# 6 0.0000 0.0000 0.0000 4.2358 0.0000 18.3326
#
#
#
# Elastic Compliance Matrix: (Units=1/GPa)
#
#
# Indices 1 2 3 4 5 6 
#
# 1 0.084216 0.033177 -0.054096 0.000000 -0.081002 0.000000
# 2 0.033177 0.036705 -0.028395 0.000000 -0.042341 0.000000
# 3 -0.054096 -0.028395 0.047999 0.000000 0.059024 0.000000
# 4 0.000000 0.000000 0.000000 0.025734 0.000000 -0.005946
# 5 -0.081002 -0.042341 0.059024 0.000000 0.128696 0.000000
# 6 0.000000 0.000000 0.000000 -0.005946 0.000000 0.055922
#
#
# Mechanical properties :
#
#
# Convention : Reuss Voigt Hill
#
# Bulk Modulus (GPa) = 14.22664 37.14833 25.68749
# Shear Modulus (GPa) = 9.97345 24.63158 17.30252
#
# Velocity S-wave (km/s) = 2.25224 3.53947 2.96651
# Velocity P-wave (km/s) = 3.74155 5.96638 4.97980
#
# Compressibility (1/GPa) = 0.07029066
#
# Stress axis : x y z
#
# Youngs Moduli (GPa) = 11.87418 27.24429 20.83390
#
# Poissons Ratio (x) = -0.90388 1.12704
# Poissons Ratio (y) = -0.39395 0.59158
# Poissons Ratio (z) = 0.64235 0.77361
#
# Static dielectric constant tensor:
#      x y z
#    x 1.679470 0.000000 -0.015520 
#    y 0.000000 1.741410 0.000000 
#    z -0.015520 0.000000 1.723030 
# 
# From -- ./inp_files/48775.got.cif
#   From: 2010.05.17/outbox.cif.g08.bks.cpg/sg14_25_cif.got.tgz:48775.got - 2010.06.03 17:49:19.
