data_PCOD9241094
_publ_section_title
;
Structure prediction by ZEFSAII (Michael W. Deem and Ramdas Pophale) SiO2 
 PCOD9241094
Probable space group: P 21/C
;
_chemical_formula_sum "Si O2"
_cell_formula_units_Z 28
_cell_length_a 11.725236
_cell_length_b 18.916340
_cell_length_c 7.618764
_cell_angle_alpha 90.000000
_cell_angle_beta 42.823772
_cell_angle_gamma 90.000000
_cell_volume 1148.655179
_symmetry_space_group_name_H-M "P 21/C"
_symmetry_group_IT_number 14
_symmetry_cell_setting 'monoclinic'
loop_
_space_group_symop_operation_xyz
x,y,z
-x,1/2+y,1/2-z
-x,-y,-z
x,1/2-y,1/2+z
loop_
_atom_site_type_symbol
_atom_site_label
_atom_site_fract_x
_atom_site_fract_y
_atom_site_fract_z
Si Si1 0.473895 0.630262 0.242435
Si Si2 0.082461 0.421350 0.094634
Si Si3 0.736977 0.710929 0.147365
Si Si4 0.718354 0.640793 0.544408
Si Si5 0.232423 0.562061 0.799114
Si Si6 0.786999 0.538817 0.722214
Si Si7 0.339002 0.610992 0.047552
O O1 0.563135 0.694906 0.243120
O O2 0.379873 0.584739 0.498454
O O3 0.629949 0.585398 0.983723
O O4 0.357429 0.656252 0.209618
O O5 0.124326 0.339890 0.093420
O O6 0.221748 0.478021 0.861242
O O7 0.061671 0.453331 0.311744
O O8 0.932778 0.422919 0.127916
O O9 0.743371 0.675346 0.329538
O O10 0.760387 0.793830 0.125023
O O11 0.821340 0.574004 0.496450
O O12 0.526902 0.616337 0.762964
O O13 0.237563 0.607037 0.976662
O O14 0.707823 0.462564 0.808775
#
# Coordination Sequence:
#
# PCOD9241094 Si02
#       7
#     4   4   4   4   4   4   4
#     4  10  19  34  58  84 111 150 187 235 290 331
#     4   9  21  37  55  84 118 152 194 232 287 341
#     4  11  22  35  61  81 115 155 195 240 288 348
#     4  11  20  36  59  86 115 148 196 243 289 340
#     4  10  20  38  58  84 121 153 185 241 284 345
#     4   9  20  35  58  89 120 144 194 244 276 347
#     4  10  20  35  59  92 117 143 194 243 285 339
#
# _framework density 24.376332999999999
#
# number of rings (size 3 to 8) (size 9 to 14) (size 15 to 20)
#    0.000    2.000    1.429    4.286    4.000    1.714 
#    2.571    2.143    6.286    0.000    0.000    0.000 
#    0.000    0.000    0.000    0.000    0.000    0.000 
#
# Total GULP energy -156048.038044 kJ/mol
# GULP energy per Si atom -5573.144216 kJ/mol
# Density = 2.432085 g / cm^3
# Si number density = 24.376333 Si / 1000 Ang^3
#
#
#
# Elastic Constant Matrix: (Units=GPa)
#
#
# Indices 1 2 3 4 5 6 
#
# 1 169.6543 24.8380 15.0526 0.0000 37.6011 0.0000
# 2 24.8380 50.6035 -0.8534 0.0000 -7.2717 0.0000
# 3 15.0526 -0.8534 56.7408 0.0000 18.0835 0.0000
# 4 0.0000 0.0000 0.0000 23.2600 0.0000 14.3635
# 5 37.6011 -7.2717 18.0835 0.0000 43.8938 0.0000
# 6 0.0000 0.0000 0.0000 14.3635 0.0000 29.7120
#
#
#
# Elastic Compliance Matrix: (Units=1/GPa)
#
#
# Indices 1 2 3 4 5 6 
#
# 1 0.008486 -0.005350 0.000308 0.000000 -0.008283 0.000000
# 2 -0.005350 0.023655 -0.001076 0.000000 0.008945 0.000000
# 3 0.000308 -0.001076 0.020337 0.000000 -0.008821 0.000000
# 4 0.000000 0.000000 0.000000 0.061288 0.000000 -0.029628
# 5 -0.008283 0.008945 -0.008821 0.000000 0.034993 0.000000
# 6 0.000000 0.000000 0.000000 -0.029628 0.000000 0.047979
#
#
# Mechanical properties :
#
#
# Convention : Reuss Voigt Hill
#
# Bulk Modulus (GPa) = 24.84952 39.45256 32.15104
# Shear Modulus (GPa) = 22.48310 35.23726 28.86018
#
# Velocity S-wave (km/s) = 3.04029 3.80617 3.44458
# Velocity P-wave (km/s) = 4.74771 5.96119 5.38872
#
# Compressibility (1/GPa) = 0.04024223
#
# Stress axis : x y z
#
# Youngs Moduli (GPa) = 117.84058 42.27458 49.17073
#
# Poissons Ratio (x) = 0.22618 -0.01515
# Poissons Ratio (y) = 0.63048 0.05290
# Poissons Ratio (z) = -0.03630 0.04548
#
# Static dielectric constant tensor:
#      x y z
#    x 2.048780 0.000000 0.052590 
#    y 0.000000 2.066840 0.000000 
#    z 0.052590 0.000000 2.100500 
# 
# From -- ./inp_files/14134.got.cif
#   From: 2010.05.17/outbox.cif.g08.bks.cpg/sg14_8_cif.got.tgz:14134.got - 2010.06.03 17:49:19.
