data_PCOD9241118
_publ_section_title
;
Structure prediction by ZEFSAII (Michael W. Deem and Ramdas Pophale) SiO2 
 PCOD9241118
Probable space group: P 21/C
;
_chemical_formula_sum "Si O2"
_cell_formula_units_Z 32
_cell_length_a 12.081251
_cell_length_b 12.494484
_cell_length_c 11.710897
_cell_angle_alpha 90.000000
_cell_angle_beta 129.819548
_cell_angle_gamma 90.000000
_cell_volume 1357.745646
_symmetry_space_group_name_H-M "P 21/C"
_symmetry_group_IT_number 14
_symmetry_cell_setting 'monoclinic'
loop_
_space_group_symop_operation_xyz
x,y,z
-x,1/2+y,1/2-z
-x,-y,-z
x,1/2-y,1/2+z
loop_
_atom_site_type_symbol
_atom_site_label
_atom_site_fract_x
_atom_site_fract_y
_atom_site_fract_z
Si Si1 0.843702 0.084309 0.832471
Si Si2 0.985298 0.442571 0.847430
Si Si3 0.540364 0.815552 0.361649
Si Si4 0.674673 0.422584 0.423781
Si Si5 0.188343 0.293884 0.087471
Si Si6 0.292979 0.795788 0.830251
Si Si7 0.799187 0.865107 0.703771
Si Si8 0.876948 0.603055 0.610573
O O1 0.809588 0.121167 0.938082
O O2 0.780574 0.178510 0.710103
O O3 0.770001 0.971466 0.758730
O O4 0.008735 0.070292 0.910574
O O5 0.066725 0.398697 0.787539
O O6 0.840728 0.376561 0.784844
O O7 0.943337 0.560472 0.773124
O O8 0.107232 0.407955 0.020045
O O9 0.450004 0.915129 0.251997
O O10 0.641149 0.791591 0.319716
O O11 0.424708 0.727262 0.329150
O O12 0.652605 0.842995 0.536030
O O13 0.648409 0.345690 0.513431
O O14 0.727322 0.538280 0.500546
O O15 0.160935 0.231504 0.185764
O O16 0.142222 0.223072 0.945289
#
# Coordination Sequence:
#
# PCOD9241118 Si02
#       8
#     4   4   4   4   4   4   4   4
#     4  10  19  34  60  91 112 141 201 253 294 342
#     4   9  21  34  57  91 117 143 193 259 288 347
#     4  10  23  38  52  84 124 158 195 237 294 357
#     4  10  20  34  55  85 120 150 188 243 292 346
#     4  11  20  38  62  86 118 161 193 243 306 347
#     4  10  20  34  55  85 118 151 185 241 295 352
#     4  10  21  36  60  89 111 149 203 250 292 342
#     4  10  19  34  59  90 111 151 196 241 295 350
#
# _framework density 23.568479
#
# number of rings (size 3 to 8) (size 9 to 14) (size 15 to 20)
#    0.000    2.000    2.500    1.125    3.500    2.000 
#    2.250    2.500    0.000    3.000   22.750    0.000 
#    0.000    0.000    0.000    0.000    0.000    0.000 
#
# Total GULP energy -178145.726047 kJ/mol
# GULP energy per Si atom -5567.053939 kJ/mol
# Density = 2.351484 g / cm^3
# Si number density = 23.568479 Si / 1000 Ang^3
#
#
#
# Elastic Constant Matrix: (Units=GPa)
#
#
# Indices 1 2 3 4 5 6 
#
# 1 74.2351 -16.9245 23.1459 0.0000 15.8856 0.0000
# 2 -16.9245 57.3207 15.1632 0.0000 1.6667 0.0000
# 3 23.1459 15.1632 84.1494 0.0000 -3.2296 0.0000
# 4 0.0000 0.0000 0.0000 29.7653 0.0000 0.6631
# 5 15.8856 1.6667 -3.2296 0.0000 30.7246 0.0000
# 6 0.0000 0.0000 0.0000 0.6631 0.0000 26.3941
#
#
#
# Elastic Compliance Matrix: (Units=1/GPa)
#
#
# Indices 1 2 3 4 5 6 
#
# 1 0.020196 0.008286 -0.007497 0.000000 -0.011680 0.000000
# 2 0.008286 0.021774 -0.006438 0.000000 -0.006142 0.000000
# 3 -0.007497 -0.006438 0.015330 0.000000 0.005837 0.000000
# 4 0.000000 0.000000 0.000000 0.033615 0.000000 -0.000845
# 5 -0.011680 -0.006142 0.005837 0.000000 0.039533 0.000000
# 6 0.000000 0.000000 0.000000 -0.000845 0.000000 0.037908
#
#
# Mechanical properties :
#
#
# Convention : Reuss Voigt Hill
#
# Bulk Modulus (GPa) = 21.73808 28.71937 25.22872
# Shear Modulus (GPa) = 25.64255 30.33150 27.98703
#
# Velocity S-wave (km/s) = 3.30207 3.59130 3.44972
# Velocity P-wave (km/s) = 4.87664 5.42297 5.15704
#
# Compressibility (1/GPa) = 0.04600223
#
# Stress axis : x y z
#
# Youngs Moduli (GPa) = 49.51359 45.92644 65.23261
#
# Poissons Ratio (x) = -0.38054 0.48902
# Poissons Ratio (y) = -0.41026 0.41999
# Poissons Ratio (z) = 0.37118 0.29569
#
# Static dielectric constant tensor:
#      x y z
#    x 1.956820 0.000000 0.001110 
#    y 0.000000 1.979950 0.000000 
#    z 0.001110 0.000000 1.955480 
# 
# From -- ./inp_files/30050.got.cif
#   From: 2010.05.17/outbox.cif.g08.bks.cpg/sg14_16_cif.got.tgz:30050.got - 2010.06.03 17:49:19.
