data_PCOD9241366
_publ_section_title
;
Structure prediction by ZEFSAII (Michael W. Deem and Ramdas Pophale) SiO2 
 PCOD9241366
Probable space group: P 21/C
;
_chemical_formula_sum "Si O2"
_cell_formula_units_Z 24
_cell_length_a 26.351143
_cell_length_b 5.162257
_cell_length_c 18.161578
_cell_angle_alpha 90.000000
_cell_angle_beta 148.317815
_cell_angle_gamma 90.000000
_cell_volume 1297.547407
_symmetry_space_group_name_H-M "P 21/C"
_symmetry_group_IT_number 14
_symmetry_cell_setting 'monoclinic'
loop_
_space_group_symop_operation_xyz
x,y,z
-x,1/2+y,1/2-z
-x,-y,-z
x,1/2-y,1/2+z
loop_
_atom_site_type_symbol
_atom_site_label
_atom_site_fract_x
_atom_site_fract_y
_atom_site_fract_z
Si Si1 0.100155 0.596647 0.656077
Si Si2 0.205696 0.098816 0.149302
Si Si3 0.166068 0.086611 0.814492
Si Si4 0.932774 0.941899 0.158032
Si Si5 0.678595 0.559485 0.610679
Si Si6 0.598605 0.048601 0.579348
O O1 0.173217 0.578371 0.677861
O O2 0.136859 0.379933 0.758635
O O3 0.000000 0.500000 0.500000
O O4 0.097051 0.877574 0.688451
O O5 0.234499 0.370826 0.223668
O O6 0.309489 0.990292 0.252075
O O7 0.122742 0.106226 0.986944
O O8 0.148115 0.045119 0.878025
O O9 0.269591 0.031487 0.904148
O O10 0.005566 0.705972 0.265576
O O11 0.614919 0.322394 0.560252
O O12 0.616172 0.821569 0.541153
O O13 0.500000 0.000000 0.500000
#
# Coordination Sequence:
#
# PCOD9241366 Si02
#       6
#     4   4   4   4   4   4
#     4  11  20  34  55  77 105 149 192 231 268 326
#     4   9  22  35  57  81 116 142 196 228 280 333
#     4  11  20  37  52  77 111 149 181 233 275 328
#     4  12  26  37  53  82 120 157 190 225 280 335
#     4   9  19  35  58  82 108 143 185 232 281 331
#     4  10  19  35  62  86 109 136 188 243 287 328
#
# _framework density 18.496435999999999
#
# number of rings (size 3 to 8) (size 9 to 14) (size 15 to 20)
#    1.000    0.667    1.667    4.000    2.333    1.333 
#    0.000    0.000    0.000    2.000    0.000    0.000 
#    0.000    0.000    0.000    0.000    0.000    0.000 
#
# Total GULP energy -133677.750397 kJ/mol
# GULP energy per Si atom -5569.906267 kJ/mol
# Density = 1.845434 g / cm^3
# Si number density = 18.496436 Si / 1000 Ang^3
#
#
#
# Elastic Constant Matrix: (Units=GPa)
#
#
# Indices 1 2 3 4 5 6 
#
# 1 85.5637 13.1601 5.3459 0.0000 -3.3413 0.0000
# 2 13.1601 100.3138 0.4288 0.0000 -2.0574 0.0000
# 3 5.3459 0.4288 28.0726 0.0000 3.6455 0.0000
# 4 0.0000 0.0000 0.0000 15.7704 0.0000 6.6788
# 5 -3.3413 -2.0574 3.6455 0.0000 27.2004 0.0000
# 6 0.0000 0.0000 0.0000 6.6788 0.0000 23.1768
#
#
#
# Elastic Compliance Matrix: (Units=1/GPa)
#
#
# Indices 1 2 3 4 5 6 
#
# 1 0.012149 -0.001548 -0.002512 0.000000 0.001712 0.000000
# 2 -0.001548 0.010183 0.000065 0.000000 0.000571 0.000000
# 3 -0.002512 0.000065 0.036779 0.000000 -0.005233 0.000000
# 4 0.000000 0.000000 0.000000 0.072224 0.000000 -0.020813
# 5 0.001712 0.000571 -0.005233 0.000000 0.037719 0.000000
# 6 0.000000 0.000000 0.000000 -0.020813 0.000000 0.049144
#
#
# Mechanical properties :
#
#
# Convention : Reuss Voigt Hill
#
# Bulk Modulus (GPa) = 19.56148 27.97995 23.77071
# Shear Modulus (GPa) = 20.55676 26.23054 23.39365
#
# Velocity S-wave (km/s) = 3.33737 3.76991 3.56021
# Velocity P-wave (km/s) = 5.04475 5.84035 5.45706
#
# Compressibility (1/GPa) = 0.05112088
#
# Stress axis : x y z
#
# Youngs Moduli (GPa) = 82.31065 98.20058 27.18954
#
# Poissons Ratio (x) = 0.15201 0.06831
# Poissons Ratio (y) = 0.12742 -0.00177
# Poissons Ratio (z) = 0.20678 -0.00639
#
# Static dielectric constant tensor:
#      x y z
#    x 1.696820 0.000000 0.053560 
#    y 0.000000 1.668370 0.000000 
#    z 0.053560 0.000000 1.648960 
# 
# From -- ./inp_files/62098.got.cif
#   From: 2010.05.17/outbox.cif.g08.bks.cpg/sg14_32_cif.got.tgz:62098.got - 2010.06.03 17:49:19.
