data_PCOD9241005
_publ_section_title
;
Structure prediction by ZEFSAII (Michael W. Deem and Ramdas Pophale) SiO2 
 PCOD9241005
Probable space group: P 21/C
;
_chemical_formula_sum "Si O2"
_cell_formula_units_Z 24
_cell_length_a 10.034943
_cell_length_b 14.921807
_cell_length_c 9.420663
_cell_angle_alpha 90.000000
_cell_angle_beta 40.786080
_cell_angle_gamma 90.000000
_cell_volume 921.485180
_symmetry_space_group_name_H-M "P 21/C"
_symmetry_group_IT_number 14
_symmetry_cell_setting 'monoclinic'
loop_
_space_group_symop_operation_xyz
x,y,z
-x,1/2+y,1/2-z
-x,-y,-z
x,1/2-y,1/2+z
loop_
_atom_site_type_symbol
_atom_site_label
_atom_site_fract_x
_atom_site_fract_y
_atom_site_fract_z
Si Si1 0.571096 0.131848 0.901994
Si Si2 0.768583 0.268830 0.583946
Si Si3 0.569057 0.427271 0.071867
Si Si4 0.346330 0.243566 0.747371
Si Si5 0.273311 0.961302 0.947131
Si Si6 0.991614 0.641821 0.314814
O O1 0.720238 0.219233 0.771288
O O2 0.579808 0.093373 0.736819
O O3 0.644511 0.064656 0.962858
O O4 0.358004 0.175824 0.125188
O O5 0.537042 0.269971 0.699933
O O6 0.841807 0.370926 0.509715
O O7 0.928692 0.204391 0.378063
O O8 0.424686 0.350855 0.123816
O O9 0.447886 0.519651 0.187176
O O10 0.793539 0.411169 0.835061
O O11 0.136163 0.214860 0.989154
O O12 0.152534 0.053668 0.065437
#
# Coordination Sequence:
#
# PCOD9241005 Si02
#       6
#     4   4   4   4   4   4
#     4   9  17  33  55  77 103 139 176 214 261 309
#     4   9  20  34  51  79 109 139 174 214 265 314
#     4   9  19  33  50  77 105 134 177 217 259 311
#     4   8  16  33  51  70 104 136 165 212 260 307
#     4  10  19  34  55  76 106 140 173 221 264 304
#     4   9  18  34  54  76 105 139 174 213 262 312
#
# _framework density 26.044913000000001
#
# number of rings (size 3 to 8) (size 9 to 14) (size 15 to 20)
#    0.000    3.333    0.000    0.500    0.000    5.333 
#    0.000   33.333    0.000   10.000    0.000    0.000 
#    0.000    0.000    0.000    0.000    0.000    0.000 
#
# Total GULP energy -133717.207897 kJ/mol
# GULP energy per Si atom -5571.550329 kJ/mol
# Density = 2.598563 g / cm^3
# Si number density = 26.044913 Si / 1000 Ang^3
#
#
#
# Elastic Constant Matrix: (Units=GPa)
#
#
# Indices 1 2 3 4 5 6 
#
# 1 59.2426 27.2982 49.5146 0.0000 -15.4045 0.0000
# 2 27.2982 157.4165 69.3067 0.0000 0.0771 0.0000
# 3 49.5146 69.3067 187.8430 0.0000 -33.7984 0.0000
# 4 0.0000 0.0000 0.0000 63.9730 0.0000 7.9950
# 5 -15.4045 0.0771 -33.7984 0.0000 31.2748 0.0000
# 6 0.0000 0.0000 0.0000 7.9950 0.0000 51.1153
#
#
#
# Elastic Compliance Matrix: (Units=1/GPa)
#
#
# Indices 1 2 3 4 5 6 
#
# 1 0.023085 -0.002254 -0.003980 0.000000 0.007074 0.000000
# 2 -0.002254 0.008182 -0.003262 0.000000 -0.004656 0.000000
# 3 -0.003980 -0.003262 0.008969 0.000000 0.007740 0.000000
# 4 0.000000 0.000000 0.000000 0.015943 0.000000 -0.002494
# 5 0.007074 -0.004656 0.007740 0.000000 0.043836 0.000000
# 6 0.000000 0.000000 0.000000 -0.002494 0.000000 0.019954
#
#
# Mechanical properties :
#
#
# Convention : Reuss Voigt Hill
#
# Bulk Modulus (GPa) = 47.07654 77.41566 62.24610
# Shear Modulus (GPa) = 34.23633 46.49814 40.36724
#
# Velocity S-wave (km/s) = 3.62955 4.22987 3.94116
# Velocity P-wave (km/s) = 5.97321 7.32422 6.68294
#
# Compressibility (1/GPa) = 0.02124200
#
# Stress axis : x y z
#
# Youngs Moduli (GPa) = 43.31853 122.21724 111.49166
#
# Poissons Ratio (x) = 0.27550 0.44379
# Poissons Ratio (y) = 0.09765 0.36374
# Poissons Ratio (z) = 0.17243 0.39873
#
# Static dielectric constant tensor:
#      x y z
#    x 2.346020 0.000000 0.066520 
#    y 0.000000 2.198430 0.000000 
#    z 0.066520 0.000000 2.032900 
# 
# From -- ./inp_files/32530.got.cif
#   From: 2010.05.17/outbox.cif.g08.bks.cpg/sg14_17_cif.got.tgz:32530.got - 2010.06.03 17:49:19.
