data_PCOD9241128
_publ_section_title
;
Structure prediction by ZEFSAII (Michael W. Deem and Ramdas Pophale) SiO2 
 PCOD9241128
Probable space group: P 21/C
;
_chemical_formula_sum "Si O2"
_cell_formula_units_Z 32
_cell_length_a 14.713804
_cell_length_b 16.611693
_cell_length_c 10.892719
_cell_angle_alpha 90.000000
_cell_angle_beta 27.973664
_cell_angle_gamma 90.000000
_cell_volume 1248.845775
_symmetry_space_group_name_H-M "P 21/C"
_symmetry_group_IT_number 14
_symmetry_cell_setting 'monoclinic'
loop_
_space_group_symop_operation_xyz
x,y,z
-x,1/2+y,1/2-z
-x,-y,-z
x,1/2-y,1/2+z
loop_
_atom_site_type_symbol
_atom_site_label
_atom_site_fract_x
_atom_site_fract_y
_atom_site_fract_z
Si Si1 0.588351 0.155589 0.544177
Si Si2 0.429081 0.442751 0.447013
Si Si3 0.577419 0.146399 0.281712
Si Si4 0.838237 0.488088 0.067454
Si Si5 0.961920 0.407986 0.704271
Si Si6 0.006974 0.157266 0.704427
Si Si7 0.200777 0.419754 0.194868
Si Si8 0.367090 0.220447 0.164292
O O1 0.624248 0.118486 0.365617
O O2 0.794345 0.154476 0.366819
O O3 0.495057 0.242092 0.622319
O O4 0.447338 0.100497 0.794197
O O5 0.634436 0.481046 0.237470
O O6 0.248859 0.501597 0.691723
O O7 0.412477 0.368867 0.564989
O O8 0.430666 0.083649 0.397827
O O9 0.440150 0.223703 0.466554
O O10 0.778526 0.167149 0.980153
O O11 0.962141 0.418054 0.851907
O O12 0.944192 0.571176 0.913158
O O13 0.882854 0.494171 0.745893
O O14 0.154546 0.400313 0.392942
O O15 0.090217 0.145627 0.742922
O O16 0.143868 0.220503 0.471740
#
# Coordination Sequence:
#
# PCOD9241128 Si02
#       8
#     4   4   4   4   4   4   4   4
#     4   9  19  35  54  86 118 153 198 248 302 353
#     4   9  16  35  59  84 118 154 206 249 300 366
#     4  10  22  36  56  92 117 159 203 248 304 362
#     4   8  17  32  62  88 106 161 198 246 307 352
#     4   9  17  35  57  91 114 157 197 245 305 363
#     4  10  19  40  58  85 124 152 211 250 304 373
#     4  10  19  34  60  83 121 154 194 252 301 345
#     4   9  21  35  57  85 118 165 198 251 306 367
#
# _framework density 25.623660999999998
#
# number of rings (size 3 to 8) (size 9 to 14) (size 15 to 20)
#    0.750    2.000    1.250    0.000    1.750    0.500 
#    4.500    1.250    0.000    0.750   16.250    0.000 
#    0.000    0.000    0.000    0.000    0.000    0.000 
#
# Total GULP energy -178574.595150 kJ/mol
# GULP energy per Si atom -5580.456098 kJ/mol
# Density = 2.556534 g / cm^3
# Si number density = 25.623661 Si / 1000 Ang^3
#
#
#
# Elastic Constant Matrix: (Units=GPa)
#
#
# Indices 1 2 3 4 5 6 
#
# 1 66.6188 28.4342 35.8418 0.0000 -8.5780 0.0000
# 2 28.4342 77.7527 40.3108 0.0000 -10.2527 0.0000
# 3 35.8418 40.3108 214.3286 0.0000 -1.5486 0.0000
# 4 0.0000 0.0000 0.0000 33.7189 0.0000 1.2639
# 5 -8.5780 -10.2527 -1.5486 0.0000 31.2459 0.0000
# 6 0.0000 0.0000 0.0000 1.2639 0.0000 33.5088
#
#
#
# Elastic Compliance Matrix: (Units=1/GPa)
#
#
# Indices 1 2 3 4 5 6 
#
# 1 0.018869 -0.005363 -0.002123 0.000000 0.003315 0.000000
# 2 -0.005363 0.016451 -0.002170 0.000000 0.003818 0.000000
# 3 -0.002123 -0.002170 0.005421 0.000000 -0.001026 0.000000
# 4 0.000000 0.000000 0.000000 0.029699 0.000000 -0.001120
# 5 0.003315 0.003818 -0.001026 0.000000 0.034116 0.000000
# 6 0.000000 0.000000 0.000000 -0.001120 0.000000 0.029885
#
#
# Mechanical properties :
#
#
# Convention : Reuss Voigt Hill
#
# Bulk Modulus (GPa) = 46.66221 63.09708 54.87965
# Shear Modulus (GPa) = 31.07620 36.63560 33.85590
#
# Velocity S-wave (km/s) = 3.48630 3.78531 3.63888
# Velocity P-wave (km/s) = 5.86991 6.61686 6.25454
#
# Compressibility (1/GPa) = 0.02143062
#
# Stress axis : x y z
#
# Youngs Moduli (GPa) = 52.99810 60.78760 184.45452
#
# Poissons Ratio (x) = 0.32598 0.39157
# Poissons Ratio (y) = 0.28420 0.40021
# Poissons Ratio (z) = 0.11251 0.13189
#
# Static dielectric constant tensor:
#      x y z
#    x 2.068060 0.000000 0.082210 
#    y 0.000000 2.080510 0.000000 
#    z 0.082210 0.000000 2.064270 
# 
# From -- ./inp_files/50812.got.cif
#   From: 2010.05.17/outbox.cif.g08.bks.cpg/sg14_26_cif.got.tgz:50812.got - 2010.06.03 17:49:19.
