data_PCOD9241186
_publ_section_title
;
Structure prediction by ZEFSAII (Michael W. Deem and Ramdas Pophale) SiO2 
 PCOD9241186
Probable space group: P 21/C
;
_chemical_formula_sum "Si O2"
_cell_formula_units_Z 28
_cell_length_a 24.651500
_cell_length_b 5.213492
_cell_length_c 26.462206
_cell_angle_alpha 90.000000
_cell_angle_beta 157.096784
_cell_angle_gamma 90.000000
_cell_volume 1323.560426
_symmetry_space_group_name_H-M "P 21/C"
_symmetry_group_IT_number 14
_symmetry_cell_setting 'monoclinic'
loop_
_space_group_symop_operation_xyz
x,y,z
-x,1/2+y,1/2-z
-x,-y,-z
x,1/2-y,1/2+z
loop_
_atom_site_type_symbol
_atom_site_label
_atom_site_fract_x
_atom_site_fract_y
_atom_site_fract_z
Si Si1 0.942216 0.488605 0.871767
Si Si2 0.452856 0.241993 0.179360
Si Si3 0.783723 0.882880 0.334408
Si Si4 0.085099 0.759151 0.758531
Si Si5 0.343960 0.589165 0.730806
Si Si6 0.126609 0.873389 0.968777
Si Si7 0.181175 0.997700 0.432160
O O1 0.829002 0.566177 0.815678
O O2 0.879485 0.361134 0.767058
O O3 0.026585 0.729690 0.922281
O O4 0.066456 0.335689 0.007974
O O5 0.499693 0.463578 0.259853
O O6 0.519720 0.328578 0.183043
O O7 0.286557 0.266747 0.027423
O O8 0.676277 0.645676 0.247837
O O9 0.718090 0.146110 0.299983
O O10 0.198545 0.650738 0.894277
O O11 0.975681 0.536800 0.652227
O O12 0.984423 0.954844 0.702010
O O13 0.243598 0.481352 0.600025
O O14 0.209333 0.673907 0.005339
#
# Coordination Sequence:
#
# PCOD9241186 Si02
#       7
#     4   4   4   4   4   4   4
#     4   9  21  32  56  84 114 151 195 246 304 352
#     4  12  25  40  63  88 122 165 202 245 294 362
#     4  10  21  36  58  85 115 153 197 252 298 341
#     4  11  20  36  57  86 122 153 195 247 307 365
#     4  11  21  37  58  84 119 152 196 245 294 349
#     4  10  19  35  54  84 119 151 190 244 304 355
#     4  11  23  36  58  88 122 163 196 245 304 366
#
# _framework density 21.155058
#
# number of rings (size 3 to 8) (size 9 to 14) (size 15 to 20)
#    0.000    1.429    4.286    1.714    4.000    1.714 
#    0.000    0.000    0.000    1.714    0.000    0.000 
#    0.000    0.000    0.000    0.000    0.000    0.000 
#
# Total GULP energy -156064.339181 kJ/mol
# GULP energy per Si atom -5573.726399 kJ/mol
# Density = 2.110691 g / cm^3
# Si number density = 21.155058 Si / 1000 Ang^3
#
#
#
# Elastic Constant Matrix: (Units=GPa)
#
#
# Indices 1 2 3 4 5 6 
#
# 1 130.4257 6.2979 24.4401 0.0000 -3.0070 0.0000
# 2 6.2979 52.2824 0.3417 0.0000 1.0300 0.0000
# 3 24.4401 0.3417 27.7145 0.0000 0.3895 0.0000
# 4 0.0000 0.0000 0.0000 15.8995 0.0000 8.5000
# 5 -3.0070 1.0300 0.3895 0.0000 23.7480 0.0000
# 6 0.0000 0.0000 0.0000 8.5000 0.0000 10.4442
#
#
#
# Elastic Compliance Matrix: (Units=1/GPa)
#
#
# Indices 1 2 3 4 5 6 
#
# 1 0.009287 -0.001092 -0.008195 0.000000 0.001358 0.000000
# 2 -0.001092 0.019273 0.000739 0.000000 -0.000986 0.000000
# 3 -0.008195 0.000739 0.043325 0.000000 -0.001780 0.000000
# 4 0.000000 0.000000 0.000000 0.111336 0.000000 -0.090611
# 5 0.001358 -0.000986 -0.001780 0.000000 0.042353 0.000000
# 6 0.000000 0.000000 0.000000 -0.090611 0.000000 0.169490
#
#
# Mechanical properties :
#
#
# Convention : Reuss Voigt Hill
#
# Bulk Modulus (GPa) = 18.25186 30.28689 24.26938
# Shear Modulus (GPa) = 11.61647 21.97453 16.79550
#
# Velocity S-wave (km/s) = 2.34585 3.22644 2.82072
# Velocity P-wave (km/s) = 3.99797 5.31296 4.70167
#
# Compressibility (1/GPa) = 0.05478894
#
# Stress axis : x y z
#
# Youngs Moduli (GPa) = 107.67833 51.88600 23.08124
#
# Poissons Ratio (x) = 0.05665 0.18916
# Poissons Ratio (y) = 0.11757 -0.01706
# Poissons Ratio (z) = 0.88246 -0.03835
#
# Static dielectric constant tensor:
#      x y z
#    x 1.815090 0.000000 -0.026130 
#    y 0.000000 1.875280 0.000000 
#    z -0.026130 0.000000 1.805710 
# 
# From -- ./inp_files/72662.got.cif
#   From: 2010.05.17/outbox.cif.g08.bks.cpg/sg14_37_cif.got.tgz:72662.got - 2010.06.03 17:49:19.
