data_PCOD9241047
_publ_section_title
;
Structure prediction by ZEFSAII (Michael W. Deem and Ramdas Pophale) SiO2 
 PCOD9241047
Probable space group: P 21/C
;
_chemical_formula_sum "Si O2"
_cell_formula_units_Z 28
_cell_length_a 15.754570
_cell_length_b 18.240935
_cell_length_c 5.123546
_cell_angle_alpha 90.000000
_cell_angle_beta 82.450147
_cell_angle_gamma 90.000000
_cell_volume 1459.630534
_symmetry_space_group_name_H-M "P 21/C"
_symmetry_group_IT_number 14
_symmetry_cell_setting 'monoclinic'
loop_
_space_group_symop_operation_xyz
x,y,z
-x,1/2+y,1/2-z
-x,-y,-z
x,1/2-y,1/2+z
loop_
_atom_site_type_symbol
_atom_site_label
_atom_site_fract_x
_atom_site_fract_y
_atom_site_fract_z
Si Si1 0.027533 0.936173 0.786518
Si Si2 0.491293 0.200360 0.972369
Si Si3 0.137270 0.463076 0.859885
Si Si4 0.689266 0.202180 0.836922
Si Si5 0.194380 0.914576 0.946916
Si Si6 0.297939 0.486188 0.073444
Si Si7 0.411373 0.044267 0.034387
O O1 0.100161 0.887746 0.896386
O O2 0.936809 0.908241 0.711352
O O3 0.082225 0.976357 0.539933
O O4 0.000000 0.000000 0.000000
O O5 0.477006 0.261445 0.199597
O O6 0.591508 0.176726 0.926442
O O7 0.434676 0.129707 0.054154
O O8 0.178790 0.508299 0.604576
O O9 0.214561 0.438587 0.016206
O O10 0.699823 0.268517 0.040445
O O11 0.756869 0.141283 0.890130
O O12 0.255484 0.937112 0.681580
O O13 0.356880 0.462701 0.290979
O O14 0.357055 0.487116 0.796504
O O15 0.500000 0.000000 0.000000
#
# Coordination Sequence:
#
# PCOD9241047 Si02
#       7
#     4   4   4   4   4   4   4
#     4   8  16  29  52  82 113 150 173 210 274 356
#     4  10  22  41  58  77 110 158 198 236 285 356
#     4   9  17  32  52  82 120 143 180 214 292 349
#     4  10  23  36  54  77 107 151 200 230 270 338
#     4  10  19  34  56  81 122 149 183 233 293 344
#     4  11  22  34  55  84 117 146 180 241 301 336
#     4  12  24  38  57  87 116 148 195 251 301 335
#
# _framework density 19.182936000000002
#
# number of rings (size 3 to 8) (size 9 to 14) (size 15 to 20)
#    0.000    2.000    1.429    2.143    4.000    2.286 
#    0.000    0.000    0.000    0.000    0.000    6.000 
#    0.000    0.000    0.000    0.000    0.000    0.000 
#
# Total GULP energy -156044.276578 kJ/mol
# GULP energy per Si atom -5573.009878 kJ/mol
# Density = 1.913927 g / cm^3
# Si number density = 19.182936 Si / 1000 Ang^3
#
#
#
# Elastic Constant Matrix: (Units=GPa)
#
#
# Indices 1 2 3 4 5 6 
#
# 1 149.7101 30.9441 31.2194 0.0000 19.9643 0.0000
# 2 30.9441 31.1794 6.9373 0.0000 0.7566 0.0000
# 3 31.2194 6.9373 90.5591 0.0000 0.0955 0.0000
# 4 0.0000 0.0000 0.0000 11.5935 0.0000 8.5177
# 5 19.9643 0.7566 0.0955 0.0000 37.2618 0.0000
# 6 0.0000 0.0000 0.0000 8.5177 0.0000 19.2987
#
#
#
# Elastic Compliance Matrix: (Units=1/GPa)
#
#
# Indices 1 2 3 4 5 6 
#
# 1 0.009764 -0.008973 -0.002673 0.000000 -0.005042 0.000000
# 2 -0.008973 0.040891 -0.000043 0.000000 0.003978 0.000000
# 3 -0.002673 -0.000043 0.011966 0.000000 0.001403 0.000000
# 4 0.000000 0.000000 0.000000 0.127647 0.000000 -0.056338
# 5 -0.005042 0.003978 0.001403 0.000000 0.029454 0.000000
# 6 0.000000 0.000000 0.000000 -0.056338 0.000000 0.076682
#
#
# Mechanical properties :
#
#
# Convention : Reuss Voigt Hill
#
# Bulk Modulus (GPa) = 25.48326 45.51670 35.49998
# Shear Modulus (GPa) = 15.02109 27.12065 21.07087
#
# Velocity S-wave (km/s) = 2.80133 3.76412 3.31783
# Velocity P-wave (km/s) = 4.87611 6.53228 5.76399
#
# Compressibility (1/GPa) = 0.03924145
#
# Stress axis : x y z
#
# Youngs Moduli (GPa) = 102.41457 24.45516 83.57027
#
# Poissons Ratio (x) = 0.21945 0.22342
# Poissons Ratio (y) = 0.91900 0.00361
# Poissons Ratio (z) = 0.27380 0.00106
#
# Static dielectric constant tensor:
#      x y z
#    x 1.751840 0.000000 0.030250 
#    y 0.000000 1.666710 0.000000 
#    z 0.030250 0.000000 1.748370 
# 
# From -- ./inp_files/3656.got.cif
#   From: 2010.05.17/outbox.cif.g08.bks.cpg/sg14_2_cif.got.tgz:3656.got - 2010.06.03 17:49:19.
