data_PCOD9241754
_publ_section_title
;
Structure prediction by ZEFSAII (Michael W. Deem and Ramdas Pophale) SiO2 
 PCOD9241754
Probable space group: P 21/C
;
_chemical_formula_sum "Si O2"
_cell_formula_units_Z 24
_cell_length_a 4.883038
_cell_length_b 22.872588
_cell_length_c 11.167879
_cell_angle_alpha 90.000000
_cell_angle_beta 60.483812
_cell_angle_gamma 90.000000
_cell_volume 1085.434052
_symmetry_space_group_name_H-M "P 21/C"
_symmetry_group_IT_number 14
_symmetry_cell_setting 'monoclinic'
loop_
_space_group_symop_operation_xyz
x,y,z
-x,1/2+y,1/2-z
-x,-y,-z
x,1/2-y,1/2+z
loop_
_atom_site_type_symbol
_atom_site_label
_atom_site_fract_x
_atom_site_fract_y
_atom_site_fract_z
Si Si1 0.473367 0.601570 0.966119
Si Si2 0.072468 0.762233 0.164231
Si Si3 0.226910 0.281227 0.007746
Si Si4 0.284638 0.120446 0.830764
Si Si5 0.076771 0.991597 0.619761
Si Si6 0.307761 0.548631 0.607544
O O1 0.453512 0.622630 0.832803
O O2 0.669943 0.541769 0.906030
O O3 0.664553 0.652254 0.989920
O O4 0.187952 0.575569 0.105647
O O5 0.945417 0.758656 0.331054
O O6 0.963407 0.719763 0.077206
O O7 0.921234 0.822031 0.146008
O O8 0.449317 0.755081 0.083525
O O9 0.482665 0.104961 0.905000
O O10 0.019285 0.069755 0.878965
O O11 0.777788 0.012743 0.755171
O O12 0.000000 0.000000 0.500000
O O13 0.500000 0.500000 0.500000
#
# Coordination Sequence:
#
# PCOD9241754 Si02
#       6
#     4   4   4   4   4   4
#     4   9  21  37  63  88 118 162 206 257 306 374
#     4  11  24  44  67  93 128 169 220 265 318 382
#     4  11  24  44  67  96 128 171 218 267 321 379
#     4  10  21  41  63  81 122 171 199 240 317 382
#     4  10  19  37  61  89 119 155 208 251 308 368
#     4  11  22  38  59  91 123 159 200 247 312 379
#
# _framework density 22.110972
#
# number of rings (size 3 to 8) (size 9 to 14) (size 15 to 20)
#    0.000    1.667    1.667    2.500    2.333    2.667 
#    9.000    0.000    0.000    0.000    0.000    0.000 
#    0.000    0.000    0.000    0.000    0.000    0.000 
#
# Total GULP energy -133618.228986 kJ/mol
# GULP energy per Si atom -5567.426208 kJ/mol
# Density = 2.206065 g / cm^3
# Si number density = 22.110972 Si / 1000 Ang^3
#
#
#
# Elastic Constant Matrix: (Units=GPa)
#
#
# Indices 1 2 3 4 5 6 
#
# 1 92.8603 -10.8271 16.7030 0.0000 -1.9141 0.0000
# 2 -10.8271 63.0657 18.6792 0.0000 -5.9019 0.0000
# 3 16.7030 18.6792 100.0024 0.0000 -12.6459 0.0000
# 4 0.0000 0.0000 0.0000 20.0497 0.0000 2.2475
# 5 -1.9141 -5.9019 -12.6459 0.0000 27.6011 0.0000
# 6 0.0000 0.0000 0.0000 2.2475 0.0000 31.9910
#
#
#
# Elastic Compliance Matrix: (Units=1/GPa)
#
#
# Indices 1 2 3 4 5 6 
#
# 1 0.011522 0.002714 -0.002396 0.000000 0.000282 0.000000
# 2 0.002714 0.017561 -0.003434 0.000000 0.002370 0.000000
# 3 -0.002396 -0.003434 0.011600 0.000000 0.004414 0.000000
# 4 0.000000 0.000000 0.000000 0.050272 0.000000 -0.003532
# 5 0.000282 0.002370 0.004414 0.000000 0.038779 0.000000
# 6 0.000000 0.000000 0.000000 -0.003532 0.000000 0.031507
#
#
# Mechanical properties :
#
#
# Convention : Reuss Voigt Hill
#
# Bulk Modulus (GPa) = 29.02613 33.89317 31.45965
# Shear Modulus (GPa) = 27.93983 31.35324 29.64653
#
# Velocity S-wave (km/s) = 3.55860 3.76971 3.66567
# Velocity P-wave (km/s) = 5.48095 5.85744 5.67232
#
# Compressibility (1/GPa) = 0.03445172
#
# Stress axis : x y z
#
# Youngs Moduli (GPa) = 86.79004 56.94338 86.21056
#
# Poissons Ratio (x) = -0.15455 0.20654
# Poissons Ratio (y) = -0.23556 0.29603
# Poissons Ratio (z) = 0.20793 0.19553
#
# Static dielectric constant tensor:
#      x y z
#    x 2.507110 0.000000 0.468770 
#    y 0.000000 2.008130 0.000000 
#    z 0.468770 0.000000 2.274890 
# 
# From -- ./inp_files/21938.got.cif
#   From: 2010.05.17/outbox.cif.g08.bks.cpg/sg14_11_cif.got.tgz:21938.got - 2010.06.03 17:49:19.
