data_PCOD9241270
_publ_section_title
;
Structure prediction by ZEFSAII (Michael W. Deem and Ramdas Pophale) SiO2 
 PCOD9241270
Probable space group: P 21/C
;
_chemical_formula_sum "Si O2"
_cell_formula_units_Z 28
_cell_length_a 12.009441
_cell_length_b 15.313343
_cell_length_c 9.016366
_cell_angle_alpha 90.000000
_cell_angle_beta 76.839854
_cell_angle_gamma 90.000000
_cell_volume 1614.604778
_symmetry_space_group_name_H-M "P 21/C"
_symmetry_group_IT_number 14
_symmetry_cell_setting 'monoclinic'
loop_
_space_group_symop_operation_xyz
x,y,z
-x,1/2+y,1/2-z
-x,-y,-z
x,1/2-y,1/2+z
loop_
_atom_site_type_symbol
_atom_site_label
_atom_site_fract_x
_atom_site_fract_y
_atom_site_fract_z
Si Si1 0.256409 0.807524 0.347409
Si Si2 0.126835 0.965850 0.483220
Si Si3 0.526803 0.464675 0.825985
Si Si4 0.752947 0.140708 0.322684
Si Si5 0.509495 0.851255 0.185680
Si Si6 0.290441 0.370756 0.877971
Si Si7 0.648379 0.758240 0.889652
O O1 0.164128 0.885600 0.364846
O O2 0.212327 0.714943 0.303157
O O3 0.284739 0.809403 0.514418
O O4 0.374745 0.831066 0.230598
O O5 0.153017 0.925842 0.639174
O O6 0.214018 0.044694 0.426323
O O7 0.000000 0.000000 0.500000
O O8 0.645581 0.413394 0.794753
O O9 0.527814 0.547024 0.716416
O O10 0.422153 0.401180 0.821610
O O11 0.500000 0.500000 0.000000
O O12 0.570149 0.797628 0.300760
O O13 0.569312 0.818274 0.018238
O O14 0.267499 0.316011 0.736640
O O15 0.286581 0.307930 0.021176
#
# Coordination Sequence:
#
# PCOD9241270 Si02
#       7
#     4   4   4   4   4   4   4
#     4  10  19  35  58  85 110 145 193 226 277 337
#     4  10  22  41  61  75 110 153 189 232 283 326
#     4  12  17  32  55  80 119 151 176 218 288 339
#     4  10  20  35  60  84 110 148 184 235 279 336
#     4  11  18  32  52  85 119 152 175 224 280 345
#     4  11  20  39  53  83 112 151 182 226 277 338
#     4  10  22  31  55  83 117 144 182 223 281 340
#
# _framework density 17.341705000000001
#
# number of rings (size 3 to 8) (size 9 to 14) (size 15 to 20)
#    0.857    0.571    5.714    2.571    0.000    0.571 
#    5.143    0.000    0.000    0.857    0.000    0.000 
#    0.000    0.000    0.000    0.000    0.000    0.000 
#
# Total GULP energy -156079.904301 kJ/mol
# GULP energy per Si atom -5574.282296 kJ/mol
# Density = 1.730223 g / cm^3
# Si number density = 17.341705 Si / 1000 Ang^3
#
#
#
# Elastic Constant Matrix: (Units=GPa)
#
#
# Indices 1 2 3 4 5 6 
#
# 1 67.4224 26.5913 10.1354 0.0000 8.1062 0.0000
# 2 26.5913 109.1280 35.4998 0.0000 11.2177 0.0000
# 3 10.1354 35.4998 58.5192 0.0000 9.2712 0.0000
# 4 0.0000 0.0000 0.0000 38.2995 0.0000 5.2388
# 5 8.1062 11.2177 9.2712 0.0000 8.8176 0.0000
# 6 0.0000 0.0000 0.0000 5.2388 0.0000 11.9333
#
#
#
# Elastic Compliance Matrix: (Units=1/GPa)
#
#
# Indices 1 2 3 4 5 6 
#
# 1 0.017533 -0.003260 0.001005 0.000000 -0.013028 0.000000
# 2 -0.003260 0.012606 -0.006019 0.000000 -0.006711 0.000000
# 3 0.001005 -0.006019 0.023396 0.000000 -0.017866 0.000000
# 4 0.000000 0.000000 0.000000 0.027778 0.000000 -0.012195
# 5 -0.013028 -0.006711 -0.017866 0.000000 0.152709 0.000000
# 6 0.000000 0.000000 0.000000 -0.012195 0.000000 0.089153
#
#
# Mechanical properties :
#
#
# Convention : Reuss Voigt Hill
#
# Bulk Modulus (GPa) = 27.03690 42.16918 34.60304
# Shear Modulus (GPa) = 14.20240 22.66628 18.43434
#
# Velocity S-wave (km/s) = 2.86488 3.61922 3.26391
# Velocity P-wave (km/s) = 5.15440 6.46795 5.84818
#
# Compressibility (1/GPa) = 0.03698649
#
# Stress axis : x y z
#
# Youngs Moduli (GPa) = 57.03580 79.32807 42.74151
#
# Poissons Ratio (x) = 0.25861 -0.04295
# Poissons Ratio (y) = 0.18594 0.25727
# Poissons Ratio (z) = -0.05732 0.47750
#
# Static dielectric constant tensor:
#      x y z
#    x 1.564760 0.000000 0.018560 
#    y 0.000000 1.286280 0.000000 
#    z 0.018560 0.000000 1.606790 
# 
# From -- ./inp_files/12799.got.cif
#   From: 2010.05.17/outbox.cif.g08.bks.cpg/sg14_7_cif.got.tgz:12799.got - 2010.06.03 17:49:19.
