data_PCOD9241855
_publ_section_title
;
Structure prediction by ZEFSAII (Michael W. Deem and Ramdas Pophale) SiO2 
 PCOD9241855
Probable space group: P 21/C
;
_chemical_formula_sum "Si O2"
_cell_formula_units_Z 32
_cell_length_a 20.126514
_cell_length_b 11.029988
_cell_length_c 20.228860
_cell_angle_alpha 90.000000
_cell_angle_beta 19.144085
_cell_angle_gamma 90.000000
_cell_volume 1472.705313
_symmetry_space_group_name_H-M "P 21/C"
_symmetry_group_IT_number 14
_symmetry_cell_setting 'monoclinic'
loop_
_space_group_symop_operation_xyz
x,y,z
-x,1/2+y,1/2-z
-x,-y,-z
x,1/2-y,1/2+z
loop_
_atom_site_type_symbol
_atom_site_label
_atom_site_fract_x
_atom_site_fract_y
_atom_site_fract_z
Si Si1 0.413920 0.639494 0.084937
Si Si2 0.291144 0.067281 0.064097
Si Si3 0.643384 0.231425 0.219414
Si Si4 0.984791 0.224950 0.295228
Si Si5 0.306587 0.821597 0.541106
Si Si6 0.306104 0.079379 0.473996
Si Si7 0.383070 0.371064 0.757481
Si Si8 0.665571 0.610816 0.338709
O O1 0.312600 0.667379 0.251457
O O2 0.281750 0.662683 0.143132
O O3 0.500000 0.500000 0.000000
O O4 0.575512 0.751957 0.929073
O O5 0.200708 0.086399 0.222573
O O6 0.127662 0.106195 0.163933
O O7 0.483048 0.159643 0.880559
O O8 0.401006 0.940227 0.953438
O O9 0.523517 0.136656 0.286277
O O10 0.827744 0.277998 0.002772
O O11 0.871547 0.243059 0.332357
O O12 0.137284 0.335194 0.164169
O O13 0.530208 0.764796 0.318579
O O14 0.302469 0.950204 0.509561
O O15 0.280028 0.083145 0.420103
O O16 0.258673 0.394094 0.807621
O O17 0.500000 0.500000 0.500000
#
# Coordination Sequence:
#
# PCOD9241855 Si02
#       8
#     4   4   4   4   4   4   4   4
#     4  10  19  37  66  93 122 167 208 264 325 383
#     4   9  20  39  67  86 120 161 206 253 316 377
#     4  10  20  42  64  85 126 168 202 252 324 376
#     4  11  24  39  60  94 123 167 210 254 309 388
#     4  11  23  39  62  93 127 158 213 263 313 380
#     4  11  23  39  61  86 127 167 207 255 318 375
#     4  10  20  38  65  89 119 164 206 260 315 369
#     4   8  17  36  62  88 117 161 210 254 311 384
#
# _framework density 21.728721
#
# number of rings (size 3 to 8) (size 9 to 14) (size 15 to 20)
#    0.000    2.000    2.500    0.750    3.500    0.000 
#    2.250    0.625    0.000    5.250    0.000    0.000 
#    0.000    0.000    0.000    0.000    0.000    0.000 
#
# Total GULP energy -178386.273530 kJ/mol
# GULP energy per Si atom -5574.571048 kJ/mol
# Density = 2.167927 g / cm^3
# Si number density = 21.728721 Si / 1000 Ang^3
#
#
#
# Elastic Constant Matrix: (Units=GPa)
#
#
# Indices 1 2 3 4 5 6 
#
# 1 120.7239 -2.2356 32.6566 0.0000 25.1544 0.0000
# 2 -2.2356 71.8691 0.1032 0.0000 -5.2892 0.0000
# 3 32.6566 0.1032 49.4125 0.0000 6.2229 0.0000
# 4 0.0000 0.0000 0.0000 4.9769 0.0000 6.2616
# 5 25.1544 -5.2892 6.2229 0.0000 26.8379 0.0000
# 6 0.0000 0.0000 0.0000 6.2616 0.0000 28.7441
#
#
#
# Elastic Compliance Matrix: (Units=1/GPa)
#
#
# Indices 1 2 3 4 5 6 
#
# 1 0.012181 -0.000340 -0.006802 0.000000 -0.009907 0.000000
# 2 -0.000340 0.014136 -0.000201 0.000000 0.003152 0.000000
# 3 -0.006802 -0.000201 0.024656 0.000000 0.000619 0.000000
# 4 0.000000 0.000000 0.000000 0.276787 0.000000 -0.060295
# 5 -0.009907 0.003152 0.000619 0.000000 0.047024 0.000000
# 6 0.000000 0.000000 0.000000 -0.060295 0.000000 0.047924
#
#
# Mechanical properties :
#
#
# Convention : Reuss Voigt Hill
#
# Bulk Modulus (GPa) = 27.55972 33.67265 30.61619
# Shear Modulus (GPa) = 11.12369 26.21053 18.66711
#
# Velocity S-wave (km/s) = 2.26505 3.47690 2.93422
# Velocity P-wave (km/s) = 4.42173 5.62573 5.05967
#
# Compressibility (1/GPa) = 0.03628484
#
# Stress axis : x y z
#
# Youngs Moduli (GPa) = 82.09236 70.74222 40.55831
#
# Poissons Ratio (x) = 0.02408 0.27589
# Poissons Ratio (y) = 0.02795 0.00817
# Poissons Ratio (z) = 0.55841 0.01425
#
# Static dielectric constant tensor:
#      x y z
#    x 1.853190 0.000000 -0.010970 
#    y 0.000000 1.869710 0.000000 
#    z -0.010970 0.000000 1.773560 
# 
# From -- ./inp_files/69902.got.cif
#   From: 2010.05.17/outbox.cif.g08.bks.cpg/sg14_35_cif.got.tgz:69902.got - 2010.06.03 17:49:19.
