data_PCOD9241540
_publ_section_title
;
Structure prediction by ZEFSAII (Michael W. Deem and Ramdas Pophale) SiO2 
 PCOD9241540
Probable space group: P 21/C
;
_chemical_formula_sum "Si O2"
_cell_formula_units_Z 24
_cell_length_a 8.781830
_cell_length_b 7.830260
_cell_length_c 20.652116
_cell_angle_alpha 90.000000
_cell_angle_beta 52.369813
_cell_angle_gamma 90.000000
_cell_volume 1124.691563
_symmetry_space_group_name_H-M "P 21/C"
_symmetry_group_IT_number 14
_symmetry_cell_setting 'monoclinic'
loop_
_space_group_symop_operation_xyz
x,y,z
-x,1/2+y,1/2-z
-x,-y,-z
x,1/2-y,1/2+z
loop_
_atom_site_type_symbol
_atom_site_label
_atom_site_fract_x
_atom_site_fract_y
_atom_site_fract_z
Si Si1 0.443315 0.309278 0.813294
Si Si2 0.592735 0.818233 0.313096
Si Si3 0.949252 0.892836 0.723309
Si Si4 0.698132 0.165001 0.850079
Si Si5 0.416731 0.817010 0.495025
Si Si6 0.016886 0.401824 0.927622
O O1 0.490199 0.289374 0.725582
O O2 0.514444 0.492474 0.820320
O O3 0.556424 0.172960 0.826430
O O4 0.213727 0.294459 0.883213
O O5 0.819049 0.777576 0.249644
O O6 0.530123 0.769298 0.401225
O O7 0.950020 0.987345 0.652664
O O8 0.161063 0.831388 0.686194
O O9 0.838843 0.006901 0.803598
O O10 0.579170 0.185732 0.946657
O O11 0.193217 0.823635 0.530597
O O12 0.500000 0.000000 0.500000
O O13 0.000000 0.500000 0.000000
#
# Coordination Sequence:
#
# PCOD9241540 Si02
#       6
#     4   4   4   4   4   4
#     4  11  21  38  64  89 130 164 215 265 316 376
#     4  11  22  40  61  95 124 170 212 265 315 385
#     4  10  24  38  65  90 129 164 217 266 322 389
#     4  11  22  41  64  93 124 173 212 269 320 380
#     4  11  22  39  65  93 130 169 216 262 319 387
#     4  10  19  36  60  91 116 164 212 250 311 379
#
# _framework density 21.339182999999998
#
# number of rings (size 3 to 8) (size 9 to 14) (size 15 to 20)
#    0.000    1.333    3.333    3.000    2.333    0.667 
#    0.000    0.000    3.667   11.000    0.000    0.000 
#    0.000    0.000    0.000    0.000    0.000    0.000 
#
# Total GULP energy -133767.387044 kJ/mol
# GULP energy per Si atom -5573.641127 kJ/mol
# Density = 2.129061 g / cm^3
# Si number density = 21.339183 Si / 1000 Ang^3
#
#
#
# Elastic Constant Matrix: (Units=GPa)
#
#
# Indices 1 2 3 4 5 6 
#
# 1 129.5836 13.8847 40.7316 0.0000 -1.8817 0.0000
# 2 13.8847 32.8834 15.5284 0.0000 -5.4960 0.0000
# 3 40.7316 15.5284 142.6942 0.0000 20.7069 0.0000
# 4 0.0000 0.0000 0.0000 36.9802 0.0000 1.4077
# 5 -1.8817 -5.4960 20.7069 0.0000 34.0532 0.0000
# 6 0.0000 0.0000 0.0000 1.4077 0.0000 21.2422
#
#
#
# Elastic Compliance Matrix: (Units=1/GPa)
#
#
# Indices 1 2 3 4 5 6 
#
# 1 0.008766 -0.002249 -0.002495 0.000000 0.001639 0.000000
# 2 -0.002249 0.034754 -0.004317 0.000000 0.008110 0.000000
# 3 -0.002495 -0.004317 0.009116 0.000000 -0.006378 0.000000
# 4 0.000000 0.000000 0.000000 0.027110 0.000000 -0.001797
# 5 0.001639 0.008110 -0.006378 0.000000 0.034643 0.000000
# 6 0.000000 0.000000 0.000000 -0.001797 0.000000 0.047195
#
#
# Mechanical properties :
#
#
# Convention : Reuss Voigt Hill
#
# Bulk Modulus (GPa) = 28.97451 49.49452 39.23451
# Shear Modulus (GPa) = 26.14908 34.12289 30.13598
#
# Velocity S-wave (km/s) = 3.50437 4.00318 3.76205
# Velocity P-wave (km/s) = 5.47556 6.67921 6.10711
#
# Compressibility (1/GPa) = 0.03451310
#
# Stress axis : x y z
#
# Youngs Moduli (GPa) = 114.07499 28.77353 109.70304
#
# Poissons Ratio (x) = 0.06472 0.27374
# Poissons Ratio (y) = 0.25658 0.47357
# Poissons Ratio (z) = 0.28465 0.12421
#
# Static dielectric constant tensor:
#      x y z
#    x 1.785810 0.000000 0.023120 
#    y 0.000000 1.804430 0.000000 
#    z 0.023120 0.000000 1.788150 
# 
# From -- ./inp_files/38915.got.cif
#   From: 2010.05.17/outbox.cif.g08.bks.cpg/sg14_20_cif.got.tgz:38915.got - 2010.06.03 17:49:19.
