data_PCOD9241307
_publ_section_title
;
Structure prediction by ZEFSAII (Michael W. Deem and Ramdas Pophale) SiO2 
 PCOD9241307
Probable space group: P 21/C
;
_chemical_formula_sum "Si O2"
_cell_formula_units_Z 28
_cell_length_a 17.816409
_cell_length_b 5.657823
_cell_length_c 12.753446
_cell_angle_alpha 90.000000
_cell_angle_beta 114.168477
_cell_angle_gamma 90.000000
_cell_volume 1172.887661
_symmetry_space_group_name_H-M "P 21/C"
_symmetry_group_IT_number 14
_symmetry_cell_setting 'monoclinic'
loop_
_space_group_symop_operation_xyz
x,y,z
-x,1/2+y,1/2-z
-x,-y,-z
x,1/2-y,1/2+z
loop_
_atom_site_type_symbol
_atom_site_label
_atom_site_fract_x
_atom_site_fract_y
_atom_site_fract_z
Si Si1 0.881755 0.126487 0.172171
Si Si2 0.428234 0.331048 0.921362
Si Si3 0.321278 0.689482 0.716164
Si Si4 0.836473 0.518106 0.316154
Si Si5 0.984069 0.680178 0.897763
Si Si6 0.471473 0.601633 0.686825
Si Si7 0.722459 0.590891 0.640667
O O1 0.865776 0.345544 0.240792
O O2 0.933538 0.208946 0.102478
O O3 0.938339 0.945697 0.272383
O O4 0.789663 0.026838 0.103807
O O5 0.373209 0.495299 0.812373
O O6 0.479599 0.130030 0.892160
O O7 0.357983 0.215568 0.953839
O O8 0.500000 0.500000 0.000000
O O9 0.227050 0.616359 0.645636
O O10 0.377128 0.691950 0.643877
O O11 0.311964 0.913510 0.788882
O O12 0.918515 0.634231 0.405463
O O13 0.779228 0.720091 0.233297
O O14 0.000000 0.500000 0.000000
O O15 0.485559 0.326056 0.725604
#
# Coordination Sequence:
#
# PCOD9241307 Si02
#       7
#     4   4   4   4   4   4   4
#     4  10  20  39  65  91 127 172 216 278 345 407
#     4  10  20  34  59  90 124 161 214 268 331 404
#     4   9  18  35  62  81 120 167 208 263 333 398
#     4   9  19  37  63  87 121 169 208 267 337 403
#     4  11  22  38  68  98 129 167 228 277 344 428
#     4  10  19  35  59  89 118 167 221 269 330 406
#     4   9  18  36  62  81 121 168 208 258 338 397
#
# _framework density 23.872706000000001
#
# number of rings (size 3 to 8) (size 9 to 14) (size 15 to 20)
#    0.000    2.286    2.857    0.000    0.000    1.143 
#    0.000    0.000   34.571    0.000    0.000    0.000 
#    0.000    0.000    0.000    0.000    0.000    0.000 
#
# Total GULP energy -156162.891056 kJ/mol
# GULP energy per Si atom -5577.246109 kJ/mol
# Density = 2.381837 g / cm^3
# Si number density = 23.872706 Si / 1000 Ang^3
#
#
#
# Elastic Constant Matrix: (Units=GPa)
#
#
# Indices 1 2 3 4 5 6 
#
# 1 253.9206 56.7386 51.4081 0.0000 28.9082 0.0000
# 2 56.7386 73.9173 26.5865 0.0000 2.9786 0.0000
# 3 51.4081 26.5865 57.5135 0.0000 9.2805 0.0000
# 4 0.0000 0.0000 0.0000 13.7378 0.0000 16.0903
# 5 28.9082 2.9786 9.2805 0.0000 20.9651 0.0000
# 6 0.0000 0.0000 0.0000 16.0903 0.0000 63.3770
#
#
#
# Elastic Compliance Matrix: (Units=1/GPa)
#
#
# Indices 1 2 3 4 5 6 
#
# 1 0.005990 -0.003345 -0.002748 0.000000 -0.006567 0.000000
# 2 -0.003345 0.018117 -0.006154 0.000000 0.004762 0.000000
# 3 -0.002748 -0.006154 0.023623 0.000000 -0.005794 0.000000
# 4 0.000000 0.000000 0.000000 0.103597 0.000000 -0.026302
# 5 -0.006567 0.004762 -0.005794 0.000000 0.058642 0.000000
# 6 0.000000 0.000000 0.000000 -0.026302 0.000000 0.022456
#
#
# Mechanical properties :
#
#
# Convention : Reuss Voigt Hill
#
# Bulk Modulus (GPa) = 43.03437 72.75752 57.89595
# Shear Modulus (GPa) = 18.89187 36.32387 27.60787
#
# Velocity S-wave (km/s) = 2.81616 3.90496 3.40437
# Velocity P-wave (km/s) = 5.35164 7.13267 6.30536
#
# Compressibility (1/GPa) = 0.02323724
#
# Stress axis : x y z
#
# Youngs Moduli (GPa) = 166.95614 55.19540 42.33136
#
# Poissons Ratio (x) = 0.18460 0.11633
# Poissons Ratio (y) = 0.55839 0.26050
# Poissons Ratio (z) = 0.45879 0.33967
#
# Static dielectric constant tensor:
#      x y z
#    x 1.935460 0.000000 0.008630 
#    y 0.000000 1.974800 0.000000 
#    z 0.008630 0.000000 2.003480 
# 
# From -- ./inp_files/48012.got.cif
#   From: 2010.05.17/outbox.cif.g08.bks.cpg/sg14_25_cif.got.tgz:48012.got - 2010.06.03 17:49:19.
