data_PCOD9241410
_publ_section_title
;
Structure prediction by ZEFSAII (Michael W. Deem and Ramdas Pophale) SiO2 
 PCOD9241410
Probable space group: P 21/C
;
_chemical_formula_sum "Si O2"
_cell_formula_units_Z 16
_cell_length_a 17.166300
_cell_length_b 9.147271
_cell_length_c 9.751141
_cell_angle_alpha 90.000000
_cell_angle_beta 158.147849
_cell_angle_gamma 90.000000
_cell_volume 569.921419
_symmetry_space_group_name_H-M "P 21/C"
_symmetry_group_IT_number 14
_symmetry_cell_setting 'monoclinic'
loop_
_space_group_symop_operation_xyz
x,y,z
-x,1/2+y,1/2-z
-x,-y,-z
x,1/2-y,1/2+z
loop_
_atom_site_type_symbol
_atom_site_label
_atom_site_fract_x
_atom_site_fract_y
_atom_site_fract_z
Si Si1 0.389905 0.156883 0.222792
Si Si2 0.431608 0.110594 0.006887
Si Si3 0.021816 0.330235 0.501872
Si Si4 0.959136 0.413853 0.099413
O O1 0.522234 0.098945 0.310054
O O2 0.258364 0.284910 0.928739
O O3 0.797692 0.549147 0.535875
O O4 0.465038 0.234923 0.484041
O O5 0.192648 0.051720 0.641187
O O6 0.500000 0.000000 0.000000
O O7 0.961181 0.328895 0.245248
O O8 0.899372 0.208885 0.390183
O O9 0.000000 0.500000 0.500000
#
# Coordination Sequence:
#
# PCOD9241410 Si02
#       4
#     4   4   4   4
#     4  10  21  42  62  89 121 165 211 253 298 379
#     4  12  25  41  62  94 131 159 204 263 324 361
#     4  10  19  35  66  92 119 154 220 253 291 357
#     4  10  20  38  65  90 120 164 211 248 299 374
#
# _framework density 28.074047
#
# number of rings (size 3 to 8) (size 9 to 14) (size 15 to 20)
#    1.500    0.000    5.000    0.750    0.000    2.000 
#    0.000    1.250    0.000    0.000    0.000    0.000 
#    0.000    0.000    0.000    0.000    0.000    0.000 
#
# Total GULP energy -89330.297259 kJ/mol
# GULP energy per Si atom -5583.143579 kJ/mol
# Density = 2.801015 g / cm^3
# Si number density = 28.074047 Si / 1000 Ang^3
#
#
#
# Elastic Constant Matrix: (Units=GPa)
#
#
# Indices 1 2 3 4 5 6 
#
# 1 261.1909 61.9855 32.2747 0.0000 -30.5406 0.0000
# 2 61.9855 130.0929 18.4303 0.0000 -4.1593 0.0000
# 3 32.2747 18.4303 35.6396 0.0000 1.4492 0.0000
# 4 0.0000 0.0000 0.0000 41.1220 0.0000 3.2694
# 5 -30.5406 -4.1593 1.4492 0.0000 40.4569 0.0000
# 6 0.0000 0.0000 0.0000 3.2694 0.0000 64.9479
#
#
#
# Elastic Compliance Matrix: (Units=1/GPa)
#
#
# Indices 1 2 3 4 5 6 
#
# 1 0.005194 -0.001793 -0.003934 0.000000 0.003877 0.000000
# 2 -0.001793 0.008955 -0.002994 0.000000 -0.000326 0.000000
# 3 -0.003934 -0.002994 0.033351 0.000000 -0.004472 0.000000
# 4 0.000000 0.000000 0.000000 0.024416 0.000000 -0.001229
# 5 0.003877 -0.000326 -0.004472 0.000000 0.027771 0.000000
# 6 0.000000 0.000000 0.000000 -0.001229 0.000000 0.015459
#
#
# Mechanical properties :
#
#
# Convention : Reuss Voigt Hill
#
# Bulk Modulus (GPa) = 33.26859 72.47829 52.87344
# Shear Modulus (GPa) = 35.06177 50.25420 42.65799
#
# Velocity S-wave (km/s) = 3.53782 4.23550 3.90228
# Velocity P-wave (km/s) = 5.34455 7.05636 6.25925
#
# Compressibility (1/GPa) = 0.03005839
#
# Stress axis : x y z
#
# Youngs Moduli (GPa) = 192.54364 111.66948 29.98434
#
# Poissons Ratio (x) = 0.20027 0.11794
# Poissons Ratio (y) = 0.34531 0.08976
# Poissons Ratio (z) = 0.75737 0.33429
#
# Static dielectric constant tensor:
#      x y z
#    x 2.303100 0.000000 0.082400 
#    y 0.000000 2.187310 0.000000 
#    z 0.082400 0.000000 2.303780 
# 
# From -- ./inp_files/7440.got.cif
#   From: 2010.05.17/outbox.cif.g08.bks.cpg/sg14_4_cif.got.tgz:7440.got - 2010.06.03 17:49:19.
