data_PCOD9241662
_publ_section_title
;
Structure prediction by ZEFSAII (Michael W. Deem and Ramdas Pophale) SiO2 
 PCOD9241662
Probable space group: P 21/C
;
_chemical_formula_sum "Si O2"
_cell_formula_units_Z 32
_cell_length_a 18.523200
_cell_length_b 8.196592
_cell_length_c 14.792511
_cell_angle_alpha 90.000000
_cell_angle_beta 41.539749
_cell_angle_gamma 90.000000
_cell_volume 1489.347763
_symmetry_space_group_name_H-M "P 21/C"
_symmetry_group_IT_number 14
_symmetry_cell_setting 'monoclinic'
loop_
_space_group_symop_operation_xyz
x,y,z
-x,1/2+y,1/2-z
-x,-y,-z
x,1/2-y,1/2+z
loop_
_atom_site_type_symbol
_atom_site_label
_atom_site_fract_x
_atom_site_fract_y
_atom_site_fract_z
Si Si1 0.384768 0.709218 0.270737
Si Si2 0.296746 0.044452 0.394169
Si Si3 0.073748 0.872647 0.554403
Si Si4 0.231701 0.220274 0.803026
Si Si5 0.692563 0.030725 0.990311
Si Si6 0.867360 0.459933 0.197021
Si Si7 0.618441 0.819392 0.498450
Si Si8 0.161992 0.955291 0.982693
O O1 0.383880 0.643254 0.375931
O O2 0.489862 0.648806 0.119926
O O3 0.269531 0.640521 0.344144
O O4 0.375438 0.903521 0.282609
O O5 0.294869 0.196955 0.327910
O O6 0.329923 0.092038 0.463416
O O7 0.176991 0.962123 0.502460
O O8 0.073506 0.683887 0.584659
O O9 0.969149 0.986981 0.662885
O O10 0.093237 0.863909 0.427627
O O11 0.174727 0.367792 0.803857
O O12 0.316181 0.142763 0.653626
O O13 0.143776 0.097734 0.928575
O O14 0.765250 0.116699 0.845258
O O15 0.633850 0.874485 0.004373
O O16 0.786965 0.973765 0.972689
#
# Coordination Sequence:
#
# PCOD9241662 Si02
#       8
#     4   4   4   4   4   4   4   4
#     4   9  20  34  58  79 111 152 188 237 281 336
#     4  10  19  37  55  79 114 150 187 237 288 331
#     4   9  19  37  58  79 114 141 185 234 281 344
#     4  10  21  35  57  79 116 148 184 240 280 337
#     4   9  19  37  53  79 114 142 182 235 277 325
#     4   9  19  37  58  82 105 149 184 226 290 342
#     4  11  20  35  57  82 110 153 194 227 292 336
#     4   9  19  38  53  80 116 143 179 240 276 325
#
# _framework density 21.485917000000001
#
# number of rings (size 3 to 8) (size 9 to 14) (size 15 to 20)
#    0.750    1.750    1.250    0.750    0.000    2.500 
#    4.500    2.500    0.000    0.000    0.000    0.000 
#    0.000    0.000    0.000    0.000    0.000    0.000 
#
# Total GULP energy -178248.916647 kJ/mol
# GULP energy per Si atom -5570.278645 kJ/mol
# Density = 2.143701 g / cm^3
# Si number density = 21.485917 Si / 1000 Ang^3
#
#
#
# Elastic Constant Matrix: (Units=GPa)
#
#
# Indices 1 2 3 4 5 6 
#
# 1 29.4202 12.6983 -5.5844 0.0000 1.0328 0.0000
# 2 12.6983 19.1395 -6.0477 0.0000 3.6002 0.0000
# 3 -5.5844 -6.0477 48.5754 0.0000 3.4863 0.0000
# 4 0.0000 0.0000 0.0000 13.4358 0.0000 5.0652
# 5 1.0328 3.6002 3.4863 0.0000 14.9960 0.0000
# 6 0.0000 0.0000 0.0000 5.0652 0.0000 21.6216
#
#
#
# Elastic Compliance Matrix: (Units=1/GPa)
#
#
# Indices 1 2 3 4 5 6 
#
# 1 0.047988 -0.032239 0.001205 0.000000 0.004155 0.000000
# 2 -0.032239 0.079519 0.007530 0.000000 -0.018621 0.000000
# 3 0.001205 0.007530 0.022168 0.000000 -0.007044 0.000000
# 4 0.000000 0.000000 0.000000 0.081638 0.000000 -0.019125
# 5 0.004155 -0.018621 -0.007044 0.000000 0.072506 0.000000
# 6 0.000000 0.000000 0.000000 -0.019125 0.000000 0.050730
#
#
# Mechanical properties :
#
#
# Convention : Reuss Voigt Hill
#
# Bulk Modulus (GPa) = 9.74011 11.02972 10.38491
# Shear Modulus (GPa) = 11.47368 16.41528 13.94448
#
# Velocity S-wave (km/s) = 2.31337 2.76706 2.55032
# Velocity P-wave (km/s) = 3.41741 3.91834 3.67642
#
# Compressibility (1/GPa) = 0.10266825
#
# Stress axis : x y z
#
# Youngs Moduli (GPa) = 20.83861 12.57557 45.10971
#
# Poissons Ratio (x) = 0.40542 -0.05436
# Poissons Ratio (y) = 0.67181 -0.33969
# Poissons Ratio (z) = -0.02511 -0.09470
#
# Static dielectric constant tensor:
#      x y z
#    x 1.791470 0.000000 -0.006050 
#    y 0.000000 1.813740 0.000000 
#    z -0.006050 0.000000 1.801380 
# 
# From -- ./inp_files/50085.got.cif
#   From: 2010.05.17/outbox.cif.g08.bks.cpg/sg14_26_cif.got.tgz:50085.got - 2010.06.03 17:49:19.
