data_PCOD9241895
_publ_section_title
;
Structure prediction by ZEFSAII (Michael W. Deem and Ramdas Pophale) SiO2 
 PCOD9241895
Probable space group: P 21/C
;
_chemical_formula_sum "Si O2"
_cell_formula_units_Z 32
_cell_length_a 26.182733
_cell_length_b 8.254034
_cell_length_c 13.695706
_cell_angle_alpha 90.000000
_cell_angle_beta 149.716088
_cell_angle_gamma 90.000000
_cell_volume 1492.594558
_symmetry_space_group_name_H-M "P 21/C"
_symmetry_group_IT_number 14
_symmetry_cell_setting 'monoclinic'
loop_
_space_group_symop_operation_xyz
x,y,z
-x,1/2+y,1/2-z
-x,-y,-z
x,1/2-y,1/2+z
loop_
_atom_site_type_symbol
_atom_site_label
_atom_site_fract_x
_atom_site_fract_y
_atom_site_fract_z
Si Si1 0.909222 0.541980 0.118061
Si Si2 0.710399 0.798079 0.266238
Si Si3 0.210982 0.938129 0.128812
Si Si4 0.420450 0.841670 0.560967
Si Si5 0.031819 0.849144 0.984695
Si Si6 0.497645 0.191612 0.637464
Si Si7 0.930669 0.192143 0.255322
Si Si8 0.463178 0.331344 0.394766
O O1 0.933307 0.367564 0.204422
O O2 0.939820 0.669313 0.255267
O O3 0.978732 0.585568 0.140650
O O4 0.792815 0.562249 0.895949
O O5 0.766324 0.629368 0.337937
O O6 0.655951 0.809880 0.282538
O O7 0.609616 0.792005 0.032340
O O8 0.313245 0.851245 0.331733
O O9 0.125315 0.894910 0.067967
O O10 0.171109 0.885029 0.956933
O O11 0.415530 0.790768 0.665280
O O12 0.493712 0.703660 0.638740
O O13 0.475739 0.011613 0.635392
O O14 0.059171 0.716000 0.111730
O O15 0.000000 0.000000 0.000000
O O16 0.514326 0.195715 0.549047
O O17 0.500000 0.500000 0.500000
#
# Coordination Sequence:
#
# PCOD9241895 Si02
#       8
#     4   4   4   4   4   4   4   4
#     4  10  19  38  59  85 117 152 197 247 301 361
#     4   9  21  40  56  87 121 154 198 250 300 351
#     4  10  22  38  62  86 121 157 197 249 310 356
#     4  11  21  41  60  85 127 157 202 257 301 364
#     4   9  19  38  58  89 112 156 197 240 300 366
#     4   9  22  37  59  86 118 161 197 253 303 352
#     4  10  21  37  63  85 119 156 198 253 304 364
#     4  10  22  39  61  85 121 161 207 249 306 363
#
# _framework density 21.439177000000001
#
# number of rings (size 3 to 8) (size 9 to 14) (size 15 to 20)
#    0.750    1.500    0.000    3.375    1.750    1.000 
#   13.500    5.625    0.000    0.000    0.000    0.000 
#    0.000    0.000    0.000    0.000    0.000    0.000 
#
# Total GULP energy -178250.134457 kJ/mol
# GULP energy per Si atom -5570.316702 kJ/mol
# Density = 2.139038 g / cm^3
# Si number density = 21.439177 Si / 1000 Ang^3
#
#
#
# Elastic Constant Matrix: (Units=GPa)
#
#
# Indices 1 2 3 4 5 6 
#
# 1 54.3082 9.8868 4.6241 0.0000 -0.8487 0.0000
# 2 9.8868 50.6920 6.7819 0.0000 2.3163 0.0000
# 3 4.6241 6.7819 57.3876 0.0000 -2.4059 0.0000
# 4 0.0000 0.0000 0.0000 21.8183 0.0000 -1.9474
# 5 -0.8487 2.3163 -2.4059 0.0000 28.0858 0.0000
# 6 0.0000 0.0000 0.0000 -1.9474 0.0000 29.2442
#
#
#
# Elastic Compliance Matrix: (Units=1/GPa)
#
#
# Indices 1 2 3 4 5 6 
#
# 1 0.019179 -0.003632 -0.001083 0.000000 0.000786 0.000000
# 2 -0.003632 0.020829 -0.002254 0.000000 -0.002021 0.000000
# 3 -0.001083 -0.002254 0.017849 0.000000 0.001682 0.000000
# 4 0.000000 0.000000 0.000000 0.046107 0.000000 0.003070
# 5 0.000786 -0.002021 0.001682 0.000000 0.035940 0.000000
# 6 0.000000 0.000000 0.000000 0.003070 0.000000 0.034399
#
#
# Mechanical properties :
#
#
# Convention : Reuss Voigt Hill
#
# Bulk Modulus (GPa) = 22.76830 22.77483 22.77157
# Shear Modulus (GPa) = 24.64500 25.23600 24.94050
#
# Velocity S-wave (km/s) = 3.39415 3.43461 3.41444
# Velocity P-wave (km/s) = 5.09935 5.13564 5.11753
#
# Compressibility (1/GPa) = 0.04392071
#
# Stress axis : x y z
#
# Youngs Moduli (GPa) = 52.14010 48.00971 56.02403
#
# Poissons Ratio (x) = 0.17435 0.06069
# Poissons Ratio (y) = 0.18935 0.12626
# Poissons Ratio (z) = 0.05648 0.10820
#
# Static dielectric constant tensor:
#      x y z
#    x 1.780110 0.000000 -0.008520 
#    y 0.000000 1.811160 0.000000 
#    z -0.008520 0.000000 1.789420 
# 
# From -- ./inp_files/51915.got.cif
#   From: 2010.05.17/outbox.cif.g08.bks.cpg/sg14_26_cif.got.tgz:51915.got - 2010.06.03 17:49:19.
