data_PCOD9241812
_publ_section_title
;
Structure prediction by ZEFSAII (Michael W. Deem and Ramdas Pophale) SiO2 
 PCOD9241812
Probable space group: P 21/C
;
_chemical_formula_sum "Si O2"
_cell_formula_units_Z 24
_cell_length_a 8.972058
_cell_length_b 14.138662
_cell_length_c 14.189813
_cell_angle_alpha 90.000000
_cell_angle_beta 44.079008
_cell_angle_gamma 90.000000
_cell_volume 1252.182482
_symmetry_space_group_name_H-M "P 21/C"
_symmetry_group_IT_number 14
_symmetry_cell_setting 'monoclinic'
loop_
_space_group_symop_operation_xyz
x,y,z
-x,1/2+y,1/2-z
-x,-y,-z
x,1/2-y,1/2+z
loop_
_atom_site_type_symbol
_atom_site_label
_atom_site_fract_x
_atom_site_fract_y
_atom_site_fract_z
Si Si1 0.127900 0.512908 0.184236
Si Si2 0.416741 0.311822 0.333584
Si Si3 0.500160 0.393392 0.757697
Si Si4 0.493345 0.580283 0.890872
Si Si5 0.352107 0.522229 0.658256
Si Si6 0.965071 0.096724 0.071402
O O1 0.296310 0.430706 0.138962
O O2 0.901532 0.475682 0.248150
O O3 0.069291 0.573010 0.303621
O O4 0.272262 0.576794 0.048789
O O5 0.412394 0.199675 0.346691
O O6 0.481835 0.337227 0.196359
O O7 0.564217 0.379638 0.332301
O O8 0.175456 0.344378 0.460208
O O9 0.497369 0.482773 0.828936
O O10 0.392712 0.435949 0.713249
O O11 0.746304 0.364385 0.628025
O O12 0.500000 0.500000 0.500000
O O13 0.000000 0.000000 0.000000
#
# Coordination Sequence:
#
# PCOD9241812 Si02
#       6
#     4   4   4   4   4   4
#     4  10  19  37  64  85 119 160 207 256 309 361
#     4  11  22  39  64  89 123 167 208 251 314 374
#     4  10  23  38  61  93 123 164 213 249 316 373
#     4   9  21  40  60  85 127 167 194 255 325 360
#     4  11  21  39  63  93 121 160 215 262 297 367
#     4  11  18  41  65  81 126 176 200 242 322 385
#
# _framework density 19.166536000000001
#
# number of rings (size 3 to 8) (size 9 to 14) (size 15 to 20)
#    0.000    1.667    6.667    0.000    0.000    5.333 
#    9.000    3.333    3.667    0.000    0.000    0.000 
#    0.000    0.000    0.000    0.000    0.000    0.000 
#
# Total GULP energy -133777.760980 kJ/mol
# GULP energy per Si atom -5574.073374 kJ/mol
# Density = 1.912291 g / cm^3
# Si number density = 19.166536 Si / 1000 Ang^3
#
#
#
# Elastic Constant Matrix: (Units=GPa)
#
#
# Indices 1 2 3 4 5 6 
#
# 1 110.0548 15.4703 38.1226 0.0000 -21.9365 0.0000
# 2 15.4703 60.8703 -4.4396 0.0000 -11.4868 0.0000
# 3 38.1226 -4.4396 113.4187 0.0000 -12.9606 0.0000
# 4 0.0000 0.0000 0.0000 26.0679 0.0000 -5.5275
# 5 -21.9365 -11.4868 -12.9606 0.0000 38.2746 0.0000
# 6 0.0000 0.0000 0.0000 -5.5275 0.0000 5.5021
#
#
#
# Elastic Compliance Matrix: (Units=1/GPa)
#
#
# Indices 1 2 3 4 5 6 
#
# 1 0.011545 -0.002283 -0.003425 0.000000 0.004772 0.000000
# 2 -0.002283 0.018061 0.002023 0.000000 0.004797 0.000000
# 3 -0.003425 0.002023 0.010290 0.000000 0.002129 0.000000
# 4 0.000000 0.000000 0.000000 0.048745 0.000000 0.048970
# 5 0.004772 0.004797 0.002129 0.000000 0.031022 0.000000
# 6 0.000000 0.000000 0.000000 0.048970 0.000000 0.230944
#
#
# Mechanical properties :
#
#
# Convention : Reuss Voigt Hill
#
# Bulk Modulus (GPa) = 30.74476 42.51671 36.63073
# Shear Modulus (GPa) = 13.55671 29.64829 21.60250
#
# Velocity S-wave (km/s) = 2.66242 3.93730 3.36087
# Velocity P-wave (km/s) = 5.05242 6.54987 5.84926
#
# Compressibility (1/GPa) = 0.03252587
#
# Stress axis : x y z
#
# Youngs Moduli (GPa) = 86.61955 55.36668 97.17797
#
# Poissons Ratio (x) = 0.12642 0.33279
# Poissons Ratio (y) = 0.19779 -0.19655
# Poissons Ratio (z) = 0.29663 -0.11199
#
# Static dielectric constant tensor:
#      x y z
#    x 1.713450 0.000000 0.013530 
#    y 0.000000 1.452550 0.000000 
#    z 0.013530 0.000000 1.657630 
# 
# From -- ./inp_files/41055.got.cif
#   From: 2010.05.17/outbox.cif.g08.bks.cpg/sg14_21_cif.got.tgz:41055.got - 2010.06.03 17:49:19.
