data_PCOD9241243
_publ_section_title
;
Structure prediction by ZEFSAII (Michael W. Deem and Ramdas Pophale) SiO2 
 PCOD9241243
Probable space group: P 21/C
;
_chemical_formula_sum "Si O2"
_cell_formula_units_Z 20
_cell_length_a 8.427324
_cell_length_b 8.178849
_cell_length_c 17.486667
_cell_angle_alpha 90.000000
_cell_angle_beta 43.282061
_cell_angle_gamma 90.000000
_cell_volume 826.330315
_symmetry_space_group_name_H-M "P 21/C"
_symmetry_group_IT_number 14
_symmetry_cell_setting 'monoclinic'
loop_
_space_group_symop_operation_xyz
x,y,z
-x,1/2+y,1/2-z
-x,-y,-z
x,1/2-y,1/2+z
loop_
_atom_site_type_symbol
_atom_site_label
_atom_site_fract_x
_atom_site_fract_y
_atom_site_fract_z
Si Si1 0.262674 0.835775 0.013707
Si Si2 0.797502 0.549838 0.714087
Si Si3 0.480635 0.349867 0.736378
Si Si4 0.664871 0.656398 0.928687
Si Si5 0.012213 0.001540 0.404854
O O1 0.349997 0.840524 0.895744
O O2 0.493625 0.810840 0.983062
O O3 0.117117 0.667418 0.075772
O O4 0.066715 0.968355 0.100242
O O5 0.633916 0.394770 0.756079
O O6 0.670278 0.684781 0.704867
O O7 0.773686 0.622345 0.807147
O O8 0.280300 0.483395 0.790124
O O9 0.868129 0.645141 0.918697
O O10 0.500000 0.500000 0.000000
O O11 0.000000 0.000000 0.500000
#
# Coordination Sequence:
#
# PCOD9241243 Si02
#       5
#     4   4   4   4   4
#     4   9  19  35  56  84 117 150 191 244 290 338
#     4  10  20  36  60  87 120 155 195 240 291 347
#     4  10  19  35  57  86 118 155 195 240 290 346
#     4   9  18  35  56  79 112 156 195 234 283 351
#     4  10  19  35  57  82 113 158 201 232 287 360
#
# _framework density 24.203395
#
# number of rings (size 3 to 8) (size 9 to 14) (size 15 to 20)
#    0.000    2.400    0.000    4.200    0.000    0.000 
#    0.000   23.000    0.000    7.200    0.000    0.000 
#    0.000    0.000    0.000    0.000    0.000    0.000 
#
# Total GULP energy -111709.461311 kJ/mol
# GULP energy per Si atom -5585.473066 kJ/mol
# Density = 2.414831 g / cm^3
# Si number density = 24.203395 Si / 1000 Ang^3
#
#
#
# Elastic Constant Matrix: (Units=GPa)
#
#
# Indices 1 2 3 4 5 6 
#
# 1 144.3718 26.6816 36.4267 0.0000 -23.1445 0.0000
# 2 26.6816 63.6567 10.0067 0.0000 -9.4507 0.0000
# 3 36.4267 10.0067 130.5890 0.0000 -33.9956 0.0000
# 4 0.0000 0.0000 0.0000 27.0065 0.0000 -6.4166
# 5 -23.1445 -9.4507 -33.9956 0.0000 28.1492 0.0000
# 6 0.0000 0.0000 0.0000 -6.4166 0.0000 19.1853
#
#
#
# Elastic Compliance Matrix: (Units=1/GPa)
#
#
# Indices 1 2 3 4 5 6 
#
# 1 0.008436 -0.002657 -0.000840 0.000000 0.005029 0.000000
# 2 -0.002657 0.017376 0.000525 0.000000 0.004283 0.000000
# 3 -0.000840 0.000525 0.011257 0.000000 0.013080 0.000000
# 4 0.000000 0.000000 0.000000 0.040225 0.000000 0.013453
# 5 0.005029 0.004283 0.013080 0.000000 0.056894 0.000000
# 6 0.000000 0.000000 0.000000 0.013453 0.000000 0.056623
#
#
# Mechanical properties :
#
#
# Convention : Reuss Voigt Hill
#
# Bulk Modulus (GPa) = 32.13025 53.87196 43.00110
# Shear Modulus (GPa) = 24.13932 32.56837 28.35384
#
# Velocity S-wave (km/s) = 3.16151 3.67224 3.42641
# Velocity P-wave (km/s) = 5.16051 6.34719 5.78436
#
# Compressibility (1/GPa) = 0.03112332
#
# Stress axis : x y z
#
# Youngs Moduli (GPa) = 118.54128 57.54942 88.83463
#
# Poissons Ratio (x) = 0.15292 0.07465
# Poissons Ratio (y) = 0.31498 -0.04660
# Poissons Ratio (z) = 0.09961 -0.03019
#
# Static dielectric constant tensor:
#      x y z
#    x 1.937960 0.000000 0.017780 
#    y 0.000000 2.071950 0.000000 
#    z 0.017780 0.000000 1.665720 
# 
# From -- ./inp_files/28427.got.cif
#   From: 2010.05.17/outbox.cif.g08.bks.cpg/sg14_15_cif.got.tgz:28427.got - 2010.06.03 17:49:19.
