data_PCOD9241202
_publ_section_title
;
Structure prediction by ZEFSAII (Michael W. Deem and Ramdas Pophale) SiO2 
 PCOD9241202
Probable space group: P 21/C
;
_chemical_formula_sum "Si O2"
_cell_formula_units_Z 28
_cell_length_a 9.577001
_cell_length_b 4.996105
_cell_length_c 29.093878
_cell_angle_alpha 90.000000
_cell_angle_beta 73.252957
_cell_angle_gamma 90.000000
_cell_volume 1333.032068
_symmetry_space_group_name_H-M "P 21/C"
_symmetry_group_IT_number 14
_symmetry_cell_setting 'monoclinic'
loop_
_space_group_symop_operation_xyz
x,y,z
-x,1/2+y,1/2-z
-x,-y,-z
x,1/2-y,1/2+z
loop_
_atom_site_type_symbol
_atom_site_label
_atom_site_fract_x
_atom_site_fract_y
_atom_site_fract_z
Si Si1 0.714113 0.940912 0.592453
Si Si2 0.098666 0.006478 0.234877
Si Si3 0.166523 0.373635 0.824294
Si Si4 0.443954 0.412129 0.055922
Si Si5 0.032833 0.373071 0.645001
Si Si6 0.266285 0.895317 0.059156
Si Si7 0.159757 0.920582 0.968040
O O1 0.765249 0.659940 0.566709
O O2 0.716019 0.923459 0.647245
O O3 0.564311 0.030217 0.582901
O O4 0.832687 0.158399 0.564032
O O5 0.204288 0.063360 0.267663
O O6 0.138581 0.081915 0.179177
O O7 0.039593 0.704249 0.242298
O O8 0.102772 0.075333 0.834538
O O9 0.032701 0.577308 0.848272
O O10 0.305999 0.608930 0.076595
O O11 0.392925 0.107058 0.058670
O O12 0.500000 0.500000 0.000000
O O13 0.119585 0.474122 0.592836
O O14 0.249012 0.867441 0.006252
O O15 0.000000 0.000000 0.000000
#
# Coordination Sequence:
#
# PCOD9241202 Si02
#       7
#     4   4   4   4   4   4   4
#     4  12  23  36  54  75 107 139 180 214 251 316
#     4   8  16  31  54  78 107 136 164 205 264 326
#     4  10  19  35  55  83 110 135 168 216 269 319
#     4  12  23  40  54  71 102 152 190 210 250 301
#     4  10  20  35  56  84 108 134 171 216 272 315
#     4  12  22  37  56  75 106 139 182 223 250 309
#     4  12  23  35  53  79 106 135 166 220 275 307
#
# _framework density 21.004746999999998
#
# number of rings (size 3 to 8) (size 9 to 14) (size 15 to 20)
#    0.000    1.143    2.857    5.143    0.000    0.000 
#    0.000    0.000    0.000    1.714    0.000    0.000 
#    0.000    0.000    0.000    0.000    0.000    0.000 
#
# Total GULP energy -156474.018465 kJ/mol
# GULP energy per Si atom -5588.357802 kJ/mol
# Density = 2.095694 g / cm^3
# Si number density = 21.004747 Si / 1000 Ang^3
#
#
#
# Elastic Constant Matrix: (Units=GPa)
#
#
# Indices 1 2 3 4 5 6 
#
# 1 62.9222 -0.9535 19.8777 0.0000 38.3089 0.0000
# 2 -0.9535 62.1139 6.0335 0.0000 5.0215 0.0000
# 3 19.8777 6.0335 72.2624 0.0000 46.8557 0.0000
# 4 0.0000 0.0000 0.0000 21.1536 0.0000 -2.3660
# 5 38.3089 5.0215 46.8557 0.0000 44.5909 0.0000
# 6 0.0000 0.0000 0.0000 -2.3660 0.0000 16.5461
#
#
#
# Elastic Compliance Matrix: (Units=1/GPa)
#
#
# Indices 1 2 3 4 5 6 
#
# 1 0.085950 0.006423 0.075848 0.000000 -0.154265 0.000000
# 2 0.006423 0.016734 0.005134 0.000000 -0.012797 0.000000
# 3 0.075848 0.005134 0.110378 0.000000 -0.181724 0.000000
# 4 0.000000 0.000000 0.000000 0.048042 0.000000 0.006870
# 5 -0.154265 -0.012797 -0.181724 0.000000 0.347352 0.000000
# 6 0.000000 0.000000 0.000000 0.006870 0.000000 0.061419
#
#
# Mechanical properties :
#
#
# Convention : Reuss Voigt Hill
#
# Bulk Modulus (GPa) = 2.57818 27.46819 15.02318
# Shear Modulus (GPa) = 8.00825 27.94752 17.97789
#
# Velocity S-wave (km/s) = 1.95470 3.65161 2.92874
# Velocity P-wave (km/s) = 2.51487 5.55738 4.31330
#
# Compressibility (1/GPa) = 0.38787110
#
# Stress axis : x y z
#
# Youngs Moduli (GPa) = 11.63466 59.75873 9.05981
#
# Poissons Ratio (x) = -0.38384 -0.68717
# Poissons Ratio (y) = -0.07473 -0.04651
# Poissons Ratio (z) = -0.88246 -0.30680
#
# Static dielectric constant tensor:
#      x y z
#    x 1.777300 0.000000 0.040980 
#    y 0.000000 1.740490 0.000000 
#    z 0.040980 0.000000 1.780330 
# 
# From -- ./inp_files/78407.got.cif
#   From: 2010.05.17/outbox.cif.g08.bks.cpg/sg14_40_cif.got.tgz:78407.got - 2010.06.03 17:49:19.
