data_PCOD9241013
_publ_section_title
;
Structure prediction by ZEFSAII (Michael W. Deem and Ramdas Pophale) SiO2 
 PCOD9241013
Probable space group: P 21/C
;
_chemical_formula_sum "Si O2"
_cell_formula_units_Z 24
_cell_length_a 15.184649
_cell_length_b 5.090565
_cell_length_c 15.719828
_cell_angle_alpha 90.000000
_cell_angle_beta 52.916324
_cell_angle_gamma 90.000000
_cell_volume 969.367557
_symmetry_space_group_name_H-M "P 21/C"
_symmetry_group_IT_number 14
_symmetry_cell_setting 'monoclinic'
loop_
_space_group_symop_operation_xyz
x,y,z
-x,1/2+y,1/2-z
-x,-y,-z
x,1/2-y,1/2+z
loop_
_atom_site_type_symbol
_atom_site_label
_atom_site_fract_x
_atom_site_fract_y
_atom_site_fract_z
Si Si1 0.618381 0.411852 0.098980
Si Si2 0.431584 0.091414 0.958191
Si Si3 0.804689 0.864831 0.814514
Si Si4 0.141143 0.636954 0.134789
Si Si5 0.769628 0.645442 0.141622
Si Si6 0.101524 0.862496 0.986536
O O1 0.542222 0.625025 0.096016
O O2 0.658563 0.525236 0.165763
O O3 0.566951 0.127046 0.116450
O O4 0.736202 0.387976 0.979867
O O5 0.307778 0.116035 0.066335
O O6 0.500000 0.000000 0.000000
O O7 0.880049 0.651336 0.817968
O O8 0.771201 0.782157 0.739455
O O9 0.854953 0.154651 0.791449
O O10 0.073475 0.762095 0.097064
O O11 0.855604 0.403327 0.082585
O O12 0.806363 0.905467 0.068281
O O13 0.000000 0.000000 0.000000
#
# Coordination Sequence:
#
# PCOD9241013 Si02
#       6
#     4   4   4   4   4   4
#     4   9  18  33  54  76 106 149 188 218 271 344
#     4  10  19  34  55  81 110 146 187 228 273 330
#     4  10  20  35  57  82 111 148 188 230 277 331
#     4   9  18  35  56  77 108 149 187 220 274 350
#     4  11  21  37  58  84 112 148 192 237 281 336
#     4  11  22  38  60  84 111 148 192 237 284 339
#
# _framework density 24.758409
#
# number of rings (size 3 to 8) (size 9 to 14) (size 15 to 20)
#    0.000    2.000    0.000    7.000    0.000    0.000 
#    0.000    5.000    0.000    0.000    0.000    0.000 
#    0.000    0.000    0.000    0.000    0.000    0.000 
#
# Total GULP energy -134215.262603 kJ/mol
# GULP energy per Si atom -5592.302608 kJ/mol
# Density = 2.470206 g / cm^3
# Si number density = 24.758409 Si / 1000 Ang^3
#
#
#
# Elastic Constant Matrix: (Units=GPa)
#
#
# Indices 1 2 3 4 5 6 
#
# 1 75.4026 28.6967 28.5490 0.0000 20.0786 0.0000
# 2 28.6967 148.9612 34.1952 0.0000 3.8575 0.0000
# 3 28.5490 34.1952 97.8280 0.0000 22.2329 0.0000
# 4 0.0000 0.0000 0.0000 25.6705 0.0000 19.6790
# 5 20.0786 3.8575 22.2329 0.0000 46.9626 0.0000
# 6 0.0000 0.0000 0.0000 19.6790 0.0000 33.7474
#
#
#
# Elastic Compliance Matrix: (Units=1/GPa)
#
#
# Indices 1 2 3 4 5 6 
#
# 1 0.016739 -0.002448 -0.002744 0.000000 -0.005657 0.000000
# 2 -0.002448 0.007676 -0.002312 0.000000 0.001511 0.000000
# 3 -0.002744 -0.002312 0.012910 0.000000 -0.004749 0.000000
# 4 0.000000 0.000000 0.000000 0.070447 0.000000 -0.041080
# 5 -0.005657 0.001511 -0.004749 0.000000 0.025836 0.000000
# 6 0.000000 0.000000 0.000000 -0.041080 0.000000 0.053587
#
#
# Mechanical properties :
#
#
# Convention : Reuss Voigt Hill
#
# Bulk Modulus (GPa) = 44.80786 56.11930 50.46358
# Shear Modulus (GPa) = 23.85012 36.65948 30.25480
#
# Velocity S-wave (km/s) = 3.10710 3.85215 3.49951
# Velocity P-wave (km/s) = 5.56861 6.51930 6.06262
#
# Compressibility (1/GPa) = 0.02231751
#
# Stress axis : x y z
#
# Youngs Moduli (GPa) = 59.74070 130.26819 77.45855
#
# Poissons Ratio (x) = 0.31895 0.21251
# Poissons Ratio (y) = 0.14627 0.17909
# Poissons Ratio (z) = 0.16390 0.30120
#
# Static dielectric constant tensor:
#      x y z
#    x 2.032160 0.000000 -0.009330 
#    y 0.000000 1.920290 0.000000 
#    z -0.009330 0.000000 1.990820 
# 
# From -- ./inp_files/45905.got.cif
#   From: 2010.05.17/outbox.cif.g08.bks.cpg/sg14_23_cif.got.tgz:45905.got - 2010.06.03 17:49:19.
