data_PCOD9241034
_publ_section_title
;
Structure prediction by ZEFSAII (Michael W. Deem and Ramdas Pophale) SiO2 
 PCOD9241034
Probable space group: P 21/C
;
_chemical_formula_sum "Si O2"
_cell_formula_units_Z 32
_cell_length_a 12.045422
_cell_length_b 19.023147
_cell_length_c 9.413819
_cell_angle_alpha 90.000000
_cell_angle_beta 62.762809
_cell_angle_gamma 90.000000
_cell_volume 1917.919406
_symmetry_space_group_name_H-M "P 21/C"
_symmetry_group_IT_number 14
_symmetry_cell_setting 'monoclinic'
loop_
_space_group_symop_operation_xyz
x,y,z
-x,1/2+y,1/2-z
-x,-y,-z
x,1/2-y,1/2+z
loop_
_atom_site_type_symbol
_atom_site_label
_atom_site_fract_x
_atom_site_fract_y
_atom_site_fract_z
Si Si1 0.271684 0.179940 0.543095
Si Si2 0.156088 0.964620 0.700897
Si Si3 0.206298 0.936436 0.994644
Si Si4 0.307610 0.179989 0.183538
Si Si5 0.606397 0.969343 0.538285
Si Si6 0.486129 0.566835 0.408588
Si Si7 0.105090 0.406868 0.627237
Si Si8 0.053847 0.380208 0.332940
O O1 0.280220 0.188272 0.367991
O O2 0.325675 0.246257 0.594457
O O3 0.342955 0.107248 0.539782
O O4 0.131291 0.170538 0.685862
O O5 0.208228 0.938604 0.821890
O O6 0.035506 0.918575 0.730530
O O7 0.273082 0.979143 0.530604
O O8 0.097728 0.041020 0.767759
O O9 0.340560 0.916682 0.975031
O O10 0.094645 0.883377 0.099056
O O11 0.167570 0.015688 0.067302
O O12 0.430032 0.132068 0.092295
O O13 0.192917 0.139051 0.175829
O O14 0.544933 0.957203 0.725336
O O15 0.500000 0.000000 0.500000
O O16 0.500000 0.500000 0.500000
O O17 0.089050 0.372985 0.479123
#
# Coordination Sequence:
#
# PCOD9241034 Si02
#       8
#     4   4   4   4   4   4   4   4
#     4  10  22  36  52  79 102 142 187 220 273 319
#     4   8  15  29  52  81 101 134 172 209 261 307
#     4   9  15  30  53  78 111 136 169 212 266 319
#     4  11  22  36  55  76 107 143 181 225 267 326
#     4  10  19  34  56  79 108 141 182 224 262 326
#     4  11  21  32  51  85 113 142 178 219 274 319
#     4   9  16  30  54  79 103 137 173 216 260 314
#     4   8  16  31  54  76 100 136 173 212 260 310
#
# _framework density 16.684747000000002
#
# number of rings (size 3 to 8) (size 9 to 14) (size 15 to 20)
#    0.000    2.500    2.500    2.250    0.000    1.000 
#    2.250    2.500    2.750    1.500    0.000    0.000 
#    0.000    0.000    0.000    0.000    0.000    0.000 
#
# Total GULP energy -178241.747997 kJ/mol
# GULP energy per Si atom -5570.054625 kJ/mol
# Density = 1.664677 g / cm^3
# Si number density = 16.684747 Si / 1000 Ang^3
#
#
#
# Elastic Constant Matrix: (Units=GPa)
#
#
# Indices 1 2 3 4 5 6 
#
# 1 139.0277 50.0962 49.3529 0.0000 -20.3036 0.0000
# 2 50.0962 74.3811 44.7412 0.0000 -0.3075 0.0000
# 3 49.3529 44.7412 71.2175 0.0000 -15.9833 0.0000
# 4 0.0000 0.0000 0.0000 19.9865 0.0000 3.5616
# 5 -20.3036 -0.3075 -15.9833 0.0000 21.4805 0.0000
# 6 0.0000 0.0000 0.0000 3.5616 0.0000 26.9806
#
#
#
# Elastic Compliance Matrix: (Units=1/GPa)
#
#
# Indices 1 2 3 4 5 6 
#
# 1 0.011644 -0.006851 -0.001581 0.000000 0.009731 0.000000
# 2 -0.006851 0.028434 -0.017380 0.000000 -0.019001 0.000000
# 3 -0.001581 -0.017380 0.030810 0.000000 0.021182 0.000000
# 4 0.000000 0.000000 0.000000 0.051239 0.000000 -0.006764
# 5 0.009731 -0.019001 0.021182 0.000000 0.071241 0.000000
# 6 0.000000 0.000000 0.000000 -0.006764 0.000000 0.037957
#
#
# Mechanical properties :
#
#
# Convention : Reuss Voigt Hill
#
# Bulk Modulus (GPa) = 51.91123 63.66745 57.78934
# Shear Modulus (GPa) = 17.27895 23.05192 20.16543
#
# Velocity S-wave (km/s) = 3.22159 3.72104 3.48029
# Velocity P-wave (km/s) = 6.70960 7.53017 7.13169
#
# Compressibility (1/GPa) = 0.01926366
#
# Stress axis : x y z
#
# Youngs Moduli (GPa) = 85.88209 35.16895 32.45748
#
# Poissons Ratio (x) = 0.24094 0.05132
# Poissons Ratio (y) = 0.58838 0.56411
# Poissons Ratio (z) = 0.13578 0.61123
#
# Static dielectric constant tensor:
#      x y z
#    x 1.572560 0.000000 -0.027950 
#    y 0.000000 1.556900 0.000000 
#    z -0.027950 0.000000 1.545760 
# 
# From -- ./inp_files/13877.got.cif
#   From: 2010.05.17/outbox.cif.g08.bks.cpg/sg14_7_cif.got.tgz:13877.got - 2010.06.03 17:49:19.
