data_PCOD9241531
_publ_section_title
;
Structure prediction by ZEFSAII (Michael W. Deem and Ramdas Pophale) SiO2 
 PCOD9241531
Probable space group: P 21/C
;
_chemical_formula_sum "Si O2"
_cell_formula_units_Z 32
_cell_length_a 13.059481
_cell_length_b 8.169296
_cell_length_c 16.791223
_cell_angle_alpha 90.000000
_cell_angle_beta 119.962029
_cell_angle_gamma 90.000000
_cell_volume 1551.992272
_symmetry_space_group_name_H-M "P 21/C"
_symmetry_group_IT_number 14
_symmetry_cell_setting 'monoclinic'
loop_
_space_group_symop_operation_xyz
x,y,z
-x,1/2+y,1/2-z
-x,-y,-z
x,1/2-y,1/2+z
loop_
_atom_site_type_symbol
_atom_site_label
_atom_site_fract_x
_atom_site_fract_y
_atom_site_fract_z
Si Si1 0.079250 0.736466 0.049501
Si Si2 0.977707 0.418633 0.315642
Si Si3 0.837446 0.316544 0.661649
Si Si4 0.444889 0.989478 0.676511
Si Si5 0.139110 0.296802 0.646565
Si Si6 0.368139 0.145523 0.138313
Si Si7 0.687768 0.314373 0.451359
Si Si8 0.768704 0.021984 0.290965
O O1 0.013701 0.806552 0.102244
O O2 0.200639 0.822584 0.067109
O O3 0.135924 0.567470 0.102705
O O4 0.987435 0.754506 0.942236
O O5 0.933848 0.319984 0.221902
O O6 0.878036 0.544913 0.306558
O O7 0.092658 0.523435 0.340994
O O8 0.744848 0.274010 0.558258
O O9 0.776895 0.352329 0.722737
O O10 0.570737 0.935381 0.759755
O O11 0.395407 0.838730 0.604514
O O12 0.358639 0.984648 0.719851
O O13 0.430362 0.178835 0.641832
O O14 0.234394 0.313388 0.612691
O O15 0.190421 0.154272 0.721132
O O16 0.369338 0.995443 0.075993
#
# Coordination Sequence:
#
# PCOD9241531 Si02
#       8
#     4   4   4   4   4   4   4   4
#     4  10  19  36  60  87 116 152 197 251 296 350
#     4  11  21  36  54  82 126 159 193 234 300 366
#     4  11  23  37  55  87 126 169 188 237 309 359
#     4  10  22  40  65  91 114 154 213 254 301 343
#     4  11  19  35  60  91 114 151 205 243 298 363
#     4  11  21  38  68  90 113 154 203 263 302 341
#     4  11  21  40  63  90 123 156 203 254 291 362
#     4   9  22  37  57  85 120 159 190 250 297 358
#
# _framework density 20.618658
#
# number of rings (size 3 to 8) (size 9 to 14) (size 15 to 20)
#    0.000    1.500    3.750    2.250    0.000    0.000 
#    9.000    0.625    0.000    1.500    0.000    0.000 
#    0.000    0.000    0.000    0.000    0.000    0.000 
#
# Total GULP energy -178342.889787 kJ/mol
# GULP energy per Si atom -5573.215306 kJ/mol
# Density = 2.057173 g / cm^3
# Si number density = 20.618658 Si / 1000 Ang^3
#
#
#
# Elastic Constant Matrix: (Units=GPa)
#
#
# Indices 1 2 3 4 5 6 
#
# 1 16.3781 5.3346 4.0712 0.0000 3.9192 0.0000
# 2 5.3346 72.9350 8.4416 0.0000 2.5672 0.0000
# 3 4.0712 8.4416 81.5148 0.0000 1.1603 0.0000
# 4 0.0000 0.0000 0.0000 14.1798 0.0000 3.0978
# 5 3.9192 2.5672 1.1603 0.0000 23.3084 0.0000
# 6 0.0000 0.0000 0.0000 3.0978 0.0000 22.5779
#
#
#
# Elastic Compliance Matrix: (Units=1/GPa)
#
#
# Indices 1 2 3 4 5 6 
#
# 1 0.065566 -0.004116 -0.002700 0.000000 -0.010437 0.000000
# 2 -0.004116 0.014185 -0.001252 0.000000 -0.000808 0.000000
# 3 -0.002700 -0.001252 0.012533 0.000000 -0.000032 0.000000
# 4 0.000000 0.000000 0.000000 0.072702 0.000000 -0.009975
# 5 -0.010437 -0.000808 -0.000032 0.000000 0.044749 0.000000
# 6 0.000000 0.000000 0.000000 -0.009975 0.000000 0.045660
#
#
# Mechanical properties :
#
#
# Convention : Reuss Voigt Hill
#
# Bulk Modulus (GPa) = 13.13215 22.94698 18.03956
# Shear Modulus (GPa) = 16.83996 22.21191 19.52594
#
# Velocity S-wave (km/s) = 2.86096 3.28574 3.08068
# Velocity P-wave (km/s) = 4.15888 5.05452 4.62842
#
# Compressibility (1/GPa) = 0.07614900
#
# Stress axis : x y z
#
# Youngs Moduli (GPa) = 15.25172 70.49592 79.79154
#
# Poissons Ratio (x) = 0.29015 0.21543
# Poissons Ratio (y) = 0.06277 0.09989
# Poissons Ratio (z) = 0.04118 0.08826
#
# Static dielectric constant tensor:
#      x y z
#    x 1.728990 0.000000 0.003490 
#    y 0.000000 1.824240 0.000000 
#    z 0.003490 0.000000 1.723980 
# 
# From -- ./inp_files/58911.got.cif
#   From: 2010.05.17/outbox.cif.g08.bks.cpg/sg14_30_cif.got.tgz:58911.got - 2010.06.03 17:49:19.
