data_PCOD9241543
_publ_section_title
;
Structure prediction by ZEFSAII (Michael W. Deem and Ramdas Pophale) SiO2 
 PCOD9241543
Probable space group: P 21/C
;
_chemical_formula_sum "Si O2"
_cell_formula_units_Z 32
_cell_length_a 18.073740
_cell_length_b 14.426449
_cell_length_c 12.115506
_cell_angle_alpha 90.000000
_cell_angle_beta 149.383893
_cell_angle_gamma 90.000000
_cell_volume 1608.823959
_symmetry_space_group_name_H-M "P 21/C"
_symmetry_group_IT_number 14
_symmetry_cell_setting 'monoclinic'
loop_
_space_group_symop_operation_xyz
x,y,z
-x,1/2+y,1/2-z
-x,-y,-z
x,1/2-y,1/2+z
loop_
_atom_site_type_symbol
_atom_site_label
_atom_site_fract_x
_atom_site_fract_y
_atom_site_fract_z
Si Si1 0.446788 0.021188 0.308554
Si Si2 0.867130 0.237230 0.210689
Si Si3 0.424246 0.617657 0.424924
Si Si4 0.902896 0.419035 0.930039
Si Si5 0.818753 0.086877 0.962384
Si Si6 0.621509 0.190796 0.537255
Si Si7 0.945486 0.435759 0.241317
Si Si8 0.376158 0.491706 0.171388
O O1 0.478484 0.130169 0.331497
O O2 0.500000 0.000000 0.500000
O O3 0.290117 0.974814 0.101868
O O4 0.547786 0.975451 0.346585
O O5 0.923068 0.172861 0.382363
O O6 0.702729 0.266383 0.035495
O O7 0.948080 0.335272 0.301656
O O8 0.869557 0.172916 0.104367
O O9 0.275173 0.571883 0.286026
O O10 0.407028 0.726042 0.415727
O O11 0.433683 0.581481 0.312866
O O12 0.567561 0.587905 0.675020
O O13 0.954090 0.412968 0.121790
O O14 0.000000 0.500000 0.000000
O O15 0.736537 0.126016 0.749595
O O16 0.937760 0.012813 0.078387
O O17 0.791239 0.486648 0.059774
#
# Coordination Sequence:
#
# PCOD9241543 Si02
#       8
#     4   4   4   4   4   4   4   4
#     4  10  21  38  60  88 122 161 204 255 316 379
#     4  11  20  39  64  86 128 172 207 258 318 384
#     4   9  20  36  66  88 117 163 212 259 311 369
#     4  10  19  36  60  93 120 165 214 259 313 377
#     4  11  23  40  64  90 129 169 206 265 323 374
#     4  10  21  38  62  92 118 169 215 249 318 390
#     4  11  23  39  64  95 126 167 218 262 322 381
#     4  10  19  39  61  91 122 158 211 265 309 374
#
# _framework density 19.890305999999999
#
# number of rings (size 3 to 8) (size 9 to 14) (size 15 to 20)
#    0.000    1.750    2.500    3.750    0.000    0.500 
#    2.250    0.000    0.000    0.000    0.000    0.000 
#    0.000    0.000    0.000    0.000    0.000    0.000 
#
# Total GULP energy -178349.115371 kJ/mol
# GULP energy per Si atom -5573.409855 kJ/mol
# Density = 1.984503 g / cm^3
# Si number density = 19.890306 Si / 1000 Ang^3
#
#
#
# Elastic Constant Matrix: (Units=GPa)
#
#
# Indices 1 2 3 4 5 6 
#
# 1 70.5632 19.9417 9.7642 0.0000 0.2546 0.0000
# 2 19.9417 117.3394 45.6697 0.0000 20.8533 0.0000
# 3 9.7642 45.6697 50.4885 0.0000 8.7042 0.0000
# 4 0.0000 0.0000 0.0000 32.4595 0.0000 9.5983
# 5 0.2546 20.8533 8.7042 0.0000 18.6618 0.0000
# 6 0.0000 0.0000 0.0000 9.5983 0.0000 39.4680
#
#
#
# Elastic Compliance Matrix: (Units=1/GPa)
#
#
# Indices 1 2 3 4 5 6 
#
# 1 0.015080 -0.002776 -0.000983 0.000000 0.003355 0.000000
# 2 -0.002776 0.015614 -0.011511 0.000000 -0.012041 0.000000
# 3 -0.000983 -0.011511 0.030654 0.000000 -0.001421 0.000000
# 4 0.000000 0.000000 0.000000 0.033195 0.000000 -0.008073
# 5 0.003355 -0.012041 -0.001421 0.000000 0.067658 0.000000
# 6 0.000000 0.000000 0.000000 -0.008073 0.000000 0.027300
#
#
# Mechanical properties :
#
#
# Convention : Reuss Voigt Hill
#
# Bulk Modulus (GPa) = 32.46055 43.23802 37.84928
# Shear Modulus (GPa) = 21.70961 28.98555 25.34758
#
# Velocity S-wave (km/s) = 3.30732 3.82156 3.57370
# Velocity P-wave (km/s) = 5.56235 6.42323 6.00823
#
# Compressibility (1/GPa) = 0.03080663
#
# Stress axis : x y z
#
# Youngs Moduli (GPa) = 66.31165 64.04366 32.62190
#
# Poissons Ratio (x) = 0.17781 0.03208
# Poissons Ratio (y) = 0.18411 0.37552
# Poissons Ratio (z) = 0.06522 0.73722
#
# Static dielectric constant tensor:
#      x y z
#    x 1.748200 0.000000 0.032280 
#    y 0.000000 1.716490 0.000000 
#    z 0.032280 0.000000 1.759490 
# 
# From -- ./inp_files/34176.got.cif
#   From: 2010.05.17/outbox.cif.g08.bks.cpg/sg14_18_cif.got.tgz:34176.got - 2010.06.03 17:49:19.
