data_PCOD9241407
_publ_section_title
;
Structure prediction by ZEFSAII (Michael W. Deem and Ramdas Pophale) SiO2 
 PCOD9241407
Probable space group: P 21/C
;
_chemical_formula_sum "Si O2"
_cell_formula_units_Z 24
_cell_length_a 8.648880
_cell_length_b 21.976137
_cell_length_c 5.373993
_cell_angle_alpha 90.000000
_cell_angle_beta 120.773408
_cell_angle_gamma 90.000000
_cell_volume 877.609473
_symmetry_space_group_name_H-M "P 21/C"
_symmetry_group_IT_number 14
_symmetry_cell_setting 'monoclinic'
loop_
_space_group_symop_operation_xyz
x,y,z
-x,1/2+y,1/2-z
-x,-y,-z
x,1/2-y,1/2+z
loop_
_atom_site_type_symbol
_atom_site_label
_atom_site_fract_x
_atom_site_fract_y
_atom_site_fract_z
Si Si1 0.216385 0.479226 0.414158
Si Si2 0.908164 0.408679 0.415056
Si Si3 0.210279 0.729698 0.600426
Si Si4 0.187628 0.277243 0.210338
Si Si5 0.624046 0.894858 0.295880
Si Si6 0.554293 0.423170 0.846509
O O1 0.127031 0.543405 0.391604
O O2 0.259700 0.455079 0.175189
O O3 0.416635 0.480348 0.699975
O O4 0.100983 0.427020 0.459679
O O5 0.862191 0.339539 0.448575
O O6 0.761847 0.426221 0.083738
O O7 0.310244 0.750550 0.932419
O O8 0.028105 0.729495 0.949463
O O9 0.250975 0.269178 0.545985
O O10 0.239749 0.340561 0.134622
O O11 0.530093 0.890526 0.481686
O O12 0.481300 0.891920 0.949686
#
# Coordination Sequence:
#
# PCOD9241407 Si02
#       6
#     4   4   4   4   4   4
#     4   9  23  44  73 105 134 186 223 278 355 403
#     4  11  22  47  71 106 138 179 231 286 336 416
#     4  10  23  40  65  93 133 178 220 280 333 390
#     4  10  19  35  65  92 123 178 223 270 331 403
#     4  10  22  43  67  98 134 178 226 274 348 403
#     4  10  24  44  68 105 136 175 222 287 340 404
#
# _framework density 27.347014999999999
#
# number of rings (size 3 to 8) (size 9 to 14) (size 15 to 20)
#    1.000    1.000    0.000    3.500    4.667    2.000 
#    6.000    6.667    0.000    0.000    0.000    0.000 
#    0.000    0.000    0.000    0.000    0.000    0.000 
#
# Total GULP energy -134308.184405 kJ/mol
# GULP energy per Si atom -5596.174350 kJ/mol
# Density = 2.728477 g / cm^3
# Si number density = 27.347015 Si / 1000 Ang^3
#
#
#
# Elastic Constant Matrix: (Units=GPa)
#
#
# Indices 1 2 3 4 5 6 
#
# 1 99.5075 24.4697 43.5237 0.0000 -3.7524 0.0000
# 2 24.4697 90.7727 20.7477 0.0000 -11.0494 0.0000
# 3 43.5237 20.7477 137.1760 0.0000 -19.2249 0.0000
# 4 0.0000 0.0000 0.0000 24.7033 0.0000 -5.4527
# 5 -3.7524 -11.0494 -19.2249 0.0000 63.5994 0.0000
# 6 0.0000 0.0000 0.0000 -5.4527 0.0000 34.9151
#
#
#
# Elastic Compliance Matrix: (Units=1/GPa)
#
#
# Indices 1 2 3 4 5 6 
#
# 1 0.012228 -0.002572 -0.003605 0.000000 -0.000815 0.000000
# 2 -0.002572 0.012095 -0.000773 0.000000 0.001716 0.000000
# 3 -0.003605 -0.000773 0.008878 0.000000 0.002337 0.000000
# 4 0.000000 0.000000 0.000000 0.041926 0.000000 0.006548
# 5 -0.000815 0.001716 0.002337 0.000000 0.016680 0.000000
# 6 0.000000 0.000000 0.000000 0.006548 0.000000 0.029663
#
#
# Mechanical properties :
#
#
# Convention : Reuss Voigt Hill
#
# Bulk Modulus (GPa) = 51.80737 56.10427 53.95582
# Shear Modulus (GPa) = 35.26010 40.55789 37.90900
#
# Velocity S-wave (km/s) = 3.59466 3.85526 3.72724
# Velocity P-wave (km/s) = 6.01783 6.35434 6.18837
#
# Compressibility (1/GPa) = 0.01930227
#
# Stress axis : x y z
#
# Youngs Moduli (GPa) = 81.78009 82.67676 112.63662
#
# Poissons Ratio (x) = 0.21260 0.40606
# Poissons Ratio (y) = 0.21030 0.08707
# Poissons Ratio (z) = 0.29482 0.06391
#
# Static dielectric constant tensor:
#      x y z
#    x 2.096030 0.000000 -0.035720 
#    y 0.000000 2.184580 0.000000 
#    z -0.035720 0.000000 2.225200 
# 
# From -- ./inp_files/1688.got.cif
#   From: 2010.05.17/outbox.cif.g08.bks.cpg/sg14_1_cif.got.tgz:1688.got - 2010.06.03 17:49:19.
