data_PCOD9241782
_publ_section_title
;
Structure prediction by ZEFSAII (Michael W. Deem and Ramdas Pophale) SiO2 
 PCOD9241782
Probable space group: P 21/C
;
_chemical_formula_sum "Si O2"
_cell_formula_units_Z 26
_cell_length_a 21.260038
_cell_length_b 5.231308
_cell_length_c 9.661425
_cell_angle_alpha 90.000000
_cell_angle_beta 123.195508
_cell_angle_gamma 90.000000
_cell_volume 899.168207
_symmetry_space_group_name_H-M "P 21/C"
_symmetry_group_IT_number 14
_symmetry_cell_setting 'monoclinic'
loop_
_space_group_symop_operation_xyz
x,y,z
-x,1/2+y,1/2-z
-x,-y,-z
x,1/2-y,1/2+z
loop_
_atom_site_type_symbol
_atom_site_label
_atom_site_fract_x
_atom_site_fract_y
_atom_site_fract_z
Si Si1 0.588583 0.242238 0.333764
Si Si2 0.758678 0.178703 0.453161
Si Si3 0.911224 0.228519 0.202898
Si Si4 0.776789 0.819668 0.795380
Si Si5 0.067827 0.271322 0.961739
Si Si6 0.500000 0.500000 0.000000
Si Si7 0.609494 0.749337 0.022013
O O1 0.675330 0.200898 0.405148
O O2 0.586142 0.496649 0.420689
O O3 0.566713 0.012557 0.413806
O O4 0.543305 0.269206 0.139528
O O5 0.824787 0.239445 0.642357
O O6 0.769187 0.400313 0.351956
O O7 0.769476 0.897552 0.404862
O O8 0.922798 0.463030 0.109513
O O9 0.979449 0.242767 0.394494
O O10 0.920160 0.963993 0.130331
O O11 0.699524 0.775425 0.619131
O O12 0.862767 0.765582 0.848256
O O13 0.575138 0.704252 0.131340
#
# Coordination Sequence:
#
# PCOD9241782 Si02
#       7
#     4   4   4   4   4   2   4
#     4  12  27  45  69 100 128 169 216 266 329 391
#     4  10  19  37  62  90 128 173 212 264 326 378
#     4   8  14  25  48  83 119 160 214 258 302 372
#     4  10  19  37  62  90 128 173 212 264 326 378
#     4   8  14  25  48  83 119 160 214 258 302 372
#     4  12  28  50  72  92 134 168 210 276 322 398
#     4  12  27  45  69 100 128 169 216 266 329 391
#
# _framework density 28.915611999999999
#
# number of rings (size 3 to 8) (size 9 to 14) (size 15 to 20)
#    0.000    1.846    1.538    2.769    0.000    1.231 
#    0.000    0.000    0.000    1.846    0.000    0.000 
#    0.000    0.000    0.000    0.000    0.000    0.000 
#
# Total GULP energy -145388.233814 kJ/mol
# GULP energy per Si atom -5591.855147 kJ/mol
# Density = 2.884980 g / cm^3
# Si number density = 28.915612 Si / 1000 Ang^3
#
#
#
# Elastic Constant Matrix: (Units=GPa)
#
#
# Indices 1 2 3 4 5 6 
#
# 1 144.9488 31.1653 83.8059 0.0000 46.2838 0.0000
# 2 31.1653 177.3896 67.1334 0.0000 -29.1006 0.0000
# 3 83.8059 67.1334 140.6754 0.0000 49.2921 0.0000
# 4 0.0000 0.0000 0.0000 47.7661 0.0000 5.8254
# 5 46.2838 -29.1006 49.2921 0.0000 73.1655 0.0000
# 6 0.0000 0.0000 0.0000 5.8254 0.0000 29.8069
#
#
#
# Elastic Compliance Matrix: (Units=1/GPa)
#
#
# Indices 1 2 3 4 5 6 
#
# 1 0.011189 -0.000829 -0.004810 0.000000 -0.004167 0.000000
# 2 -0.000829 0.010499 -0.008068 0.000000 0.010136 0.000000
# 3 -0.004810 -0.008068 0.018172 0.000000 -0.012409 0.000000
# 4 0.000000 0.000000 0.000000 0.021447 0.000000 -0.004191
# 5 -0.004167 0.010136 -0.012409 0.000000 0.028696 0.000000
# 6 0.000000 0.000000 0.000000 -0.004191 0.000000 0.034368
#
#
# Mechanical properties :
#
#
# Convention : Reuss Voigt Hill
#
# Bulk Modulus (GPa) = 80.34427 91.91365 86.12896
# Shear Modulus (GPa) = 32.06502 48.87499 40.47001
#
# Velocity S-wave (km/s) = 3.33365 4.11574 3.74517
# Velocity P-wave (km/s) = 6.53175 7.37846 6.96798
#
# Compressibility (1/GPa) = 0.01244644
#
# Stress axis : x y z
#
# Youngs Moduli (GPa) = 89.37503 95.24593 55.02901
#
# Poissons Ratio (x) = 0.07898 0.26467
# Poissons Ratio (y) = 0.07411 0.44398
# Poissons Ratio (z) = 0.42986 0.76845
#
# Static dielectric constant tensor:
#      x y z
#    x 3.463630 0.000000 -0.386890 
#    y 0.000000 2.228440 0.000000 
#    z -0.386890 0.000000 2.459000 
# 
# From -- ./inp_files/35554.got.cif
#   From: 2010.05.17/outbox.cif.g08.bks.cpg/sg14_18_cif.got.tgz:35554.got - 2010.06.03 17:49:19.
