data_PCOD9241438
_publ_section_title
;
Structure prediction by ZEFSAII (Michael W. Deem and Ramdas Pophale) SiO2 
 PCOD9241438
Probable space group: P 21/C
;
_chemical_formula_sum "Si O2"
_cell_formula_units_Z 28
_cell_length_a 8.685830
_cell_length_b 13.572675
_cell_length_c 14.753159
_cell_angle_alpha 90.000000
_cell_angle_beta 110.908603
_cell_angle_gamma 90.000000
_cell_volume 1624.721151
_symmetry_space_group_name_H-M "P 21/C"
_symmetry_group_IT_number 14
_symmetry_cell_setting 'monoclinic'
loop_
_space_group_symop_operation_xyz
x,y,z
-x,1/2+y,1/2-z
-x,-y,-z
x,1/2-y,1/2+z
loop_
_atom_site_type_symbol
_atom_site_label
_atom_site_fract_x
_atom_site_fract_y
_atom_site_fract_z
Si Si1 0.994310 0.957335 0.643635
Si Si2 0.244589 0.796055 0.769196
Si Si3 0.686268 0.126066 0.845724
Si Si4 0.407482 0.250646 0.216064
Si Si5 0.190853 0.068835 0.211229
Si Si6 0.893190 0.175789 0.061045
Si Si7 0.117626 0.357913 0.060771
O O1 0.143759 0.884382 0.701891
O O2 0.878232 0.965188 0.706588
O O3 0.894896 0.909291 0.539189
O O4 0.066357 0.060362 0.623954
O O5 0.213541 0.696578 0.704291
O O6 0.442045 0.805473 0.802085
O O7 0.188503 0.791950 0.861170
O O8 0.503761 0.172913 0.801262
O O9 0.701926 0.016048 0.812346
O O10 0.764171 0.136601 0.960864
O O11 0.293645 0.170143 0.240811
O O12 0.293098 0.311553 0.123507
O O13 0.032644 0.095669 0.115996
O O14 0.986476 0.269581 0.038747
#
# Coordination Sequence:
#
# PCOD9241438 Si02
#       7
#     4   4   4   4   4   4   4
#     4  10  20  35  60  81 112 146 194 224 273 325
#     4   9  20  35  55  84 110 149 179 233 272 329
#     4  10  20  37  58  79 113 150 175 235 279 326
#     4   9  22  35  56  81 121 136 186 232 275 333
#     4  10  21  37  57  84 108 150 189 229 270 336
#     4  10  19  37  59  80 112 145 194 220 279 328
#     4  10  19  36  56  86 108 149 185 235 265 333
#
# _framework density 17.233726000000001
#
# number of rings (size 3 to 8) (size 9 to 14) (size 15 to 20)
#    0.857    1.429    1.429    1.286    2.000    1.143 
#    0.000    1.429    0.000    0.000    0.000    0.000 
#    0.000    0.000    0.000    0.000    0.000    0.000 
#
# Total GULP energy -155938.800288 kJ/mol
# GULP energy per Si atom -5569.242867 kJ/mol
# Density = 1.719450 g / cm^3
# Si number density = 17.233726 Si / 1000 Ang^3
#
#
#
# Elastic Constant Matrix: (Units=GPa)
#
#
# Indices 1 2 3 4 5 6 
#
# 1 43.4979 4.4529 37.0777 0.0000 16.3011 0.0000
# 2 4.4529 58.3291 33.4942 0.0000 3.9563 0.0000
# 3 37.0777 33.4942 99.9396 0.0000 6.1168 0.0000
# 4 0.0000 0.0000 0.0000 20.6622 0.0000 0.1614
# 5 16.3011 3.9563 6.1168 0.0000 24.5788 0.0000
# 6 0.0000 0.0000 0.0000 0.1614 0.0000 17.9057
#
#
#
# Elastic Compliance Matrix: (Units=1/GPa)
#
#
# Indices 1 2 3 4 5 6 
#
# 1 0.050372 0.009740 -0.020118 0.000000 -0.029969 0.000000
# 2 0.009740 0.023181 -0.010925 0.000000 -0.007472 0.000000
# 3 -0.020118 -0.010925 0.020520 0.000000 0.009995 0.000000
# 4 0.000000 0.000000 0.000000 0.048401 0.000000 -0.000436
# 5 -0.029969 -0.007472 0.009995 0.000000 0.059277 0.000000
# 6 0.000000 0.000000 0.000000 -0.000436 0.000000 0.055852
#
#
# Mechanical properties :
#
#
# Convention : Reuss Voigt Hill
#
# Bulk Modulus (GPa) = 19.43037 39.09070 29.26053
# Shear Modulus (GPa) = 15.75471 21.07878 18.41675
#
# Velocity S-wave (km/s) = 3.02682 3.50110 3.27256
# Velocity P-wave (km/s) = 4.84919 6.25104 5.59420
#
# Compressibility (1/GPa) = 0.05146582
#
# Stress axis : x y z
#
# Youngs Moduli (GPa) = 19.85212 43.13908 48.73372
#
# Poissons Ratio (x) = -0.42016 0.98043
# Poissons Ratio (y) = -0.19335 0.53242
# Poissons Ratio (z) = 0.39939 0.47130
#
# Static dielectric constant tensor:
#      x y z
#    x 1.568830 0.000000 0.009080 
#    y 0.000000 1.577210 0.000000 
#    z 0.009080 0.000000 1.561860 
# 
# From -- ./inp_files/40718.got.cif
#   From: 2010.05.17/outbox.cif.g08.bks.cpg/sg14_21_cif.got.tgz:40718.got - 2010.06.03 17:49:19.
