data_PCOD9241417
_publ_section_title
;
Structure prediction by ZEFSAII (Michael W. Deem and Ramdas Pophale) SiO2 
 PCOD9241417
Probable space group: P 21/C
;
_chemical_formula_sum "Si O2"
_cell_formula_units_Z 32
_cell_length_a 17.586839
_cell_length_b 8.152174
_cell_length_c 21.628962
_cell_angle_alpha 90.000000
_cell_angle_beta 155.851094
_cell_angle_gamma 90.000000
_cell_volume 1268.634301
_symmetry_space_group_name_H-M "P 21/C"
_symmetry_group_IT_number 14
_symmetry_cell_setting 'monoclinic'
loop_
_space_group_symop_operation_xyz
x,y,z
-x,1/2+y,1/2-z
-x,-y,-z
x,1/2-y,1/2+z
loop_
_atom_site_type_symbol
_atom_site_label
_atom_site_fract_x
_atom_site_fract_y
_atom_site_fract_z
Si Si1 0.680573 0.428366 0.708861
Si Si2 0.063753 0.426062 0.667390
Si Si3 0.272259 0.232351 0.919001
Si Si4 0.269657 0.764299 0.373874
Si Si5 0.259318 0.945840 0.989733
Si Si6 0.629957 0.360049 0.797398
Si Si7 0.421175 0.475992 0.124093
Si Si8 0.654953 0.685436 0.209405
O O1 0.469914 0.353204 0.550155
O O2 0.753683 0.376507 0.696037
O O3 0.756473 0.350593 0.829796
O O4 0.688986 0.620748 0.729219
O O5 0.157203 0.277149 0.774355
O O6 0.139139 0.593931 0.752187
O O7 0.157944 0.408258 0.670863
O O8 0.850994 0.414473 0.529098
O O9 0.174508 0.104725 0.891998
O O10 0.306265 0.400601 0.981851
O O11 0.247605 0.691219 0.427020
O O12 0.481167 0.835279 0.532824
O O13 0.466396 0.006388 0.159704
O O14 0.699330 0.433259 0.913215
O O15 0.519903 0.190175 0.720814
O O16 0.572847 0.605662 0.210979
#
# Coordination Sequence:
#
# PCOD9241417 Si02
#       8
#     4   4   4   4   4   4   4   4
#     4  10  20  34  58  82 114 146 183 254 277 330
#     4  12  22  33  55  86 122 150 190 230 296 354
#     4  10  19  36  54  82 114 145 197 233 292 333
#     4  12  20  35  57  85 118 149 194 233 287 333
#     4  10  23  37  52  82 123 158 176 239 294 355
#     4  10  21  38  58  83 117 139 204 233 297 328
#     4  10  21  35  60  87 105 151 187 253 273 335
#     4  12  20  35  59  86 116 147 200 237 283 332
#
# _framework density 25.223976
#
# number of rings (size 3 to 8) (size 9 to 14) (size 15 to 20)
#    0.000    1.500    5.000    4.500    0.000    0.000 
#    0.000    0.625    0.000    0.000    0.000   15.750 
#    0.000    0.000    0.000    0.000    0.000    0.000 
#
# Total GULP energy -178620.650592 kJ/mol
# GULP energy per Si atom -5581.895331 kJ/mol
# Density = 2.516656 g / cm^3
# Si number density = 25.223976 Si / 1000 Ang^3
#
#
#
# Elastic Constant Matrix: (Units=GPa)
#
#
# Indices 1 2 3 4 5 6 
#
# 1 111.6108 27.8527 18.0277 0.0000 2.1845 0.0000
# 2 27.8527 117.5467 12.1935 0.0000 -4.4268 0.0000
# 3 18.0277 12.1935 26.0888 0.0000 7.4721 0.0000
# 4 0.0000 0.0000 0.0000 15.9554 0.0000 -11.6699
# 5 2.1845 -4.4268 7.4721 0.0000 26.3471 0.0000
# 6 0.0000 0.0000 0.0000 -11.6699 0.0000 45.9697
#
#
#
# Elastic Compliance Matrix: (Units=1/GPa)
#
#
# Indices 1 2 3 4 5 6 
#
# 1 0.010453 -0.001765 -0.006601 0.000000 0.000709 0.000000
# 2 -0.001765 0.009451 -0.004021 0.000000 0.002875 0.000000
# 3 -0.006601 -0.004021 0.048769 0.000000 -0.013959 0.000000
# 4 0.000000 0.000000 0.000000 0.076966 0.000000 0.019539
# 5 0.000709 0.002875 -0.013959 0.000000 0.042338 0.000000
# 6 0.000000 0.000000 0.000000 0.019539 0.000000 0.026714
#
#
# Mechanical properties :
#
#
# Convention : Reuss Voigt Hill
#
# Bulk Modulus (GPa) = 22.77953 41.26601 32.02277
# Shear Modulus (GPa) = 19.67761 30.79925 25.23843
#
# Velocity S-wave (km/s) = 2.79608 3.49812 3.16662
# Velocity P-wave (km/s) = 4.41301 5.71936 5.10812
#
# Compressibility (1/GPa) = 0.04389907
#
# Stress axis : x y z
#
# Youngs Moduli (GPa) = 95.67037 105.81027 20.50479
#
# Poissons Ratio (x) = 0.18679 0.13535
# Poissons Ratio (y) = 0.16889 0.08244
# Poissons Ratio (z) = 0.63150 0.42542
#
# Static dielectric constant tensor:
#      x y z
#    x 2.175270 0.000000 -0.007680 
#    y 0.000000 2.017570 0.000000 
#    z -0.007680 0.000000 2.042710 
# 
# From -- ./inp_files/74191.got.cif
#   From: 2010.05.17/outbox.cif.g08.bks.cpg/sg14_38_cif.got.tgz:74191.got - 2010.06.03 17:49:19.
