data_PCOD9241411
_publ_section_title
;
Structure prediction by ZEFSAII (Michael W. Deem and Ramdas Pophale) SiO2 
 PCOD9241411
Probable space group: P 21/C
;
_chemical_formula_sum "Si O2"
_cell_formula_units_Z 24
_cell_length_a 18.239092
_cell_length_b 5.711484
_cell_length_c 13.336330
_cell_angle_alpha 90.000000
_cell_angle_beta 44.708387
_cell_angle_gamma 90.000000
_cell_volume 977.353871
_symmetry_space_group_name_H-M "P 21/C"
_symmetry_group_IT_number 14
_symmetry_cell_setting 'monoclinic'
loop_
_space_group_symop_operation_xyz
x,y,z
-x,1/2+y,1/2-z
-x,-y,-z
x,1/2-y,1/2+z
loop_
_atom_site_type_symbol
_atom_site_label
_atom_site_fract_x
_atom_site_fract_y
_atom_site_fract_z
Si Si1 0.382153 0.934507 0.273540
Si Si2 0.575038 0.682705 0.069608
Si Si3 0.735381 0.063807 0.975444
Si Si4 0.057610 0.448568 0.180589
Si Si5 0.800134 0.756967 0.096590
Si Si6 0.780667 0.053666 0.305640
O O1 0.442995 0.079477 0.300843
O O2 0.308313 0.113273 0.285924
O O3 0.463823 0.768537 0.136566
O O4 0.307040 0.772671 0.413327
O O5 0.643139 0.912764 0.019840
O O6 0.656848 0.510691 0.935594
O O7 0.791808 0.907348 0.002661
O O8 0.791592 0.174179 0.824147
O O9 0.148182 0.441533 0.177140
O O10 0.010470 0.711933 0.235924
O O11 0.108077 0.420385 0.020888
O O12 0.816951 0.940485 0.167896
#
# Coordination Sequence:
#
# PCOD9241411 Si02
#       6
#     4   4   4   4   4   4
#     4  10  19  35  67  98 136 185 228 277 348 421
#     4  10  19  35  67  98 136 185 228 277 348 421
#     4  10  19  41  64  94 138 186 225 281 340 422
#     4  12  27  49  76 104 142 186 245 307 364 432
#     4  11  25  44  69 101 138 181 231 294 362 427
#     4  11  25  44  69 101 138 181 231 294 362 427
#
# _framework density 24.556101999999999
#
# number of rings (size 3 to 8) (size 9 to 14) (size 15 to 20)
#    0.000    1.333    6.667    1.000    0.000    3.333 
#    0.000    1.667    0.000    0.000    0.000    0.000 
#    0.000    0.000    0.000    0.000    0.000    0.000 
#
# Total GULP energy -133923.053017 kJ/mol
# GULP energy per Si atom -5580.127209 kJ/mol
# Density = 2.450021 g / cm^3
# Si number density = 24.556102 Si / 1000 Ang^3
#
#
#
# Elastic Constant Matrix: (Units=GPa)
#
#
# Indices 1 2 3 4 5 6 
#
# 1 54.1682 32.0042 25.7118 0.0000 3.1796 0.0000
# 2 32.0042 94.1721 7.5600 0.0000 -8.0478 0.0000
# 3 25.7118 7.5600 52.1964 0.0000 -14.6848 0.0000
# 4 0.0000 0.0000 0.0000 24.1552 0.0000 1.9820
# 5 3.1796 -8.0478 -14.6848 0.0000 18.5670 0.0000
# 6 0.0000 0.0000 0.0000 1.9820 0.0000 17.5420
#
#
#
# Elastic Compliance Matrix: (Units=1/GPa)
#
#
# Indices 1 2 3 4 5 6 
#
# 1 0.044839 -0.016101 -0.030713 0.000000 -0.038949 0.000000
# 2 -0.016101 0.016813 0.010704 0.000000 0.018511 0.000000
# 3 -0.030713 0.010704 0.045689 0.000000 0.046035 0.000000
# 4 0.000000 0.000000 0.000000 0.041786 0.000000 -0.004721
# 5 -0.038949 0.018511 0.046035 0.000000 0.104962 0.000000
# 6 0.000000 0.000000 0.000000 -0.004721 0.000000 0.057539
#
#
# Mechanical properties :
#
#
# Convention : Reuss Voigt Hill
#
# Bulk Modulus (GPa) = 28.47378 36.78763 32.63071
# Shear Modulus (GPa) = 12.64041 21.07023 16.85532
#
# Velocity S-wave (km/s) = 2.27129 2.93242 2.62277
# Velocity P-wave (km/s) = 4.30103 5.14578 4.74225
#
# Compressibility (1/GPa) = 0.03512003
#
# Stress axis : x y z
#
# Youngs Moduli (GPa) = 22.30200 59.47604 21.88723
#
# Poissons Ratio (x) = 0.95765 0.67223
# Poissons Ratio (y) = 0.35909 -0.23428
# Poissons Ratio (z) = 0.68497 -0.63664
#
# Static dielectric constant tensor:
#      x y z
#    x 1.938660 0.000000 -0.049430 
#    y 0.000000 2.049990 0.000000 
#    z -0.049430 0.000000 2.012690 
# 
# From -- ./inp_files/49605.got.cif
#   From: 2010.05.17/outbox.cif.g08.bks.cpg/sg14_25_cif.got.tgz:49605.got - 2010.06.03 17:49:19.
