data_PCOD9241831
_publ_section_title
;
Structure prediction by ZEFSAII (Michael W. Deem and Ramdas Pophale) SiO2 
 PCOD9241831
Probable space group: P 21/C
;
_chemical_formula_sum "Si O2"
_cell_formula_units_Z 28
_cell_length_a 6.903455
_cell_length_b 15.910561
_cell_length_c 14.094134
_cell_angle_alpha 90.000000
_cell_angle_beta 139.956914
_cell_angle_gamma 90.000000
_cell_volume 995.971239
_symmetry_space_group_name_H-M "P 21/C"
_symmetry_group_IT_number 14
_symmetry_cell_setting 'monoclinic'
loop_
_space_group_symop_operation_xyz
x,y,z
-x,1/2+y,1/2-z
-x,-y,-z
x,1/2-y,1/2+z
loop_
_atom_site_type_symbol
_atom_site_label
_atom_site_fract_x
_atom_site_fract_y
_atom_site_fract_z
Si Si1 0.260444 0.663360 0.536164
Si Si2 0.314634 0.855169 0.582722
Si Si3 0.265827 0.336870 0.043227
Si Si4 0.942303 0.612614 0.222897
Si Si5 0.448316 0.006976 0.187082
Si Si6 0.278377 0.157296 0.016282
Si Si7 0.858614 0.441627 0.256931
O O1 0.388877 0.754103 0.616078
O O2 0.462260 0.585336 0.646398
O O3 0.149068 0.650775 0.385255
O O4 0.957307 0.658723 0.484817
O O5 0.582894 0.877217 0.611159
O O6 0.950141 0.847692 0.446510
O O7 0.351508 0.936256 0.666409
O O8 0.033761 0.341436 0.868177
O O9 0.422877 0.247214 0.084459
O O10 0.521659 0.406136 0.130062
O O11 0.958342 0.511059 0.220152
O O12 0.155969 0.993749 0.148496
O O13 0.449935 0.071659 0.099788
O O14 0.082685 0.136985 0.850168
#
# Coordination Sequence:
#
# PCOD9241831 Si02
#       7
#     4   4   4   4   4   4   4
#     4  10  19  38  67  94 126 177 217 256 328 393
#     4  10  24  40  65  97 130 165 219 275 312 381
#     4  11  26  37  65 102 126 165 220 268 326 380
#     4  11  22  45  63  92 135 173 214 259 330 392
#     4  10  19  38  67  96 120 174 221 255 325 390
#     4  10  19  37  64  95 119 170 223 257 313 398
#     4  10  20  40  67  91 132 175 212 266 326 391
#
# _framework density 28.113261000000001
#
# number of rings (size 3 to 8) (size 9 to 14) (size 15 to 20)
#    0.000    1.714    4.286    1.286    6.000    3.429 
#    0.000    2.143    0.000    0.000    0.000    0.000 
#    0.000    0.000    0.000    0.000    0.000    0.000 
#
# Total GULP energy -156010.087976 kJ/mol
# GULP energy per Si atom -5571.788856 kJ/mol
# Density = 2.804927 g / cm^3
# Si number density = 28.113261 Si / 1000 Ang^3
#
#
#
# Elastic Constant Matrix: (Units=GPa)
#
#
# Indices 1 2 3 4 5 6 
#
# 1 82.1878 26.9942 16.0862 0.0000 9.6655 0.0000
# 2 26.9942 218.1200 55.8085 0.0000 19.1642 0.0000
# 3 16.0862 55.8085 82.3186 0.0000 -0.2143 0.0000
# 4 0.0000 0.0000 0.0000 35.1366 0.0000 17.4674
# 5 9.6655 19.1642 -0.2143 0.0000 32.9990 0.0000
# 6 0.0000 0.0000 0.0000 17.4674 0.0000 28.9156
#
#
#
# Elastic Compliance Matrix: (Units=1/GPa)
#
#
# Indices 1 2 3 4 5 6 
#
# 1 0.013237 -0.000815 -0.002043 0.000000 -0.003417 0.000000
# 2 -0.000815 0.005968 -0.003895 0.000000 -0.003252 0.000000
# 3 -0.002043 -0.003895 0.015196 0.000000 0.002959 0.000000
# 4 0.000000 0.000000 0.000000 0.040675 0.000000 -0.024571
# 5 -0.003417 -0.003252 0.002959 0.000000 0.033213 0.000000
# 6 0.000000 0.000000 0.000000 -0.024571 0.000000 0.049427
#
#
# Mechanical properties :
#
#
# Convention : Reuss Voigt Hill
#
# Bulk Modulus (GPa) = 47.86128 64.48936 56.17532
# Shear Modulus (GPa) = 28.06056 38.32607 33.19332
#
# Velocity S-wave (km/s) = 3.16274 3.69626 3.43986
# Velocity P-wave (km/s) = 5.51350 6.41914 5.98348
#
# Compressibility (1/GPa) = 0.02089371
#
# Stress axis : x y z
#
# Youngs Moduli (GPa) = 75.54760 167.56314 65.80870
#
# Poissons Ratio (x) = 0.13661 0.13443
# Poissons Ratio (y) = 0.06159 0.25633
# Poissons Ratio (z) = 0.15433 0.65268
#
# Static dielectric constant tensor:
#      x y z
#    x 2.262450 0.000000 -0.004600 
#    y 0.000000 2.290650 0.000000 
#    z -0.004600 0.000000 2.330990 
# 
# From -- ./inp_files/41442.got.cif
#   From: 2010.05.17/outbox.cif.g08.bks.cpg/sg14_21_cif.got.tgz:41442.got - 2010.06.03 17:49:19.
