data_PCOD9241532
_publ_section_title
;
Structure prediction by ZEFSAII (Michael W. Deem and Ramdas Pophale) SiO2 
 PCOD9241532
Probable space group: P 21/C
;
_chemical_formula_sum "Si O2"
_cell_formula_units_Z 24
_cell_length_a 8.670295
_cell_length_b 12.352573
_cell_length_c 19.260623
_cell_angle_alpha 90.000000
_cell_angle_beta 26.672704
_cell_angle_gamma 90.000000
_cell_volume 925.986802
_symmetry_space_group_name_H-M "P 21/C"
_symmetry_group_IT_number 14
_symmetry_cell_setting 'monoclinic'
loop_
_space_group_symop_operation_xyz
x,y,z
-x,1/2+y,1/2-z
-x,-y,-z
x,1/2-y,1/2+z
loop_
_atom_site_type_symbol
_atom_site_label
_atom_site_fract_x
_atom_site_fract_y
_atom_site_fract_z
Si Si1 0.378873 0.367755 0.172184
Si Si2 0.269183 0.607301 0.196723
Si Si3 0.658502 0.527355 0.360515
Si Si4 0.868890 0.702414 0.110552
Si Si5 0.777184 0.107275 0.086424
Si Si6 0.050168 0.169398 0.653519
O O1 0.262027 0.489938 0.234754
O O2 0.243582 0.284726 0.283505
O O3 0.227812 0.335110 0.158298
O O4 0.790485 0.362953 0.007444
O O5 0.021855 0.585022 0.229199
O O6 0.094995 0.711455 0.300842
O O7 0.652736 0.634115 0.018273
O O8 0.500000 0.500000 0.500000
O O9 0.410671 0.599902 0.413625
O O10 0.745469 0.418285 0.283011
O O11 0.544930 0.623975 0.232274
O O12 0.985634 0.786459 0.004692
O O13 0.000000 0.000000 0.000000
#
# Coordination Sequence:
#
# PCOD9241532 Si02
#       6
#     4   4   4   4   4   4
#     4  10  19  36  60  87 117 157 205 249 299 369
#     4  11  21  33  54  89 128 164 200 252 307 364
#     4  11  22  38  62  93 127 165 208 259 313 370
#     4  10  21  40  66  88 114 162 211 248 304 381
#     4  11  23  43  66  90 123 164 210 259 309 371
#     4  11  20  32  52  87 128 162 201 253 308 355
#
# _framework density 25.918298
#
# number of rings (size 3 to 8) (size 9 to 14) (size 15 to 20)
#    0.000    1.333    0.000   10.000    0.000    0.000 
#    0.000   10.000    0.000    0.000    0.000    0.000 
#    0.000    0.000    0.000    0.000    0.000    0.000 
#
# Total GULP energy -134548.346106 kJ/mol
# GULP energy per Si atom -5606.181088 kJ/mol
# Density = 2.585931 g / cm^3
# Si number density = 25.918298 Si / 1000 Ang^3
#
#
#
# Elastic Constant Matrix: (Units=GPa)
#
#
# Indices 1 2 3 4 5 6 
#
# 1 78.3211 29.8470 26.5704 0.0000 -2.5106 0.0000
# 2 29.8470 169.7804 65.1244 0.0000 -18.5004 0.0000
# 3 26.5704 65.1244 164.3278 0.0000 -15.6974 0.0000
# 4 0.0000 0.0000 0.0000 60.0291 0.0000 -15.1060
# 5 -2.5106 -18.5004 -15.6974 0.0000 34.5313 0.0000
# 6 0.0000 0.0000 0.0000 -15.1060 0.0000 39.1870
#
#
#
# Elastic Compliance Matrix: (Units=1/GPa)
#
#
# Indices 1 2 3 4 5 6 
#
# 1 0.014016 -0.001943 -0.001566 0.000000 -0.000734 0.000000
# 2 -0.001943 0.007443 -0.002371 0.000000 0.002768 0.000000
# 3 -0.001566 -0.002371 0.007470 0.000000 0.002012 0.000000
# 4 0.000000 0.000000 0.000000 0.018448 0.000000 0.007111
# 5 -0.000734 0.002768 0.002012 0.000000 0.031304 0.000000
# 6 0.000000 0.000000 0.000000 0.007111 0.000000 0.028260
#
#
# Mechanical properties :
#
#
# Convention : Reuss Voigt Hill
#
# Bulk Modulus (GPa) = 58.24617 72.83476 65.54047
# Shear Modulus (GPa) = 40.18483 46.14199 43.16341
#
# Velocity S-wave (km/s) = 3.94184 4.22392 4.08531
# Velocity P-wave (km/s) = 6.57565 7.20773 6.89893
#
# Compressibility (1/GPa) = 0.01716851
#
# Stress axis : x y z
#
# Youngs Moduli (GPa) = 71.34532 134.36016 133.86054
#
# Poissons Ratio (x) = 0.26109 0.20967
# Poissons Ratio (y) = 0.13864 0.31738
# Poissons Ratio (z) = 0.11175 0.31856
#
# Static dielectric constant tensor:
#      x y z
#    x 2.082920 0.000000 0.030830 
#    y 0.000000 2.005400 0.000000 
#    z 0.030830 0.000000 2.038410 
# 
# From -- ./inp_files/77236.got.cif
#   From: 2010.05.17/outbox.cif.g08.bks.cpg/sg14_39_cif.got.tgz:77236.got - 2010.06.03 17:49:19.
