data_PCOD9241890
_publ_section_title
;
Structure prediction by ZEFSAII (Michael W. Deem and Ramdas Pophale) SiO2 
 PCOD9241890
Probable space group: P 21/C
;
_chemical_formula_sum "Si O2"
_cell_formula_units_Z 20
_cell_length_a 9.734602
_cell_length_b 8.603009
_cell_length_c 13.729704
_cell_angle_alpha 90.000000
_cell_angle_beta 129.115532
_cell_angle_gamma 90.000000
_cell_volume 892.116847
_symmetry_space_group_name_H-M "P 21/C"
_symmetry_group_IT_number 14
_symmetry_cell_setting 'monoclinic'
loop_
_space_group_symop_operation_xyz
x,y,z
-x,1/2+y,1/2-z
-x,-y,-z
x,1/2-y,1/2+z
loop_
_atom_site_type_symbol
_atom_site_label
_atom_site_fract_x
_atom_site_fract_y
_atom_site_fract_z
Si Si1 0.602495 0.372067 0.774135
Si Si2 0.865912 0.636885 0.914478
Si Si3 0.822533 0.319760 0.514016
Si Si4 0.704722 0.663844 0.508096
Si Si5 0.490668 0.346302 0.932083
O O1 0.697970 0.537758 0.803485
O O2 0.737126 0.235743 0.870759
O O3 0.487847 0.339743 0.629251
O O4 0.470955 0.383962 0.808689
O O5 0.814481 0.716660 0.992569
O O6 0.000000 0.500000 0.000000
O O7 0.977441 0.757512 0.899068
O O8 0.795519 0.497448 0.531863
O O9 0.688148 0.227137 0.523848
O O10 0.657818 0.730853 0.592591
O O11 0.500000 0.500000 0.000000
#
# Coordination Sequence:
#
# PCOD9241890 Si02
#       5
#     4   4   4   4   4
#     4   9  21  35  61  88 115 155 203 234 293 351
#     4  10  19  38  59  81 121 158 185 239 311 345
#     4   9  21  34  57  88 116 156 194 243 296 340
#     4  12  19  36  64  88 116 155 209 240 278 361
#     4  10  20  36  59  85 119 155 193 241 302 341
#
# _framework density 22.418589000000001
#
# number of rings (size 3 to 8) (size 9 to 14) (size 15 to 20)
#    1.200    0.800    2.000    2.400    0.000    0.000 
#    0.000    0.000   13.200    0.000    0.000    0.000 
#    0.000    0.000    0.000    0.000    0.000    0.000 
#
# Total GULP energy -111525.949426 kJ/mol
# GULP energy per Si atom -5576.297471 kJ/mol
# Density = 2.236756 g / cm^3
# Si number density = 22.418589 Si / 1000 Ang^3
#
#
#
# Elastic Constant Matrix: (Units=GPa)
#
#
# Indices 1 2 3 4 5 6 
#
# 1 140.2846 63.4387 29.8115 0.0000 22.0436 0.0000
# 2 63.4387 126.3434 29.9736 0.0000 9.0535 0.0000
# 3 29.8115 29.9736 44.2492 0.0000 1.7523 0.0000
# 4 0.0000 0.0000 0.0000 30.8599 0.0000 62.3671
# 5 22.0436 9.0535 1.7523 0.0000 20.5143 0.0000
# 6 0.0000 0.0000 0.0000 62.3671 0.0000 507.0354
#
#
#
# Elastic Compliance Matrix: (Units=1/GPa)
#
#
# Indices 1 2 3 4 5 6 
#
# 1 0.011511 -0.003935 -0.004684 0.000000 -0.010233 0.000000
# 2 -0.003935 0.011053 -0.004826 0.000000 -0.000237 0.000000
# 3 -0.004684 -0.004826 0.028838 0.000000 0.004700 0.000000
# 4 0.000000 0.000000 0.000000 0.043125 0.000000 -0.005304
# 5 -0.010233 -0.000237 0.004700 0.000000 0.059445 0.000000
# 6 0.000000 0.000000 0.000000 -0.005304 0.000000 0.002625
#
#
# Mechanical properties :
#
#
# Convention : Reuss Voigt Hill
#
# Bulk Modulus (GPa) = 40.79906 61.92499 51.36203
# Shear Modulus (GPa) = 26.08791 124.19214 75.14002
#
# Velocity S-wave (km/s) = 3.41497 7.45099 5.79565
# Velocity P-wave (km/s) = 5.81271 10.08489 8.23082
#
# Compressibility (1/GPa) = 0.02451037
#
# Stress axis : x y z
#
# Youngs Moduli (GPa) = 86.87024 90.47363 34.67604
#
# Poissons Ratio (x) = 0.35606 0.16244
# Poissons Ratio (y) = 0.34187 0.16736
# Poissons Ratio (z) = 0.40694 0.43665
#
# Static dielectric constant tensor:
#      x y z
#    x 1.797410 0.000000 0.052110 
#    y 0.000000 1.850120 0.000000 
#    z 0.052110 0.000000 1.822620 
# 
# From -- ./inp_files/54717.got.cif
#   From: 2010.05.17/outbox.cif.g08.bks.cpg/sg14_28_cif.got.tgz:54717.got - 2010.06.03 17:49:19.
