data_PCOD9241098
_publ_section_title
;
Structure prediction by ZEFSAII (Michael W. Deem and Ramdas Pophale) SiO2 
 PCOD9241098
Probable space group: P 21/C
;
_chemical_formula_sum "Si O2"
_cell_formula_units_Z 20
_cell_length_a 6.839790
_cell_length_b 7.736019
_cell_length_c 15.248760
_cell_angle_alpha 90.000000
_cell_angle_beta 75.548223
_cell_angle_gamma 90.000000
_cell_volume 781.323313
_symmetry_space_group_name_H-M "P 21/C"
_symmetry_group_IT_number 14
_symmetry_cell_setting 'monoclinic'
loop_
_space_group_symop_operation_xyz
x,y,z
-x,1/2+y,1/2-z
-x,-y,-z
x,1/2-y,1/2+z
loop_
_atom_site_type_symbol
_atom_site_label
_atom_site_fract_x
_atom_site_fract_y
_atom_site_fract_z
Si Si1 0.038444 0.111530 0.643391
Si Si2 0.547845 0.405855 0.371534
Si Si3 0.552396 0.776099 0.454370
Si Si4 0.229509 0.947155 0.792736
Si Si5 0.648515 0.003239 0.675911
O O1 0.920852 0.297158 0.658631
O O2 0.880467 0.964693 0.629691
O O3 0.235303 0.128223 0.561108
O O4 0.126951 0.061514 0.728957
O O5 0.599551 0.583655 0.415667
O O6 0.556335 0.253011 0.440971
O O7 0.317634 0.434630 0.361788
O O8 0.683554 0.416918 0.270028
O O9 0.427438 0.869816 0.391983
O O10 0.451058 0.892802 0.724801
#
# Coordination Sequence:
#
# PCOD9241098 Si02
#       5
#     4   4   4   4   4
#     4  11  19  36  60  86 116 157 195 239 291 357
#     4   9  19  37  54  87 120 147 191 252 292 339
#     4  10  19  34  58  86 116 147 199 245 293 339
#     4   9  21  33  58  86 116 154 190 240 294 343
#     4   9  18  36  51  80 121 150 180 235 297 337
#
# _framework density 25.597594999999998
#
# number of rings (size 3 to 8) (size 9 to 14) (size 15 to 20)
#    1.200    1.200    2.000    1.200    0.000    0.800 
#    3.600    0.000    0.000   15.600    0.000    0.000 
#    0.000    0.000    0.000    0.000    0.000    0.000 
#
# Total GULP energy -111410.656289 kJ/mol
# GULP energy per Si atom -5570.532814 kJ/mol
# Density = 2.553933 g / cm^3
# Si number density = 25.597595 Si / 1000 Ang^3
#
#
#
# Elastic Constant Matrix: (Units=GPa)
#
#
# Indices 1 2 3 4 5 6 
#
# 1 139.1405 3.2657 1.7948 0.0000 8.6772 0.0000
# 2 3.2657 43.3247 9.2222 0.0000 3.9457 0.0000
# 3 1.7948 9.2222 122.5631 0.0000 16.9984 0.0000
# 4 0.0000 0.0000 0.0000 38.0173 0.0000 6.4897
# 5 8.6772 3.9457 16.9984 0.0000 11.4555 0.0000
# 6 0.0000 0.0000 0.0000 6.4897 0.0000 13.9985
#
#
#
# Elastic Compliance Matrix: (Units=1/GPa)
#
#
# Indices 1 2 3 4 5 6 
#
# 1 0.007616 -0.000120 0.000871 0.000000 -0.007021 0.000000
# 2 -0.000120 0.023897 -0.000840 0.000000 -0.006893 0.000000
# 3 0.000871 -0.000840 0.010402 0.000000 -0.015805 0.000000
# 4 0.000000 0.000000 0.000000 0.028564 0.000000 -0.013242
# 5 -0.007021 -0.006893 -0.015805 0.000000 0.118439 0.000000
# 6 0.000000 0.000000 0.000000 -0.013242 0.000000 0.077575
#
#
# Mechanical properties :
#
#
# Convention : Reuss Voigt Hill
#
# Bulk Modulus (GPa) = 23.95984 37.06597 30.51291
# Shear Modulus (GPa) = 17.81998 32.07732 24.94865
#
# Velocity S-wave (km/s) = 2.64134 3.54381 3.12532
# Velocity P-wave (km/s) = 4.32236 5.59075 4.99696
#
# Compressibility (1/GPa) = 0.04173650
#
# Stress axis : x y z
#
# Youngs Moduli (GPa) = 131.29593 41.84585 96.13961
#
# Poissons Ratio (x) = 0.00503 -0.08376
# Poissons Ratio (y) = 0.01578 0.08079
# Poissons Ratio (z) = -0.11438 0.03517
#
# Static dielectric constant tensor:
#      x y z
#    x 1.987470 0.000000 0.017950 
#    y 0.000000 2.180650 0.000000 
#    z 0.017950 0.000000 2.020290 
# 
# From -- ./inp_files/50362.got.cif
#   From: 2010.05.17/outbox.cif.g08.bks.cpg/sg14_26_cif.got.tgz:50362.got - 2010.06.03 17:49:19.
