data_PCOD9241576
_publ_section_title
;
Structure prediction by ZEFSAII (Michael W. Deem and Ramdas Pophale) SiO2 
 PCOD9241576
Probable space group: P 21/C
;
_chemical_formula_sum "Si O2"
_cell_formula_units_Z 32
_cell_length_a 7.425242
_cell_length_b 10.740351
_cell_length_c 14.666618
_cell_angle_alpha 90.000000
_cell_angle_beta 98.656452
_cell_angle_gamma 90.000000
_cell_volume 1156.334379
_symmetry_space_group_name_H-M "P 21/C"
_symmetry_group_IT_number 14
_symmetry_cell_setting 'monoclinic'
loop_
_space_group_symop_operation_xyz
x,y,z
-x,1/2+y,1/2-z
-x,-y,-z
x,1/2-y,1/2+z
loop_
_atom_site_type_symbol
_atom_site_label
_atom_site_fract_x
_atom_site_fract_y
_atom_site_fract_z
Si Si1 0.493249 0.309091 0.260088
Si Si2 0.828496 0.514476 0.920121
Si Si3 0.116330 0.755212 0.123136
Si Si4 0.304167 0.063199 0.010597
Si Si5 0.464372 0.186509 0.542617
Si Si6 0.167808 0.815219 0.938810
Si Si7 0.032957 0.861643 0.285622
Si Si8 0.670042 0.548879 0.270358
O O1 0.684207 0.305140 0.330488
O O2 0.502730 0.285864 0.152295
O O3 0.485397 0.462199 0.260971
O O4 0.378295 0.184333 0.276298
O O5 0.842898 0.388262 0.866521
O O6 0.650768 0.559011 0.961654
O O7 0.874974 0.612832 0.845071
O O8 0.000000 0.500000 0.000000
O O9 0.978552 0.817834 0.182513
O O10 0.046810 0.787062 0.017440
O O11 0.337588 0.206745 0.990924
O O12 0.267308 0.060079 0.118095
O O13 0.500000 0.000000 0.000000
O O14 0.185873 0.962996 0.946697
O O15 0.662343 0.222723 0.519207
O O16 0.115623 0.762721 0.838040
O O17 0.179068 0.974710 0.280886
#
# Coordination Sequence:
#
# PCOD9241576 Si02
#       8
#     4   4   4   4   4   4   4   4
#     4  10  19  37  65 103 129 166 243 291 357 404
#     4  12  27  47  66 104 150 189 241 288 362 449
#     4  11  23  41  71  97 137 181 233 298 353 420
#     4   9  19  36  64  98 131 165 224 293 350 411
#     4  10  22  40  69  99 135 181 232 300 347 421
#     4  11  19  42  70  97 134 177 234 297 353 412
#     4  11  24  44  66  96 145 186 232 289 359 438
#     4  10  19  36  61  96 135 172 222 294 351 421
#
# _framework density 27.673653999999999
#
# number of rings (size 3 to 8) (size 9 to 14) (size 15 to 20)
#    0.000    1.500    6.250    0.750    0.000    3.500 
#    0.000    1.875    0.000    0.000    0.000    0.000 
#    0.000    0.000    0.000    0.000    0.000    0.000 
#
# Total GULP energy -178391.365428 kJ/mol
# GULP energy per Si atom -5574.730170 kJ/mol
# Density = 2.761067 g / cm^3
# Si number density = 27.673654 Si / 1000 Ang^3
#
#
#
# Elastic Constant Matrix: (Units=GPa)
#
#
# Indices 1 2 3 4 5 6 
#
# 1 77.2960 -3.8337 21.2079 0.0000 -12.4119 0.0000
# 2 -3.8337 120.9743 9.0388 0.0000 -3.3884 0.0000
# 3 21.2079 9.0388 111.9580 0.0000 -13.1221 0.0000
# 4 0.0000 0.0000 0.0000 46.3256 0.0000 -6.2764
# 5 -12.4119 -3.3884 -13.1221 0.0000 32.5028 0.0000
# 6 0.0000 0.0000 0.0000 -6.2764 0.0000 27.6038
#
#
#
# Elastic Compliance Matrix: (Units=1/GPa)
#
#
# Indices 1 2 3 4 5 6 
#
# 1 0.014333 0.000751 -0.002231 0.000000 0.004651 0.000000
# 2 0.000751 0.008368 -0.000716 0.000000 0.000870 0.000000
# 3 -0.002231 -0.000716 0.009766 0.000000 0.003016 0.000000
# 4 0.000000 0.000000 0.000000 0.022272 0.000000 0.005064
# 5 0.004651 0.000870 0.003016 0.000000 0.033851 0.000000
# 6 0.000000 0.000000 0.000000 0.005064 0.000000 0.037378
#
#
# Mechanical properties :
#
#
# Convention : Reuss Voigt Hill
#
# Bulk Modulus (GPa) = 35.61705 40.33936 37.97820
# Shear Modulus (GPa) = 35.78622 40.20747 37.99684
#
# Velocity S-wave (km/s) = 3.59994 3.81585 3.70947
# Velocity P-wave (km/s) = 5.49343 5.83290 5.66571
#
# Compressibility (1/GPa) = 0.02807644
#
# Stress axis : x y z
#
# Youngs Moduli (GPa) = 69.76686 119.50458 102.39843
#
# Poissons Ratio (x) = -0.08977 0.22841
# Poissons Ratio (y) = -0.05241 0.07330
# Poissons Ratio (z) = 0.15562 0.08555
#
# Static dielectric constant tensor:
#      x y z
#    x 2.517830 0.000000 -0.009420 
#    y 0.000000 2.407620 0.000000 
#    z -0.009420 0.000000 2.112360 
# 
# From -- ./inp_files/40316.got.cif
#   From: 2010.05.17/outbox.cif.g08.bks.cpg/sg14_21_cif.got.tgz:40316.got - 2010.06.03 17:49:19.
