data_PCOD9241238
_publ_section_title
;
Structure prediction by ZEFSAII (Michael W. Deem and Ramdas Pophale) SiO2 
 PCOD9241238
Probable space group: P 21/C
;
_chemical_formula_sum "Si O2"
_cell_formula_units_Z 24
_cell_length_a 15.089289
_cell_length_b 16.172847
_cell_length_c 8.926107
_cell_angle_alpha 90.000000
_cell_angle_beta 141.120796
_cell_angle_gamma 90.000000
_cell_volume 1367.275437
_symmetry_space_group_name_H-M "P 21/C"
_symmetry_group_IT_number 14
_symmetry_cell_setting 'monoclinic'
loop_
_space_group_symop_operation_xyz
x,y,z
-x,1/2+y,1/2-z
-x,-y,-z
x,1/2-y,1/2+z
loop_
_atom_site_type_symbol
_atom_site_label
_atom_site_fract_x
_atom_site_fract_y
_atom_site_fract_z
Si Si1 0.861088 0.453198 0.251566
Si Si2 0.402761 0.908699 0.018215
Si Si3 0.979182 0.594443 0.028588
Si Si4 0.155883 0.680544 0.015898
Si Si5 0.773283 0.127223 0.927768
Si Si6 0.303879 0.436192 0.210736
O O1 0.763790 0.422041 0.260453
O O2 0.000000 0.500000 0.500000
O O3 0.889929 0.369650 0.192922
O O4 0.776746 0.511558 0.024631
O O5 0.298136 0.858524 0.772433
O O6 0.369677 0.002890 0.923994
O O7 0.352539 0.890252 0.120649
O O8 0.564870 0.890861 0.193354
O O9 0.037130 0.658431 0.982454
O O10 0.083977 0.596541 0.305750
O O11 0.820678 0.612389 0.870620
O O12 0.000000 0.500000 0.000000
O O13 0.194473 0.775737 0.047711
#
# Coordination Sequence:
#
# PCOD9241238 Si02
#       6
#     4   4   4   4   4   4
#     4  11  19  31  56  86 109 135 189 243 264 308
#     4   9  20  36  56  76 108 151 182 218 274 342
#     4  11  17  36  58  82 106 148 188 228 270 329
#     4  10  21  35  56  81 109 154 185 217 284 336
#     4  11  20  34  56  82 114 145 184 230 279 330
#     4  10  19  35  57  82 105 139 191 228 270 321
#
# _framework density 17.553156999999999
#
# number of rings (size 3 to 8) (size 9 to 14) (size 15 to 20)
#    0.000    1.667    6.667    2.000    0.000    0.667 
#    0.000    1.667    0.000    0.000    0.000    0.000 
#    0.000    0.000    0.000    0.000    0.000    0.000 
#
# Total GULP energy -133665.597340 kJ/mol
# GULP energy per Si atom -5569.399889 kJ/mol
# Density = 1.751320 g / cm^3
# Si number density = 17.553157 Si / 1000 Ang^3
#
#
#
# Elastic Constant Matrix: (Units=GPa)
#
#
# Indices 1 2 3 4 5 6 
#
# 1 170.7487 48.4920 49.9462 0.0000 19.4205 0.0000
# 2 48.4920 57.3965 7.0994 0.0000 0.0525 0.0000
# 3 49.9462 7.0994 38.9684 0.0000 7.1987 0.0000
# 4 0.0000 0.0000 0.0000 11.4671 0.0000 -1.2234
# 5 19.4205 0.0525 7.1987 0.0000 41.4564 0.0000
# 6 0.0000 0.0000 0.0000 -1.2234 0.0000 20.3179
#
#
#
# Elastic Compliance Matrix: (Units=1/GPa)
#
#
# Indices 1 2 3 4 5 6 
#
# 1 0.013156 -0.009319 -0.014493 0.000000 -0.003635 0.000000
# 2 -0.009319 0.024438 0.006913 0.000000 0.003134 0.000000
# 3 -0.014493 0.006913 0.043108 0.000000 -0.000705 0.000000
# 4 0.000000 0.000000 0.000000 0.087770 0.000000 0.005285
# 5 -0.003635 0.003134 -0.000705 0.000000 0.025943 0.000000
# 6 0.000000 0.000000 0.000000 0.005285 0.000000 0.049536
#
#
# Mechanical properties :
#
#
# Convention : Reuss Voigt Hill
#
# Bulk Modulus (GPa) = 21.31994 53.13207 37.22601
# Shear Modulus (GPa) = 17.04261 25.42002 21.23132
#
# Velocity S-wave (km/s) = 3.11933 3.80962 3.48162
# Velocity P-wave (km/s) = 5.01457 7.04882 6.11685
#
# Compressibility (1/GPa) = 0.04690444
#
# Stress axis : x y z
#
# Youngs Moduli (GPa) = 76.01228 40.92013 23.19745
#
# Poissons Ratio (x) = 0.38133 0.33619
# Poissons Ratio (y) = 0.70835 -0.16036
# Poissons Ratio (z) = 1.10163 -0.28288
#
# Static dielectric constant tensor:
#      x y z
#    x 1.619460 0.000000 0.010500 
#    y 0.000000 1.605170 0.000000 
#    z 0.010500 0.000000 1.564850 
# 
# From -- ./inp_files/9122.got.cif
#   From: 2010.05.17/outbox.cif.g08.bks.cpg/sg14_5_cif.got.tgz:9122.got - 2010.06.03 17:49:19.
