data_PCOD9241945
_publ_section_title
;
Structure prediction by ZEFSAII (Michael W. Deem and Ramdas Pophale) SiO2 
 PCOD9241945
Probable space group: P 21/C
;
_chemical_formula_sum "Si O2"
_cell_formula_units_Z 20
_cell_length_a 6.796132
_cell_length_b 16.832940
_cell_length_c 8.759451
_cell_angle_alpha 90.000000
_cell_angle_beta 114.763597
_cell_angle_gamma 90.000000
_cell_volume 909.924720
_symmetry_space_group_name_H-M "P 21/C"
_symmetry_group_IT_number 14
_symmetry_cell_setting 'monoclinic'
loop_
_space_group_symop_operation_xyz
x,y,z
-x,1/2+y,1/2-z
-x,-y,-z
x,1/2-y,1/2+z
loop_
_atom_site_type_symbol
_atom_site_label
_atom_site_fract_x
_atom_site_fract_y
_atom_site_fract_z
Si Si1 0.284688 0.870564 0.533576
Si Si2 0.107790 0.016963 0.367082
Si Si3 0.560766 0.712574 0.596664
Si Si4 0.342450 0.935648 0.877543
Si Si5 0.806046 0.679662 0.983659
O O1 0.431052 0.794821 0.553339
O O2 0.377541 0.918979 0.709145
O O3 0.052283 0.833031 0.508428
O O4 0.240839 0.936047 0.387334
O O5 0.233731 0.099441 0.429961
O O6 0.905665 0.034409 0.191170
O O7 0.000000 0.000000 0.500000
O O8 0.404303 0.646800 0.476232
O O9 0.768664 0.738587 0.562806
O O10 0.648531 0.684343 0.787646
O O11 0.500000 0.000000 0.000000
#
# Coordination Sequence:
#
# PCOD9241945 Si02
#       5
#     4   4   4   4   4
#     4  10  22  40  63  91 123 163 203 256 308 358
#     4   8  18  39  58  85 120 165 190 254 305 357
#     4  12  22  38  63  95 118 163 208 253 302 368
#     4  10  19  38  62  88 123 166 204 238 315 371
#     4  10  23  37  62  87 126 156 203 253 303 361
#
# _framework density 21.979841
#
# number of rings (size 3 to 8) (size 9 to 14) (size 15 to 20)
#    0.000    2.400    2.000    3.600    5.600    0.800 
#    0.000    0.000    0.000    7.200    0.000    0.000 
#    0.000    0.000    0.000    0.000    0.000    0.000 
#
# Total GULP energy -111565.212122 kJ/mol
# GULP energy per Si atom -5578.260606 kJ/mol
# Density = 2.192981 g / cm^3
# Si number density = 21.979841 Si / 1000 Ang^3
#
#
#
# Elastic Constant Matrix: (Units=GPa)
#
#
# Indices 1 2 3 4 5 6 
#
# 1 31.9908 31.0313 24.4371 0.0000 17.6797 0.0000
# 2 31.0313 153.1816 100.4045 0.0000 31.1750 0.0000
# 3 24.4371 100.4045 156.6641 0.0000 21.5872 0.0000
# 4 0.0000 0.0000 0.0000 47.6498 0.0000 7.9203
# 5 17.6797 31.1750 21.5872 0.0000 21.4730 0.0000
# 6 0.0000 0.0000 0.0000 7.9203 0.0000 22.6212
#
#
#
# Elastic Compliance Matrix: (Units=1/GPa)
#
#
# Indices 1 2 3 4 5 6 
#
# 1 0.058642 -0.001578 -0.002087 0.000000 -0.043892 0.000000
# 2 -0.001578 0.013821 -0.006994 0.000000 -0.011734 0.000000
# 3 -0.002087 -0.006994 0.011092 0.000000 0.000723 0.000000
# 4 0.000000 0.000000 0.000000 0.022283 0.000000 -0.007802
# 5 -0.043892 -0.011734 0.000723 0.000000 0.099018 0.000000
# 6 0.000000 0.000000 0.000000 -0.007802 0.000000 0.046938
#
#
# Mechanical properties :
#
#
# Convention : Reuss Voigt Hill
#
# Bulk Modulus (GPa) = 16.06857 72.62023 44.34440
# Shear Modulus (GPa) = 17.01501 30.74636 23.88069
#
# Velocity S-wave (km/s) = 2.78532 3.74417 3.29976
# Velocity P-wave (km/s) = 4.20362 7.19743 5.89378
#
# Compressibility (1/GPa) = 0.06223330
#
# Stress axis : x y z
#
# Youngs Moduli (GPa) = 17.05270 72.35611 90.15697
#
# Poissons Ratio (x) = 0.11421 0.18820
# Poissons Ratio (y) = 0.02692 0.63059
# Poissons Ratio (z) = 0.03560 0.50609
#
# Static dielectric constant tensor:
#      x y z
#    x 1.995400 0.000000 0.144590 
#    y 0.000000 1.839950 0.000000 
#    z 0.144590 0.000000 2.131320 
# 
# From -- ./inp_files/24426.got.cif
#   From: 2010.05.17/outbox.cif.g08.bks.cpg/sg14_13_cif.got.tgz:24426.got - 2010.06.03 17:49:19.
