data_PCOD9241525
_publ_section_title
;
Structure prediction by ZEFSAII (Michael W. Deem and Ramdas Pophale) SiO2 
 PCOD9241525
Probable space group: P 21/C
;
_chemical_formula_sum "Si O2"
_cell_formula_units_Z 20
_cell_length_a 11.221210
_cell_length_b 8.278355
_cell_length_c 8.808274
_cell_angle_alpha 90.000000
_cell_angle_beta 104.199963
_cell_angle_gamma 90.000000
_cell_volume 793.227852
_symmetry_space_group_name_H-M "P 21/C"
_symmetry_group_IT_number 14
_symmetry_cell_setting 'monoclinic'
loop_
_space_group_symop_operation_xyz
x,y,z
-x,1/2+y,1/2-z
-x,-y,-z
x,1/2-y,1/2+z
loop_
_atom_site_type_symbol
_atom_site_label
_atom_site_fract_x
_atom_site_fract_y
_atom_site_fract_z
Si Si1 0.567867 0.135824 0.221872
Si Si2 0.781556 0.525194 0.941564
Si Si3 0.099679 0.269146 0.760244
Si Si4 0.654481 0.450849 0.410379
Si Si5 0.914300 0.172489 0.956655
O O1 0.597619 0.313736 0.285402
O O2 0.640574 0.022995 0.365046
O O3 0.423056 0.107582 0.157062
O O4 0.626751 0.095591 0.076121
O O5 0.829163 0.636188 0.817260
O O6 0.854733 0.353665 0.964080
O O7 0.813190 0.622965 0.104708
O O8 0.996085 0.191715 0.834571
O O9 0.011284 0.362976 0.617674
O O10 0.798143 0.445416 0.427098
#
# Coordination Sequence:
#
# PCOD9241525 Si02
#       5
#     4   4   4   4   4
#     4  10  23  44  64  91 123 158 206 254 306 361
#     4  10  22  39  58  87 125 158 203 254 302 363
#     4  10  19  36  60  85 120 160 199 247 296 356
#     4  10  22  42  67  90 122 161 203 255 303 364
#     4  10  20  39  60  87 122 162 202 246 305 364
#
# _framework density 25.213439000000001
#
# number of rings (size 3 to 8) (size 9 to 14) (size 15 to 20)
#    0.000    2.000    0.000    4.800    0.000    4.000 
#    0.000   39.000    0.000    0.000    0.000    0.000 
#    0.000    0.000    0.000    0.000    0.000    0.000 
#
# Total GULP energy -112096.152945 kJ/mol
# GULP energy per Si atom -5604.807647 kJ/mol
# Density = 2.515605 g / cm^3
# Si number density = 25.213439 Si / 1000 Ang^3
#
#
#
# Elastic Constant Matrix: (Units=GPa)
#
#
# Indices 1 2 3 4 5 6 
#
# 1 69.2668 31.6665 35.4026 0.0000 7.8543 0.0000
# 2 31.6665 64.2265 13.3422 0.0000 9.6356 0.0000
# 3 35.4026 13.3422 123.6552 0.0000 0.9239 0.0000
# 4 0.0000 0.0000 0.0000 29.4205 0.0000 21.8169
# 5 7.8543 9.6356 0.9239 0.0000 15.9643 0.0000
# 6 0.0000 0.0000 0.0000 21.8169 0.0000 42.3228
#
#
#
# Elastic Compliance Matrix: (Units=1/GPa)
#
#
# Indices 1 2 3 4 5 6 
#
# 1 0.021738 -0.008876 -0.005228 0.000000 -0.005035 0.000000
# 2 -0.008876 0.021141 0.000323 0.000000 -0.008412 0.000000
# 3 -0.005228 0.000323 0.009535 0.000000 0.001825 0.000000
# 4 0.000000 0.000000 0.000000 0.055023 0.000000 -0.028364
# 5 -0.005035 -0.008412 0.001825 0.000000 0.070088 0.000000
# 6 0.000000 0.000000 0.000000 -0.028364 0.000000 0.038249
#
#
# Mechanical properties :
#
#
# Convention : Reuss Voigt Hill
#
# Bulk Modulus (GPa) = 40.23903 46.44122 43.34013
# Shear Modulus (GPa) = 19.87108 29.32401 24.59755
#
# Velocity S-wave (km/s) = 2.81038 3.41402 3.12680
# Velocity P-wave (km/s) = 5.15024 5.83095 5.50114
#
# Compressibility (1/GPa) = 0.02485149
#
# Stress axis : x y z
#
# Youngs Moduli (GPa) = 46.00239 47.30107 104.87279
#
# Poissons Ratio (x) = 0.41986 0.54830
# Poissons Ratio (y) = 0.40833 -0.03388
# Poissons Ratio (z) = 0.24051 -0.01528
#
# Static dielectric constant tensor:
#      x y z
#    x 1.948690 0.000000 -0.032990 
#    y 0.000000 2.102780 0.000000 
#    z -0.032990 0.000000 2.041210 
# 
# From -- ./inp_files/11761.got.cif
#   From: 2010.05.17/outbox.cif.g08.bks.cpg/sg14_6_cif.got.tgz:11761.got - 2010.06.03 17:49:19.
