data_PCOD9241721
_publ_section_title
;
Structure prediction by ZEFSAII (Michael W. Deem and Ramdas Pophale) SiO2 
 PCOD9241721
Probable space group: P 21/C
;
_chemical_formula_sum "Si O2"
_cell_formula_units_Z 16
_cell_length_a 7.514040
_cell_length_b 9.020481
_cell_length_c 15.397528
_cell_angle_alpha 90.000000
_cell_angle_beta 34.874557
_cell_angle_gamma 90.000000
_cell_volume 596.738955
_symmetry_space_group_name_H-M "P 21/C"
_symmetry_group_IT_number 14
_symmetry_cell_setting 'monoclinic'
loop_
_space_group_symop_operation_xyz
x,y,z
-x,1/2+y,1/2-z
-x,-y,-z
x,1/2-y,1/2+z
loop_
_atom_site_type_symbol
_atom_site_label
_atom_site_fract_x
_atom_site_fract_y
_atom_site_fract_z
Si Si1 0.625958 0.195122 0.002702
Si Si2 0.326668 0.592100 0.702750
Si Si3 0.221854 0.447681 0.333955
Si Si4 0.254874 0.478911 0.975018
O O1 0.555590 0.174865 0.929726
O O2 0.981949 0.138724 0.870570
O O3 0.639051 0.362486 0.029198
O O4 0.411946 0.081369 0.144314
O O5 0.516393 0.633892 0.713523
O O6 0.959355 0.602907 0.868685
O O7 0.418473 0.566599 0.200080
O O8 0.000000 0.500000 0.500000
O O9 0.000000 0.500000 0.000000
#
# Coordination Sequence:
#
# PCOD9241721 Si02
#       4
#     4   4   4   4
#     4  10  19  37  60  84 122 162 201 256 311 372
#     4   9  20  37  58  88 122 159 206 253 306 373
#     4   9  19  37  60  85 118 157 200 254 310 368
#     4  10  20  37  61  90 123 162 210 260 318 381
#
# _framework density 26.812391999999999
#
# number of rings (size 3 to 8) (size 9 to 14) (size 15 to 20)
#    0.000    2.500    0.000    1.500    0.000    1.000 
#    0.000   30.000    0.000    0.000    0.000    0.000 
#    0.000    0.000    0.000    0.000    0.000    0.000 
#
# Total GULP energy -89409.567284 kJ/mol
# GULP energy per Si atom -5588.097955 kJ/mol
# Density = 2.675137 g / cm^3
# Si number density = 26.812392 Si / 1000 Ang^3
#
#
#
# Elastic Constant Matrix: (Units=GPa)
#
#
# Indices 1 2 3 4 5 6 
#
# 1 81.5173 5.9804 3.4775 0.0000 4.1491 0.0000
# 2 5.9804 73.1830 27.1618 0.0000 -8.8829 0.0000
# 3 3.4775 27.1618 208.4858 0.0000 -29.2505 0.0000
# 4 0.0000 0.0000 0.0000 37.7070 0.0000 4.8185
# 5 4.1491 -8.8829 -29.2505 0.0000 41.0445 0.0000
# 6 0.0000 0.0000 0.0000 4.8185 0.0000 15.7247
#
#
#
# Elastic Compliance Matrix: (Units=1/GPa)
#
#
# Indices 1 2 3 4 5 6 
#
# 1 0.012449 -0.001113 -0.000303 0.000000 -0.001716 0.000000
# 2 -0.001113 0.014603 -0.001583 0.000000 0.002145 0.000000
# 3 -0.000303 -0.001583 0.005515 0.000000 0.003619 0.000000
# 4 0.000000 0.000000 0.000000 0.027601 0.000000 -0.008458
# 5 -0.001716 0.002145 0.003619 0.000000 0.027580 0.000000
# 6 0.000000 0.000000 0.000000 -0.008458 0.000000 0.066186
#
#
# Mechanical properties :
#
#
# Convention : Reuss Voigt Hill
#
# Bulk Modulus (GPa) = 37.63755 48.49173 43.06464
# Shear Modulus (GPa) = 29.62258 40.66634 35.14446
#
# Velocity S-wave (km/s) = 3.32747 3.89871 3.62436
# Velocity P-wave (km/s) = 5.36941 6.19608 5.79750
#
# Compressibility (1/GPa) = 0.02656921
#
# Stress axis : x y z
#
# Youngs Moduli (GPa) = 80.32616 68.47811 181.30748
#
# Poissons Ratio (x) = 0.07621 0.05500
# Poissons Ratio (y) = 0.08940 0.28702
# Poissons Ratio (z) = 0.02437 0.10840
#
# Static dielectric constant tensor:
#      x y z
#    x 2.114770 0.000000 -0.012910 
#    y 0.000000 2.237800 0.000000 
#    z -0.012910 0.000000 2.213840 
# 
# From -- ./inp_files/7612.got.cif
#   From: 2010.05.17/outbox.cif.g08.bks.cpg/sg14_4_cif.got.tgz:7612.got - 2010.06.03 17:49:19.
