data_PCOD9241306
_publ_section_title
;
Structure prediction by ZEFSAII (Michael W. Deem and Ramdas Pophale) SiO2 
 PCOD9241306
Probable space group: P 21/C
;
_chemical_formula_sum "Si O2"
_cell_formula_units_Z 32
_cell_length_a 6.961738
_cell_length_b 31.740248
_cell_length_c 5.451989
_cell_angle_alpha 90.000000
_cell_angle_beta 77.569088
_cell_angle_gamma 90.000000
_cell_volume 1176.468329
_symmetry_space_group_name_H-M "P 21/C"
_symmetry_group_IT_number 14
_symmetry_cell_setting 'monoclinic'
loop_
_space_group_symop_operation_xyz
x,y,z
-x,1/2+y,1/2-z
-x,-y,-z
x,1/2-y,1/2+z
loop_
_atom_site_type_symbol
_atom_site_label
_atom_site_fract_x
_atom_site_fract_y
_atom_site_fract_z
Si Si1 0.301586 0.351125 0.287915
Si Si2 0.175718 0.947444 0.293090
Si Si3 0.298001 0.261422 0.542058
Si Si4 0.964071 0.587136 0.459766
Si Si5 0.252614 0.462614 0.837665
Si Si6 0.825457 0.136629 0.437396
Si Si7 0.243239 0.732060 0.006367
Si Si8 0.518121 0.619470 0.253961
O O1 0.273897 0.304566 0.396240
O O2 0.417853 0.371662 0.486094
O O3 0.109333 0.380200 0.316947
O O4 0.397021 0.352513 0.995322
O O5 0.148586 0.938631 0.012604
O O6 0.246914 0.903800 0.390680
O O7 0.950323 0.956891 0.449122
O O8 0.301608 0.988199 0.324636
O O9 0.220331 0.268400 0.841424
O O10 0.527225 0.247249 0.526403
O O11 0.970232 0.618805 0.223237
O O12 0.816877 0.550528 0.417347
O O13 0.418284 0.427853 0.841165
O O14 0.792298 0.182930 0.547261
O O15 0.706172 0.134127 0.213377
O O16 0.161212 0.741548 0.299999
#
# Coordination Sequence:
#
# PCOD9241306 Si02
#       8
#     4   4   4   4   4   4   4   4
#     4  11  22  41  67  90 125 166 221 258 313 381
#     4  10  20  40  64  90 133 171 215 262 324 391
#     4  10  19  35  59  89 115 155 207 263 308 369
#     4  10  22  40  63  94 127 176 210 270 318 388
#     4   9  20  39  64  93 123 177 224 255 314 385
#     4  11  25  38  63  98 130 167 211 270 338 382
#     4  10  21  38  60  86 121 164 206 254 319 388
#     4  11  22  39  64  98 125 169 213 267 311 381
#
# _framework density 27.200054000000002
#
# number of rings (size 3 to 8) (size 9 to 14) (size 15 to 20)
#    0.000    1.750    1.250    4.125    3.500    0.500 
#    0.000    1.875    0.000    0.000    0.000    0.000 
#    0.000    0.000    0.000    0.000    0.000    0.000 
#
# Total GULP energy -178485.423948 kJ/mol
# GULP energy per Si atom -5577.669498 kJ/mol
# Density = 2.713815 g / cm^3
# Si number density = 27.200054 Si / 1000 Ang^3
#
#
#
# Elastic Constant Matrix: (Units=GPa)
#
#
# Indices 1 2 3 4 5 6 
#
# 1 46.1054 7.9730 15.0648 0.0000 9.7884 0.0000
# 2 7.9730 194.0085 23.9819 0.0000 12.7033 0.0000
# 3 15.0648 23.9819 121.7321 0.0000 19.2294 0.0000
# 4 0.0000 0.0000 0.0000 38.6770 0.0000 7.8318
# 5 9.7884 12.7033 19.2294 0.0000 43.0780 0.0000
# 6 0.0000 0.0000 0.0000 7.8318 0.0000 30.4075
#
#
#
# Elastic Compliance Matrix: (Units=1/GPa)
#
#
# Indices 1 2 3 4 5 6 
#
# 1 0.023359 -0.000418 -0.002140 0.000000 -0.004229 0.000000
# 2 -0.000418 0.005347 -0.000826 0.000000 -0.001113 0.000000
# 3 -0.002140 -0.000826 0.009174 0.000000 -0.003365 0.000000
# 4 0.000000 0.000000 0.000000 0.027278 0.000000 -0.007026
# 5 -0.004229 -0.001113 -0.003365 0.000000 0.026005 0.000000
# 6 0.000000 0.000000 0.000000 -0.007026 0.000000 0.034696
#
#
# Mechanical properties :
#
#
# Convention : Reuss Voigt Hill
#
# Bulk Modulus (GPa) = 32.14353 50.65394 41.39873
# Shear Modulus (GPa) = 34.96564 43.42093 39.19329
#
# Velocity S-wave (km/s) = 3.58928 3.99978 3.80007
# Velocity P-wave (km/s) = 5.38705 6.32409 5.87428
#
# Compressibility (1/GPa) = 0.03111046
#
# Stress axis : x y z
#
# Youngs Moduli (GPa) = 42.81009 187.03640 109.00498
#
# Poissons Ratio (x) = 0.07827 0.23330
# Poissons Ratio (y) = 0.01792 0.09001
# Poissons Ratio (z) = 0.09163 0.15444
#
# Static dielectric constant tensor:
#      x y z
#    x 2.402120 0.000000 -0.200370 
#    y 0.000000 2.099070 0.000000 
#    z -0.200370 0.000000 2.272450 
# 
# From -- ./inp_files/2121.got.cif
#   From: 2010.05.17/outbox.cif.g08.bks.cpg/sg14_2_cif.got.tgz:2121.got - 2010.06.03 17:49:19.
