data_PCOD9241493
_publ_section_title
;
Structure prediction by ZEFSAII (Michael W. Deem and Ramdas Pophale) SiO2 
 PCOD9241493
Probable space group: P 21/C
;
_chemical_formula_sum "Si O2"
_cell_formula_units_Z 28
_cell_length_a 19.499996
_cell_length_b 16.526995
_cell_length_c 10.054267
_cell_angle_alpha 90.000000
_cell_angle_beta 26.855927
_cell_angle_gamma 90.000000
_cell_volume 1463.779416
_symmetry_space_group_name_H-M "P 21/C"
_symmetry_group_IT_number 14
_symmetry_cell_setting 'monoclinic'
loop_
_space_group_symop_operation_xyz
x,y,z
-x,1/2+y,1/2-z
-x,-y,-z
x,1/2-y,1/2+z
loop_
_atom_site_type_symbol
_atom_site_label
_atom_site_fract_x
_atom_site_fract_y
_atom_site_fract_z
Si Si1 0.369730 0.418783 0.430010
Si Si2 0.835993 0.426022 0.260723
Si Si3 0.606531 0.750027 0.236889
Si Si4 0.976831 0.012714 0.770804
Si Si5 0.544630 0.324860 0.751722
Si Si6 0.652503 0.981980 0.457998
Si Si7 0.744878 0.587442 0.072070
O O1 0.266876 0.492039 0.553274
O O2 0.330636 0.334431 0.428732
O O3 0.339711 0.417158 0.639925
O O4 0.546453 0.441861 0.105785
O O5 0.939695 0.427028 0.211983
O O6 0.717646 0.353312 0.461779
O O7 0.935156 0.439396 0.956122
O O8 0.513442 0.767762 0.531083
O O9 0.492167 0.716159 0.324249
O O10 0.730223 0.680093 0.048570
O O11 0.087877 0.054833 0.684010
O O12 0.819253 0.988067 0.109324
O O13 0.438810 0.404923 0.940000
O O14 0.669608 0.966714 0.586648
#
# Coordination Sequence:
#
# PCOD9241493 Si02
#       7
#     4   4   4   4   4   4   4
#     4  10  19  36  62  86 112 152 201 251 283 337
#     4   9  20  37  63  84 110 153 203 242 285 343
#     4  11  20  36  59  86 120 152 191 241 297 345
#     4  10  19  36  59  85 118 149 190 249 286 349
#     4  10  21  37  62  87 114 152 203 241 292 341
#     4  10  20  35  63  90 110 151 205 246 288 340
#     4  10  21  35  56  88 120 157 187 243 295 355
#
# _framework density 19.128564999999998
#
# number of rings (size 3 to 8) (size 9 to 14) (size 15 to 20)
#    0.000    2.000    1.429    2.571    0.000    3.429 
#    0.000    0.000   25.143    0.000    0.000    0.000 
#    0.000    0.000    0.000    0.000    0.000    0.000 
#
# Total GULP energy -156283.266656 kJ/mol
# GULP energy per Si atom -5581.545238 kJ/mol
# Density = 1.908503 g / cm^3
# Si number density = 19.128565 Si / 1000 Ang^3
#
#
#
# Elastic Constant Matrix: (Units=GPa)
#
#
# Indices 1 2 3 4 5 6 
#
# 1 75.8710 12.4576 12.4458 0.0000 11.5574 0.0000
# 2 12.4576 34.4238 -6.4049 0.0000 -2.5974 0.0000
# 3 12.4458 -6.4049 80.9367 0.0000 -10.5369 0.0000
# 4 0.0000 0.0000 0.0000 16.9320 0.0000 6.3579
# 5 11.5574 -2.5974 -10.5369 0.0000 21.2210 0.0000
# 6 0.0000 0.0000 0.0000 6.3579 0.0000 14.4864
#
#
#
# Elastic Compliance Matrix: (Units=1/GPa)
#
#
# Indices 1 2 3 4 5 6 
#
# 1 0.017303 -0.008163 -0.004986 0.000000 -0.012899 0.000000
# 2 -0.008163 0.033859 0.005402 0.000000 0.011272 0.000000
# 3 -0.004986 0.005402 0.014956 0.000000 0.010803 0.000000
# 4 0.000000 0.000000 0.000000 0.070714 0.000000 -0.031035
# 5 -0.012899 0.011272 0.010803 0.000000 0.060892 0.000000
# 6 0.000000 0.000000 0.000000 -0.031035 0.000000 0.082651
#
#
# Mechanical properties :
#
#
# Convention : Reuss Voigt Hill
#
# Bulk Modulus (GPa) = 19.75292 25.35872 22.55582
# Shear Modulus (GPa) = 15.98755 22.04340 19.01547
#
# Velocity S-wave (km/s) = 2.89415 3.39836 3.15634
# Velocity P-wave (km/s) = 4.63864 5.35576 5.01005
#
# Compressibility (1/GPa) = 0.05062541
#
# Stress axis : x y z
#
# Youngs Moduli (GPa) = 57.79255 29.53393 66.86317
#
# Poissons Ratio (x) = 0.24108 0.33338
# Poissons Ratio (y) = 0.47175 -0.36121
# Poissons Ratio (z) = 0.28815 -0.15955
#
# Static dielectric constant tensor:
#      x y z
#    x 1.677140 0.000000 0.013250 
#    y 0.000000 1.670210 0.000000 
#    z 0.013250 0.000000 1.672840 
# 
# From -- ./inp_files/18162.got.cif
#   From: 2010.05.17/outbox.cif.g08.bks.cpg/sg14_10_cif.got.tgz:18162.got - 2010.06.03 17:49:19.
