data_PCOD9241240
_publ_section_title
;
Structure prediction by ZEFSAII (Michael W. Deem and Ramdas Pophale) SiO2 
 PCOD9241240
Probable space group: P 21/C
;
_chemical_formula_sum "Si O2"
_cell_formula_units_Z 24
_cell_length_a 14.814091
_cell_length_b 7.270530
_cell_length_c 15.155232
_cell_angle_alpha 90.000000
_cell_angle_beta 138.271219
_cell_angle_gamma 90.000000
_cell_volume 1086.476796
_symmetry_space_group_name_H-M "P 21/C"
_symmetry_group_IT_number 14
_symmetry_cell_setting 'monoclinic'
loop_
_space_group_symop_operation_xyz
x,y,z
-x,1/2+y,1/2-z
-x,-y,-z
x,1/2-y,1/2+z
loop_
_atom_site_type_symbol
_atom_site_label
_atom_site_fract_x
_atom_site_fract_y
_atom_site_fract_z
Si Si1 0.865288 0.624970 0.095222
Si Si2 0.169224 0.799651 0.883847
Si Si3 0.165208 0.662791 0.576560
Si Si4 0.329369 0.286395 0.894796
Si Si5 0.872524 0.752669 0.400339
Si Si6 0.639373 0.274943 0.130629
O O1 0.831695 0.414264 0.089893
O O2 0.762985 0.731694 0.085517
O O3 0.020083 0.656736 0.238314
O O4 0.850933 0.673988 0.982607
O O5 0.278832 0.825551 0.887626
O O6 0.195353 0.889305 0.997699
O O7 0.137288 0.469132 0.603487
O O8 0.285278 0.751586 0.720819
O O9 0.027337 0.783259 0.481497
O O10 0.243094 0.194092 0.753226
O O11 0.347606 0.505602 0.884157
O O12 0.482613 0.221035 0.018649
#
# Coordination Sequence:
#
# PCOD9241240 Si02
#       6
#     4   4   4   4   4   4
#     4  11  21  35  57  84 110 142 185 226 270 320
#     4  11  21  35  57  84 110 142 185 226 270 320
#     4  10  19  35  57  82 109 144 184 221 269 324
#     4   9  19  36  56  78 110 148 181 218 271 329
#     4  10  19  35  57  82 109 144 184 221 269 324
#     4   9  19  36  56  78 110 148 181 218 271 329
#
# _framework density 22.089749000000001
#
# number of rings (size 3 to 8) (size 9 to 14) (size 15 to 20)
#    0.000    2.000    3.333    1.000    0.000    2.000 
#    0.000    0.000    0.000    7.000    0.000    0.000 
#    0.000    0.000    0.000    0.000    0.000    0.000 
#
# Total GULP energy -134160.277338 kJ/mol
# GULP energy per Si atom -5590.011556 kJ/mol
# Density = 2.203947 g / cm^3
# Si number density = 22.089749 Si / 1000 Ang^3
#
#
#
# Elastic Constant Matrix: (Units=GPa)
#
#
# Indices 1 2 3 4 5 6 
#
# 1 143.1522 -6.9814 108.3041 0.0000 5.8963 0.0000
# 2 -6.9814 33.9693 9.0996 0.0000 1.6703 0.0000
# 3 108.3041 9.0996 214.4542 0.0000 7.8699 0.0000
# 4 0.0000 0.0000 0.0000 14.8977 0.0000 -14.2834
# 5 5.8963 1.6703 7.8699 0.0000 39.4251 0.0000
# 6 0.0000 0.0000 0.0000 -14.2834 0.0000 30.8975
#
#
#
# Elastic Compliance Matrix: (Units=1/GPa)
#
#
# Indices 1 2 3 4 5 6 
#
# 1 0.011860 0.004117 -0.006137 0.000000 -0.000723 0.000000
# 2 0.004117 0.031247 -0.003358 0.000000 -0.001269 0.000000
# 3 -0.006137 -0.003358 0.007924 0.000000 -0.000522 0.000000
# 4 0.000000 0.000000 0.000000 0.120558 0.000000 0.055732
# 5 -0.000723 -0.001269 -0.000522 0.000000 0.025631 0.000000
# 6 0.000000 0.000000 0.000000 0.055732 0.000000 0.058129
#
#
# Mechanical properties :
#
#
# Convention : Reuss Voigt Hill
#
# Bulk Modulus (GPa) = 24.83084 68.04668 46.43876
# Shear Modulus (GPa) = 17.88722 35.78764 26.83743
#
# Velocity S-wave (km/s) = 2.84870 4.02942 3.48936
# Velocity P-wave (km/s) = 4.69951 7.24705 6.10758
#
# Compressibility (1/GPa) = 0.04027250
#
# Stress axis : x y z
#
# Youngs Moduli (GPa) = 84.32019 32.00353 126.19551
#
# Poissons Ratio (x) = -0.13176 0.77452
# Poissons Ratio (y) = -0.34715 0.42382
# Poissons Ratio (z) = 0.51751 0.10748
#
# Static dielectric constant tensor:
#      x y z
#    x 1.755510 0.000000 0.009180 
#    y 0.000000 1.905580 0.000000 
#    z 0.009180 0.000000 1.762210 
# 
# From -- ./inp_files/43027.got.cif
#   From: 2010.05.17/outbox.cif.g08.bks.cpg/sg14_22_cif.got.tgz:43027.got - 2010.06.03 17:49:19.
