data_PCOD9241944
_publ_section_title
;
Structure prediction by ZEFSAII (Michael W. Deem and Ramdas Pophale) SiO2 
 PCOD9241944
Probable space group: P 21/C
;
_chemical_formula_sum "Si O2"
_cell_formula_units_Z 28
_cell_length_a 5.595980
_cell_length_b 9.247618
_cell_length_c 26.816968
_cell_angle_alpha 90.000000
_cell_angle_beta 119.396772
_cell_angle_gamma 90.000000
_cell_volume 1209.077799
_symmetry_space_group_name_H-M "P 21/C"
_symmetry_group_IT_number 14
_symmetry_cell_setting 'monoclinic'
loop_
_space_group_symop_operation_xyz
x,y,z
-x,1/2+y,1/2-z
-x,-y,-z
x,1/2-y,1/2+z
loop_
_atom_site_type_symbol
_atom_site_label
_atom_site_fract_x
_atom_site_fract_y
_atom_site_fract_z
Si Si1 0.389490 0.214514 0.594577
Si Si2 0.295969 0.309953 0.691807
Si Si3 0.594817 0.897598 0.206319
Si Si4 0.753184 0.079844 0.085874
Si Si5 0.306895 0.455919 0.911733
Si Si6 0.954045 0.821132 0.144343
Si Si7 0.185233 0.666072 0.987404
O O1 0.324495 0.213420 0.645517
O O2 0.482774 0.373496 0.587614
O O3 0.134880 0.174181 0.533488
O O4 0.625625 0.098322 0.612213
O O5 0.292467 0.206872 0.738763
O O6 0.536078 0.433323 0.715431
O O7 0.004741 0.384106 0.649452
O O8 0.793764 0.871911 0.178849
O O9 0.277095 0.846148 0.169078
O O10 0.766029 0.186236 0.039744
O O11 0.797649 0.910412 0.084036
O O12 0.094800 0.348488 0.866096
O O13 0.212959 0.528221 0.953544
O O14 0.586605 0.363334 0.948164
#
# Coordination Sequence:
#
# PCOD9241944 Si02
#       7
#     4   4   4   4   4   4   4
#     4  10  19  38  62  87 124 164 206 258 317 369
#     4  10  23  40  63  89 124 164 205 260 314 375
#     4  11  26  42  65  93 128 162 216 254 318 374
#     4   9  20  41  61  86 126 163 203 259 315 372
#     4  10  22  37  63  91 129 160 215 260 310 373
#     4  11  25  43  62  96 130 164 208 265 309 377
#     4   9  20  39  61  93 120 168 212 256 312 374
#
# _framework density 23.158145000000001
#
# number of rings (size 3 to 8) (size 9 to 14) (size 15 to 20)
#    0.000    2.000    1.429    0.429    6.000    2.857 
#    0.000    0.714    0.000    0.000    0.000    0.000 
#    0.000    0.000    0.000    0.000    0.000    0.000 
#
# Total GULP energy -156137.017498 kJ/mol
# GULP energy per Si atom -5576.322053 kJ/mol
# Density = 2.310544 g / cm^3
# Si number density = 23.158145 Si / 1000 Ang^3
#
#
#
# Elastic Constant Matrix: (Units=GPa)
#
#
# Indices 1 2 3 4 5 6 
#
# 1 73.9847 3.6589 5.3532 0.0000 -3.5313 0.0000
# 2 3.6589 21.9387 8.9279 0.0000 7.9510 0.0000
# 3 5.3532 8.9279 25.6181 0.0000 0.2196 0.0000
# 4 0.0000 0.0000 0.0000 31.1589 0.0000 10.6934
# 5 -3.5313 7.9510 0.2196 0.0000 27.9879 0.0000
# 6 0.0000 0.0000 0.0000 10.6934 0.0000 19.6747
#
#
#
# Elastic Compliance Matrix: (Units=1/GPa)
#
#
# Indices 1 2 3 4 5 6 
#
# 1 0.013901 -0.002343 -0.002109 0.000000 0.002436 0.000000
# 2 -0.002343 0.060594 -0.020479 0.000000 -0.017349 0.000000
# 3 -0.002109 -0.020479 0.046568 0.000000 0.005186 0.000000
# 4 0.000000 0.000000 0.000000 0.039453 0.000000 -0.021443
# 5 0.002436 -0.017349 0.005186 0.000000 0.040925 0.000000
# 6 0.000000 0.000000 0.000000 -0.021443 0.000000 0.062481
#
#
# Mechanical properties :
#
#
# Convention : Reuss Voigt Hill
#
# Bulk Modulus (GPa) = 14.04473 17.49130 15.76801
# Shear Modulus (GPa) = 14.81410 22.67106 18.74258
#
# Velocity S-wave (km/s) = 2.53196 3.13224 2.84796
# Velocity P-wave (km/s) = 3.82435 4.54429 4.19978
#
# Compressibility (1/GPa) = 0.07120108
#
# Stress axis : x y z
#
# Youngs Moduli (GPa) = 71.93693 16.50341 21.47400
#
# Poissons Ratio (x) = 0.03867 0.04529
# Poissons Ratio (y) = 0.16855 0.43976
# Poissons Ratio (z) = 0.15173 0.33797
#
# Static dielectric constant tensor:
#      x y z
#    x 1.935770 0.000000 0.025750 
#    y 0.000000 1.925140 0.000000 
#    z 0.025750 0.000000 1.889440 
# 
# From -- ./inp_files/75633.got.cif
#   From: 2010.05.17/outbox.cif.g08.bks.cpg/sg14_38_cif.got.tgz:75633.got - 2010.06.03 17:49:19.
