data_PCOD9241674
_publ_section_title
;
Structure prediction by ZEFSAII (Michael W. Deem and Ramdas Pophale) SiO2 
 PCOD9241674
Probable space group: P 21/C
;
_chemical_formula_sum "Si O2"
_cell_formula_units_Z 28
_cell_length_a 9.154627
_cell_length_b 17.796985
_cell_length_c 11.380828
_cell_angle_alpha 90.000000
_cell_angle_beta 50.587303
_cell_angle_gamma 90.000000
_cell_volume 1432.556166
_symmetry_space_group_name_H-M "P 21/C"
_symmetry_group_IT_number 14
_symmetry_cell_setting 'monoclinic'
loop_
_space_group_symop_operation_xyz
x,y,z
-x,1/2+y,1/2-z
-x,-y,-z
x,1/2-y,1/2+z
loop_
_atom_site_type_symbol
_atom_site_label
_atom_site_fract_x
_atom_site_fract_y
_atom_site_fract_z
Si Si1 0.949867 0.083762 0.337223
Si Si2 0.355301 0.941262 0.837373
Si Si3 0.163612 0.417231 0.313241
Si Si4 0.784693 0.042289 0.853566
Si Si5 0.073815 0.650486 0.899565
Si Si6 0.934615 0.173228 0.102153
Si Si7 0.289625 0.435282 0.013262
O O1 0.916653 0.134141 0.467595
O O2 0.946473 0.130781 0.220127
O O3 0.788920 0.019488 0.425420
O O4 0.146558 0.036271 0.237346
O O5 0.538204 0.938931 0.662920
O O6 0.246343 0.863187 0.870087
O O7 0.227416 0.009881 0.853135
O O8 0.377492 0.956290 0.965289
O O9 0.111540 0.351241 0.429646
O O10 0.969650 0.435310 0.340355
O O11 0.315665 0.403045 0.132176
O O12 0.774601 0.103368 0.755168
O O13 0.080839 0.738481 0.873007
O O14 0.875118 0.614377 0.960484
#
# Coordination Sequence:
#
# PCOD9241674 Si02
#       7
#     4   4   4   4   4   4   4
#     4  10  19  37  58  77 108 148 191 215 266 338
#     4  11  18  35  59  86 107 137 188 240 267 310
#     4   9  17  33  55  83 104 140 185 225 261 318
#     4   9  17  35  57  79 106 144 194 217 258 330
#     4  10  23  36  55  80 115 149 180 220 277 338
#     4  11  20  34  59  84 107 146 184 226 276 327
#     4  10  21  36  58  83 111 141 186 236 270 308
#
# _framework density 19.545482
#
# number of rings (size 3 to 8) (size 9 to 14) (size 15 to 20)
#    0.000    2.286    4.286    3.000    6.000    0.000 
#    0.000    5.714    0.000    0.000    0.000    0.000 
#    0.000    0.000    0.000    0.000    0.000    0.000 
#
# Total GULP energy -156108.908712 kJ/mol
# GULP energy per Si atom -5575.318168 kJ/mol
# Density = 1.950100 g / cm^3
# Si number density = 19.545482 Si / 1000 Ang^3
#
#
#
# Elastic Constant Matrix: (Units=GPa)
#
#
# Indices 1 2 3 4 5 6 
#
# 1 14.3610 4.5997 18.6111 0.0000 9.3521 0.0000
# 2 4.5997 103.0416 46.5757 0.0000 10.9269 0.0000
# 3 18.6111 46.5757 185.5308 0.0000 -1.6653 0.0000
# 4 0.0000 0.0000 0.0000 16.3875 0.0000 4.8442
# 5 9.3521 10.9269 -1.6653 0.0000 21.1130 0.0000
# 6 0.0000 0.0000 0.0000 4.8442 0.0000 13.3882
#
#
#
# Elastic Compliance Matrix: (Units=1/GPa)
#
#
# Indices 1 2 3 4 5 6 
#
# 1 0.126855 0.007725 -0.015215 0.000000 -0.061389 0.000000
# 2 0.007725 0.012201 -0.003928 0.000000 -0.010046 0.000000
# 3 -0.015215 -0.003928 0.007987 0.000000 0.009403 0.000000
# 4 0.000000 0.000000 0.000000 0.068330 0.000000 -0.024723
# 5 -0.061389 -0.010046 0.009403 0.000000 0.080498 0.000000
# 6 0.000000 0.000000 0.000000 -0.024723 0.000000 0.083638
#
#
# Mechanical properties :
#
#
# Convention : Reuss Voigt Hill
#
# Bulk Modulus (GPa) = 8.05120 49.16738 28.60929
# Shear Modulus (GPa) = 11.26767 25.72087 18.49427
#
# Velocity S-wave (km/s) = 2.40361 3.63154 3.07940
# Velocity P-wave (km/s) = 3.43967 6.54172 5.22615
#
# Compressibility (1/GPa) = 0.12420504
#
# Stress axis : x y z
#
# Youngs Moduli (GPa) = 7.88302 81.96210 125.20804
#
# Poissons Ratio (x) = -0.63313 1.90509
# Poissons Ratio (y) = -0.06089 0.49181
# Poissons Ratio (z) = 0.11994 0.32194
#
# Static dielectric constant tensor:
#      x y z
#    x 1.743300 0.000000 -0.017100 
#    y 0.000000 1.648180 0.000000 
#    z -0.017100 0.000000 1.787310 
# 
# From -- ./inp_files/30177.got.cif
#   From: 2010.05.17/outbox.cif.g08.bks.cpg/sg14_16_cif.got.tgz:30177.got - 2010.06.03 17:49:19.
