data_PCOD9241959
_publ_section_title
;
Structure prediction by ZEFSAII (Michael W. Deem and Ramdas Pophale) SiO2 
 PCOD9241959
Probable space group: P 21/C
;
_chemical_formula_sum "Si O2"
_cell_formula_units_Z 28
_cell_length_a 7.058314
_cell_length_b 10.456896
_cell_length_c 17.950986
_cell_angle_alpha 90.000000
_cell_angle_beta 117.878417
_cell_angle_gamma 90.000000
_cell_volume 1171.158729
_symmetry_space_group_name_H-M "P 21/C"
_symmetry_group_IT_number 14
_symmetry_cell_setting 'monoclinic'
loop_
_space_group_symop_operation_xyz
x,y,z
-x,1/2+y,1/2-z
-x,-y,-z
x,1/2-y,1/2+z
loop_
_atom_site_type_symbol
_atom_site_label
_atom_site_fract_x
_atom_site_fract_y
_atom_site_fract_z
Si Si1 0.176327 0.551505 0.766731
Si Si2 0.498362 0.385954 0.306140
Si Si3 0.516957 0.378037 0.892674
Si Si4 0.776833 0.619896 0.880311
Si Si5 0.874424 0.025099 0.090869
Si Si6 0.243264 0.692265 0.929806
Si Si7 0.301100 0.110410 0.076012
O O1 0.326508 0.600194 0.727387
O O2 0.284645 0.424430 0.821948
O O3 0.198280 0.648170 0.838294
O O4 0.953916 0.522849 0.685328
O O5 0.552931 0.260816 0.363529
O O6 0.283544 0.371896 0.218303
O O7 0.521096 0.513035 0.360024
O O8 0.679120 0.487044 0.891464
O O9 0.557917 0.364221 0.987970
O O10 0.666517 0.741438 0.900154
O O11 0.030362 0.642304 0.934608
O O12 0.742278 0.155410 0.067678
O O13 0.090070 0.068299 0.085363
O O14 0.757493 0.919550 0.019739
#
# Coordination Sequence:
#
# PCOD9241959 Si02
#       7
#     4   4   4   4   4   4   4
#     4  10  23  37  60  89 120 160 192 251 302 352
#     4  10  19  38  63  84 111 158 206 238 286 353
#     4  11  21  38  59  89 116 160 197 241 294 357
#     4  10  21  34  59  90 117 149 203 245 288 350
#     4   9  18  36  58  82 110 152 200 233 287 344
#     4  11  21  38  57  87 122 153 192 249 304 349
#     4   9  17  35  61  82 108 152 200 241 276 343
#
# _framework density 23.907947
#
# number of rings (size 3 to 8) (size 9 to 14) (size 15 to 20)
#    0.000    2.000    1.429    4.286    2.000    1.143 
#    2.571    0.000    3.143    4.286    0.000    0.000 
#    0.000    0.000    0.000    0.000    0.000    0.000 
#
# Total GULP energy -156634.492298 kJ/mol
# GULP energy per Si atom -5594.089011 kJ/mol
# Density = 2.385353 g / cm^3
# Si number density = 23.907947 Si / 1000 Ang^3
#
#
#
# Elastic Constant Matrix: (Units=GPa)
#
#
# Indices 1 2 3 4 5 6 
#
# 1 47.2478 19.1334 25.9562 0.0000 2.0861 0.0000
# 2 19.1334 85.7799 65.4410 0.0000 -10.3139 0.0000
# 3 25.9562 65.4410 203.6304 0.0000 -12.0307 0.0000
# 4 0.0000 0.0000 0.0000 44.9713 0.0000 -5.1929
# 5 2.0861 -10.3139 -12.0307 0.0000 16.8745 0.0000
# 6 0.0000 0.0000 0.0000 -5.1929 0.0000 20.6282
#
#
#
# Elastic Compliance Matrix: (Units=1/GPa)
#
#
# Indices 1 2 3 4 5 6 
#
# 1 0.024557 -0.004833 -0.002016 0.000000 -0.007427 0.000000
# 2 -0.004833 0.017034 -0.004393 0.000000 0.007877 0.000000
# 3 -0.002016 -0.004393 0.006719 0.000000 0.002354 0.000000
# 4 0.000000 0.000000 0.000000 0.022902 0.000000 0.005765
# 5 -0.007427 0.007877 0.002354 0.000000 0.066672 0.000000
# 6 0.000000 0.000000 0.000000 0.005765 0.000000 0.049929
#
#
# Mechanical properties :
#
#
# Convention : Reuss Voigt Hill
#
# Bulk Modulus (GPa) = 38.71882 61.96881 50.34382
# Shear Modulus (GPa) = 22.84093 31.56996 27.20544
#
# Velocity S-wave (km/s) = 3.09426 3.63778 3.37697
# Velocity P-wave (km/s) = 5.38480 6.60459 6.02564
#
# Compressibility (1/GPa) = 0.02582723
#
# Stress axis : x y z
#
# Youngs Moduli (GPa) = 40.72085 58.70584 148.83874
#
# Poissons Ratio (x) = 0.28370 0.30006
# Poissons Ratio (y) = 0.19679 0.65383
# Poissons Ratio (z) = 0.08209 0.25789
#
# Static dielectric constant tensor:
#      x y z
#    x 2.019960 0.000000 0.040260 
#    y 0.000000 1.875510 0.000000 
#    z 0.040260 0.000000 1.886590 
# 
# From -- ./inp_files/65037.got.cif
#   From: 2010.05.17/outbox.cif.g08.bks.cpg/sg14_33_cif.got.tgz:65037.got - 2010.06.03 17:49:19.
