data_PCOD9241907
_publ_section_title
;
Structure prediction by ZEFSAII (Michael W. Deem and Ramdas Pophale) SiO2 
 PCOD9241907
Probable space group: P 21/C
;
_chemical_formula_sum "Si O2"
_cell_formula_units_Z 20
_cell_length_a 8.038513
_cell_length_b 8.075907
_cell_length_c 14.221792
_cell_angle_alpha 90.000000
_cell_angle_beta 55.993282
_cell_angle_gamma 90.000000
_cell_volume 765.351984
_symmetry_space_group_name_H-M "P 21/C"
_symmetry_group_IT_number 14
_symmetry_cell_setting 'monoclinic'
loop_
_space_group_symop_operation_xyz
x,y,z
-x,1/2+y,1/2-z
-x,-y,-z
x,1/2-y,1/2+z
loop_
_atom_site_type_symbol
_atom_site_label
_atom_site_fract_x
_atom_site_fract_y
_atom_site_fract_z
Si Si1 0.166453 0.328337 0.543322
Si Si2 0.520896 0.174789 0.352755
Si Si3 0.839816 0.147755 0.398038
Si Si4 0.261918 0.652459 0.392949
Si Si5 0.810571 0.463235 0.292880
O O1 0.296991 0.178558 0.461996
O O2 0.212909 0.481355 0.459426
O O3 0.240310 0.384422 0.622111
O O4 0.928007 0.309007 0.614971
O O5 0.672489 0.083963 0.376618
O O6 0.549851 0.133497 0.235187
O O7 0.613234 0.361815 0.329107
O O8 0.740776 0.205103 0.527076
O O9 0.913302 0.325042 0.329234
O O10 0.033013 0.030918 0.332573
#
# Coordination Sequence:
#
# PCOD9241907 Si02
#       5
#     4   4   4   4   4
#     4  10  19  38  60  81 114 159 190 234 285 354
#     4  10  21  36  59  86 114 150 195 237 280 344
#     4   9  20  36  60  84 115 155 191 235 288 340
#     4  10  21  36  59  86 115 148 198 235 288 338
#     4   9  18  36  60  82 113 152 190 233 286 339
#
# _framework density 26.131767
#
# number of rings (size 3 to 8) (size 9 to 14) (size 15 to 20)
#    1.200    1.200    2.000    0.600    0.000    2.400 
#    0.000    2.000    0.000    6.000    0.000    0.000 
#    0.000    0.000    0.000    0.000    0.000    0.000 
#
# Total GULP energy -111756.586265 kJ/mol
# GULP energy per Si atom -5587.829313 kJ/mol
# Density = 2.607229 g / cm^3
# Si number density = 26.131767 Si / 1000 Ang^3
#
#
#
# Elastic Constant Matrix: (Units=GPa)
#
#
# Indices 1 2 3 4 5 6 
#
# 1 39.1463 5.8844 8.0498 0.0000 -4.2951 0.0000
# 2 5.8844 60.1804 -2.1578 0.0000 3.1430 0.0000
# 3 8.0498 -2.1578 116.5465 0.0000 -0.4993 0.0000
# 4 0.0000 0.0000 0.0000 30.2362 0.0000 -5.4229
# 5 -4.2951 3.1430 -0.4993 0.0000 46.6669 0.0000
# 6 0.0000 0.0000 0.0000 -5.4229 0.0000 30.2474
#
#
#
# Elastic Compliance Matrix: (Units=1/GPa)
#
#
# Indices 1 2 3 4 5 6 
#
# 1 0.026642 -0.002809 -0.001881 0.000000 0.002621 0.000000
# 2 -0.002809 0.016982 0.000502 0.000000 -0.001397 0.000000
# 3 -0.001881 0.000502 0.008719 0.000000 -0.000114 0.000000
# 4 0.000000 0.000000 0.000000 0.034172 0.000000 0.006127
# 5 0.002621 -0.001397 -0.000114 0.000000 0.021763 0.000000
# 6 0.000000 0.000000 0.000000 0.006127 0.000000 0.034159
#
#
# Mechanical properties :
#
#
# Convention : Reuss Voigt Hill
#
# Bulk Modulus (GPa) = 22.74401 26.60290 24.67345
# Shear Modulus (GPa) = 30.21730 35.03655 32.62693
#
# Velocity S-wave (km/s) = 3.40419 3.66562 3.53732
# Velocity P-wave (km/s) = 4.91669 5.30265 5.11331
#
# Compressibility (1/GPa) = 0.04396762
#
# Stress axis : x y z
#
# Youngs Moduli (GPa) = 37.53492 58.88454 114.69212
#
# Poissons Ratio (x) = 0.16543 0.21573
# Poissons Ratio (y) = 0.10545 -0.05763
# Poissons Ratio (z) = 0.07060 -0.02959
#
# Static dielectric constant tensor:
#      x y z
#    x 2.022980 0.000000 0.034840 
#    y 0.000000 2.107790 0.000000 
#    z 0.034840 0.000000 2.038930 
# 
# From -- ./inp_files/23555.got.cif
#   From: 2010.05.17/outbox.cif.g08.bks.cpg/sg14_12_cif.got.tgz:23555.got - 2010.06.03 17:49:19.
