data_PCOD9241936
_publ_section_title
;
Structure prediction by ZEFSAII (Michael W. Deem and Ramdas Pophale) SiO2 
 PCOD9241936
Probable space group: P 21/C
;
_chemical_formula_sum "Si O2"
_cell_formula_units_Z 28
_cell_length_a 19.512712
_cell_length_b 8.241505
_cell_length_c 16.801355
_cell_angle_alpha 90.000000
_cell_angle_beta 154.789297
_cell_angle_gamma 90.000000
_cell_volume 1150.867608
_symmetry_space_group_name_H-M "P 21/C"
_symmetry_group_IT_number 14
_symmetry_cell_setting 'monoclinic'
loop_
_space_group_symop_operation_xyz
x,y,z
-x,1/2+y,1/2-z
-x,-y,-z
x,1/2-y,1/2+z
loop_
_atom_site_type_symbol
_atom_site_label
_atom_site_fract_x
_atom_site_fract_y
_atom_site_fract_z
Si Si1 0.985743 0.660803 0.924951
Si Si2 0.676219 0.668142 0.155202
Si Si3 0.157271 0.641497 0.296653
Si Si4 0.339713 0.490703 0.616901
Si Si5 0.325724 0.822175 0.260208
Si Si6 0.105083 0.292722 0.847805
Si Si7 0.691146 0.038382 0.518261
O O1 0.846074 0.738782 0.834600
O O2 0.936523 0.471440 0.863037
O O3 0.946548 0.732217 0.793847
O O4 0.171968 0.717090 0.125130
O O5 0.685361 0.507612 0.218792
O O6 0.665048 0.603587 0.053634
O O7 0.496737 0.744824 0.974919
O O8 0.308462 0.548555 0.493916
O O9 0.215444 0.820477 0.337958
O O10 0.041682 0.666751 0.250379
O O11 0.325725 0.639660 0.664930
O O12 0.210149 0.350294 0.496845
O O13 0.514811 0.411559 0.806652
O O14 0.206291 0.457954 0.943622
#
# Coordination Sequence:
#
# PCOD9241936 Si02
#       7
#     4   4   4   4   4   4   4
#     4  10  20  36  56  82 110 147 185 234 282 335
#     4   9  21  37  62  82 106 151 198 238 275 340
#     4  11  21  35  54  82 119 143 184 234 291 349
#     4  10  20  34  57  83 106 150 186 236 291 332
#     4  10  19  38  62  82 111 147 198 234 285 340
#     4  10  20  34  53  81 113 145 185 225 286 347
#     4  10  20  36  55  80 115 145 190 235 282 346
#
# _framework density 24.329470000000001
#
# number of rings (size 3 to 8) (size 9 to 14) (size 15 to 20)
#    0.000    2.000    1.429    3.000    2.000    1.143 
#    2.571    0.714    0.000    2.571    0.000    0.000 
#    0.000    0.000    0.000    0.000    0.000    0.000 
#
# Total GULP energy -156403.393592 kJ/mol
# GULP energy per Si atom -5585.835485 kJ/mol
# Density = 2.427409 g / cm^3
# Si number density = 24.329470 Si / 1000 Ang^3
#
#
#
# Elastic Constant Matrix: (Units=GPa)
#
#
# Indices 1 2 3 4 5 6 
#
# 1 33.4891 5.0987 29.9480 0.0000 15.3068 0.0000
# 2 5.0987 83.3778 47.2270 0.0000 20.9024 0.0000
# 3 29.9480 47.2270 143.4388 0.0000 32.6104 0.0000
# 4 0.0000 0.0000 0.0000 24.6932 0.0000 15.8858
# 5 15.3068 20.9024 32.6104 0.0000 30.9309 0.0000
# 6 0.0000 0.0000 0.0000 15.8858 0.0000 13.5357
#
#
#
# Elastic Compliance Matrix: (Units=1/GPa)
#
#
# Indices 1 2 3 4 5 6 
#
# 1 0.043396 0.005770 -0.006828 0.000000 -0.018176 0.000000
# 2 0.005770 0.016532 -0.004549 0.000000 -0.009231 0.000000
# 3 -0.006828 -0.004549 0.011085 0.000000 -0.005234 0.000000
# 4 0.000000 0.000000 0.000000 0.165306 0.000000 -0.194006
# 5 -0.018176 -0.009231 -0.005234 0.000000 0.053081 0.000000
# 6 0.000000 0.000000 0.000000 -0.194006 0.000000 0.301567
#
#
# Mechanical properties :
#
#
# Convention : Reuss Voigt Hill
#
# Bulk Modulus (GPa) = 16.72275 47.20589 31.96432
# Shear Modulus (GPa) = 8.03714 25.70077 16.86895
#
# Velocity S-wave (km/s) = 1.81951 3.25370 2.63602
# Velocity P-wave (km/s) = 3.36193 5.79313 4.73618
#
# Compressibility (1/GPa) = 0.05979878
#
# Stress axis : x y z
#
# Youngs Moduli (GPa) = 23.04378 60.48993 90.21323
#
# Poissons Ratio (x) = -0.34906 0.61598
# Poissons Ratio (y) = -0.13297 0.41039
# Poissons Ratio (z) = 0.15734 0.27518
#
# Static dielectric constant tensor:
#      x y z
#    x 1.998160 0.000000 -0.044610 
#    y 0.000000 1.946760 0.000000 
#    z -0.044610 0.000000 2.031270 
# 
# From -- ./inp_files/64515.got.cif
#   From: 2010.05.17/outbox.cif.g08.bks.cpg/sg14_33_cif.got.tgz:64515.got - 2010.06.03 17:49:19.
