data_PCOD9241590
_publ_section_title
;
Structure prediction by ZEFSAII (Michael W. Deem and Ramdas Pophale) SiO2 
 PCOD9241590
Probable space group: P 21/C
;
_chemical_formula_sum "Si O2"
_cell_formula_units_Z 32
_cell_length_a 13.583501
_cell_length_b 9.525120
_cell_length_c 10.509253
_cell_angle_alpha 90.000000
_cell_angle_beta 61.030966
_cell_angle_gamma 90.000000
_cell_volume 1189.606434
_symmetry_space_group_name_H-M "P 21/C"
_symmetry_group_IT_number 14
_symmetry_cell_setting 'monoclinic'
loop_
_space_group_symop_operation_xyz
x,y,z
-x,1/2+y,1/2-z
-x,-y,-z
x,1/2-y,1/2+z
loop_
_atom_site_type_symbol
_atom_site_label
_atom_site_fract_x
_atom_site_fract_y
_atom_site_fract_z
Si Si1 0.617333 0.394818 0.846701
Si Si2 0.948144 0.133303 0.192070
Si Si3 0.186152 0.797059 0.937754
Si Si4 0.232928 0.102225 0.626994
Si Si5 0.137128 0.950404 0.188105
Si Si6 0.738290 0.009777 0.629486
Si Si7 0.476320 0.103163 0.803157
Si Si8 0.420683 0.280541 0.598446
O O1 0.722275 0.304271 0.732493
O O2 0.663770 0.490919 0.929254
O O3 0.582312 0.492648 0.753123
O O4 0.516914 0.309609 0.967272
O O5 0.932185 0.161840 0.050911
O O6 0.923505 0.295158 0.255745
O O7 0.869172 0.991381 0.257903
O O8 0.060108 0.077010 0.187224
O O9 0.196576 0.639964 0.979401
O O10 0.218572 0.907812 0.022799
O O11 0.291677 0.226008 0.668254
O O12 0.229991 0.123575 0.477736
O O13 0.198989 0.992377 0.276345
O O14 0.607102 0.050296 0.731308
O O15 0.458364 0.246149 0.724334
O O16 0.425797 0.103267 0.978640
#
# Coordination Sequence:
#
# PCOD9241590 Si02
#       8
#     4   4   4   4   4   4   4   4
#     4  10  19  36  62  87 118 169 205 247 312 388
#     4  10  23  43  68  89 123 167 217 263 329 384
#     4  10  21  39  65  88 121 164 213 259 320 387
#     4  10  19  40  61  85 120 168 208 247 309 396
#     4  11  24  42  64  97 124 161 215 277 325 381
#     4  11  20  34  64  91 118 160 211 255 313 382
#     4  11  22  36  59  93 128 167 211 262 309 384
#     4  11  21  37  62  90 128 167 214 252 323 378
#
# _framework density 26.899650999999999
#
# number of rings (size 3 to 8) (size 9 to 14) (size 15 to 20)
#    0.000    1.500    5.000    1.125    1.750    0.500 
#    4.500    3.750    0.000    0.000    0.000    0.000 
#    0.000    0.000    0.000    0.000    0.000    0.000 
#
# Total GULP energy -178215.617043 kJ/mol
# GULP energy per Si atom -5569.238033 kJ/mol
# Density = 2.683843 g / cm^3
# Si number density = 26.899651 Si / 1000 Ang^3
#
#
#
# Elastic Constant Matrix: (Units=GPa)
#
#
# Indices 1 2 3 4 5 6 
#
# 1 103.4817 19.1040 9.6355 0.0000 23.4387 0.0000
# 2 19.1040 61.5882 17.8663 0.0000 0.0504 0.0000
# 3 9.6355 17.8663 54.4616 0.0000 13.5948 0.0000
# 4 0.0000 0.0000 0.0000 40.5014 0.0000 2.1048
# 5 23.4387 0.0504 13.5948 0.0000 30.7155 0.0000
# 6 0.0000 0.0000 0.0000 2.1048 0.0000 39.9769
#
#
#
# Elastic Compliance Matrix: (Units=1/GPa)
#
#
# Indices 1 2 3 4 5 6 
#
# 1 0.012692 -0.004461 0.001837 0.000000 -0.010491 0.000000
# 2 -0.004461 0.019745 -0.007341 0.000000 0.006621 0.000000
# 3 0.001837 -0.007341 0.023374 0.000000 -0.011735 0.000000
# 4 0.000000 0.000000 0.000000 0.024758 0.000000 -0.001304
# 5 -0.010491 0.006621 -0.011735 0.000000 0.045746 0.000000
# 6 0.000000 0.000000 0.000000 -0.001304 0.000000 0.025083
#
#
# Mechanical properties :
#
#
# Convention : Reuss Voigt Hill
#
# Bulk Modulus (GPa) = 27.87017 34.74922 31.30969
# Shear Modulus (GPa) = 27.27932 33.76714 30.52323
#
# Velocity S-wave (km/s) = 3.18797 3.54687 3.37220
# Velocity P-wave (km/s) = 4.89226 5.45159 5.17948
#
# Compressibility (1/GPa) = 0.03588066
#
# Stress axis : x y z
#
# Youngs Moduli (GPa) = 78.78760 50.64626 42.78238
#
# Poissons Ratio (x) = 0.22595 -0.07858
# Poissons Ratio (y) = 0.35149 0.31406
# Poissons Ratio (z) = -0.14471 0.37178
#
# Static dielectric constant tensor:
#      x y z
#    x 2.138850 0.000000 0.039650 
#    y 0.000000 2.413090 0.000000 
#    z 0.039650 0.000000 2.169280 
# 
# From -- ./inp_files/29343.got.cif
#   From: 2010.05.17/outbox.cif.g08.bks.cpg/sg14_15_cif.got.tgz:29343.got - 2010.06.03 17:49:19.
