data_PCOD9241484
_publ_section_title
;
Structure prediction by ZEFSAII (Michael W. Deem and Ramdas Pophale) SiO2 
 PCOD9241484
Probable space group: P 21/C
;
_chemical_formula_sum "Si O2"
_cell_formula_units_Z 28
_cell_length_a 9.856173
_cell_length_b 13.575892
_cell_length_c 17.940083
_cell_angle_alpha 90.000000
_cell_angle_beta 154.413591
_cell_angle_gamma 90.000000
_cell_volume 1036.706931
_symmetry_space_group_name_H-M "P 21/C"
_symmetry_group_IT_number 14
_symmetry_cell_setting 'monoclinic'
loop_
_space_group_symop_operation_xyz
x,y,z
-x,1/2+y,1/2-z
-x,-y,-z
x,1/2-y,1/2+z
loop_
_atom_site_type_symbol
_atom_site_label
_atom_site_fract_x
_atom_site_fract_y
_atom_site_fract_z
Si Si1 0.241809 0.319086 0.070498
Si Si2 0.579319 0.223346 0.601290
Si Si3 0.075744 0.878192 0.109142
Si Si4 0.181735 0.949213 0.937480
Si Si5 0.466392 0.259011 0.374578
Si Si6 0.846940 0.059423 0.245727
Si Si7 0.893986 0.110019 0.530780
O O1 0.288756 0.320643 0.004343
O O2 0.589565 0.356590 0.264286
O O3 0.989614 0.380705 0.991652
O O4 0.159167 0.203525 0.040035
O O5 0.857905 0.154391 0.770389
O O6 0.483693 0.229416 0.469413
O O7 0.687833 0.332373 0.679856
O O8 0.973206 0.989052 0.072407
O O9 0.253484 0.838184 0.995584
O O10 0.033335 0.947056 0.780808
O O11 0.523973 0.996217 0.093498
O O12 0.156752 0.318102 0.198399
O O13 0.559119 0.160425 0.377229
O O14 0.072319 0.994193 0.411584
#
# Coordination Sequence:
#
# PCOD9241484 Si02
#       7
#     4   4   4   4   4   4   4
#     4  10  22  35  56  80 120 145 189 219 290 329
#     4   9  20  35  61  85 105 152 187 231 271 343
#     4  10  19  36  59  81 113 147 187 233 266 344
#     4   9  16  33  57  89 103 144 193 239 264 328
#     4  10  22  35  63  83 114 141 195 230 290 316
#     4   9  17  33  58  81 114 144 190 224 286 331
#     4  11  22  39  54  87 115 152 177 245 275 339
#
# _framework density 27.008597999999999
#
# number of rings (size 3 to 8) (size 9 to 14) (size 15 to 20)
#    0.857    1.429    1.429    2.571    2.000    0.000 
#    2.571    4.286    0.000    4.286    0.000    0.000 
#    0.000    0.000    0.000    0.000    0.000    0.000 
#
# Total GULP energy -156348.227443 kJ/mol
# GULP energy per Si atom -5583.865266 kJ/mol
# Density = 2.694712 g / cm^3
# Si number density = 27.008598 Si / 1000 Ang^3
#
#
#
# Elastic Constant Matrix: (Units=GPa)
#
#
# Indices 1 2 3 4 5 6 
#
# 1 106.1954 36.9640 11.0733 0.0000 -17.6343 0.0000
# 2 36.9640 143.4305 2.3040 0.0000 13.4501 0.0000
# 3 11.0733 2.3040 38.2047 0.0000 -12.7889 0.0000
# 4 0.0000 0.0000 0.0000 32.2777 0.0000 6.3022
# 5 -17.6343 13.4501 -12.7889 0.0000 44.5010 0.0000
# 6 0.0000 0.0000 0.0000 6.3022 0.0000 31.7761
#
#
#
# Elastic Compliance Matrix: (Units=1/GPa)
#
#
# Indices 1 2 3 4 5 6 
#
# 1 0.011645 -0.003472 -0.001405 0.000000 0.005260 0.000000
# 2 -0.003472 0.008268 -0.000873 0.000000 -0.004126 0.000000
# 3 -0.001405 -0.000873 0.029361 0.000000 0.008145 0.000000
# 4 0.000000 0.000000 0.000000 0.032229 0.000000 -0.006392
# 5 0.005260 -0.004126 0.008145 0.000000 0.028144 0.000000
# 6 0.000000 0.000000 0.000000 -0.006392 0.000000 0.032738
#
#
# Mechanical properties :
#
#
# Convention : Reuss Voigt Hill
#
# Bulk Modulus (GPa) = 26.47351 43.16812 34.82081
# Shear Modulus (GPa) = 30.03435 37.54359 33.78897
#
# Velocity S-wave (km/s) = 3.33833 3.73240 3.54085
# Velocity P-wave (km/s) = 4.96814 5.88151 5.44401
#
# Compressibility (1/GPa) = 0.03777361
#
# Stress axis : x y z
#
# Youngs Moduli (GPa) = 85.87371 120.95352 34.05846
#
# Poissons Ratio (x) = 0.41992 0.04785
# Poissons Ratio (y) = 0.29813 0.02975
# Poissons Ratio (z) = 0.12066 0.10564
#
# Static dielectric constant tensor:
#      x y z
#    x 2.094220 0.000000 -0.042400 
#    y 0.000000 2.090260 0.000000 
#    z -0.042400 0.000000 2.258850 
# 
# From -- ./inp_files/67477.got.cif
#   From: 2010.05.17/outbox.cif.g08.bks.cpg/sg14_34_cif.got.tgz:67477.got - 2010.06.03 17:49:19.
