data_PCOD9241057
_publ_section_title
;
Structure prediction by ZEFSAII (Michael W. Deem and Ramdas Pophale) SiO2 
 PCOD9241057
Probable space group: P 21/C
;
_chemical_formula_sum "Si O2"
_cell_formula_units_Z 32
_cell_length_a 8.876503
_cell_length_b 26.021343
_cell_length_c 15.010797
_cell_angle_alpha 90.000000
_cell_angle_beta 24.286754
_cell_angle_gamma 90.000000
_cell_volume 1426.060400
_symmetry_space_group_name_H-M "P 21/C"
_symmetry_group_IT_number 14
_symmetry_cell_setting 'monoclinic'
loop_
_space_group_symop_operation_xyz
x,y,z
-x,1/2+y,1/2-z
-x,-y,-z
x,1/2-y,1/2+z
loop_
_atom_site_type_symbol
_atom_site_label
_atom_site_fract_x
_atom_site_fract_y
_atom_site_fract_z
Si Si1 0.470987 0.504985 0.908256
Si Si2 0.379906 0.388366 0.244805
Si Si3 0.364149 0.323994 0.086815
Si Si4 0.716197 0.548495 0.348926
Si Si5 0.202571 0.292009 0.657776
Si Si6 0.733816 0.895601 0.529725
Si Si7 0.586025 0.619230 0.573401
Si Si8 0.737367 0.637056 0.219395
O O1 0.485042 0.449113 0.857058
O O2 0.059328 0.524376 0.115085
O O3 0.500000 0.500000 0.000000
O O4 0.692024 0.553085 0.749049
O O5 0.230137 0.349562 0.251018
O O6 0.256164 0.380280 0.412701
O O7 0.822378 0.375474 0.010502
O O8 0.195630 0.268858 0.155508
O O9 0.321693 0.364067 0.030222
O O10 0.792280 0.311879 0.866188
O O11 0.500000 0.500000 0.500000
O O12 0.811237 0.583373 0.383788
O O13 0.541989 0.589656 0.375848
O O14 0.428899 0.323983 0.461839
O O15 0.330752 0.312217 0.685756
O O16 0.638602 0.863779 0.669641
O O17 0.175415 0.904125 0.296657
#
# Coordination Sequence:
#
# PCOD9241057 Si02
#       8
#     4   4   4   4   4   4   4   4
#     4  11  21  36  57  84 126 161 190 233 288 343
#     4   9  20  37  59  85 119 156 193 235 285 346
#     4  11  22  41  64  84 115 153 192 243 298 347
#     4  10  19  34  56  84 117 156 195 231 275 337
#     4  10  22  42  62  84 116 148 192 248 294 342
#     4  11  21  36  62  89 116 157 197 232 290 348
#     4  10  21  38  60  89 118 151 200 239 284 345
#     4   8  20  36  57  84 116 149 194 235 283 344
#
# _framework density 22.439443000000001
#
# number of rings (size 3 to 8) (size 9 to 14) (size 15 to 20)
#    0.000    2.000    2.500    1.500    1.750    2.500 
#    0.000    8.125    0.000    0.000    0.000    0.000 
#    0.000    0.000    0.000    0.000    0.000    0.000 
#
# Total GULP energy -178726.534688 kJ/mol
# GULP energy per Si atom -5585.204209 kJ/mol
# Density = 2.238837 g / cm^3
# Si number density = 22.439443 Si / 1000 Ang^3
#
#
#
# Elastic Constant Matrix: (Units=GPa)
#
#
# Indices 1 2 3 4 5 6 
#
# 1 115.8980 40.8613 10.3294 0.0000 37.1701 0.0000
# 2 40.8613 132.6184 8.6759 0.0000 22.0964 0.0000
# 3 10.3294 8.6759 32.9966 0.0000 10.5923 0.0000
# 4 0.0000 0.0000 0.0000 18.6592 0.0000 -4.0137
# 5 37.1701 22.0964 10.5923 0.0000 43.9181 0.0000
# 6 0.0000 0.0000 0.0000 -4.0137 0.0000 17.8688
#
#
#
# Elastic Compliance Matrix: (Units=1/GPa)
#
#
# Indices 1 2 3 4 5 6 
#
# 1 0.012441 -0.002261 -0.000309 0.000000 -0.009318 0.000000
# 2 -0.002261 0.008666 -0.000851 0.000000 -0.002242 0.000000
# 3 -0.000309 -0.000851 0.032957 0.000000 -0.007259 0.000000
# 4 0.000000 0.000000 0.000000 0.056314 0.000000 0.012649
# 5 -0.009318 -0.002242 -0.007259 0.000000 0.033534 0.000000
# 6 0.000000 0.000000 0.000000 0.012649 0.000000 0.058805
#
#
# Mechanical properties :
#
#
# Convention : Reuss Voigt Hill
#
# Bulk Modulus (GPa) = 21.17666 44.58292 32.87979
# Shear Modulus (GPa) = 22.19267 30.86565 26.52916
#
# Velocity S-wave (km/s) = 3.14825 3.71281 3.44212
# Velocity P-wave (km/s) = 4.76162 6.18799 5.52106
#
# Compressibility (1/GPa) = 0.04722180
#
# Stress axis : x y z
#
# Youngs Moduli (GPa) = 80.37869 115.39180 30.34271
#
# Poissons Ratio (x) = 0.26085 0.00938
# Poissons Ratio (y) = 0.18170 0.02583
# Poissons Ratio (z) = 0.02485 0.09824
#
# Static dielectric constant tensor:
#      x y z
#    x 1.850860 0.000000 -0.053070 
#    y 0.000000 1.915930 0.000000 
#    z -0.053070 0.000000 1.922830 
# 
# From -- ./inp_files/42225.got.cif
#   From: 2010.05.17/outbox.cif.g08.bks.cpg/sg14_22_cif.got.tgz:42225.got - 2010.06.03 17:49:19.
