data_PCOD9241077
_publ_section_title
;
Structure prediction by ZEFSAII (Michael W. Deem and Ramdas Pophale) SiO2 
 PCOD9241077
Probable space group: P 21/C
;
_chemical_formula_sum "Si O2"
_cell_formula_units_Z 28
_cell_length_a 17.323890
_cell_length_b 20.806466
_cell_length_c 11.550491
_cell_angle_alpha 90.000000
_cell_angle_beta 20.029782
_cell_angle_gamma 90.000000
_cell_volume 1425.987090
_symmetry_space_group_name_H-M "P 21/C"
_symmetry_group_IT_number 14
_symmetry_cell_setting 'monoclinic'
loop_
_space_group_symop_operation_xyz
x,y,z
-x,1/2+y,1/2-z
-x,-y,-z
x,1/2-y,1/2+z
loop_
_atom_site_type_symbol
_atom_site_label
_atom_site_fract_x
_atom_site_fract_y
_atom_site_fract_z
Si Si1 0.584074 0.256975 0.879137
Si Si2 0.195033 0.664987 0.600321
Si Si3 0.055849 0.856255 0.646391
Si Si4 0.386120 0.171792 0.323619
Si Si5 0.149031 0.219836 0.863228
Si Si6 0.900352 0.928532 0.635500
Si Si7 0.500615 0.927149 0.041890
O O1 0.705911 0.321153 0.665970
O O2 0.786222 0.205574 0.603006
O O3 0.442478 0.242531 0.192538
O O4 0.391593 0.246854 0.050674
O O5 0.405507 0.653239 0.388069
O O6 0.049414 0.727628 0.845993
O O7 0.033560 0.605677 0.843414
O O8 0.244522 0.905980 0.423443
O O9 0.946967 0.887475 0.685821
O O10 0.890424 0.832388 0.979827
O O11 0.173498 0.183856 0.706150
O O12 0.395039 0.121148 0.204573
O O13 0.644005 0.925319 0.956737
O O14 0.000000 0.000000 0.500000
O O15 0.500000 0.000000 0.000000
#
# Coordination Sequence:
#
# PCOD9241077 Si02
#       7
#     4   4   4   4   4   4   4
#     4   9  19  36  57  87 120 154 196 250 307 365
#     4  10  19  34  57  87 118 152 201 245 306 363
#     4  10  21  41  59  92 123 158 209 251 305 372
#     4  10  20  36  57  88 121 158 198 252 307 368
#     4  10  22  36  62  91 126 158 197 257 321 360
#     4  12  22  38  68  89 119 169 210 255 308 368
#     4  11  21  39  64  88 119 162 214 252 298 368
#
# _framework density 19.635522000000002
#
# number of rings (size 3 to 8) (size 9 to 14) (size 15 to 20)
#    0.000    1.714    4.286    1.714    2.000    1.143 
#    0.000    0.714    0.000    4.286    0.000    0.000 
#    0.000    0.000    0.000    0.000    0.000    0.000 
#
# Total GULP energy -155958.519324 kJ/mol
# GULP energy per Si atom -5569.947119 kJ/mol
# Density = 1.959083 g / cm^3
# Si number density = 19.635522 Si / 1000 Ang^3
#
#
#
# Elastic Constant Matrix: (Units=GPa)
#
#
# Indices 1 2 3 4 5 6 
#
# 1 101.7403 38.5109 42.7484 0.0000 -10.0121 0.0000
# 2 38.5109 92.0686 29.1756 0.0000 10.1897 0.0000
# 3 42.7484 29.1756 66.3484 0.0000 10.6970 0.0000
# 4 0.0000 0.0000 0.0000 22.1128 0.0000 -0.9340
# 5 -10.0121 10.1897 10.6970 0.0000 46.4251 0.0000
# 6 0.0000 0.0000 0.0000 -0.9340 0.0000 33.0755
#
#
#
# Elastic Compliance Matrix: (Units=1/GPa)
#
#
# Indices 1 2 3 4 5 6 
#
# 1 0.016191 -0.004490 -0.009533 0.000000 0.006674 0.000000
# 2 -0.004490 0.013973 -0.002701 0.000000 -0.003413 0.000000
# 3 -0.009533 -0.002701 0.023512 0.000000 -0.006881 0.000000
# 4 0.000000 0.000000 0.000000 0.045277 0.000000 0.001279
# 5 0.006674 -0.003413 -0.006881 0.000000 0.025314 0.000000
# 6 0.000000 0.000000 0.000000 0.001279 0.000000 0.030270
#
#
# Mechanical properties :
#
#
# Convention : Reuss Voigt Hill
#
# Bulk Modulus (GPa) = 49.44094 53.44747 51.44420
# Shear Modulus (GPa) = 25.67682 30.30416 27.99049
#
# Velocity S-wave (km/s) = 3.62010 3.93279 3.77968
# Velocity P-wave (km/s) = 6.53510 6.92108 6.73085
#
# Compressibility (1/GPa) = 0.02022615
#
# Stress axis : x y z
#
# Youngs Moduli (GPa) = 61.76283 71.56488 42.53230
#
# Poissons Ratio (x) = 0.32133 0.40548
# Poissons Ratio (y) = 0.27732 0.11490
# Poissons Ratio (z) = 0.58881 0.19332
#
# Static dielectric constant tensor:
#      x y z
#    x 1.741420 0.000000 -0.010940 
#    y 0.000000 1.714170 0.000000 
#    z -0.010940 0.000000 1.753110 
# 
# From -- ./inp_files/34450.got.cif
#   From: 2010.05.17/outbox.cif.g08.bks.cpg/sg14_18_cif.got.tgz:34450.got - 2010.06.03 17:49:19.
