data_PCOD9241875
_publ_section_title
;
Structure prediction by ZEFSAII (Michael W. Deem and Ramdas Pophale) SiO2 
 PCOD9241875
Probable space group: P 21/C
;
_chemical_formula_sum "Si O2"
_cell_formula_units_Z 28
_cell_length_a 14.803534
_cell_length_b 9.773156
_cell_length_c 11.571949
_cell_angle_alpha 90.000000
_cell_angle_beta 136.231329
_cell_angle_gamma 90.000000
_cell_volume 1158.123625
_symmetry_space_group_name_H-M "P 21/C"
_symmetry_group_IT_number 14
_symmetry_cell_setting 'monoclinic'
loop_
_space_group_symop_operation_xyz
x,y,z
-x,1/2+y,1/2-z
-x,-y,-z
x,1/2-y,1/2+z
loop_
_atom_site_type_symbol
_atom_site_label
_atom_site_fract_x
_atom_site_fract_y
_atom_site_fract_z
Si Si1 0.948547 0.053341 0.669526
Si Si2 0.307599 0.578970 0.771933
Si Si3 0.507905 0.101758 0.346817
Si Si4 0.875580 0.635255 0.314705
Si Si5 0.316990 0.322344 0.272338
Si Si6 0.316449 0.617144 0.208681
Si Si7 0.958651 0.794446 0.585957
O O1 0.815104 0.097087 0.486531
O O2 0.008567 0.186483 0.784014
O O3 0.919801 0.945099 0.744939
O O4 0.022483 0.945159 0.653764
O O5 0.400688 0.517884 0.758616
O O6 0.180146 0.484440 0.653223
O O7 0.298141 0.740114 0.754822
O O8 0.377322 0.554863 0.960076
O O9 0.438509 0.235778 0.337791
O O10 0.565259 0.124906 0.273892
O O11 0.753195 0.740343 0.188062
O O12 0.982423 0.722437 0.483714
O O13 0.339472 0.482548 0.307554
O O14 0.198772 0.311714 0.069019
#
# Coordination Sequence:
#
# PCOD9241875 Si02
#       7
#     4   4   4   4   4   4   4
#     4  11  21  40  63  81 114 152 189 236 291 335
#     4  10  21  34  61  84 114 148 197 231 271 356
#     4  10  19  38  57  83 113 159 182 228 294 331
#     4   9  19  41  57  79 113 155 183 227 294 340
#     4   8  20  37  55  84 119 141 194 235 275 337
#     4  11  21  36  57  90 113 148 193 240 274 331
#     4   9  22  37  59  86 110 149 194 235 278 344
#
# _framework density 24.177036999999999
#
# number of rings (size 3 to 8) (size 9 to 14) (size 15 to 20)
#    0.857    1.429    1.429    1.286    2.000    0.571 
#    0.000    3.571    0.000    0.000    0.000    0.000 
#    0.000    0.000    0.000    0.000    0.000    0.000 
#
# Total GULP energy -156308.308689 kJ/mol
# GULP energy per Si atom -5582.439596 kJ/mol
# Density = 2.412201 g / cm^3
# Si number density = 24.177037 Si / 1000 Ang^3
#
#
#
# Elastic Constant Matrix: (Units=GPa)
#
#
# Indices 1 2 3 4 5 6 
#
# 1 56.6421 18.8248 -7.5712 0.0000 4.0101 0.0000
# 2 18.8248 154.5127 -2.8407 0.0000 5.8340 0.0000
# 3 -7.5712 -2.8407 39.1013 0.0000 5.1688 0.0000
# 4 0.0000 0.0000 0.0000 31.8956 0.0000 1.3271
# 5 4.0101 5.8340 5.1688 0.0000 14.1553 0.0000
# 6 0.0000 0.0000 0.0000 1.3271 0.0000 23.0317
#
#
#
# Elastic Compliance Matrix: (Units=1/GPa)
#
#
# Indices 1 2 3 4 5 6 
#
# 1 0.019369 -0.002042 0.004430 0.000000 -0.006263 0.000000
# 2 -0.002042 0.006818 0.000415 0.000000 -0.002383 0.000000
# 3 0.004430 0.000415 0.028003 0.000000 -0.011651 0.000000
# 4 0.000000 0.000000 0.000000 0.031428 0.000000 -0.001811
# 5 -0.006263 -0.002383 -0.011651 0.000000 0.077656 0.000000
# 6 0.000000 0.000000 0.000000 -0.001811 0.000000 0.043523
#
#
# Mechanical properties :
#
#
# Convention : Reuss Voigt Hill
#
# Bulk Modulus (GPa) = 16.72346 29.67576 23.19961
# Shear Modulus (GPa) = 22.61197 29.93941 26.27569
#
# Velocity S-wave (km/s) = 3.06153 3.52282 3.30025
# Velocity P-wave (km/s) = 4.40788 5.37104 4.91312
#
# Compressibility (1/GPa) = 0.05979625
#
# Stress axis : x y z
#
# Youngs Moduli (GPa) = 51.62924 146.66330 35.71083
#
# Poissons Ratio (x) = 0.29946 -0.15820
# Poissons Ratio (y) = 0.10542 -0.01482
# Poissons Ratio (z) = -0.22872 -0.06087
#
# Static dielectric constant tensor:
#      x y z
#    x 1.953880 0.000000 -0.026140 
#    y 0.000000 1.989350 0.000000 
#    z -0.026140 0.000000 1.958230 
# 
# From -- ./inp_files/49875.got.cif
#   From: 2010.05.17/outbox.cif.g08.bks.cpg/sg14_25_cif.got.tgz:49875.got - 2010.06.03 17:49:19.
