data_PCOD9241042
_publ_section_title
;
Structure prediction by ZEFSAII (Michael W. Deem and Ramdas Pophale) SiO2 
 PCOD9241042
Probable space group: P 21/C
;
_chemical_formula_sum "Si O2"
_cell_formula_units_Z 32
_cell_length_a 6.736586
_cell_length_b 14.609430
_cell_length_c 12.910975
_cell_angle_alpha 90.000000
_cell_angle_beta 106.235402
_cell_angle_gamma 90.000000
_cell_volume 1219.995400
_symmetry_space_group_name_H-M "P 21/C"
_symmetry_group_IT_number 14
_symmetry_cell_setting 'monoclinic'
loop_
_space_group_symop_operation_xyz
x,y,z
-x,1/2+y,1/2-z
-x,-y,-z
x,1/2-y,1/2+z
loop_
_atom_site_type_symbol
_atom_site_label
_atom_site_fract_x
_atom_site_fract_y
_atom_site_fract_z
Si Si1 0.132030 0.621457 0.732832
Si Si2 0.527337 0.872126 0.013656
Si Si3 0.145047 0.713079 0.534285
Si Si4 0.525439 0.003206 0.825742
Si Si5 0.502728 0.656496 0.180378
Si Si6 0.068829 0.607287 0.941362
Si Si7 0.546653 0.712500 0.864180
Si Si8 0.722943 0.563966 0.023487
O O1 0.033818 0.669660 0.617589
O O2 0.276480 0.542422 0.705456
O O3 0.303531 0.691712 0.806820
O O4 0.006183 0.587455 0.813235
O O5 0.276774 0.862132 0.991617
O O6 0.587888 0.910500 0.135669
O O7 0.582874 0.775019 0.970979
O O8 0.590069 0.943905 0.935495
O O9 0.321736 0.782926 0.603884
O O10 0.031702 0.783088 0.443970
O O11 0.419799 0.928400 0.737019
O O12 0.612831 0.726677 0.276117
O O13 0.652290 0.613223 0.116576
O O14 0.964355 0.578913 0.034597
O O15 0.285388 0.546974 0.974873
O O16 0.636057 0.613771 0.907801
#
# Coordination Sequence:
#
# PCOD9241042 Si02
#       8
#     4   4   4   4   4   4   4   4
#     4  10  19  34  56  81 101 132 172 217 263 303
#     4   9  16  32  51  80 104 124 163 218 262 301
#     4  10  20  34  56  80 103 128 175 221 258 308
#     4   9  18  28  52  82 103 128 159 214 266 303
#     4  10  19  34  56  81 101 132 172 217 263 303
#     4  11  23  37  51  73 109 145 176 210 254 309
#     4  10  20  34  56  80 103 128 175 221 258 308
#     4  11  23  37  51  73 109 145 176 210 254 309
#
# _framework density 26.229607999999999
#
# number of rings (size 3 to 8) (size 9 to 14) (size 15 to 20)
#    0.000    2.000    3.750    0.000    1.750    2.000 
#    0.000    0.000    0.000    0.000    0.000    4.375 
#    0.000    0.000    0.000    0.000    0.000    0.000 
#
# Total GULP energy -178309.940398 kJ/mol
# GULP energy per Si atom -5572.185637 kJ/mol
# Density = 2.616991 g / cm^3
# Si number density = 26.229608 Si / 1000 Ang^3
#
#
#
# Elastic Constant Matrix: (Units=GPa)
#
#
# Indices 1 2 3 4 5 6 
#
# 1 34.9012 16.4240 47.6777 0.0000 -11.2518 0.0000
# 2 16.4240 116.4180 43.5151 0.0000 -17.1298 0.0000
# 3 47.6777 43.5151 141.4582 0.0000 -45.9383 0.0000
# 4 0.0000 0.0000 0.0000 77.4400 0.0000 -12.2764
# 5 -11.2518 -17.1298 -45.9383 0.0000 42.3306 0.0000
# 6 0.0000 0.0000 0.0000 -12.2764 0.0000 21.8962
#
#
#
# Elastic Compliance Matrix: (Units=1/GPa)
#
#
# Indices 1 2 3 4 5 6 
#
# 1 0.055156 -0.001192 -0.021030 0.000000 -0.008644 0.000000
# 2 -0.001192 0.009762 -0.002195 0.000000 0.001252 0.000000
# 3 -0.021030 -0.002195 0.019656 0.000000 0.014853 0.000000
# 4 0.000000 0.000000 0.000000 0.014173 0.000000 0.007946
# 5 -0.008644 0.001252 0.014853 0.000000 0.037951 0.000000
# 6 0.000000 0.000000 0.000000 0.007946 0.000000 0.050125
#
#
# Mechanical properties :
#
#
# Convention : Reuss Voigt Hill
#
# Bulk Modulus (GPa) = 27.98037 56.44568 42.21302
# Shear Modulus (GPa) = 20.19615 40.67740 30.43677
#
# Velocity S-wave (km/s) = 2.77785 3.94232 3.41016
# Velocity P-wave (km/s) = 4.58031 6.50300 5.62442
#
# Compressibility (1/GPa) = 0.03573934
#
# Stress axis : x y z
#
# Youngs Moduli (GPa) = 18.13047 102.43282 50.87496
#
# Poissons Ratio (x) = 0.12214 1.06992
# Poissons Ratio (y) = 0.02162 0.11165
# Poissons Ratio (z) = 0.38129 0.22481
#
# Static dielectric constant tensor:
#      x y z
#    x 2.270170 0.000000 0.036710 
#    y 0.000000 2.265310 0.000000 
#    z 0.036710 0.000000 2.044030 
# 
# From -- ./inp_files/40929.got.cif
#   From: 2010.05.17/outbox.cif.g08.bks.cpg/sg14_21_cif.got.tgz:40929.got - 2010.06.03 17:49:19.
