data_PCOD9241470
_publ_section_title
;
Structure prediction by ZEFSAII (Michael W. Deem and Ramdas Pophale) SiO2 
 PCOD9241470
Probable space group: P 21/C
;
_chemical_formula_sum "Si O2"
_cell_formula_units_Z 32
_cell_length_a 11.730874
_cell_length_b 13.450482
_cell_length_c 22.433777
_cell_angle_alpha 90.000000
_cell_angle_beta 148.646469
_cell_angle_gamma 90.000000
_cell_volume 1841.784434
_symmetry_space_group_name_H-M "P 21/C"
_symmetry_group_IT_number 14
_symmetry_cell_setting 'monoclinic'
loop_
_space_group_symop_operation_xyz
x,y,z
-x,1/2+y,1/2-z
-x,-y,-z
x,1/2-y,1/2+z
loop_
_atom_site_type_symbol
_atom_site_label
_atom_site_fract_x
_atom_site_fract_y
_atom_site_fract_z
Si Si1 0.967450 0.117936 0.331153
Si Si2 0.652441 0.722986 0.805550
Si Si3 0.004063 0.556079 0.937483
Si Si4 0.687520 0.106664 0.768693
Si Si5 0.399331 0.391315 0.943432
Si Si6 0.514648 0.606571 0.154679
Si Si7 0.857640 0.699396 0.517309
Si Si8 0.568934 0.258671 0.609257
O O1 0.763699 0.163467 0.204502
O O2 0.170563 0.109927 0.376828
O O3 0.031608 0.197816 0.410991
O O4 0.930796 0.017567 0.351667
O O5 0.450499 0.657272 0.740015
O O6 0.570511 0.799604 0.720052
O O7 0.841216 0.648706 0.868311
O O8 0.752416 0.784290 0.905916
O O9 0.253361 0.588533 0.036057
O O10 0.000000 0.500000 0.000000
O O11 0.613693 0.170840 0.677727
O O12 0.946842 0.120644 0.893339
O O13 0.617066 0.993858 0.727801
O O14 0.389860 0.378918 0.868659
O O15 0.500000 0.500000 0.000000
O O16 0.539965 0.301441 0.035197
O O17 0.656454 0.686670 0.473109
#
# Coordination Sequence:
#
# PCOD9241470 Si02
#       8
#     4   4   4   4   4   4   4   4
#     4  10  20  37  64  86 114 159 200 243 290 354
#     4  11  23  34  56  92 122 156 194 244 306 350
#     4  12  21  38  60  87 118 154 197 243 292 357
#     4  10  19  36  58  85 116 160 198 236 302 355
#     4  11  20  40  60  88 116 156 205 241 288 349
#     4  12  24  38  61  87 122 158 196 249 295 358
#     4   9  18  34  56  87 120 150 199 243 288 358
#     4   9  19  35  62  89 111 155 206 245 285 349
#
# _framework density 17.374454
#
# number of rings (size 3 to 8) (size 9 to 14) (size 15 to 20)
#    0.000    1.500    5.000    1.500    3.500    1.500 
#    0.000    1.250    0.000    1.500    0.000    0.000 
#    0.000    0.000    0.000    0.000    0.000    0.000 
#
# Total GULP energy -178587.599730 kJ/mol
# GULP energy per Si atom -5580.862492 kJ/mol
# Density = 1.733491 g / cm^3
# Si number density = 17.374454 Si / 1000 Ang^3
#
#
#
# Elastic Constant Matrix: (Units=GPa)
#
#
# Indices 1 2 3 4 5 6 
#
# 1 86.9483 54.5150 31.1436 0.0000 -17.0689 0.0000
# 2 54.5150 107.2190 55.5640 0.0000 -3.7184 0.0000
# 3 31.1436 55.5640 84.3177 0.0000 4.8172 0.0000
# 4 0.0000 0.0000 0.0000 32.3178 0.0000 -0.1746
# 5 -17.0689 -3.7184 4.8172 0.0000 28.1919 0.0000
# 6 0.0000 0.0000 0.0000 -0.1746 0.0000 26.0483
#
#
#
# Elastic Compliance Matrix: (Units=1/GPa)
#
#
# Indices 1 2 3 4 5 6 
#
# 1 0.019909 -0.008477 -0.002416 0.000000 0.011349 0.000000
# 2 -0.008477 0.018123 -0.008740 0.000000 -0.001249 0.000000
# 3 -0.002416 -0.008740 0.018845 0.000000 -0.005835 0.000000
# 4 0.000000 0.000000 0.000000 0.030944 0.000000 0.000207
# 5 0.011349 -0.001249 -0.005835 0.000000 0.043175 0.000000
# 6 0.000000 0.000000 0.000000 0.000207 0.000000 0.038392
#
#
# Mechanical properties :
#
#
# Convention : Reuss Voigt Hill
#
# Bulk Modulus (GPa) = 56.78227 62.32556 59.55392
# Shear Modulus (GPa) = 23.30729 26.46244 24.88486
#
# Velocity S-wave (km/s) = 3.66658 3.90688 3.78864
# Velocity P-wave (km/s) = 7.11881 7.50343 7.31365
#
# Compressibility (1/GPa) = 0.01761113
#
# Stress axis : x y z
#
# Youngs Moduli (GPa) = 50.22747 55.17794 53.06370
#
# Poissons Ratio (x) = 0.46777 0.12818
# Poissons Ratio (y) = 0.42580 0.46379
# Poissons Ratio (z) = 0.12133 0.48227
#
# Static dielectric constant tensor:
#      x y z
#    x 1.583750 0.000000 0.007250 
#    y 0.000000 1.575030 0.000000 
#    z 0.007250 0.000000 1.591510 
# 
# From -- ./inp_files/29048.got.cif
#   From: 2010.05.17/outbox.cif.g08.bks.cpg/sg14_15_cif.got.tgz:29048.got - 2010.06.03 17:49:19.
