data_PCOD9241237
_publ_section_title
;
Structure prediction by ZEFSAII (Michael W. Deem and Ramdas Pophale) SiO2 
 PCOD9241237
Probable space group: P 21/C
;
_chemical_formula_sum "Si O2"
_cell_formula_units_Z 20
_cell_length_a 8.122373
_cell_length_b 4.944515
_cell_length_c 18.399840
_cell_angle_alpha 90.000000
_cell_angle_beta 91.408771
_cell_angle_gamma 90.000000
_cell_volume 738.736205
_symmetry_space_group_name_H-M "P 21/C"
_symmetry_group_IT_number 14
_symmetry_cell_setting 'monoclinic'
loop_
_space_group_symop_operation_xyz
x,y,z
-x,1/2+y,1/2-z
-x,-y,-z
x,1/2-y,1/2+z
loop_
_atom_site_type_symbol
_atom_site_label
_atom_site_fract_x
_atom_site_fract_y
_atom_site_fract_z
Si Si1 0.667397 0.868171 0.318556
Si Si2 0.737475 0.136331 0.020783
Si Si3 0.487324 0.846209 0.116463
Si Si4 0.947204 0.744938 0.923871
Si Si5 0.921877 0.492859 0.714018
O O1 0.616429 0.566634 0.339064
O O2 0.824622 0.932506 0.373525
O O3 0.521437 0.072273 0.337263
O O4 0.743571 0.908732 0.239663
O O5 0.878187 0.355527 0.042166
O O6 0.643780 0.007960 0.087966
O O7 0.603098 0.232234 0.960995
O O8 0.836756 0.902863 0.979960
O O9 0.021132 0.967725 0.867860
O O10 0.050174 0.693688 0.754193
#
# Coordination Sequence:
#
# PCOD9241237 Si02
#       5
#     4   4   4   4   4
#     4  10  20  37  58  80 108 146 186 225 276 332
#     4   9  19  36  56  82 113 144 183 228 277 332
#     4  10  21  37  57  80 112 148 179 224 284 335
#     4   9  19  35  58  84 109 143 188 232 271 326
#     4  10  19  35  57  81 108 140 182 227 272 321
#
# _framework density 27.073260999999999
#
# number of rings (size 3 to 8) (size 9 to 14) (size 15 to 20)
#    0.000    2.400    0.000    3.600    0.000    8.000 
#    0.000   16.000    0.000    0.000    0.000    0.000 
#    0.000    0.000    0.000    0.000    0.000    0.000 
#
# Total GULP energy -111877.593353 kJ/mol
# GULP energy per Si atom -5593.879668 kJ/mol
# Density = 2.701164 g / cm^3
# Si number density = 27.073261 Si / 1000 Ang^3
#
#
#
# Elastic Constant Matrix: (Units=GPa)
#
#
# Indices 1 2 3 4 5 6 
#
# 1 111.7957 3.7764 24.5351 0.0000 -20.7633 0.0000
# 2 3.7764 79.9373 22.3726 0.0000 -12.2081 0.0000
# 3 24.5351 22.3726 122.5250 0.0000 -45.9396 0.0000
# 4 0.0000 0.0000 0.0000 19.0414 0.0000 -6.6828
# 5 -20.7633 -12.2081 -45.9396 0.0000 54.8850 0.0000
# 6 0.0000 0.0000 0.0000 -6.6828 0.0000 40.3112
#
#
#
# Elastic Compliance Matrix: (Units=1/GPa)
#
#
# Indices 1 2 3 4 5 6 
#
# 1 0.009682 0.000241 -0.000859 0.000000 0.002997 0.000000
# 2 0.000241 0.013257 -0.001937 0.000000 0.001419 0.000000
# 3 -0.000859 -0.001937 0.012248 0.000000 0.009496 0.000000
# 4 0.000000 0.000000 0.000000 0.055762 0.000000 0.009244
# 5 0.002997 0.001419 0.009496 0.000000 0.027617 0.000000
# 6 0.000000 0.000000 0.000000 0.009244 0.000000 0.026340
#
#
# Mechanical properties :
#
#
# Convention : Reuss Voigt Hill
#
# Bulk Modulus (GPa) = 33.24873 46.18068 39.71471
# Shear Modulus (GPa) = 31.24198 40.41909 35.83053
#
# Velocity S-wave (km/s) = 3.40071 3.86807 3.64189
# Velocity P-wave (km/s) = 5.26569 6.08637 5.69084
#
# Compressibility (1/GPa) = 0.03007633
#
# Stress axis : x y z
#
# Youngs Moduli (GPa) = 103.28511 75.43064 81.64877
#
# Poissons Ratio (x) = -0.01816 0.07013
# Poissons Ratio (y) = -0.02487 0.15816
# Poissons Ratio (z) = 0.08871 0.14611
#
# Static dielectric constant tensor:
#      x y z
#    x 2.193660 0.000000 0.157830 
#    y 0.000000 1.997730 0.000000 
#    z 0.157830 0.000000 2.245250 
# 
# From -- ./inp_files/53995.got.cif
#   From: 2010.05.17/outbox.cif.g08.bks.cpg/sg14_27_cif.got.tgz:53995.got - 2010.06.03 17:49:19.
