data_PCOD9241006
_publ_section_title
;
Structure prediction by ZEFSAII (Michael W. Deem and Ramdas Pophale) SiO2 
 PCOD9241006
Probable space group: P 21/C
;
_chemical_formula_sum "Si O2"
_cell_formula_units_Z 20
_cell_length_a 13.356827
_cell_length_b 5.602177
_cell_length_c 14.458536
_cell_angle_alpha 90.000000
_cell_angle_beta 42.202571
_cell_angle_gamma 90.000000
_cell_volume 726.765996
_symmetry_space_group_name_H-M "P 21/C"
_symmetry_group_IT_number 14
_symmetry_cell_setting 'monoclinic'
loop_
_space_group_symop_operation_xyz
x,y,z
-x,1/2+y,1/2-z
-x,-y,-z
x,1/2-y,1/2+z
loop_
_atom_site_type_symbol
_atom_site_label
_atom_site_fract_x
_atom_site_fract_y
_atom_site_fract_z
Si Si1 0.695265 0.603718 0.396964
Si Si2 0.960567 0.965249 0.918330
Si Si3 0.031091 0.536123 0.089830
Si Si4 0.510655 0.244184 0.794009
Si Si5 0.701936 0.103568 0.321194
O O1 0.872172 0.568628 0.251178
O O2 0.617907 0.686408 0.543728
O O3 0.641821 0.332082 0.417666
O O4 0.649858 0.830400 0.363546
O O5 0.889769 0.215609 0.939231
O O6 0.889110 0.712676 0.943923
O O7 0.126862 0.928685 0.765845
O O8 0.000000 0.000000 0.000000
O O9 0.000000 0.500000 0.000000
O O10 0.470263 0.493263 0.771778
O O11 0.663338 0.308643 0.744685
#
# Coordination Sequence:
#
# PCOD9241006 Si02
#       5
#     4   4   4   4   4
#     4  10  19  34  55  77 103 139 185 233 270 321
#     4   8  14  25  45  75  99 119 159 221 269 303
#     4   8  14  25  45  75  99 119 159 221 269 303
#     4  12  24  36  50  76 114 152 184 222 280 344
#     4  10  19  34  55  77 103 139 185 233 270 321
#
# _framework density 27.519174
#
# number of rings (size 3 to 8) (size 9 to 14) (size 15 to 20)
#    0.000    2.400    0.000    3.600    0.000    0.000 
#    0.000    0.000    0.000    0.000    0.000   89.600 
#    0.000    0.000    0.000    0.000    0.000    0.000 
#
# Total GULP energy -111502.580366 kJ/mol
# GULP energy per Si atom -5575.129018 kJ/mol
# Density = 2.745654 g / cm^3
# Si number density = 27.519174 Si / 1000 Ang^3
#
#
#
# Elastic Constant Matrix: (Units=GPa)
#
#
# Indices 1 2 3 4 5 6 
#
# 1 70.5140 27.0742 11.2502 0.0000 -6.7704 0.0000
# 2 27.0742 327.9653 30.0309 0.0000 2.2995 0.0000
# 3 11.2502 30.0309 123.5648 0.0000 2.2250 0.0000
# 4 0.0000 0.0000 0.0000 47.4380 0.0000 19.3053
# 5 -6.7704 2.2995 2.2250 0.0000 20.8089 0.0000
# 6 0.0000 0.0000 0.0000 19.3053 0.0000 10.5684
#
#
#
# Elastic Compliance Matrix: (Units=1/GPa)
#
#
# Indices 1 2 3 4 5 6 
#
# 1 0.015335 -0.001193 -0.001201 0.000000 0.005250 0.000000
# 2 -0.001193 0.003213 -0.000660 0.000000 -0.000673 0.000000
# 3 -0.001201 -0.000660 0.008385 0.000000 -0.001214 0.000000
# 4 0.000000 0.000000 0.000000 0.082148 0.000000 -0.150060
# 5 0.005250 -0.000673 -0.001214 0.000000 0.049968 0.000000
# 6 0.000000 0.000000 0.000000 -0.150060 0.000000 0.368737
#
#
# Mechanical properties :
#
#
# Convention : Reuss Voigt Hill
#
# Bulk Modulus (GPa) = 48.01930 73.19496 60.60713
# Shear Modulus (GPa) = 9.24497 46.00899 27.62698
#
# Velocity S-wave (km/s) = 1.83487 4.09331 3.17190
# Velocity P-wave (km/s) = 4.68789 6.99970 5.95702
#
# Compressibility (1/GPa) = 0.02082496
#
# Stress axis : x y z
#
# Youngs Moduli (GPa) = 65.20946 311.26176 119.26700
#
# Poissons Ratio (x) = 0.37127 0.14322
# Poissons Ratio (y) = 0.07778 0.07873
# Poissons Ratio (z) = 0.07831 0.20546
#
# Static dielectric constant tensor:
#      x y z
#    x 2.255800 0.000000 -0.011390 
#    y 0.000000 2.277490 0.000000 
#    z -0.011390 0.000000 2.215980 
# 
# From -- ./inp_files/49451.got.cif
#   From: 2010.05.17/outbox.cif.g08.bks.cpg/sg14_25_cif.got.tgz:49451.got - 2010.06.03 17:49:19.
