data_PCOD9241692
_publ_section_title
;
Structure prediction by ZEFSAII (Michael W. Deem and Ramdas Pophale) SiO2 
 PCOD9241692
Probable space group: P 21/C
;
_chemical_formula_sum "Si O2"
_cell_formula_units_Z 28
_cell_length_a 13.684807
_cell_length_b 16.584795
_cell_length_c 9.315041
_cell_angle_alpha 90.000000
_cell_angle_beta 29.765829
_cell_angle_gamma 90.000000
_cell_volume 1049.577753
_symmetry_space_group_name_H-M "P 21/C"
_symmetry_group_IT_number 14
_symmetry_cell_setting 'monoclinic'
loop_
_space_group_symop_operation_xyz
x,y,z
-x,1/2+y,1/2-z
-x,-y,-z
x,1/2-y,1/2+z
loop_
_atom_site_type_symbol
_atom_site_label
_atom_site_fract_x
_atom_site_fract_y
_atom_site_fract_z
Si Si1 0.015002 0.780152 0.459264
Si Si2 0.998373 0.154286 0.822941
Si Si3 0.167688 0.005114 0.910339
Si Si4 0.530070 0.649051 0.291165
Si Si5 0.588148 0.477964 0.168014
Si Si6 0.448184 0.300911 0.413726
Si Si7 0.062072 0.559127 0.053118
O O1 0.081169 0.694545 0.432183
O O2 0.023167 0.785075 0.279810
O O3 0.110065 0.856015 0.417259
O O4 0.786571 0.789535 0.794850
O O5 0.231470 0.136634 0.537695
O O6 0.868917 0.077044 0.956997
O O7 0.353253 0.001307 0.570152
O O8 0.113913 0.069208 0.101690
O O9 0.000000 0.000000 0.000000
O O10 0.459439 0.556091 0.376709
O O11 0.464178 0.718718 0.264942
O O12 0.509286 0.688569 0.472969
O O13 0.503139 0.387511 0.276266
O O14 0.762361 0.472053 0.066684
O O15 0.000000 0.500000 0.000000
#
# Coordination Sequence:
#
# PCOD9241692 Si02
#       7
#     4   4   4   4   4   4   4
#     4  10  22  36  65  87 126 162 220 259 317 388
#     4  10  19  37  58  94 119 171 208 261 318 389
#     4  10  20  36  63  91 132 156 211 258 330 381
#     4  10  20  42  66  89 128 170 223 258 320 394
#     4  11  23  41  68  94 133 174 212 270 334 379
#     4  10  23  43  65  93 123 178 219 261 321 395
#     4  11  20  39  63  97 122 160 211 267 315 384
#
# _framework density 26.677396999999999
#
# number of rings (size 3 to 8) (size 9 to 14) (size 15 to 20)
#    0.000    1.714    4.286    1.286    4.000    2.286 
#    2.571    4.286    0.000    0.000    0.000    0.000 
#    0.000    0.000    0.000    0.000    0.000    0.000 
#
# Total GULP energy -156618.704407 kJ/mol
# GULP energy per Si atom -5593.525157 kJ/mol
# Density = 2.661668 g / cm^3
# Si number density = 26.677397 Si / 1000 Ang^3
#
#
#
# Elastic Constant Matrix: (Units=GPa)
#
#
# Indices 1 2 3 4 5 6 
#
# 1 98.6559 19.9198 24.8972 0.0000 -4.6957 0.0000
# 2 19.9198 104.7249 7.2223 0.0000 1.3554 0.0000
# 3 24.8972 7.2223 76.5944 0.0000 22.1850 0.0000
# 4 0.0000 0.0000 0.0000 43.9360 0.0000 11.7620
# 5 -4.6957 1.3554 22.1850 0.0000 46.9619 0.0000
# 6 0.0000 0.0000 0.0000 11.7620 0.0000 46.9279
#
#
#
# Elastic Compliance Matrix: (Units=1/GPa)
#
#
# Indices 1 2 3 4 5 6 
#
# 1 0.011881 -0.001982 -0.004675 0.000000 0.003454 0.000000
# 2 -0.001982 0.009943 -0.000177 0.000000 -0.000402 0.000000
# 3 -0.004675 -0.000177 0.017060 0.000000 -0.008522 0.000000
# 4 0.000000 0.000000 0.000000 0.024397 0.000000 -0.006115
# 5 0.003454 -0.000402 -0.008522 0.000000 0.025677 0.000000
# 6 0.000000 0.000000 0.000000 -0.006115 0.000000 0.022842
#
#
# Mechanical properties :
#
#
# Convention : Reuss Voigt Hill
#
# Bulk Modulus (GPa) = 39.65797 42.67265 41.16531
# Shear Modulus (GPa) = 37.34846 42.76088 40.05467
#
# Velocity S-wave (km/s) = 3.74572 4.00795 3.87905
# Velocity P-wave (km/s) = 5.79701 6.11954 5.96045
#
# Compressibility (1/GPa) = 0.02521562
#
# Stress axis : x y z
#
# Youngs Moduli (GPa) = 84.16989 100.57078 58.61501
#
# Poissons Ratio (x) = 0.19934 0.27404
# Poissons Ratio (y) = 0.16683 0.01037
# Poissons Ratio (z) = 0.39352 0.01780
#
# Static dielectric constant tensor:
#      x y z
#    x 2.089670 0.000000 -0.135250 
#    y 0.000000 2.109230 0.000000 
#    z -0.135250 0.000000 2.249240 
# 
# From -- ./inp_files/16630.got.cif
#   From: 2010.05.17/outbox.cif.g08.bks.cpg/sg14_9_cif.got.tgz:16630.got - 2010.06.03 17:49:19.
