data_PCOD9241024
_publ_section_title
;
Structure prediction by ZEFSAII (Michael W. Deem and Ramdas Pophale) SiO2 
 PCOD9241024
Probable space group: P 21/C
;
_chemical_formula_sum "Si O2"
_cell_formula_units_Z 24
_cell_length_a 15.451612
_cell_length_b 9.589289
_cell_length_c 9.910420
_cell_angle_alpha 90.000000
_cell_angle_beta 145.326001
_cell_angle_gamma 90.000000
_cell_volume 835.397288
_symmetry_space_group_name_H-M "P 21/C"
_symmetry_group_IT_number 14
_symmetry_cell_setting 'monoclinic'
loop_
_space_group_symop_operation_xyz
x,y,z
-x,1/2+y,1/2-z
-x,-y,-z
x,1/2-y,1/2+z
loop_
_atom_site_type_symbol
_atom_site_label
_atom_site_fract_x
_atom_site_fract_y
_atom_site_fract_z
Si Si1 0.475826 0.846557 0.688714
Si Si2 0.295399 0.477536 0.169908
Si Si3 0.204602 0.022463 0.830094
Si Si4 0.425904 0.192076 0.456835
Si Si5 0.024173 0.846557 0.811285
Si Si6 0.074098 0.307924 0.543168
O O1 0.456975 0.863127 0.505235
O O2 0.365508 0.932032 0.642632
O O3 0.647887 0.902329 0.923274
O O4 0.493786 0.701141 0.794385
O O5 0.250001 0.557696 0.250002
O O6 0.399588 0.350088 0.360381
O O7 0.147887 0.402330 0.923275
O O8 0.100413 0.149911 0.639620
O O9 0.134493 0.932031 0.857369
O O10 0.250001 0.143136 0.250002
O O11 0.043023 0.863125 0.994763
O O12 0.006212 0.701140 0.705612
#
# Coordination Sequence:
#
# PCOD9241024 Si02
#       6
#     4   4   4   4   4   4
#     4  10  19  34  56  76 101 134 176 210 251 302
#     4   9  17  33  54  76  98 138 175 205 245 315
#     4   9  17  33  54  76  98 138 175 205 245 315
#     4   9  17  33  54  76  98 138 175 205 245 315
#     4  10  19  34  56  76 101 134 176 210 251 302
#     4   9  17  33  54  76  98 138 175 205 245 315
#
# _framework density 28.728845
#
# number of rings (size 3 to 8) (size 9 to 14) (size 15 to 20)
#    0.000    3.333    0.000    8.000    0.000    0.000 
#    0.000   13.333    0.000    0.000    0.000    0.000 
#    0.000    0.000    0.000    0.000    0.000    0.000 
#
# Total GULP energy -134219.513482 kJ/mol
# GULP energy per Si atom -5592.479728 kJ/mol
# Density = 2.866346 g / cm^3
# Si number density = 28.728845 Si / 1000 Ang^3
#
#
#
# Elastic Constant Matrix: (Units=GPa)
#
#
# Indices 1 2 3 4 5 6 
#
# 1 294.3570 35.6703 21.0068 0.0000 -20.1515 0.0000
# 2 35.6703 35.5229 9.5142 0.0000 4.2868 0.0000
# 3 21.0068 9.5142 34.8738 0.0000 -4.5194 0.0000
# 4 0.0000 0.0000 0.0000 26.1692 0.0000 4.2522
# 5 -20.1515 4.2868 -4.5194 0.0000 44.5962 0.0000
# 6 0.0000 0.0000 0.0000 4.2522 0.0000 61.7107
#
#
#
# Elastic Compliance Matrix: (Units=1/GPa)
#
#
# Indices 1 2 3 4 5 6 
#
# 1 0.004119 -0.004105 -0.001083 0.000000 0.002146 0.000000
# 2 -0.004105 0.035113 -0.007888 0.000000 -0.006030 0.000000
# 3 -0.001083 -0.007888 0.031934 0.000000 0.003505 0.000000
# 4 0.000000 0.000000 0.000000 0.038646 0.000000 -0.002663
# 5 0.002146 -0.006030 0.003505 0.000000 0.024328 0.000000
# 6 0.000000 0.000000 0.000000 -0.002663 0.000000 0.016388
#
#
# Mechanical properties :
#
#
# Convention : Reuss Voigt Hill
#
# Bulk Modulus (GPa) = 22.21571 55.23736 38.72654
# Shear Modulus (GPa) = 26.08463 46.39938 36.24200
#
# Velocity S-wave (km/s) = 3.01651 4.02317 3.55564
# Velocity P-wave (km/s) = 4.45893 6.39140 5.51054
#
# Compressibility (1/GPa) = 0.04501318
#
# Stress axis : x y z
#
# Youngs Moduli (GPa) = 242.78494 28.47943 31.31505
#
# Poissons Ratio (x) = 0.11690 0.03392
# Poissons Ratio (y) = 0.99660 0.24702
# Poissons Ratio (z) = 0.26296 0.22465
#
# Static dielectric constant tensor:
#      x y z
#    x 2.352080 0.000000 -0.122340 
#    y 0.000000 2.508450 0.000000 
#    z -0.122340 0.000000 2.249890 
# 
# From -- ./inp_files/32231.got.cif
#   From: 2010.05.17/outbox.cif.g08.bks.cpg/sg14_17_cif.got.tgz:32231.got - 2010.06.03 17:49:19.
