data_PCOD9241325
_publ_section_title
;
Structure prediction by ZEFSAII (Michael W. Deem and Ramdas Pophale) SiO2 
 PCOD9241325
Probable space group: P 21/C
;
_chemical_formula_sum "Si O2"
_cell_formula_units_Z 28
_cell_length_a 6.647948
_cell_length_b 14.130250
_cell_length_c 18.075389
_cell_angle_alpha 90.000000
_cell_angle_beta 49.170519
_cell_angle_gamma 90.000000
_cell_volume 1284.769349
_symmetry_space_group_name_H-M "P 21/C"
_symmetry_group_IT_number 14
_symmetry_cell_setting 'monoclinic'
loop_
_space_group_symop_operation_xyz
x,y,z
-x,1/2+y,1/2-z
-x,-y,-z
x,1/2-y,1/2+z
loop_
_atom_site_type_symbol
_atom_site_label
_atom_site_fract_x
_atom_site_fract_y
_atom_site_fract_z
Si Si1 0.156900 0.328902 0.444257
Si Si2 0.710058 0.583907 0.439067
Si Si3 0.953644 0.623281 0.059439
Si Si4 0.794429 0.956461 0.438409
Si Si5 0.295027 0.498764 0.301828
Si Si6 0.538919 0.164920 0.143994
Si Si7 0.435661 0.366675 0.137789
O O1 0.295680 0.342873 0.490839
O O2 0.268167 0.414716 0.368386
O O3 0.174074 0.226750 0.401060
O O4 0.842331 0.339991 0.539072
O O5 0.500000 0.500000 0.500000
O O6 0.644888 0.633919 0.378884
O O7 0.997346 0.536875 0.364435
O O8 0.269213 0.637854 0.967351
O O9 0.831323 0.587404 0.010913
O O10 0.984985 0.540162 0.113354
O O11 0.787073 0.880806 0.372910
O O12 0.500000 0.000000 0.500000
O O13 0.457763 0.588554 0.291975
O O14 0.403300 0.454232 0.200730
O O15 0.438804 0.270336 0.184224
#
# Coordination Sequence:
#
# PCOD9241325 Si02
#       7
#     4   4   4   4   4   4   4
#     4  10  19  35  60  87 111 146 202 242 289 362
#     4  11  18  35  63  84 110 156 196 248 295 349
#     4   9  19  37  63  80 113 158 196 241 297 345
#     4   9  18  38  59  83 110 156 200 236 286 361
#     4  11  22  37  55  91 120 147 203 248 292 363
#     4  10  20  39  61  81 115 160 189 242 306 346
#     4  10  22  38  57  84 124 153 192 246 301 357
#
# _framework density 21.793796
#
# number of rings (size 3 to 8) (size 9 to 14) (size 15 to 20)
#    0.000    2.000    2.857    1.714    0.000    1.143 
#   10.286    0.000    0.000    0.000    0.000    0.000 
#    0.000    0.000    0.000    0.000    0.000    0.000 
#
# Total GULP energy -156144.823563 kJ/mol
# GULP energy per Si atom -5576.600842 kJ/mol
# Density = 2.174419 g / cm^3
# Si number density = 21.793796 Si / 1000 Ang^3
#
#
#
# Elastic Constant Matrix: (Units=GPa)
#
#
# Indices 1 2 3 4 5 6 
#
# 1 132.2949 52.4444 14.2421 0.0000 17.0675 0.0000
# 2 52.4444 133.6794 18.7686 0.0000 5.1570 0.0000
# 3 14.2421 18.7686 40.1717 0.0000 -1.4610 0.0000
# 4 0.0000 0.0000 0.0000 19.7898 0.0000 8.2597
# 5 17.0675 5.1570 -1.4610 0.0000 21.6068 0.0000
# 6 0.0000 0.0000 0.0000 8.2597 0.0000 30.3358
#
#
#
# Elastic Compliance Matrix: (Units=1/GPa)
#
#
# Indices 1 2 3 4 5 6 
#
# 1 0.010076 -0.003352 -0.002272 0.000000 -0.007312 0.000000
# 2 -0.003352 0.009223 -0.003112 0.000000 0.000236 0.000000
# 3 -0.002272 -0.003112 0.027312 0.000000 0.004384 0.000000
# 4 0.000000 0.000000 0.000000 0.057010 0.000000 -0.015522
# 5 -0.007312 0.000236 0.004384 0.000000 0.052298 0.000000
# 6 0.000000 0.000000 0.000000 -0.015522 0.000000 0.037191
#
#
# Mechanical properties :
#
#
# Convention : Reuss Voigt Hill
#
# Bulk Modulus (GPa) = 34.31845 53.00625 43.66235
# Shear Modulus (GPa) = 22.69684 29.05921 25.87802
#
# Velocity S-wave (km/s) = 3.23063 3.65550 3.44961
# Velocity P-wave (km/s) = 5.44950 6.49549 5.99535
#
# Compressibility (1/GPa) = 0.02913884
#
# Stress axis : x y z
#
# Youngs Moduli (GPa) = 99.25023 108.41997 36.61352
#
# Poissons Ratio (x) = 0.36339 0.08319
# Poissons Ratio (y) = 0.33266 0.11396
# Poissons Ratio (z) = 0.22551 0.33745
#
# Static dielectric constant tensor:
#      x y z
#    x 1.762550 0.000000 0.021580 
#    y 0.000000 2.041380 0.000000 
#    z 0.021580 0.000000 1.837530 
# 
# From -- ./inp_files/53264.got.cif
#   From: 2010.05.17/outbox.cif.g08.bks.cpg/sg14_27_cif.got.tgz:53264.got - 2010.06.03 17:49:19.
