data_PCOD9241036
_publ_section_title
;
Structure prediction by ZEFSAII (Michael W. Deem and Ramdas Pophale) SiO2 
 PCOD9241036
Probable space group: P 21/C
;
_chemical_formula_sum "Si O2"
_cell_formula_units_Z 32
_cell_length_a 22.241371
_cell_length_b 8.538363
_cell_length_c 13.976351
_cell_angle_alpha 90.000000
_cell_angle_beta 38.077841
_cell_angle_gamma 90.000000
_cell_volume 1636.914845
_symmetry_space_group_name_H-M "P 21/C"
_symmetry_group_IT_number 14
_symmetry_cell_setting 'monoclinic'
loop_
_space_group_symop_operation_xyz
x,y,z
-x,1/2+y,1/2-z
-x,-y,-z
x,1/2-y,1/2+z
loop_
_atom_site_type_symbol
_atom_site_label
_atom_site_fract_x
_atom_site_fract_y
_atom_site_fract_z
Si Si1 0.363238 0.148083 0.712104
Si Si2 0.963827 0.861848 0.614084
Si Si3 0.496257 0.860300 0.081287
Si Si4 0.697590 0.205048 0.196467
Si Si5 0.179318 0.580195 0.625933
Si Si6 0.843466 0.293588 0.665320
Si Si7 0.791756 0.842067 0.242982
Si Si8 0.650807 0.836803 0.048941
O O1 0.449858 0.218475 0.541512
O O2 0.261665 0.203343 0.789641
O O3 0.372804 0.195061 0.810791
O O4 0.354944 0.960582 0.716648
O O5 0.882778 0.763406 0.658588
O O6 0.057435 0.753527 0.514023
O O7 0.907901 0.952481 0.769785
O O8 0.000000 0.000000 0.500000
O O9 0.384461 0.818012 0.241897
O O10 0.558415 0.882580 0.099930
O O11 0.500000 0.000000 0.000000
O O12 0.749619 0.270228 0.225470
O O13 0.784500 0.160501 0.015680
O O14 0.152806 0.711317 0.736549
O O15 0.272525 0.480373 0.545633
O O16 0.826355 0.478896 0.695017
O O17 0.708090 0.806781 0.426971
#
# Coordination Sequence:
#
# PCOD9241036 Si02
#       8
#     4   4   4   4   4   4   4   4
#     4   9  20  37  55  76 108 149 183 222 274 327
#     4   9  18  35  57  77 105 142 175 219 276 325
#     4  11  22  34  54  84 112 145 189 230 270 321
#     4  10  21  37  55  78 110 145 182 223 270 327
#     4   9  19  37  55  77 106 142 179 220 273 328
#     4  10  19  34  56  80 107 139 179 228 274 321
#     4   9  18  34  55  81 108 138 183 227 271 324
#     4   9  19  36  55  77 110 148 182 223 274 325
#
# _framework density 19.548971000000002
#
# number of rings (size 3 to 8) (size 9 to 14) (size 15 to 20)
#    0.000    2.500    0.000    1.500    0.000    5.000 
#    0.000   12.500    0.000    0.000    0.000    0.000 
#    0.000    0.000    0.000    0.000    0.000    0.000 
#
# Total GULP energy -178348.272303 kJ/mol
# GULP energy per Si atom -5573.383509 kJ/mol
# Density = 1.950448 g / cm^3
# Si number density = 19.548971 Si / 1000 Ang^3
#
#
#
# Elastic Constant Matrix: (Units=GPa)
#
#
# Indices 1 2 3 4 5 6 
#
# 1 77.4966 14.6315 14.6998 0.0000 -2.4148 0.0000
# 2 14.6315 32.7000 13.1553 0.0000 -3.3059 0.0000
# 3 14.6998 13.1553 45.1259 0.0000 -4.5407 0.0000
# 4 0.0000 0.0000 0.0000 21.1219 0.0000 4.0764
# 5 -2.4148 -3.3059 -4.5407 0.0000 29.8927 0.0000
# 6 0.0000 0.0000 0.0000 4.0764 0.0000 16.8896
#
#
#
# Elastic Compliance Matrix: (Units=1/GPa)
#
#
# Indices 1 2 3 4 5 6 
#
# 1 0.014493 -0.005187 -0.003198 0.000000 0.000111 0.000000
# 2 -0.005187 0.036662 -0.008766 0.000000 0.002304 0.000000
# 3 -0.003198 -0.008766 0.026032 0.000000 0.002726 0.000000
# 4 0.000000 0.000000 0.000000 0.049657 0.000000 -0.011985
# 5 0.000111 0.002304 0.002726 0.000000 0.034131 0.000000
# 6 0.000000 0.000000 0.000000 -0.011985 0.000000 0.062101
#
#
# Mechanical properties :
#
#
# Convention : Reuss Voigt Hill
#
# Bulk Modulus (GPa) = 23.31857 26.69952 25.00905
# Shear Modulus (GPa) = 18.40452 21.10323 19.75388
#
# Velocity S-wave (km/s) = 3.07165 3.28915 3.18226
# Velocity P-wave (km/s) = 4.95320 5.30208 5.13061
#
# Compressibility (1/GPa) = 0.04288427
#
# Stress axis : x y z
#
# Youngs Moduli (GPa) = 68.99801 27.27655 38.41457
#
# Poissons Ratio (x) = 0.14149 0.12284
# Poissons Ratio (y) = 0.35790 0.33675
# Poissons Ratio (z) = 0.22064 0.23911
#
# Static dielectric constant tensor:
#      x y z
#    x 1.690560 0.000000 -0.004250 
#    y 0.000000 1.688400 0.000000 
#    z -0.004250 0.000000 1.710500 
# 
# From -- ./inp_files/36484.got.cif
#   From: 2010.05.17/outbox.cif.g08.bks.cpg/sg14_19_cif.got.tgz:36484.got - 2010.06.03 17:49:19.
