data_PCOD9241464
_publ_section_title
;
Structure prediction by ZEFSAII (Michael W. Deem and Ramdas Pophale) SiO2 
 PCOD9241464
Probable space group: P 21/C
;
_chemical_formula_sum "Si O2"
_cell_formula_units_Z 32
_cell_length_a 15.307560
_cell_length_b 8.783718
_cell_length_c 15.900701
_cell_angle_alpha 90.000000
_cell_angle_beta 51.878002
_cell_angle_gamma 90.000000
_cell_volume 1681.933054
_symmetry_space_group_name_H-M "P 21/C"
_symmetry_group_IT_number 14
_symmetry_cell_setting 'monoclinic'
loop_
_space_group_symop_operation_xyz
x,y,z
-x,1/2+y,1/2-z
-x,-y,-z
x,1/2-y,1/2+z
loop_
_atom_site_type_symbol
_atom_site_label
_atom_site_fract_x
_atom_site_fract_y
_atom_site_fract_z
Si Si1 0.084870 0.185517 0.522507
Si Si2 0.667326 0.540848 0.350425
Si Si3 0.080091 0.381149 0.366483
Si Si4 0.533762 0.246534 0.476632
Si Si5 0.871958 0.187998 0.089623
Si Si6 0.820309 0.752315 0.358092
Si Si7 0.615491 0.960771 0.534617
Si Si8 0.261753 0.953336 0.375577
O O1 0.126947 0.281948 0.416812
O O2 0.116288 0.263181 0.591656
O O3 0.952748 0.188518 0.587378
O O4 0.147548 0.025783 0.480260
O O5 0.621829 0.375428 0.401863
O O6 0.566903 0.662709 0.418163
O O7 0.760130 0.601686 0.359501
O O8 0.710624 0.527198 0.230171
O O9 0.135239 0.546525 0.343088
O O10 0.103076 0.310138 0.263168
O O11 0.949003 0.379125 0.468217
O O12 0.481691 0.161533 0.426067
O O13 0.583683 0.113672 0.504242
O O14 0.763987 0.275107 0.123157
O O15 0.724552 0.878592 0.431511
O O16 0.644434 0.003939 0.612804
#
# Coordination Sequence:
#
# PCOD9241464 Si02
#       8
#     4   4   4   4   4   4   4   4
#     4   9  19  37  54  80 115 148 184 232 272 324
#     4  10  20  35  60  80 110 143 185 232 278 344
#     4   9  19  38  53  75 118 149 179 237 272 322
#     4   9  20  40  54  80 113 140 179 238 287 335
#     4   9  20  37  52  78 116 147 185 232 271 323
#     4  10  19  36  58  83 109 153 187 223 286 328
#     4   9  21  37  58  80 112 143 182 233 284 341
#     4  11  20  35  58  84 107 146 190 226 278 336
#
# _framework density 19.025727
#
# number of rings (size 3 to 8) (size 9 to 14) (size 15 to 20)
#    0.750    1.750    1.250    0.375    1.750    2.000 
#    6.750    0.000    0.000    0.000    0.000    0.000 
#    0.000    0.000    0.000    0.000    0.000    0.000 
#
# Total GULP energy -178173.605871 kJ/mol
# GULP energy per Si atom -5567.925183 kJ/mol
# Density = 1.898242 g / cm^3
# Si number density = 19.025727 Si / 1000 Ang^3
#
#
#
# Elastic Constant Matrix: (Units=GPa)
#
#
# Indices 1 2 3 4 5 6 
#
# 1 65.6604 33.0385 23.5683 0.0000 26.5867 0.0000
# 2 33.0385 85.7401 11.8443 0.0000 6.7551 0.0000
# 3 23.5683 11.8443 65.7678 0.0000 22.6710 0.0000
# 4 0.0000 0.0000 0.0000 14.5548 0.0000 -0.3382
# 5 26.5867 6.7551 22.6710 0.0000 24.1830 0.0000
# 6 0.0000 0.0000 0.0000 -0.3382 0.0000 17.7112
#
#
#
# Elastic Compliance Matrix: (Units=1/GPa)
#
#
# Indices 1 2 3 4 5 6 
#
# 1 0.035213 -0.010915 0.002424 0.000000 -0.037936 0.000000
# 2 -0.010915 0.015407 -0.002240 0.000000 0.009796 0.000000
# 3 0.002424 -0.002240 0.022816 0.000000 -0.023429 0.000000
# 4 0.000000 0.000000 0.000000 0.068737 0.000000 0.001313
# 5 -0.037936 0.009796 -0.023429 0.000000 0.102286 0.000000
# 6 0.000000 0.000000 0.000000 0.001313 0.000000 0.056486
#
#
# Mechanical properties :
#
#
# Convention : Reuss Voigt Hill
#
# Bulk Modulus (GPa) = 19.24043 39.34118 29.29081
# Shear Modulus (GPa) = 14.71758 21.20428 17.96093
#
# Velocity S-wave (km/s) = 2.78432 3.34204 3.07585
# Velocity P-wave (km/s) = 4.52453 5.96784 5.29559
#
# Compressibility (1/GPa) = 0.05197388
#
# Stress axis : x y z
#
# Youngs Moduli (GPa) = 28.39897 64.90725 43.82908
#
# Poissons Ratio (x) = 0.70844 -0.10625
# Poissons Ratio (y) = 0.30996 0.09818
# Poissons Ratio (z) = -0.06884 0.14540
#
# Static dielectric constant tensor:
#      x y z
#    x 1.669850 0.000000 -0.018300 
#    y 0.000000 1.684340 0.000000 
#    z -0.018300 0.000000 1.654170 
# 
# From -- ./inp_files/46494.got.cif
#   From: 2010.05.17/outbox.cif.g08.bks.cpg/sg14_24_cif.got.tgz:46494.got - 2010.06.03 17:49:19.
