data_PCOD9242704
_publ_section_title
;
Structure prediction by ZEFSAII (Michael W. Deem and Ramdas Pophale) SiO2 
 PCOD9242704
Probable space group: P 21/C
;
_chemical_formula_sum "Si O2"
_cell_formula_units_Z 28
_cell_length_a 5.607516
_cell_length_b 28.964551
_cell_length_c 6.739373
_cell_angle_alpha 90.000000
_cell_angle_beta 103.716440
_cell_angle_gamma 90.000000
_cell_volume 1063.386597
_symmetry_space_group_name_H-M "P 21/C"
_symmetry_group_IT_number 14
_symmetry_cell_setting 'monoclinic'
loop_
_space_group_symop_operation_xyz
x,y,z
-x,1/2+y,1/2-z
-x,-y,-z
x,1/2-y,1/2+z
loop_
_atom_site_type_symbol
_atom_site_label
_atom_site_fract_x
_atom_site_fract_y
_atom_site_fract_z
Si Si1 0.736344 0.972048 0.627107
Si Si2 0.210504 0.295290 0.935866
Si Si3 0.567138 0.048828 0.104758
Si Si4 0.902221 0.437027 0.049977
Si Si5 0.886897 0.812567 0.037753
Si Si6 0.383384 0.645289 0.512622
Si Si7 0.725334 0.337713 0.981008
O O1 0.890070 0.019296 0.693084
O O2 0.500000 0.000000 0.500000
O O3 0.672726 0.942086 0.805285
O O4 0.818555 0.937278 0.469823
O O5 0.159841 0.315452 0.708434
O O6 0.493314 0.310191 0.024777
O O7 0.990774 0.312796 0.034600
O O8 0.171804 0.240445 0.920684
O O9 0.783770 0.048829 0.310933
O O10 0.629382 0.090097 0.972128
O O11 0.500000 0.000000 0.000000
O O12 0.773316 0.389448 0.070006
O O13 0.667666 0.841166 0.096472
O O14 0.171719 0.828825 0.096825
O O15 0.331026 0.656172 0.267668
#
# Coordination Sequence:
#
# PCOD9242704 Si02
#       7
#     4   4   4   4   4   4   4
#     4   9  19  34  56  78 113 151 195 243 284 334
#     4  10  20  35  57  84 108 144 181 235 283 345
#     4  10  21  35  55  84 114 152 198 234 289 345
#     4   9  19  35  56  83 111 153 196 243 291 335
#     4  10  20  38  57  81 110 142 187 228 288 337
#     4   9  20  35  58  80 110 151 185 227 274 351
#     4   9  19  32  59  85 107 143 194 230 278 345
#
# _framework density 26.330971999999999
#
# number of rings (size 3 to 8) (size 9 to 14) (size 15 to 20)
#    0.000    2.571    0.000    0.857   12.000    0.571 
#    0.000    2.857    0.000    0.000    0.000    0.000 
#    0.000    0.000    0.000    0.000    0.000    0.000 
#
# Total GULP energy -156278.023088 kJ/mol
# GULP energy per Si atom -5581.357967 kJ/mol
# Density = 2.627104 g / cm^3
# Si number density = 26.330972 Si / 1000 Ang^3
#
#
#
# Elastic Constant Matrix: (Units=GPa)
#
#
# Indices 1 2 3 4 5 6 
#
# 1 170.6297 84.6849 41.1915 0.0000 -13.1819 0.0000
# 2 84.6849 159.6724 15.7032 0.0000 -3.7561 0.0000
# 3 41.1915 15.7032 62.2929 0.0000 -1.1753 0.0000
# 4 0.0000 0.0000 0.0000 29.0247 0.0000 -9.4358
# 5 -13.1819 -3.7561 -1.1753 0.0000 47.5612 0.0000
# 6 0.0000 0.0000 0.0000 -9.4358 0.0000 44.5494
#
#
#
# Elastic Compliance Matrix: (Units=1/GPa)
#
#
# Indices 1 2 3 4 5 6 
#
# 1 0.009479 -0.004475 -0.005099 0.000000 0.002148 0.000000
# 2 -0.004475 0.008545 0.000795 0.000000 -0.000546 0.000000
# 3 -0.005099 0.000795 0.019208 0.000000 -0.000876 0.000000
# 4 0.000000 0.000000 0.000000 0.037001 0.000000 0.007837
# 5 0.002148 -0.000546 -0.000876 0.000000 0.021556 0.000000
# 6 0.000000 0.000000 0.000000 0.007837 0.000000 0.024107
#
#
# Mechanical properties :
#
#
# Convention : Reuss Voigt Hill
#
# Bulk Modulus (GPa) = 50.83101 75.08379 62.95740
# Shear Modulus (GPa) = 34.71914 40.96141 37.84027
#
# Velocity S-wave (km/s) = 3.63515 3.94843 3.79502
# Velocity P-wave (km/s) = 6.07993 7.02596 6.57000
#
# Compressibility (1/GPa) = 0.01967303
#
# Stress axis : x y z
#
# Youngs Moduli (GPa) = 105.50111 117.02366 52.06120
#
# Poissons Ratio (x) = 0.52370 0.26547
# Poissons Ratio (y) = 0.47213 -0.04138
# Poissons Ratio (z) = 0.53796 -0.09300
#
# Static dielectric constant tensor:
#      x y z
#    x 2.674180 0.000000 -0.075590 
#    y 0.000000 2.063560 0.000000 
#    z -0.075590 0.000000 2.190480 
# 
# From -- ./inp_files/6555.got.cif
#   From: 2010.05.17/outbox.cif.g08.bks.cpg/sg14_4_cif.got.tgz:6555.got - 2010.06.03 17:49:19.
