data_PCOD9242016
_publ_section_title
;
Structure prediction by ZEFSAII (Michael W. Deem and Ramdas Pophale) SiO2 
 PCOD9242016
Probable space group: P 21/C
;
_chemical_formula_sum "Si O2"
_cell_formula_units_Z 30
_cell_length_a 18.474038
_cell_length_b 4.899282
_cell_length_c 15.284897
_cell_angle_alpha 90.000000
_cell_angle_beta 111.851417
_cell_angle_gamma 90.000000
_cell_volume 1284.032394
_symmetry_space_group_name_H-M "P 21/C"
_symmetry_group_IT_number 14
_symmetry_cell_setting 'monoclinic'
loop_
_space_group_symop_operation_xyz
x,y,z
-x,1/2+y,1/2-z
-x,-y,-z
x,1/2-y,1/2+z
loop_
_atom_site_type_symbol
_atom_site_label
_atom_site_fract_x
_atom_site_fract_y
_atom_site_fract_z
Si Si1 0.095509 0.787467 0.333181
Si Si2 0.464307 0.142828 0.189656
Si Si3 0.676633 0.592340 0.629668
Si Si4 0.924130 0.711995 0.796179
Si Si5 0.221741 0.406141 0.159645
Si Si6 0.705138 0.429970 0.382256
Si Si7 0.733074 0.095220 0.557860
Si Si8 0.500000 0.500000 0.500000
O O1 0.097537 0.483250 0.295593
O O2 0.175278 0.862553 0.415705
O O3 0.016362 0.826453 0.352259
O O4 0.089125 0.983512 0.245380
O O5 0.524279 0.948469 0.269471
O O6 0.380157 0.031968 0.181124
O O7 0.473450 0.116447 0.088504
O O8 0.719910 0.688102 0.736534
O O9 0.706470 0.285011 0.627029
O O10 0.583822 0.595693 0.580103
O O11 0.709239 0.791991 0.569746
O O12 0.865898 0.635277 0.847006
O O13 0.245783 0.715999 0.153062
O O14 0.242153 0.202095 0.089796
O O15 0.689475 0.244089 0.460017
#
# Coordination Sequence:
#
# PCOD9242016 Si02
#       8
#     4   4   4   4   4   4   4   2
#     4  10  19  38  65  98 131 166 222 282 329 397
#     4  12  28  50  71 103 142 182 240 299 352 420
#     4  12  25  42  71  97 130 171 238 274 335 417
#     4  10  20  36  66  99 129 168 223 280 329 398
#     4  12  23  44  66 102 131 181 223 279 340 413
#     4  12  26  43  65  94 142 176 217 281 352 404
#     4  12  23  44  65  97 134 176 215 276 337 408
#     4  12  28  48  76 104 140 188 236 296 362 416
#
# _framework density 23.363897000000001
#
# number of rings (size 3 to 8) (size 9 to 14) (size 15 to 20)
#    0.000    0.533    4.000    4.800    1.867    2.133 
#    0.000    1.333    0.000    0.000    0.000    0.000 
#    0.000    0.000    0.000    0.000    0.000    0.000 
#
# Total GULP energy -167214.053460 kJ/mol
# GULP energy per Si atom -5573.801782 kJ/mol
# Density = 2.331072 g / cm^3
# Si number density = 23.363897 Si / 1000 Ang^3
#
#
#
# Elastic Constant Matrix: (Units=GPa)
#
#
# Indices 1 2 3 4 5 6 
#
# 1 63.8470 -2.1615 -3.6617 0.0000 7.0838 0.0000
# 2 -2.1615 68.5815 -14.2524 0.0000 -3.4299 0.0000
# 3 -3.6617 -14.2524 20.1959 0.0000 -11.5686 0.0000
# 4 0.0000 0.0000 0.0000 -0.5339 0.0000 -28.4249
# 5 7.0838 -3.4299 -11.5686 0.0000 42.9349 0.0000
# 6 0.0000 0.0000 0.0000 -28.4249 0.0000 -6.3021
#
#
#
# Elastic Compliance Matrix: (Units=1/GPa)
#
#
# Indices 1 2 3 4 5 6 
#
# 1 0.016047 0.000923 0.002467 0.000000 -0.001909 0.000000
# 2 0.000923 0.018294 0.016351 0.000000 0.005715 0.000000
# 3 0.002467 0.016351 0.073335 0.000000 0.020659 0.000000
# 4 0.000000 0.000000 0.000000 0.007832 0.000000 -0.035327
# 5 -0.001909 0.005715 0.020659 0.000000 0.029629 0.000000
# 6 0.000000 0.000000 0.000000 -0.035327 0.000000 0.000664
#
#
# Mechanical properties :
#
#
# Convention : Reuss Voigt Hill
#
# Bulk Modulus (GPa) = 6.79535 12.49702 9.64618
# Shear Modulus (GPa) = 32.18099 18.73311 25.45705
#
# Velocity S-wave (km/s) = 3.71533 2.83467 3.30447
# Velocity P-wave (km/s) = 4.61733 4.00928 4.32401
#
# Compressibility (1/GPa) = 0.14715954
#
# Stress axis : x y z
#
# Youngs Moduli (GPa) = 62.31690 54.66227 13.63603
#
# Poissons Ratio (x) = -0.05046 -0.03364
# Poissons Ratio (y) = -0.05752 -0.22297
# Poissons Ratio (z) = -0.15376 -0.89380
#
# Static dielectric constant tensor:
#      x y z
#    x 1.889680 0.000000 -0.053540 
#    y 0.000000 1.875270 0.000000 
#    z -0.053540 0.000000 1.945990 
# 
# From -- ./inp_files/48020.got.cif
#   From: 2010.05.17/outbox.cif.g08.bks.cpg/sg14_25_cif.got.tgz:48020.got - 2010.06.03 17:49:19.
