data_PCOD9242535
_publ_section_title
;
Structure prediction by ZEFSAII (Michael W. Deem and Ramdas Pophale) SiO2 
 PCOD9242535
Probable space group: P 21/C
;
_chemical_formula_sum "Si O2"
_cell_formula_units_Z 28
_cell_length_a 20.404582
_cell_length_b 5.564931
_cell_length_c 23.894912
_cell_angle_alpha 90.000000
_cell_angle_beta 148.640990
_cell_angle_gamma 90.000000
_cell_volume 1411.982317
_symmetry_space_group_name_H-M "P 21/C"
_symmetry_group_IT_number 14
_symmetry_cell_setting 'monoclinic'
loop_
_space_group_symop_operation_xyz
x,y,z
-x,1/2+y,1/2-z
-x,-y,-z
x,1/2-y,1/2+z
loop_
_atom_site_type_symbol
_atom_site_label
_atom_site_fract_x
_atom_site_fract_y
_atom_site_fract_z
Si Si1 0.977383 0.924999 0.814534
Si Si2 0.821999 0.360712 0.108675
Si Si3 0.348316 0.924985 0.685468
Si Si4 0.904571 0.777349 0.370427
Si Si5 0.836285 0.222651 0.870426
Si Si6 0.604652 0.139268 0.891327
Si Si7 0.807627 0.750009 0.499999
O O1 0.934103 0.723124 0.825904
O O2 0.073252 0.827225 0.837149
O O3 0.863399 0.048132 0.699042
O O4 0.063484 0.106185 0.913438
O O5 0.683627 0.249990 0.000001
O O6 0.827010 0.573126 0.066484
O O7 0.282292 0.723119 0.674098
O O8 0.398950 0.827202 0.662849
O O9 0.465317 0.048117 0.800960
O O10 0.236610 0.106174 0.586566
O O11 0.836777 0.524608 0.336088
O O12 0.035903 0.750000 0.500000
O O13 0.835402 0.024608 0.336088
O O14 0.694040 0.926849 0.933516
#
# Coordination Sequence:
#
# PCOD9242535 Si02
#       7
#     4   4   4   4   4   4   4
#     4  11  21  36  59  84 120 153 196 245 305 362
#     4  10  21  35  56  87 114 153 189 247 306 363
#     4  11  21  36  59  84 120 153 196 245 305 362
#     4  10  23  38  58  86 121 162 203 247 300 362
#     4  10  23  38  58  86 121 162 203 247 300 362
#     4  10  21  35  56  87 114 153 189 247 306 363
#     4  10  20  34  54  86 114 148 188 242 298 372
#
# _framework density 19.830276000000001
#
# number of rings (size 3 to 8) (size 9 to 14) (size 15 to 20)
#    0.000    1.714    2.857    2.571   10.000    0.000 
#    0.000    0.000    0.000    1.714    0.000    0.000 
#    0.000    0.000    0.000    0.000    0.000    0.000 
#
# Total GULP energy -156389.330881 kJ/mol
# GULP energy per Si atom -5585.333246 kJ/mol
# Density = 1.978514 g / cm^3
# Si number density = 19.830276 Si / 1000 Ang^3
#
#
#
# Elastic Constant Matrix: (Units=GPa)
#
#
# Indices 1 2 3 4 5 6 
#
# 1 34.3708 7.1561 14.3395 0.0000 0.0268 0.0000
# 2 7.1561 76.7781 28.2838 0.0000 0.1844 0.0000
# 3 14.3395 28.2838 90.4910 0.0000 0.4627 0.0000
# 4 0.0000 0.0000 0.0000 20.2125 0.0000 0.0368
# 5 0.0268 0.1844 0.4627 0.0000 11.5088 0.0000
# 6 0.0000 0.0000 0.0000 0.0368 0.0000 16.0772
#
#
#
# Elastic Compliance Matrix: (Units=1/GPa)
#
#
# Indices 1 2 3 4 5 6 
#
# 1 0.031257 -0.001230 -0.004569 0.000000 0.000131 0.000000
# 2 -0.001230 0.014768 -0.004421 0.000000 -0.000056 0.000000
# 3 -0.004569 -0.004421 0.013159 0.000000 -0.000448 0.000000
# 4 0.000000 0.000000 0.000000 0.049474 0.000000 -0.000113
# 5 0.000131 -0.000056 -0.000448 0.000000 0.086909 0.000000
# 6 0.000000 0.000000 0.000000 -0.000113 0.000000 0.062200
#
#
# Mechanical properties :
#
#
# Convention : Reuss Voigt Hill
#
# Bulk Modulus (GPa) = 25.81098 33.46654 29.63876
# Shear Modulus (GPa) = 17.17496 19.68373 18.42935
#
# Velocity S-wave (km/s) = 2.94615 3.15399 3.05184
# Velocity P-wave (km/s) = 4.96158 5.49333 5.23421
#
# Compressibility (1/GPa) = 0.03874319
#
# Stress axis : x y z
#
# Youngs Moduli (GPa) = 31.99307 67.71473 75.99447
#
# Poissons Ratio (x) = 0.08332 0.34723
# Poissons Ratio (y) = 0.03936 0.33594
# Poissons Ratio (z) = 0.14618 0.29934
#
# Static dielectric constant tensor:
#      x y z
#    x 1.667760 0.000000 0.000110 
#    y 0.000000 1.794550 0.000000 
#    z 0.000110 0.000000 1.680680 
# 
# From -- ./inp_files/63603.got.cif
#   From: 2010.05.17/outbox.cif.g08.bks.cpg/sg14_32_cif.got.tgz:63603.got - 2010.06.03 17:49:19.
