data_PCOD9242267
_publ_section_title
;
Structure prediction by ZEFSAII (Michael W. Deem and Ramdas Pophale) SiO2 
 PCOD9242267
Probable space group: P 21/C
;
_chemical_formula_sum "Si O2"
_cell_formula_units_Z 28
_cell_length_a 9.274595
_cell_length_b 14.094187
_cell_length_c 15.168530
_cell_angle_alpha 90.000000
_cell_angle_beta 44.684172
_cell_angle_gamma 90.000000
_cell_volume 1394.300236
_symmetry_space_group_name_H-M "P 21/C"
_symmetry_group_IT_number 14
_symmetry_cell_setting 'monoclinic'
loop_
_space_group_symop_operation_xyz
x,y,z
-x,1/2+y,1/2-z
-x,-y,-z
x,1/2-y,1/2+z
loop_
_atom_site_type_symbol
_atom_site_label
_atom_site_fract_x
_atom_site_fract_y
_atom_site_fract_z
Si Si1 0.840702 0.169211 0.189889
Si Si2 0.185070 0.952433 0.474523
Si Si3 0.153196 0.681287 0.656644
Si Si4 0.002646 0.032494 0.252746
Si Si5 0.448472 0.405422 0.576695
Si Si6 0.991197 0.763178 0.546010
Si Si7 0.425817 0.114296 0.289115
O O1 0.608364 0.168246 0.257379
O O2 0.873674 0.249737 0.249167
O O3 0.888034 0.069877 0.216746
O O4 0.984161 0.189346 0.043795
O O5 0.372884 0.017924 0.364976
O O6 0.132482 0.957597 0.600636
O O7 0.171825 0.842238 0.454976
O O8 0.000000 0.000000 0.500000
O O9 0.031938 0.717399 0.623304
O O10 0.075823 0.575719 0.713346
O O11 0.395960 0.673475 0.527386
O O12 0.203292 0.100106 0.174954
O O13 0.500000 0.500000 0.500000
O O14 0.491305 0.414038 0.661880
O O15 0.776423 0.819483 0.631883
#
# Coordination Sequence:
#
# PCOD9242267 Si02
#       7
#     4   4   4   4   4   4   4
#     4  12  26  43  65 106 135 173 235 279 334 404
#     4  10  19  41  68  88 123 177 221 266 334 394
#     4  11  23  44  66  95 136 180 223 278 341 395
#     4  11  23  44  66  96 135 176 225 279 337 404
#     4  10  21  40  66  92 128 176 220 272 341 405
#     4  11  23  44  68  93 136 182 221 277 340 405
#     4  11  23  43  66  99 133 174 233 278 333 405
#
# _framework density 20.081758000000001
#
# number of rings (size 3 to 8) (size 9 to 14) (size 15 to 20)
#    0.000    1.143    5.714    1.714    4.000    1.143 
#    5.143    0.000    0.000    0.000    0.000    0.000 
#    0.000    0.000    0.000    0.000    0.000    0.000 
#
# Total GULP energy -156300.427994 kJ/mol
# GULP energy per Si atom -5582.158143 kJ/mol
# Density = 2.003605 g / cm^3
# Si number density = 20.081758 Si / 1000 Ang^3
#
#
#
# Elastic Constant Matrix: (Units=GPa)
#
#
# Indices 1 2 3 4 5 6 
#
# 1 103.9060 26.5586 30.9650 0.0000 18.4565 0.0000
# 2 26.5586 55.9033 8.6479 0.0000 5.2578 0.0000
# 3 30.9650 8.6479 68.6735 0.0000 22.9467 0.0000
# 4 0.0000 0.0000 0.0000 25.4569 0.0000 4.1444
# 5 18.4565 5.2578 22.9467 0.0000 30.6696 0.0000
# 6 0.0000 0.0000 0.0000 4.1444 0.0000 35.4076
#
#
#
# Elastic Compliance Matrix: (Units=1/GPa)
#
#
# Indices 1 2 3 4 5 6 
#
# 1 0.012762 -0.005104 -0.003784 0.000000 -0.003974 0.000000
# 2 -0.005104 0.020366 -0.000164 0.000000 -0.000297 0.000000
# 3 -0.003784 -0.000164 0.020691 0.000000 -0.013176 0.000000
# 4 0.000000 0.000000 0.000000 0.040045 0.000000 -0.004687
# 5 -0.003974 -0.000297 -0.013176 0.000000 0.044906 0.000000
# 6 0.000000 0.000000 0.000000 -0.004687 0.000000 0.028791
#
#
# Mechanical properties :
#
#
# Convention : Reuss Voigt Hill
#
# Bulk Modulus (GPa) = 27.99885 40.09177 34.04531
# Shear Modulus (GPa) = 25.30743 29.12757 27.21750
#
# Velocity S-wave (km/s) = 3.55381 3.81261 3.68548
# Velocity P-wave (km/s) = 5.55087 6.27606 5.92457
#
# Compressibility (1/GPa) = 0.03571575
#
# Stress axis : x y z
#
# Youngs Moduli (GPa) = 78.35634 49.10102 48.33017
#
# Poissons Ratio (x) = 0.25061 0.18288
# Poissons Ratio (y) = 0.39993 0.00792
# Poissons Ratio (z) = 0.29649 0.00805
#
# Static dielectric constant tensor:
#      x y z
#    x 1.702690 0.000000 -0.021330 
#    y 0.000000 1.715040 0.000000 
#    z -0.021330 0.000000 1.715750 
# 
# From -- ./inp_files/41160.got.cif
#   From: 2010.05.17/outbox.cif.g08.bks.cpg/sg14_21_cif.got.tgz:41160.got - 2010.06.03 17:49:19.
