data_PCOD9242891
_publ_section_title
;
Structure prediction by ZEFSAII (Michael W. Deem and Ramdas Pophale) SiO2 
 PCOD9242891
Probable space group: P 21/C
;
_chemical_formula_sum "Si O2"
_cell_formula_units_Z 32
_cell_length_a 14.346950
_cell_length_b 11.016520
_cell_length_c 13.256837
_cell_angle_alpha 90.000000
_cell_angle_beta 33.116426
_cell_angle_gamma 90.000000
_cell_volume 1144.744585
_symmetry_space_group_name_H-M "P 21/C"
_symmetry_group_IT_number 14
_symmetry_cell_setting 'monoclinic'
loop_
_space_group_symop_operation_xyz
x,y,z
-x,1/2+y,1/2-z
-x,-y,-z
x,1/2-y,1/2+z
loop_
_atom_site_type_symbol
_atom_site_label
_atom_site_fract_x
_atom_site_fract_y
_atom_site_fract_z
Si Si1 0.565158 0.320052 0.696070
Si Si2 0.088609 0.399530 0.126109
Si Si3 0.360603 0.985624 0.260523
Si Si4 0.887411 0.420018 0.498594
Si Si5 0.718854 0.849662 0.061837
Si Si6 0.822401 0.641589 0.235728
Si Si7 0.874238 0.238124 0.667881
Si Si8 0.499562 0.762383 0.538861
O O1 0.506474 0.423714 0.671545
O O2 0.759038 0.321978 0.558725
O O3 0.483086 0.351427 0.881369
O O4 0.478170 0.191463 0.744747
O O5 0.196457 0.280790 0.998323
O O6 0.047698 0.416486 0.279313
O O7 0.206531 0.509138 0.980901
O O8 0.922112 0.354479 0.214945
O O9 0.261365 0.034664 0.252359
O O10 0.449230 0.865600 0.139402
O O11 0.781781 0.542878 0.574896
O O12 0.920500 0.374351 0.581877
O O13 0.797023 0.877109 0.878293
O O14 0.687713 0.748126 0.326358
O O15 0.010250 0.670818 0.024736
O O16 0.673370 0.269813 0.866883
#
# Coordination Sequence:
#
# PCOD9242891 Si02
#       8
#     4   4   4   4   4   4   4   4
#     4   9  20  37  53  85 118 153 202 246 298 368
#     4  10  23  38  61  90 125 156 207 257 305 374
#     4  10  21  35  56  89 116 158 199 255 310 362
#     4  11  22  38  66  86 122 168 197 258 319 358
#     4  10  21  39  61  88 119 165 206 247 315 367
#     4  10  20  36  56  85 124 151 197 260 300 354
#     4  10  23  39  58  93 123 160 208 253 300 375
#     4  10  21  35  58  84 120 155 202 253 307 368
#
# _framework density 27.953835000000002
#
# number of rings (size 3 to 8) (size 9 to 14) (size 15 to 20)
#    0.000    2.000    1.250    1.875    5.250    1.500 
#    0.000    0.000    0.000    0.750    0.000    0.000 
#    0.000    0.000    0.000    0.000    0.000    0.000 
#
# Total GULP energy -178203.152150 kJ/mol
# GULP energy per Si atom -5568.848505 kJ/mol
# Density = 2.789021 g / cm^3
# Si number density = 27.953835 Si / 1000 Ang^3
#
#
#
# Elastic Constant Matrix: (Units=GPa)
#
#
# Indices 1 2 3 4 5 6 
#
# 1 96.9904 8.2024 16.5403 0.0000 -12.9307 0.0000
# 2 8.2024 58.6555 15.8251 0.0000 -2.7188 0.0000
# 3 16.5403 15.8251 132.9622 0.0000 10.2657 0.0000
# 4 0.0000 0.0000 0.0000 36.2441 0.0000 -5.4088
# 5 -12.9307 -2.7188 10.2657 0.0000 40.1362 0.0000
# 6 0.0000 0.0000 0.0000 -5.4088 0.0000 33.5305
#
#
#
# Elastic Compliance Matrix: (Units=1/GPa)
#
#
# Indices 1 2 3 4 5 6 
#
# 1 0.011187 -0.000955 -0.001583 0.000000 0.003944 0.000000
# 2 -0.000955 0.017819 -0.002113 0.000000 0.001440 0.000000
# 3 -0.001583 -0.002113 0.008181 0.000000 -0.002746 0.000000
# 4 0.000000 0.000000 0.000000 0.028271 0.000000 0.004560
# 5 0.003944 0.001440 -0.002746 0.000000 0.026986 0.000000
# 6 0.000000 0.000000 0.000000 0.004560 0.000000 0.030559
#
#
# Mechanical properties :
#
#
# Convention : Reuss Voigt Hill
#
# Bulk Modulus (GPa) = 35.85974 41.08262 38.47118
# Shear Modulus (GPa) = 35.31089 38.51819 36.91454
#
# Velocity S-wave (km/s) = 3.55799 3.71606 3.63788
# Velocity P-wave (km/s) = 5.45299 5.75679 5.60695
#
# Compressibility (1/GPa) = 0.02788643
#
# Stress axis : x y z
#
# Youngs Moduli (GPa) = 89.39162 56.11957 122.23006
#
# Poissons Ratio (x) = 0.05357 0.19343
# Poissons Ratio (y) = 0.08533 0.25830
# Poissons Ratio (z) = 0.14146 0.11859
#
# Static dielectric constant tensor:
#      x y z
#    x 2.499510 0.000000 -0.131150 
#    y 0.000000 2.309450 0.000000 
#    z -0.131150 0.000000 2.249460 
# 
# From -- ./inp_files/47126.got.cif
#   From: 2010.05.17/outbox.cif.g08.bks.cpg/sg14_24_cif.got.tgz:47126.got - 2010.06.03 17:49:19.
