data_PCOD9242038
_publ_section_title
;
Structure prediction by ZEFSAII (Michael W. Deem and Ramdas Pophale) SiO2 
 PCOD9242038
Probable space group: P 21/C
;
_chemical_formula_sum "Si O2"
_cell_formula_units_Z 32
_cell_length_a 10.268719
_cell_length_b 9.419300
_cell_length_c 28.077737
_cell_angle_alpha 90.000000
_cell_angle_beta 33.583808
_cell_angle_gamma 90.000000
_cell_volume 1502.258737
_symmetry_space_group_name_H-M "P 21/C"
_symmetry_group_IT_number 14
_symmetry_cell_setting 'monoclinic'
loop_
_space_group_symop_operation_xyz
x,y,z
-x,1/2+y,1/2-z
-x,-y,-z
x,1/2-y,1/2+z
loop_
_atom_site_type_symbol
_atom_site_label
_atom_site_fract_x
_atom_site_fract_y
_atom_site_fract_z
Si Si1 0.778524 0.140314 0.611735
Si Si2 0.439141 0.034928 0.073114
Si Si3 0.756630 0.231694 0.817452
Si Si4 0.676364 0.935003 0.564003
Si Si5 0.261880 0.557390 0.426017
Si Si6 0.472547 0.156672 0.551686
Si Si7 0.301177 0.915967 0.258566
Si Si8 0.876788 0.408390 0.865313
O O1 0.730129 0.280914 0.595541
O O2 0.685418 0.150782 0.693603
O O3 0.059801 0.113858 0.527719
O O4 0.674021 0.000974 0.617515
O O5 0.657667 0.039760 0.043670
O O6 0.352844 0.196715 0.101670
O O7 0.266761 0.916672 0.147313
O O8 0.500000 0.000000 0.000000
O O9 0.502064 0.308229 0.891879
O O10 0.808242 0.190762 0.747438
O O11 0.905828 0.338945 0.804558
O O12 0.590345 0.064891 0.557432
O O13 0.449929 0.467913 0.337802
O O14 0.000000 0.500000 0.500000
O O15 0.693968 0.190230 0.449770
O O16 0.277920 0.052623 0.589070
O O17 0.123023 0.050841 0.313618
#
# Coordination Sequence:
#
# PCOD9242038 Si02
#       8
#     4   4   4   4   4   4   4   4
#     4  11  22  40  68  95 129 179 224 278 329 402
#     4  11  21  39  68 102 130 172 226 277 331 410
#     4  10  23  41  63  94 136 172 217 279 338 403
#     4  10  21  41  69  94 125 174 229 266 332 407
#     4  11  26  47  65  98 139 181 225 283 346 410
#     4  10  19  38  68  96 126 170 222 265 341 403
#     4  11  25  41  65  98 139 173 230 279 339 404
#     4  10  21  40  64  95 131 173 215 277 332 408
#
# _framework density 21.301257
#
# number of rings (size 3 to 8) (size 9 to 14) (size 15 to 20)
#    0.000    1.500    3.750    1.500    1.750    3.000 
#    2.250    0.000    0.000    0.000    0.000    0.000 
#    0.000    0.000    0.000    0.000    0.000    0.000 
#
# Total GULP energy -178673.860046 kJ/mol
# GULP energy per Si atom -5583.558126 kJ/mol
# Density = 2.125277 g / cm^3
# Si number density = 21.301257 Si / 1000 Ang^3
#
#
#
# Elastic Constant Matrix: (Units=GPa)
#
#
# Indices 1 2 3 4 5 6 
#
# 1 85.1006 16.9123 46.4705 0.0000 17.3286 0.0000
# 2 16.9123 95.6668 17.3912 0.0000 6.4873 0.0000
# 3 46.4705 17.3912 87.7791 0.0000 14.0657 0.0000
# 4 0.0000 0.0000 0.0000 16.4512 0.0000 8.0786
# 5 17.3286 6.4873 14.0657 0.0000 39.9819 0.0000
# 6 0.0000 0.0000 0.0000 8.0786 0.0000 33.1678
#
#
#
# Elastic Compliance Matrix: (Units=1/GPa)
#
#
# Indices 1 2 3 4 5 6 
#
# 1 0.017417 -0.001277 -0.008256 0.000000 -0.004437 0.000000
# 2 -0.001277 0.010980 -0.001380 0.000000 -0.000742 0.000000
# 3 -0.008256 -0.001380 0.016349 0.000000 -0.001949 0.000000
# 4 0.000000 0.000000 0.000000 0.069044 0.000000 -0.016817
# 5 -0.004437 -0.000742 -0.001949 0.000000 0.027740 0.000000
# 6 0.000000 0.000000 0.000000 -0.016817 0.000000 0.034246
#
#
# Mechanical properties :
#
#
# Convention : Reuss Voigt Hill
#
# Bulk Modulus (GPa) = 43.63415 47.78827 45.71121
# Shear Modulus (GPa) = 24.36135 30.43833 27.39984
#
# Velocity S-wave (km/s) = 3.38547 3.78424 3.59040
# Velocity P-wave (km/s) = 5.98420 6.44803 6.22044
#
# Compressibility (1/GPa) = 0.02291783
#
# Stress axis : x y z
#
# Youngs Moduli (GPa) = 57.41653 91.07463 61.16574
#
# Poissons Ratio (x) = 0.11632 0.50501
# Poissons Ratio (y) = 0.07333 0.08443
# Poissons Ratio (z) = 0.47405 0.12571
#
# Static dielectric constant tensor:
#      x y z
#    x 1.775800 0.000000 0.034860 
#    y 0.000000 1.820370 0.000000 
#    z 0.034860 0.000000 1.829540 
# 
# From -- ./inp_files/79998.got.cif
#   From: 2010.05.17/outbox.cif.g08.bks.cpg/sg14_40_cif.got.tgz:79998.got - 2010.06.03 17:49:19.
