data_PCOD9242859
_publ_section_title
;
Structure prediction by ZEFSAII (Michael W. Deem and Ramdas Pophale) SiO2 
 PCOD9242859
Probable space group: P 21/C
;
_chemical_formula_sum "Si O2"
_cell_formula_units_Z 32
_cell_length_a 24.350939
_cell_length_b 5.135280
_cell_length_c 19.132710
_cell_angle_alpha 90.000000
_cell_angle_beta 142.673741
_cell_angle_gamma 90.000000
_cell_volume 1450.713972
_symmetry_space_group_name_H-M "P 21/C"
_symmetry_group_IT_number 14
_symmetry_cell_setting 'monoclinic'
loop_
_space_group_symop_operation_xyz
x,y,z
-x,1/2+y,1/2-z
-x,-y,-z
x,1/2-y,1/2+z
loop_
_atom_site_type_symbol
_atom_site_label
_atom_site_fract_x
_atom_site_fract_y
_atom_site_fract_z
Si Si1 0.592059 0.997001 0.263059
Si Si2 0.370810 0.121176 0.315727
Si Si3 0.648462 0.455811 0.970891
Si Si4 0.465159 0.223861 0.535390
Si Si5 0.762872 0.117749 0.902266
Si Si6 0.937773 0.276793 0.265085
Si Si7 0.038414 0.789264 0.379432
Si Si8 0.759207 0.957710 0.055724
O O1 0.606830 0.726832 0.238700
O O2 0.588230 0.979974 0.341857
O O3 0.501494 0.099192 0.134656
O O4 0.682450 0.170765 0.336613
O O5 0.401614 0.318664 0.407506
O O6 0.440195 0.886292 0.398217
O O7 0.269486 0.030725 0.200436
O O8 0.594946 0.506637 0.987175
O O9 0.679903 0.160741 0.993534
O O10 0.731324 0.667316 0.050847
O O11 0.862232 0.229597 0.991755
O O12 0.771291 0.954798 0.983517
O O13 0.951686 0.297218 0.195232
O O14 0.844603 0.111279 0.175234
O O15 0.963244 0.565003 0.317996
O O16 0.008923 0.077032 0.370182
#
# Coordination Sequence:
#
# PCOD9242859 Si02
#       8
#     4   4   4   4   4   4   4   4
#     4  10  21  34  57  78 114 146 183 237 281 325
#     4  10  20  40  54  77 115 148 186 236 283 322
#     4  11  23  36  58  84 110 150 190 231 274 338
#     4  10  24  36  56  82 108 150 195 230 280 333
#     4   9  19  32  52  82 111 148 184 227 281 333
#     4   9  17  29  48  77 113 143 171 225 280 330
#     4   9  17  27  49  79 110 142 179 217 276 339
#     4  10  20  36  54  82 116 146 183 230 286 328
#
# _framework density 22.058102999999999
#
# number of rings (size 3 to 8) (size 9 to 14) (size 15 to 20)
#    0.000    2.250    1.250    1.125    5.250    3.000 
#    0.000    0.000    0.000    0.000    0.000    5.250 
#    0.000    0.000    0.000    0.000    0.000    0.000 
#
# Total GULP energy -178287.612715 kJ/mol
# GULP energy per Si atom -5571.487897 kJ/mol
# Density = 2.200790 g / cm^3
# Si number density = 22.058103 Si / 1000 Ang^3
#
#
#
# Elastic Constant Matrix: (Units=GPa)
#
#
# Indices 1 2 3 4 5 6 
#
# 1 35.3701 -6.1136 14.3318 0.0000 -7.4736 0.0000
# 2 -6.1136 61.6247 -3.6599 0.0000 -0.3327 0.0000
# 3 14.3318 -3.6599 84.9980 0.0000 -3.0491 0.0000
# 4 0.0000 0.0000 0.0000 21.9565 0.0000 6.0465
# 5 -7.4736 -0.3327 -3.0491 0.0000 9.1143 0.0000
# 6 0.0000 0.0000 0.0000 6.0465 0.0000 10.3998
#
#
#
# Elastic Compliance Matrix: (Units=1/GPa)
#
#
# Indices 1 2 3 4 5 6 
#
# 1 0.037014 0.003527 -0.005056 0.000000 0.028788 0.000000
# 2 0.003527 0.016611 0.000249 0.000000 0.003582 0.000000
# 3 -0.005056 0.000249 0.012631 0.000000 0.000089 0.000000
# 4 0.000000 0.000000 0.000000 0.054227 0.000000 -0.031528
# 5 0.028788 0.003582 0.000089 0.000000 0.133484 0.000000
# 6 0.000000 0.000000 0.000000 -0.031528 0.000000 0.114486
#
#
# Mechanical properties :
#
#
# Convention : Reuss Voigt Hill
#
# Bulk Modulus (GPa) = 15.69955 21.23435 18.46695
# Shear Modulus (GPa) = 12.74710 20.12309 16.43510
#
# Velocity S-wave (km/s) = 2.40654 3.02367 2.73258
# Velocity P-wave (km/s) = 3.85418 4.67307 4.28324
#
# Compressibility (1/GPa) = 0.06369608
#
# Stress axis : x y z
#
# Youngs Moduli (GPa) = 27.01701 60.19991 79.16735
#
# Poissons Ratio (x) = -0.21233 0.40030
# Poissons Ratio (y) = -0.09529 -0.01972
# Poissons Ratio (z) = 0.13661 -0.01499
#
# Static dielectric constant tensor:
#      x y z
#    x 1.830170 0.000000 0.030720 
#    y 0.000000 1.897540 0.000000 
#    z 0.030720 0.000000 1.879480 
# 
# From -- ./inp_files/70364.got.cif
#   From: 2010.05.17/outbox.cif.g08.bks.cpg/sg14_36_cif.got.tgz:70364.got - 2010.06.03 17:49:19.
