data_PCOD9242823
_publ_section_title
;
Structure prediction by ZEFSAII (Michael W. Deem and Ramdas Pophale) SiO2 
 PCOD9242823
Probable space group: P 21/C
;
_chemical_formula_sum "Si O2"
_cell_formula_units_Z 32
_cell_length_a 8.016246
_cell_length_b 11.536126
_cell_length_c 13.939400
_cell_angle_alpha 90.000000
_cell_angle_beta 99.534385
_cell_angle_gamma 90.000000
_cell_volume 1271.259189
_symmetry_space_group_name_H-M "P 21/C"
_symmetry_group_IT_number 14
_symmetry_cell_setting 'monoclinic'
loop_
_space_group_symop_operation_xyz
x,y,z
-x,1/2+y,1/2-z
-x,-y,-z
x,1/2-y,1/2+z
loop_
_atom_site_type_symbol
_atom_site_label
_atom_site_fract_x
_atom_site_fract_y
_atom_site_fract_z
Si Si1 0.918641 0.067513 0.685605
Si Si2 0.078253 0.845858 0.641303
Si Si3 0.874794 0.502800 0.604285
Si Si4 0.645902 0.841696 0.359144
Si Si5 0.613624 0.151085 0.189800
Si Si6 0.731842 0.723332 0.647909
Si Si7 0.002890 0.264581 0.559546
Si Si8 0.440641 0.052470 0.345115
O O1 0.730350 0.019866 0.661754
O O2 0.038810 0.982877 0.633516
O O3 0.997100 0.045595 0.798694
O O4 0.927781 0.196081 0.644111
O O5 0.246393 0.820195 0.716049
O O6 0.906816 0.795751 0.673835
O O7 0.091119 0.786080 0.540865
O O8 0.717942 0.424588 0.625786
O O9 0.776081 0.623252 0.576145
O O10 0.980665 0.403335 0.559073
O O11 0.483689 0.760729 0.359177
O O12 0.683840 0.834313 0.246663
O O13 0.806757 0.783760 0.422943
O O14 0.595042 0.969849 0.389381
O O15 0.473164 0.078611 0.235550
O O16 0.591905 0.821217 0.611927
#
# Coordination Sequence:
#
# PCOD9242823 Si02
#       8
#     4   4   4   4   4   4   4   4
#     4  10  21  38  63  94 122 168 215 273 320 385
#     4  10  23  41  61  88 135 171 210 262 341 397
#     4  11  21  38  65  91 125 165 224 260 318 401
#     4  11  20  38  64  95 120 163 226 269 320 383
#     4  10  20  38  61  93 123 160 207 278 320 380
#     4  10  21  40  60  89 129 169 207 269 322 396
#     4  12  23  40  64  95 124 175 218 266 328 405
#     4  10  20  35  62  93 120 157 211 271 332 362
#
# _framework density 25.171892
#
# number of rings (size 3 to 8) (size 9 to 14) (size 15 to 20)
#    0.000    1.500    2.500    4.875    1.750    0.500 
#    0.000   10.625    0.000    3.750    0.000    0.000 
#    0.000    0.000    0.000    0.000    0.000    0.000 
#
# Total GULP energy -178910.701212 kJ/mol
# GULP energy per Si atom -5590.959413 kJ/mol
# Density = 2.511460 g / cm^3
# Si number density = 25.171892 Si / 1000 Ang^3
#
#
#
# Elastic Constant Matrix: (Units=GPa)
#
#
# Indices 1 2 3 4 5 6 
#
# 1 122.2615 45.6545 2.9020 0.0000 -6.7208 0.0000
# 2 45.6545 191.9710 31.9206 0.0000 5.2309 0.0000
# 3 2.9020 31.9206 36.6309 0.0000 -0.8398 0.0000
# 4 0.0000 0.0000 0.0000 39.0331 0.0000 -11.0245
# 5 -6.7208 5.2309 -0.8398 0.0000 14.0341 0.0000
# 6 0.0000 0.0000 0.0000 -11.0245 0.0000 45.9720
#
#
#
# Elastic Compliance Matrix: (Units=1/GPa)
#
#
# Indices 1 2 3 4 5 6 
#
# 1 0.009451 -0.002688 0.001722 0.000000 0.005631 0.000000
# 2 -0.002688 0.006952 -0.005942 0.000000 -0.004234 0.000000
# 3 0.001722 -0.005942 0.032455 0.000000 0.004982 0.000000
# 4 0.000000 0.000000 0.000000 0.027481 0.000000 0.006590
# 5 0.005631 -0.004234 0.004982 0.000000 0.075828 0.000000
# 6 0.000000 0.000000 0.000000 0.006590 0.000000 0.023333
#
#
# Mechanical properties :
#
#
# Convention : Reuss Voigt Hill
#
# Bulk Modulus (GPa) = 28.53574 56.86862 42.70218
# Shear Modulus (GPa) = 24.87625 37.83358 31.35492
#
# Velocity S-wave (km/s) = 3.14706 3.88107 3.53318
# Velocity P-wave (km/s) = 4.95644 6.53642 5.80048
#
# Compressibility (1/GPa) = 0.03504377
#
# Stress axis : x y z
#
# Youngs Moduli (GPa) = 105.80412 143.85088 30.81191
#
# Poissons Ratio (x) = 0.38661 -0.05307
# Poissons Ratio (y) = 0.28435 0.18308
# Poissons Ratio (z) = -0.18223 0.85475
#
# Static dielectric constant tensor:
#      x y z
#    x 1.986210 0.000000 -0.089820 
#    y 0.000000 2.060410 0.000000 
#    z -0.089820 0.000000 2.026530 
# 
# From -- ./inp_files/55431.got.cif
#   From: 2010.05.17/outbox.cif.g08.bks.cpg/sg14_28_cif.got.tgz:55431.got - 2010.06.03 17:49:19.
