data_PCOD9242645
_publ_section_title
;
Structure prediction by ZEFSAII (Michael W. Deem and Ramdas Pophale) SiO2 
 PCOD9242645
Probable space group: P 21/C
;
_chemical_formula_sum "Si O2"
_cell_formula_units_Z 32
_cell_length_a 24.868101
_cell_length_b 9.414129
_cell_length_c 8.553822
_cell_angle_alpha 90.000000
_cell_angle_beta 58.938875
_cell_angle_gamma 90.000000
_cell_volume 1715.417532
_symmetry_space_group_name_H-M "P 21/C"
_symmetry_group_IT_number 14
_symmetry_cell_setting 'monoclinic'
loop_
_space_group_symop_operation_xyz
x,y,z
-x,1/2+y,1/2-z
-x,-y,-z
x,1/2-y,1/2+z
loop_
_atom_site_type_symbol
_atom_site_label
_atom_site_fract_x
_atom_site_fract_y
_atom_site_fract_z
Si Si1 0.942622 0.090870 0.148987
Si Si2 0.197667 0.910095 0.642299
Si Si3 0.439005 0.910400 0.280385
Si Si4 0.439006 0.589600 0.402598
Si Si5 0.802333 0.089905 0.735300
Si Si6 0.942622 0.409130 0.023147
Si Si7 0.317247 0.409712 0.963194
Si Si8 0.317248 0.409713 0.585063
O O1 0.872513 0.041548 0.205264
O O2 0.944608 0.091314 0.333088
O O3 0.948980 0.250000 0.076530
O O4 0.000000 0.000000 0.000000
O O5 0.207462 0.750000 0.688806
O O6 0.199316 0.904537 0.451026
O O7 0.252931 0.014208 0.612290
O O8 0.440301 0.750000 0.339548
O O9 0.500000 0.000000 0.239486
O O10 0.376382 0.994206 0.424330
O O11 0.439244 0.905336 0.091134
O O12 0.623617 0.494206 0.553479
O O13 0.872513 0.041548 0.677197
O O14 0.747069 0.985793 0.871085
O O15 0.000000 0.500000 0.000000
O O16 0.322456 0.250000 0.016316
O O17 0.317228 0.405706 0.774157
#
# Coordination Sequence:
#
# PCOD9242645 Si02
#       8
#     4   4   4   4   4   4   4   4
#     4  10  20  35  54  77 105 137 174 216 263 314
#     4   9  19  35  54  76 102 134 173 214 257 309
#     4  10  21  36  55  80 108 138 174 214 255 303
#     4  10  21  36  55  80 108 138 174 214 255 303
#     4   9  19  35  54  76 102 134 173 214 257 309
#     4  10  20  35  54  77 105 137 174 216 263 314
#     4  10  21  36  53  77 107 137 173 214 256 305
#     4  10  21  36  53  77 107 137 173 214 256 305
#
# _framework density 18.654350999999998
#
# number of rings (size 3 to 8) (size 9 to 14) (size 15 to 20)
#    0.000    2.250    0.000    2.250    0.000    4.500 
#    0.000    2.500    0.000    0.000    0.000    0.000 
#    0.000    0.000    0.000    0.000    0.000    0.000 
#
# Total GULP energy -178636.303748 kJ/mol
# GULP energy per Si atom -5582.384492 kJ/mol
# Density = 1.861189 g / cm^3
# Si number density = 18.654351 Si / 1000 Ang^3
#
#
#
# Elastic Constant Matrix: (Units=GPa)
#
#
# Indices 1 2 3 4 5 6 
#
# 1 143.1955 101.7382 57.1168 0.0000 -55.4746 0.0000
# 2 101.7382 157.6227 54.3889 0.0000 -48.4909 0.0000
# 3 57.1168 54.3889 52.7944 0.0000 -37.1064 0.0000
# 4 0.0000 0.0000 0.0000 39.6383 0.0000 -1.9135
# 5 -55.4746 -48.4909 -37.1064 0.0000 34.7663 0.0000
# 6 0.0000 0.0000 0.0000 -1.9135 0.0000 41.5070
#
#
#
# Elastic Compliance Matrix: (Units=1/GPa)
#
#
# Indices 1 2 3 4 5 6 
#
# 1 0.021061 -0.005834 0.004505 0.000000 0.030277 0.000000
# 2 -0.005834 0.012794 -0.003480 0.000000 0.004821 0.000000
# 3 0.004505 -0.003480 0.077222 0.000000 0.084755 0.000000
# 4 0.000000 0.000000 0.000000 0.025284 0.000000 0.001166
# 5 0.030277 0.004821 0.084755 0.000000 0.174259 0.000000
# 6 0.000000 0.000000 0.000000 0.001166 0.000000 0.024146
#
#
# Mechanical properties :
#
#
# Convention : Reuss Voigt Hill
#
# Bulk Modulus (GPa) = 9.85619 86.67782 48.26700
# Shear Modulus (GPa) = 13.22037 32.54022 22.88030
#
# Velocity S-wave (km/s) = 2.66503 4.18111 3.50600
# Velocity P-wave (km/s) = 3.84252 8.35912 6.50538
#
# Compressibility (1/GPa) = 0.10145911
#
# Stress axis : x y z
#
# Youngs Moduli (GPa) = 47.48134 78.16266 12.94960
#
# Poissons Ratio (x) = 0.45600 -0.05834
# Poissons Ratio (y) = 0.27701 0.04507
# Poissons Ratio (z) = -0.21391 0.27202
#
# Static dielectric constant tensor:
#      x y z
#    x 1.656320 0.000000 -0.016790 
#    y 0.000000 1.568770 0.000000 
#    z -0.016790 0.000000 1.639920 
# 
# From -- ./inp_files/19360.got.cif
#   From: 2010.05.17/outbox.cif.g08.bks.cpg/sg14_10_cif.got.tgz:19360.got - 2010.06.03 17:49:19.
