data_PCOD9242002
_publ_section_title
;
Structure prediction by ZEFSAII (Michael W. Deem and Ramdas Pophale) SiO2 
 PCOD9242002
Probable space group: P 21/C
;
_chemical_formula_sum "Si O2"
_cell_formula_units_Z 20
_cell_length_a 9.351918
_cell_length_b 8.076914
_cell_length_c 13.155961
_cell_angle_alpha 90.000000
_cell_angle_beta 127.306028
_cell_angle_gamma 90.000000
_cell_volume 790.423094
_symmetry_space_group_name_H-M "P 21/C"
_symmetry_group_IT_number 14
_symmetry_cell_setting 'monoclinic'
loop_
_space_group_symop_operation_xyz
x,y,z
-x,1/2+y,1/2-z
-x,-y,-z
x,1/2-y,1/2+z
loop_
_atom_site_type_symbol
_atom_site_label
_atom_site_fract_x
_atom_site_fract_y
_atom_site_fract_z
Si Si1 0.338204 0.612836 0.627572
Si Si2 0.326602 0.979516 0.617615
Si Si3 0.417105 0.723262 0.969610
Si Si4 0.819330 0.728939 0.084981
Si Si5 0.134134 0.977423 0.217061
O O1 0.542518 0.575660 0.750418
O O2 0.341225 0.630374 0.507840
O O3 0.217782 0.489630 0.641917
O O4 0.274107 0.798205 0.634570
O O5 0.174188 0.095362 0.504389
O O6 0.442288 0.918397 0.568223
O O7 0.605868 0.766094 0.000631
O O8 0.267817 0.651865 0.831311
O O9 0.872292 0.635513 0.212457
O O10 0.947138 0.883305 0.127520
#
# Coordination Sequence:
#
# PCOD9242002 Si02
#       5
#     4   4   4   4   4
#     4  10  19  38  65  85 119 153 206 241 302 348
#     4   9  19  38  65  82 115 163 197 243 297 351
#     4   9  20  41  66  78 121 163 198 239 305 346
#     4  11  21  42  64  84 124 161 198 246 304 348
#     4  11  21  41  61  91 120 161 197 250 294 360
#
# _framework density 25.302906
#
# number of rings (size 3 to 8) (size 9 to 14) (size 15 to 20)
#    1.200    0.800    4.000    1.200    0.000    2.400 
#    7.200    3.000    0.000    0.000    0.000    0.000 
#    0.000    0.000    0.000    0.000    0.000    0.000 
#
# Total GULP energy -111738.794673 kJ/mol
# GULP energy per Si atom -5586.939734 kJ/mol
# Density = 2.524531 g / cm^3
# Si number density = 25.302906 Si / 1000 Ang^3
#
#
#
# Elastic Constant Matrix: (Units=GPa)
#
#
# Indices 1 2 3 4 5 6 
#
# 1 51.0795 -8.2107 12.0775 0.0000 10.8856 0.0000
# 2 -8.2107 67.1232 13.2095 0.0000 9.4635 0.0000
# 3 12.0775 13.2095 76.6670 0.0000 2.6176 0.0000
# 4 0.0000 0.0000 0.0000 50.8136 0.0000 5.7142
# 5 10.8856 9.4635 2.6176 0.0000 40.2960 0.0000
# 6 0.0000 0.0000 0.0000 5.7142 0.0000 10.2780
#
#
#
# Elastic Compliance Matrix: (Units=1/GPa)
#
#
# Indices 1 2 3 4 5 6 
#
# 1 0.022776 0.004582 -0.004140 0.000000 -0.006960 0.000000
# 2 0.004582 0.016838 -0.003453 0.000000 -0.004968 0.000000
# 3 -0.004140 -0.003453 0.014256 0.000000 0.001003 0.000000
# 4 0.000000 0.000000 0.000000 0.020992 0.000000 -0.011671
# 5 -0.006960 -0.004968 0.001003 0.000000 0.027798 0.000000
# 6 0.000000 0.000000 0.000000 -0.011671 0.000000 0.103783
#
#
# Mechanical properties :
#
#
# Convention : Reuss Voigt Hill
#
# Bulk Modulus (GPa) = 20.89941 25.44692 23.17316
# Shear Modulus (GPa) = 21.88986 32.13042 27.01014
#
# Velocity S-wave (km/s) = 2.94447 3.56734 3.27076
# Velocity P-wave (km/s) = 4.45393 5.20063 4.84170
#
# Compressibility (1/GPa) = 0.04784824
#
# Stress axis : x y z
#
# Youngs Moduli (GPa) = 43.90611 59.38779 70.14428
#
# Poissons Ratio (x) = -0.27211 0.29038
# Poissons Ratio (y) = -0.20118 0.24224
# Poissons Ratio (z) = 0.18176 0.20509
#
# Static dielectric constant tensor:
#      x y z
#    x 2.009810 0.000000 -0.026190 
#    y 0.000000 2.097020 0.000000 
#    z -0.026190 0.000000 1.975840 
# 
# From -- ./inp_files/43247.got.cif
#   From: 2010.05.17/outbox.cif.g08.bks.cpg/sg14_22_cif.got.tgz:43247.got - 2010.06.03 17:49:19.
