data_PCOD9242714
_publ_section_title
;
Structure prediction by ZEFSAII (Michael W. Deem and Ramdas Pophale) SiO2 
 PCOD9242714
Probable space group: P 21/C
;
_chemical_formula_sum "Si O2"
_cell_formula_units_Z 24
_cell_length_a 8.262256
_cell_length_b 7.891621
_cell_length_c 16.788758
_cell_angle_alpha 90.000000
_cell_angle_beta 86.583897
_cell_angle_gamma 90.000000
_cell_volume 1092.725456
_symmetry_space_group_name_H-M "P 21/C"
_symmetry_group_IT_number 14
_symmetry_cell_setting 'monoclinic'
loop_
_space_group_symop_operation_xyz
x,y,z
-x,1/2+y,1/2-z
-x,-y,-z
x,1/2-y,1/2+z
loop_
_atom_site_type_symbol
_atom_site_label
_atom_site_fract_x
_atom_site_fract_y
_atom_site_fract_z
Si Si1 0.514791 0.564405 0.872831
Si Si2 0.172626 0.871011 0.136862
Si Si3 0.187320 0.022992 0.885773
Si Si4 0.287219 0.725078 0.981844
Si Si5 0.368204 0.681443 0.253517
Si Si6 0.656248 0.673906 0.463750
O O1 0.356462 0.562127 0.934490
O O2 0.539808 0.393543 0.825057
O O3 0.475746 0.708659 0.809177
O O4 0.663223 0.643284 0.919147
O O5 0.232833 0.804796 0.219949
O O6 0.984385 0.913152 0.138916
O O7 0.271614 0.033322 0.099153
O O8 0.210034 0.725556 0.070137
O O9 0.171776 0.839649 0.930388
O O10 0.299528 0.975066 0.807477
O O11 0.259623 0.142223 0.953480
O O12 0.459826 0.828808 0.981029
#
# Coordination Sequence:
#
# PCOD9242714 Si02
#       6
#     4   4   4   4   4   4
#     4   9  21  35  59  88 116 147 205 252 284 354
#     4  11  20  34  59  83 119 156 191 245 291 361
#     4  10  20  35  57  85 116 158 196 233 292 369
#     4   8  18  35  62  87 104 153 207 236 288 345
#     4  11  23  36  57  92 123 155 193 249 313 338
#     4   9  18  37  65  85 105 159 208 240 282 352
#
# _framework density 21.963429999999999
#
# number of rings (size 3 to 8) (size 9 to 14) (size 15 to 20)
#    1.000    1.333    0.000    5.000    2.333    2.000 
#    0.000    0.833    0.000    0.000    0.000    0.000 
#    0.000    0.000    0.000    0.000    0.000    0.000 
#
# Total GULP energy -133702.856054 kJ/mol
# GULP energy per Si atom -5570.952336 kJ/mol
# Density = 2.191344 g / cm^3
# Si number density = 21.963430 Si / 1000 Ang^3
#
#
#
# Elastic Constant Matrix: (Units=GPa)
#
#
# Indices 1 2 3 4 5 6 
#
# 1 64.3320 33.1432 22.8156 0.0000 20.3269 0.0000
# 2 33.1432 60.6952 38.3600 0.0000 13.0360 0.0000
# 3 22.8156 38.3600 104.7561 0.0000 19.2257 0.0000
# 4 0.0000 0.0000 0.0000 50.8923 0.0000 1.9564
# 5 20.3269 13.0360 19.2257 0.0000 27.2513 0.0000
# 6 0.0000 0.0000 0.0000 1.9564 0.0000 17.5183
#
#
#
# Elastic Compliance Matrix: (Units=1/GPa)
#
#
# Indices 1 2 3 4 5 6 
#
# 1 0.025720 -0.011802 0.001384 0.000000 -0.014516 0.000000
# 2 -0.011802 0.027572 -0.007721 0.000000 0.001060 0.000000
# 3 0.001384 -0.007721 0.013306 0.000000 -0.006726 0.000000
# 4 0.000000 0.000000 0.000000 0.019734 0.000000 -0.002204
# 5 -0.014516 0.001060 -0.006726 0.000000 0.051761 0.000000
# 6 0.000000 0.000000 0.000000 -0.002204 0.000000 0.057329
#
#
# Mechanical properties :
#
#
# Convention : Reuss Voigt Hill
#
# Bulk Modulus (GPa) = 32.97999 46.49121 39.73560
# Shear Modulus (GPa) = 20.67763 28.16334 24.42049
#
# Velocity S-wave (km/s) = 3.07165 3.58478 3.33809
# Velocity P-wave (km/s) = 5.25628 6.19255 5.74353
#
# Compressibility (1/GPa) = 0.03032141
#
# Stress axis : x y z
#
# Youngs Moduli (GPa) = 38.87995 36.26874 75.15260
#
# Poissons Ratio (x) = 0.42803 -0.10400
# Poissons Ratio (y) = 0.45885 0.58023
# Poissons Ratio (z) = -0.05380 0.28002
#
# Static dielectric constant tensor:
#      x y z
#    x 1.779910 0.000000 -0.008340 
#    y 0.000000 1.897580 0.000000 
#    z -0.008340 0.000000 1.852020 
# 
# From -- ./inp_files/54575.got.cif
#   From: 2010.05.17/outbox.cif.g08.bks.cpg/sg14_28_cif.got.tgz:54575.got - 2010.06.03 17:49:19.
