data_PCOD9242871
_publ_section_title
;
Structure prediction by ZEFSAII (Michael W. Deem and Ramdas Pophale) SiO2 
 PCOD9242871
Probable space group: P 21/C
;
_chemical_formula_sum "Si O2"
_cell_formula_units_Z 28
_cell_length_a 8.237961
_cell_length_b 11.302249
_cell_length_c 15.732164
_cell_angle_alpha 90.000000
_cell_angle_beta 46.751922
_cell_angle_gamma 90.000000
_cell_volume 1066.938533
_symmetry_space_group_name_H-M "P 21/C"
_symmetry_group_IT_number 14
_symmetry_cell_setting 'monoclinic'
loop_
_space_group_symop_operation_xyz
x,y,z
-x,1/2+y,1/2-z
-x,-y,-z
x,1/2-y,1/2+z
loop_
_atom_site_type_symbol
_atom_site_label
_atom_site_fract_x
_atom_site_fract_y
_atom_site_fract_z
Si Si1 0.113526 0.923506 0.383463
Si Si2 0.393080 0.201812 0.647440
Si Si3 0.552220 0.724039 0.572060
Si Si4 0.494859 0.900940 0.755586
Si Si5 0.080654 0.745344 0.699930
Si Si6 0.714663 0.455068 0.973619
Si Si7 0.022828 0.846811 0.900400
O O1 0.102635 0.784265 0.402769
O O2 0.335697 0.994018 0.282859
O O3 0.000000 0.000000 0.500000
O O4 0.904799 0.947231 0.395156
O O5 0.413121 0.238005 0.539842
O O6 0.455519 0.307452 0.687420
O O7 0.567740 0.096770 0.604505
O O8 0.132903 0.175260 0.755043
O O9 0.544718 0.830698 0.646309
O O10 0.298374 0.676748 0.656825
O O11 0.764320 0.643574 0.519039
O O12 0.230467 0.928791 0.849747
O O13 0.160029 0.836030 0.599754
O O14 0.021183 0.832791 0.799104
O O15 0.500000 0.500000 0.000000
#
# Coordination Sequence:
#
# PCOD9242871 Si02
#       7
#     4   4   4   4   4   4   4
#     4  12  22  37  62  97 125 159 219 268 308 373
#     4  10  20  36  55  93 125 158 202 262 326 374
#     4   9  19  35  59  82 122 168 203 255 317 362
#     4  11  22  37  61  93 128 169 206 269 320 375
#     4   9  18  36  56  87 125 162 199 256 327 368
#     4  11  22  36  63  97 122 155 213 274 308 373
#     4  10  21  38  59  90 129 170 199 269 324 369
#
# _framework density 26.243310000000001
#
# number of rings (size 3 to 8) (size 9 to 14) (size 15 to 20)
#    0.000    1.714    2.857    3.429    2.000    0.000 
#    0.000    0.000    0.000   11.143    3.714    0.000 
#    0.000    0.000    0.000    0.000    0.000    0.000 
#
# Total GULP energy -156062.021103 kJ/mol
# GULP energy per Si atom -5573.643611 kJ/mol
# Density = 2.618358 g / cm^3
# Si number density = 26.243310 Si / 1000 Ang^3
#
#
#
# Elastic Constant Matrix: (Units=GPa)
#
#
# Indices 1 2 3 4 5 6 
#
# 1 111.9626 35.4812 52.3133 0.0000 -12.5193 0.0000
# 2 35.4812 50.8896 25.0998 0.0000 0.3734 0.0000
# 3 52.3133 25.0998 93.5749 0.0000 -38.8353 0.0000
# 4 0.0000 0.0000 0.0000 30.2193 0.0000 -5.4321
# 5 -12.5193 0.3734 -38.8353 0.0000 58.2470 0.0000
# 6 0.0000 0.0000 0.0000 -5.4321 0.0000 45.6044
#
#
#
# Elastic Compliance Matrix: (Units=1/GPa)
#
#
# Indices 1 2 3 4 5 6 
#
# 1 0.013908 -0.006416 -0.006632 0.000000 -0.001391 0.000000
# 2 -0.006416 0.027118 -0.005989 0.000000 -0.005546 0.000000
# 3 -0.006632 -0.005989 0.021326 0.000000 0.012832 0.000000
# 4 0.000000 0.000000 0.000000 0.033815 0.000000 0.004028
# 5 -0.001391 -0.005546 0.012832 0.000000 0.025460 0.000000
# 6 0.000000 0.000000 0.000000 0.004028 0.000000 0.022407
#
#
# Mechanical properties :
#
#
# Convention : Reuss Voigt Hill
#
# Bulk Modulus (GPa) = 41.18724 53.57953 47.38339
# Shear Modulus (GPa) = 26.28813 36.38300 31.33557
#
# Velocity S-wave (km/s) = 3.16841 3.72744 3.45924
# Velocity P-wave (km/s) = 5.39570 6.24387 5.83521
#
# Compressibility (1/GPa) = 0.02427936
#
# Stress axis : x y z
#
# Youngs Moduli (GPa) = 71.90279 36.87585 46.89152
#
# Poissons Ratio (x) = 0.23658 0.31096
# Poissons Ratio (y) = 0.46130 0.28083
# Poissons Ratio (z) = 0.47683 0.22084
#
# Static dielectric constant tensor:
#      x y z
#    x 1.818790 0.000000 0.050880 
#    y 0.000000 1.975570 0.000000 
#    z 0.050880 0.000000 2.206310 
# 
# From -- ./inp_files/55922.got.cif
#   From: 2010.05.17/outbox.cif.g08.bks.cpg/sg14_28_cif.got.tgz:55922.got - 2010.06.03 17:49:19.
