data_PCOD9242202
_publ_section_title
;
Structure prediction by ZEFSAII (Michael W. Deem and Ramdas Pophale) SiO2 
 PCOD9242202
Probable space group: P 21/C
;
_chemical_formula_sum "Si O2"
_cell_formula_units_Z 32
_cell_length_a 8.770366
_cell_length_b 20.320798
_cell_length_c 11.673051
_cell_angle_alpha 90.000000
_cell_angle_beta 130.493577
_cell_angle_gamma 90.000000
_cell_volume 1582.085504
_symmetry_space_group_name_H-M "P 21/C"
_symmetry_group_IT_number 14
_symmetry_cell_setting 'monoclinic'
loop_
_space_group_symop_operation_xyz
x,y,z
-x,1/2+y,1/2-z
-x,-y,-z
x,1/2-y,1/2+z
loop_
_atom_site_type_symbol
_atom_site_label
_atom_site_fract_x
_atom_site_fract_y
_atom_site_fract_z
Si Si1 0.589153 0.427210 0.052839
Si Si2 0.817255 0.871049 0.648765
Si Si3 0.236590 0.346324 0.616668
Si Si4 0.915255 0.242483 0.709799
Si Si5 0.888876 0.243640 0.444038
Si Si6 0.095094 0.980829 0.668763
Si Si7 0.328622 0.881623 0.664418
Si Si8 0.027819 0.402136 0.302196
O O1 0.410057 0.379746 0.006990
O O2 0.650734 0.407330 0.954003
O O3 0.500000 0.500000 0.000000
O O4 0.798832 0.422658 0.220700
O O5 0.797501 0.878609 0.776241
O O6 0.924784 0.800537 0.688467
O O7 0.949822 0.929300 0.661699
O O8 0.473573 0.338946 0.715321
O O9 0.104884 0.279600 0.549913
O O10 0.154144 0.393639 0.478318
O O11 0.809091 0.258652 0.535572
O O12 0.799882 0.234943 0.775730
O O13 0.017665 0.171458 0.744294
O O14 0.863865 0.165417 0.424232
O O15 0.296567 0.941174 0.735921
O O16 0.000000 0.000000 0.500000
O O17 0.113389 0.044707 0.756177
#
# Coordination Sequence:
#
# PCOD9242202 Si02
#       8
#     4   4   4   4   4   4   4   4
#     4  11  20  39  66  97 125 173 222 270 329 392
#     4  10  21  39  65  93 127 172 220 262 338 398
#     4   9  24  41  60  95 130 175 209 266 347 387
#     4  10  20  39  62  91 132 171 214 273 336 381
#     4  10  19  40  64  91 131 173 217 272 328 403
#     4  12  21  37  69  98 124 172 224 275 324 386
#     4  11  21  41  67  91 132 172 218 277 333 397
#     4  11  22  40  63  93 136 163 224 273 318 400
#
# _framework density 20.226468000000001
#
# number of rings (size 3 to 8) (size 9 to 14) (size 15 to 20)
#    0.000    1.500    5.000    0.000    0.000    1.000 
#    9.000    0.000    2.750    0.000    0.000    0.000 
#    0.000    0.000    0.000    0.000    0.000    0.000 
#
# Total GULP energy -178177.692011 kJ/mol
# GULP energy per Si atom -5568.052875 kJ/mol
# Density = 2.018043 g / cm^3
# Si number density = 20.226468 Si / 1000 Ang^3
#
#
#
# Elastic Constant Matrix: (Units=GPa)
#
#
# Indices 1 2 3 4 5 6 
#
# 1 77.3638 38.2132 31.2047 0.0000 -14.7022 0.0000
# 2 38.2132 123.1685 11.9843 0.0000 -0.4747 0.0000
# 3 31.2047 11.9843 79.0218 0.0000 -17.6563 0.0000
# 4 0.0000 0.0000 0.0000 27.3667 0.0000 -4.3210
# 5 -14.7022 -0.4747 -17.6563 0.0000 30.9337 0.0000
# 6 0.0000 0.0000 0.0000 -4.3210 0.0000 39.0743
#
#
#
# Elastic Compliance Matrix: (Units=1/GPa)
#
#
# Indices 1 2 3 4 5 6 
#
# 1 0.018788 -0.005289 -0.005318 0.000000 0.005813 0.000000
# 2 -0.005289 0.009742 0.000095 0.000000 -0.002310 0.000000
# 3 -0.005318 0.000095 0.016248 0.000000 0.006748 0.000000
# 4 0.000000 0.000000 0.000000 0.037190 0.000000 0.004113
# 5 0.005813 -0.002310 0.006748 0.000000 0.038906 0.000000
# 6 0.000000 0.000000 0.000000 0.004113 0.000000 0.026047
#
#
# Mechanical properties :
#
#
# Convention : Reuss Voigt Hill
#
# Bulk Modulus (GPa) = 42.09927 49.15096 45.62512
# Shear Modulus (GPa) = 28.43097 32.68503 30.55800
#
# Velocity S-wave (km/s) = 3.75324 4.02425 3.89111
# Velocity P-wave (km/s) = 6.29616 6.77834 6.54169
#
# Compressibility (1/GPa) = 0.02375338
#
# Stress axis : x y z
#
# Youngs Moduli (GPa) = 53.22436 102.65033 61.54541
#
# Poissons Ratio (x) = 0.54294 0.32732
# Poissons Ratio (y) = 0.28152 -0.00585
# Poissons Ratio (z) = 0.28306 -0.00976
#
# Static dielectric constant tensor:
#      x y z
#    x 1.763980 0.000000 -0.017540 
#    y 0.000000 1.734900 0.000000 
#    z -0.017540 0.000000 1.744130 
# 
# From -- ./inp_files/26811.got.cif
#   From: 2010.05.17/outbox.cif.g08.bks.cpg/sg14_14_cif.got.tgz:26811.got - 2010.06.03 17:49:19.
