data_PCOD9242828
_publ_section_title
;
Structure prediction by ZEFSAII (Michael W. Deem and Ramdas Pophale) SiO2 
 PCOD9242828
Probable space group: P 21/C
;
_chemical_formula_sum "Si O2"
_cell_formula_units_Z 28
_cell_length_a 7.113181
_cell_length_b 9.307580
_cell_length_c 24.961197
_cell_angle_alpha 90.000000
_cell_angle_beta 39.577304
_cell_angle_gamma 90.000000
_cell_volume 1052.898275
_symmetry_space_group_name_H-M "P 21/C"
_symmetry_group_IT_number 14
_symmetry_cell_setting 'monoclinic'
loop_
_space_group_symop_operation_xyz
x,y,z
-x,1/2+y,1/2-z
-x,-y,-z
x,1/2-y,1/2+z
loop_
_atom_site_type_symbol
_atom_site_label
_atom_site_fract_x
_atom_site_fract_y
_atom_site_fract_z
Si Si1 0.478133 0.771057 0.656232
Si Si2 0.866199 0.944937 0.931191
Si Si3 0.558274 0.461454 0.188964
Si Si4 0.801709 0.521693 0.251379
Si Si5 0.529125 0.847186 0.915980
Si Si6 0.111681 0.232516 0.829322
Si Si7 0.041152 0.714292 0.963482
O O1 0.239313 0.645071 0.718281
O O2 0.727922 0.761712 0.649306
O O3 0.702302 0.776552 0.556825
O O4 0.367084 0.929346 0.695634
O O5 0.746050 0.821039 0.918116
O O6 0.095490 0.861358 0.917758
O O7 0.943958 0.083595 0.878139
O O8 0.647194 0.015550 0.022115
O O9 0.600162 0.507299 0.241393
O O10 0.374909 0.316310 0.232769
O O11 0.863896 0.421836 0.092596
O O12 0.702046 0.604217 0.326081
O O13 0.034860 0.632233 0.169389
O O14 0.285747 0.727263 0.956618
#
# Coordination Sequence:
#
# PCOD9242828 Si02
#       7
#     4   4   4   4   4   4   4
#     4  10  20  35  62  96 125 172 217 257 319 384
#     4  11  24  38  65  96 123 170 221 260 318 391
#     4  10  22  34  62 101 128 164 220 262 317 388
#     4  10  20  39  60  89 129 166 209 266 321 373
#     4  11  22  41  64  92 124 168 221 258 313 393
#     4  10  20  36  58  92 127 158 212 275 309 374
#     4  12  20  40  68  91 130 172 213 266 320 379
#
# _framework density 26.593261999999999
#
# number of rings (size 3 to 8) (size 9 to 14) (size 15 to 20)
#    0.000    1.429    4.286    2.571    4.000    0.000 
#    2.571    0.000    0.000    5.143    0.000    0.000 
#    0.000    0.000    0.000    0.000    0.000    0.000 
#
# Total GULP energy -155960.410850 kJ/mol
# GULP energy per Si atom -5570.014673 kJ/mol
# Density = 2.653273 g / cm^3
# Si number density = 26.593262 Si / 1000 Ang^3
#
#
#
# Elastic Constant Matrix: (Units=GPa)
#
#
# Indices 1 2 3 4 5 6 
#
# 1 57.0260 -4.9450 19.6251 0.0000 11.8335 0.0000
# 2 -4.9450 82.7487 57.6397 0.0000 9.1351 0.0000
# 3 19.6251 57.6397 127.2048 0.0000 10.3814 0.0000
# 4 0.0000 0.0000 0.0000 30.2767 0.0000 3.5358
# 5 11.8335 9.1351 10.3814 0.0000 28.4584 0.0000
# 6 0.0000 0.0000 0.0000 3.5358 0.0000 23.1816
#
#
#
# Elastic Compliance Matrix: (Units=1/GPa)
#
#
# Indices 1 2 3 4 5 6 
#
# 1 0.021776 0.006028 -0.005354 0.000000 -0.009037 0.000000
# 2 0.006028 0.019552 -0.009351 0.000000 -0.005371 0.000000
# 3 -0.005354 -0.009351 0.012881 0.000000 0.000529 0.000000
# 4 0.000000 0.000000 0.000000 0.033628 0.000000 -0.005129
# 5 -0.009037 -0.005371 0.000529 0.000000 0.040428 0.000000
# 6 0.000000 0.000000 0.000000 -0.005129 0.000000 0.043920
#
#
# Mechanical properties :
#
#
# Convention : Reuss Voigt Hill
#
# Bulk Modulus (GPa) = 27.13247 45.73547 36.43397
# Shear Modulus (GPa) = 24.77419 29.36067 27.06743
#
# Velocity S-wave (km/s) = 3.05552 3.32635 3.19381
# Velocity P-wave (km/s) = 4.76163 5.65582 5.22788
#
# Compressibility (1/GPa) = 0.03685621
#
# Stress axis : x y z
#
# Youngs Moduli (GPa) = 45.92155 51.14697 77.63208
#
# Poissons Ratio (x) = -0.30832 0.41561
# Poissons Ratio (y) = -0.27682 0.72593
# Poissons Ratio (z) = 0.24585 0.47827
#
# Static dielectric constant tensor:
#      x y z
#    x 2.191880 0.000000 -0.063840 
#    y 0.000000 2.303500 0.000000 
#    z -0.063840 0.000000 2.110700 
# 
# From -- ./inp_files/76325.got.cif
#   From: 2010.05.17/outbox.cif.g08.bks.cpg/sg14_39_cif.got.tgz:76325.got - 2010.06.03 17:49:19.
