data_PCOD9242008
_publ_section_title
;
Structure prediction by ZEFSAII (Michael W. Deem and Ramdas Pophale) SiO2 
 PCOD9242008
Probable space group: P 21/C
;
_chemical_formula_sum "Si O2"
_cell_formula_units_Z 28
_cell_length_a 16.807688
_cell_length_b 5.041042
_cell_length_c 28.264522
_cell_angle_alpha 90.000000
_cell_angle_beta 148.849088
_cell_angle_gamma 90.000000
_cell_volume 1238.817609
_symmetry_space_group_name_H-M "P 21/C"
_symmetry_group_IT_number 14
_symmetry_cell_setting 'monoclinic'
loop_
_space_group_symop_operation_xyz
x,y,z
-x,1/2+y,1/2-z
-x,-y,-z
x,1/2-y,1/2+z
loop_
_atom_site_type_symbol
_atom_site_label
_atom_site_fract_x
_atom_site_fract_y
_atom_site_fract_z
Si Si1 0.695691 0.555256 0.239301
Si Si2 0.496987 0.332942 0.216147
Si Si3 0.962241 0.849385 0.343393
Si Si4 0.917399 0.234573 0.690981
Si Si5 0.736682 0.865187 0.484640
Si Si6 0.568363 0.354052 0.434490
Si Si7 0.313950 0.652958 0.350732
O O1 0.639362 0.366017 0.252290
O O2 0.674775 0.409519 0.177676
O O3 0.868997 0.660107 0.331141
O O4 0.569734 0.791036 0.173201
O O5 0.485667 0.048062 0.233921
O O6 0.346757 0.399466 0.108185
O O7 0.822760 0.990608 0.244576
O O8 0.051312 0.692697 0.347258
O O9 0.085051 0.056009 0.426152
O O10 0.753783 0.284279 0.632129
O O11 0.038336 0.426928 0.779499
O O12 0.657251 0.075192 0.480670
O O13 0.684076 0.576046 0.474302
O O14 0.470126 0.485071 0.426818
#
# Coordination Sequence:
#
# PCOD9242008 Si02
#       7
#     4   4   4   4   4   4   4
#     4  10  20  40  66  89 118 162 208 238 303 368
#     4  11  23  41  65  88 113 157 210 249 297 374
#     4  10  23  37  63  94 127 160 195 254 306 349
#     4  10  20  35  57  92 123 160 207 243 282 353
#     4  11  23  40  62  91 125 156 197 253 318 351
#     4  10  20  37  62  84 119 168 200 238 292 369
#     4  10  19  38  65  89 119 166 212 240 281 367
#
# _framework density 22.602198999999999
#
# number of rings (size 3 to 8) (size 9 to 14) (size 15 to 20)
#    0.000    1.714    4.286    1.714    4.000    0.000 
#    0.000    2.857    0.000    0.000    0.000    0.000 
#    0.000    0.000    0.000    0.000    0.000    0.000 
#
# Total GULP energy -156277.096579 kJ/mol
# GULP energy per Si atom -5581.324878 kJ/mol
# Density = 2.255076 g / cm^3
# Si number density = 22.602199 Si / 1000 Ang^3
#
#
#
# Elastic Constant Matrix: (Units=GPa)
#
#
# Indices 1 2 3 4 5 6 
#
# 1 77.8437 26.3519 29.8990 0.0000 14.2530 0.0000
# 2 26.3519 94.9400 7.6750 0.0000 6.1444 0.0000
# 3 29.8990 7.6750 81.3668 0.0000 13.1805 0.0000
# 4 0.0000 0.0000 0.0000 27.1063 0.0000 4.1717
# 5 14.2530 6.1444 13.1805 0.0000 17.3096 0.0000
# 6 0.0000 0.0000 0.0000 4.1717 0.0000 17.5176
#
#
#
# Elastic Compliance Matrix: (Units=1/GPa)
#
#
# Indices 1 2 3 4 5 6 
#
# 1 0.017703 -0.003916 -0.004562 0.000000 -0.009712 0.000000
# 2 -0.003916 0.011662 0.000556 0.000000 -0.001338 0.000000
# 3 -0.004562 0.000556 0.015214 0.000000 -0.008026 0.000000
# 4 0.000000 0.000000 0.000000 0.038295 0.000000 -0.009120
# 5 -0.009712 -0.001338 -0.008026 0.000000 0.072355 0.000000
# 6 0.000000 0.000000 0.000000 -0.009120 0.000000 0.059257
#
#
# Mechanical properties :
#
#
# Convention : Reuss Voigt Hill
#
# Bulk Modulus (GPa) = 34.80317 42.44469 38.62393
# Shear Modulus (GPa) = 20.84122 25.06832 22.95477
#
# Velocity S-wave (km/s) = 3.03988 3.33394 3.19030
# Velocity P-wave (km/s) = 5.26809 5.80000 5.54043
#
# Compressibility (1/GPa) = 0.02873301
#
# Stress axis : x y z
#
# Youngs Moduli (GPa) = 56.48876 85.75122 65.72853
#
# Poissons Ratio (x) = 0.33582 0.29987
# Poissons Ratio (y) = 0.22122 -0.03653
# Poissons Ratio (z) = 0.25772 -0.04766
#
# Static dielectric constant tensor:
#      x y z
#    x 1.877980 0.000000 0.019890 
#    y 0.000000 1.891940 0.000000 
#    z 0.019890 0.000000 1.895530 
# 
# From -- ./inp_files/80248.got.cif
#   From: 2010.05.17/outbox.cif.g08.bks.cpg/sg14_41_cif.got.tgz:80248.got - 2010.06.03 17:49:19.
