data_PCOD9242692
_publ_section_title
;
Structure prediction by ZEFSAII (Michael W. Deem and Ramdas Pophale) SiO2 
 PCOD9242692
Probable space group: P 21/C
;
_chemical_formula_sum "Si O2"
_cell_formula_units_Z 28
_cell_length_a 25.671084
_cell_length_b 10.010331
_cell_length_c 8.327860
_cell_angle_alpha 90.000000
_cell_angle_beta 137.165858
_cell_angle_gamma 90.000000
_cell_volume 1454.980956
_symmetry_space_group_name_H-M "P 21/C"
_symmetry_group_IT_number 14
_symmetry_cell_setting 'monoclinic'
loop_
_space_group_symop_operation_xyz
x,y,z
-x,1/2+y,1/2-z
-x,-y,-z
x,1/2-y,1/2+z
loop_
_atom_site_type_symbol
_atom_site_label
_atom_site_fract_x
_atom_site_fract_y
_atom_site_fract_z
Si Si1 0.919970 0.061705 0.877517
Si Si2 0.180083 0.350041 0.996280
Si Si3 0.555036 0.682046 0.066919
Si Si4 0.109948 0.392988 0.181792
Si Si5 0.066433 0.837702 0.729704
Si Si6 0.643075 0.914674 0.070896
Si Si7 0.469816 0.894246 0.061743
O O1 0.902328 0.190136 0.728080
O O2 0.856599 0.947120 0.720009
O O3 0.928670 0.115936 0.076280
O O4 0.000000 0.000000 0.000000
O O5 0.168413 0.198066 0.914003
O O6 0.130335 0.373148 0.043043
O O7 0.266947 0.390424 0.225066
O O8 0.605198 0.799346 0.097350
O O9 0.607195 0.604585 0.312510
O O10 0.486936 0.752417 0.016570
O O11 0.519691 0.601561 0.838155
O O12 0.108744 0.548370 0.223404
O O13 0.023702 0.340337 0.021866
O O14 0.614245 0.055746 0.078001
O O15 0.500000 0.000000 0.000000
#
# Coordination Sequence:
#
# PCOD9242692 Si02
#       7
#     4   4   4   4   4   4   4
#     4  12  23  39  61  85 116 157 202 250 299 360
#     4  12  23  37  59  90 122 156 197 255 312 354
#     4   9  18  35  59  85 118 154 195 238 288 356
#     4  11  22  37  60  85 114 152 199 249 305 357
#     4  11  23  39  60  83 111 151 206 252 292 356
#     4  10  20  35  56  88 120 150 191 247 297 352
#     4   9  18  34  59  87 114 155 198 234 288 359
#
# _framework density 19.244237999999999
#
# number of rings (size 3 to 8) (size 9 to 14) (size 15 to 20)
#    0.000    1.429    2.857    3.000    2.000    0.000 
#    0.000    4.286    0.000    3.429    0.000    0.000 
#    0.000    0.000    0.000    0.000    0.000    0.000 
#
# Total GULP energy -156344.641009 kJ/mol
# GULP energy per Si atom -5583.737179 kJ/mol
# Density = 1.920044 g / cm^3
# Si number density = 19.244238 Si / 1000 Ang^3
#
#
#
# Elastic Constant Matrix: (Units=GPa)
#
#
# Indices 1 2 3 4 5 6 
#
# 1 41.2105 16.3956 31.8648 0.0000 -9.9163 0.0000
# 2 16.3956 73.0180 32.0739 0.0000 4.9735 0.0000
# 3 31.8648 32.0739 90.2987 0.0000 -1.6062 0.0000
# 4 0.0000 0.0000 0.0000 34.4918 0.0000 -5.2098
# 5 -9.9163 4.9735 -1.6062 0.0000 37.9157 0.0000
# 6 0.0000 0.0000 0.0000 -5.2098 0.0000 27.2628
#
#
#
# Elastic Compliance Matrix: (Units=1/GPa)
#
#
# Indices 1 2 3 4 5 6 
#
# 1 0.037070 -0.003929 -0.011513 0.000000 0.009723 0.000000
# 2 -0.003929 0.016860 -0.004663 0.000000 -0.003437 0.000000
# 3 -0.011513 -0.004663 0.016763 0.000000 -0.001689 0.000000
# 4 0.000000 0.000000 0.000000 0.029854 0.000000 0.005705
# 5 0.009723 -0.003437 -0.001689 0.000000 0.029296 0.000000
# 6 0.000000 0.000000 0.000000 0.005705 0.000000 0.037770
#
#
# Mechanical properties :
#
#
# Convention : Reuss Voigt Hill
#
# Bulk Modulus (GPa) = 32.80474 40.57730 36.69102
# Shear Modulus (GPa) = 22.93722 28.21358 25.57540
#
# Velocity S-wave (km/s) = 3.45614 3.83310 3.64949
# Velocity P-wave (km/s) = 5.74544 6.38133 6.07171
#
# Compressibility (1/GPa) = 0.03048340
#
# Stress axis : x y z
#
# Youngs Moduli (GPa) = 26.97564 59.31217 59.65357
#
# Poissons Ratio (x) = 0.23303 0.68679
# Poissons Ratio (y) = 0.10598 0.27818
# Poissons Ratio (z) = 0.31057 0.27659
#
# Static dielectric constant tensor:
#      x y z
#    x 1.667220 0.000000 -0.020870 
#    y 0.000000 1.706210 0.000000 
#    z -0.020870 0.000000 1.660960 
# 
# From -- ./inp_files/19756.got.cif
#   From: 2010.05.17/outbox.cif.g08.bks.cpg/sg14_10_cif.got.tgz:19756.got - 2010.06.03 17:49:19.
