data_PCOD9242005
_publ_section_title
;
Structure prediction by ZEFSAII (Michael W. Deem and Ramdas Pophale) SiO2 
 PCOD9242005
Probable space group: P 21/C
;
_chemical_formula_sum "Si O2"
_cell_formula_units_Z 28
_cell_length_a 8.965439
_cell_length_b 11.323165
_cell_length_c 14.768333
_cell_angle_alpha 90.000000
_cell_angle_beta 59.940970
_cell_angle_gamma 90.000000
_cell_volume 1297.606066
_symmetry_space_group_name_H-M "P 21/C"
_symmetry_group_IT_number 14
_symmetry_cell_setting 'monoclinic'
loop_
_space_group_symop_operation_xyz
x,y,z
-x,1/2+y,1/2-z
-x,-y,-z
x,1/2-y,1/2+z
loop_
_atom_site_type_symbol
_atom_site_label
_atom_site_fract_x
_atom_site_fract_y
_atom_site_fract_z
Si Si1 0.606147 0.444667 0.636077
Si Si2 0.939435 0.037714 0.907841
Si Si3 0.543666 0.531090 0.854389
Si Si4 0.924254 0.699587 0.486147
Si Si5 0.576748 0.697302 0.004458
Si Si6 0.272732 0.811427 0.361969
Si Si7 0.673184 0.390441 0.355384
O O1 0.768222 0.473666 0.523392
O O2 0.617216 0.506863 0.731588
O O3 0.619239 0.305402 0.645902
O O4 0.438349 0.493948 0.635996
O O5 0.858817 0.079808 0.839604
O O6 0.996566 0.901678 0.894229
O O7 0.058642 0.133394 0.921571
O O8 0.520958 0.407350 0.911966
O O9 0.353285 0.581378 0.892616
O O10 0.626512 0.631107 0.894934
O O11 0.743119 0.751483 0.507715
O O12 0.072832 0.796494 0.443441
O O13 0.440154 0.805411 0.045337
O O14 0.301559 0.827737 0.247465
#
# Coordination Sequence:
#
# PCOD9242005 Si02
#       7
#     4   4   4   4   4   4   4
#     4  10  19  38  65  87 117 154 206 259 293 349
#     4  10  21  38  63  91 121 157 202 254 308 356
#     4  10  23  38  63  89 120 160 206 248 298 364
#     4  10  22  39  57  88 124 158 195 252 312 356
#     4  11  21  40  62  91 116 161 204 246 306 365
#     4  10  22  41  57  88 129 155 196 257 302 358
#     4  11  21  38  64  91 116 161 209 248 297 363
#
# _framework density 21.578196999999999
#
# number of rings (size 3 to 8) (size 9 to 14) (size 15 to 20)
#    0.000    1.714    2.857    2.143    2.000    0.571 
#    7.714    2.857    0.000    0.000    0.000    0.000 
#    0.000    0.000    0.000    0.000    0.000    0.000 
#
# Total GULP energy -156184.459934 kJ/mol
# GULP energy per Si atom -5578.016426 kJ/mol
# Density = 2.152908 g / cm^3
# Si number density = 21.578197 Si / 1000 Ang^3
#
#
#
# Elastic Constant Matrix: (Units=GPa)
#
#
# Indices 1 2 3 4 5 6 
#
# 1 89.9495 19.5672 -0.6886 0.0000 20.2658 0.0000
# 2 19.5672 34.1287 -3.4240 0.0000 15.2978 0.0000
# 3 -0.6886 -3.4240 35.0535 0.0000 19.7828 0.0000
# 4 0.0000 0.0000 0.0000 27.1848 0.0000 6.6183
# 5 20.2658 15.2978 19.7828 0.0000 34.6185 0.0000
# 6 0.0000 0.0000 0.0000 6.6183 0.0000 41.8775
#
#
#
# Elastic Compliance Matrix: (Units=1/GPa)
#
#
# Indices 1 2 3 4 5 6 
#
# 1 0.014112 -0.002889 0.005811 0.000000 -0.010306 0.000000
# 2 -0.002889 0.047903 0.023048 0.000000 -0.032648 0.000000
# 3 0.005811 0.023048 0.056917 0.000000 -0.046112 0.000000
# 4 0.000000 0.000000 0.000000 0.038257 0.000000 -0.006046
# 5 -0.010306 -0.032648 -0.046112 0.000000 0.075697 0.000000
# 6 0.000000 0.000000 0.000000 -0.006046 0.000000 0.024835
#
#
# Mechanical properties :
#
#
# Convention : Reuss Voigt Hill
#
# Bulk Modulus (GPa) = 5.85233 21.11566 13.48399
# Shear Modulus (GPa) = 19.03036 30.31464 24.67250
#
# Velocity S-wave (km/s) = 2.97294 3.75223 3.38509
# Velocity P-wave (km/s) = 3.80822 5.34595 4.64122
#
# Compressibility (1/GPa) = 0.17087221
#
# Stress axis : x y z
#
# Youngs Moduli (GPa) = 70.86140 20.87538 17.56952
#
# Poissons Ratio (x) = 0.06030 -0.10210
# Poissons Ratio (y) = 0.20469 -0.40494
# Poissons Ratio (z) = -0.41178 -0.48113
#
# Static dielectric constant tensor:
#      x y z
#    x 1.818410 0.000000 0.015850 
#    y 0.000000 1.836120 0.000000 
#    z 0.015850 0.000000 1.810960 
# 
# From -- ./inp_files/39999.got.cif
#   From: 2010.05.17/outbox.cif.g08.bks.cpg/sg14_20_cif.got.tgz:39999.got - 2010.06.03 17:49:19.
