data_PCOD9242659
_publ_section_title
;
Structure prediction by ZEFSAII (Michael W. Deem and Ramdas Pophale) SiO2 
 PCOD9242659
Probable space group: P 21/C
;
_chemical_formula_sum "Si O2"
_cell_formula_units_Z 32
_cell_length_a 12.650071
_cell_length_b 5.903626
_cell_length_c 20.579277
_cell_angle_alpha 90.000000
_cell_angle_beta 65.574055
_cell_angle_gamma 90.000000
_cell_volume 1399.330161
_symmetry_space_group_name_H-M "P 21/C"
_symmetry_group_IT_number 14
_symmetry_cell_setting 'monoclinic'
loop_
_space_group_symop_operation_xyz
x,y,z
-x,1/2+y,1/2-z
-x,-y,-z
x,1/2-y,1/2+z
loop_
_atom_site_type_symbol
_atom_site_label
_atom_site_fract_x
_atom_site_fract_y
_atom_site_fract_z
Si Si1 0.309363 0.392219 0.058601
Si Si2 0.869326 0.599421 0.107167
Si Si3 0.526053 0.935774 0.917203
Si Si4 0.909827 0.302495 0.504735
Si Si5 0.268044 0.739184 0.661686
Si Si6 0.128707 0.093364 0.777075
Si Si7 0.091265 0.140144 0.163126
Si Si8 0.707212 0.892770 0.053654
O O1 0.293550 0.643607 0.085688
O O2 0.183042 0.276653 0.096994
O O3 0.400126 0.290914 0.087973
O O4 0.341586 0.312051 0.978994
O O5 0.860250 0.350744 0.076910
O O6 0.842808 0.687285 0.186587
O O7 0.782077 0.764837 0.089312
O O8 0.007653 0.646348 0.060607
O O9 0.615676 0.098306 0.856697
O O10 0.406379 0.951644 0.908484
O O11 0.500000 0.000000 0.000000
O O12 0.801494 0.430584 0.501077
O O13 0.000000 0.500000 0.500000
O O14 0.164466 0.566567 0.674165
O O15 0.229190 0.926773 0.724615
O O16 0.068057 0.187508 0.727695
O O17 0.028626 0.943759 0.836747
#
# Coordination Sequence:
#
# PCOD9242659 Si02
#       8
#     4   4   4   4   4   4   4   4
#     4   9  20  35  58  89 119 152 197 251 304 364
#     4  10  22  36  58  85 119 158 200 246 307 373
#     4   9  20  37  60  90 120 154 200 253 309 366
#     4   9  20  38  53  86 121 156 190 244 300 370
#     4  10  21  37  59  86 121 154 201 262 303 364
#     4  11  21  37  57  85 114 158 204 247 305 362
#     4  10  20  35  55  86 113 154 197 244 305 367
#     4  10  20  36  59  88 118 156 197 245 309 363
#
# _framework density 22.868086000000002
#
# number of rings (size 3 to 8) (size 9 to 14) (size 15 to 20)
#    0.000    2.250    1.250    0.750    0.000   11.000 
#    0.000    0.000    8.250    0.000    0.000    0.000 
#    0.000    0.000    0.000    0.000    0.000    0.000 
#
# Total GULP energy -178246.960157 kJ/mol
# GULP energy per Si atom -5570.217505 kJ/mol
# Density = 2.281604 g / cm^3
# Si number density = 22.868086 Si / 1000 Ang^3
#
#
#
# Elastic Constant Matrix: (Units=GPa)
#
#
# Indices 1 2 3 4 5 6 
#
# 1 124.7067 33.3145 23.0002 0.0000 -23.2082 0.0000
# 2 33.3145 55.1854 7.6208 0.0000 -4.5319 0.0000
# 3 23.0002 7.6208 32.4190 0.0000 -0.5320 0.0000
# 4 0.0000 0.0000 0.0000 36.4451 0.0000 12.6167
# 5 -23.2082 -4.5319 -0.5320 0.0000 30.0129 0.0000
# 6 0.0000 0.0000 0.0000 12.6167 0.0000 20.4962
#
#
#
# Elastic Compliance Matrix: (Units=1/GPa)
#
#
# Indices 1 2 3 4 5 6 
#
# 1 0.012565 -0.005849 -0.007397 0.000000 0.008702 0.000000
# 2 -0.005849 0.021681 -0.000968 0.000000 -0.001266 0.000000
# 3 -0.007397 -0.000968 0.036236 0.000000 -0.005223 0.000000
# 4 0.000000 0.000000 0.000000 0.034869 0.000000 -0.021464
# 5 0.008702 -0.001266 -0.005223 0.000000 0.039764 0.000000
# 6 0.000000 0.000000 0.000000 -0.021464 0.000000 0.062002
#
#
# Mechanical properties :
#
#
# Convention : Reuss Voigt Hill
#
# Bulk Modulus (GPa) = 23.77842 37.79800 30.78821
# Shear Modulus (GPa) = 20.03504 27.28255 23.65880
#
# Velocity S-wave (km/s) = 2.96313 3.45779 3.21997
# Velocity P-wave (km/s) = 4.70399 5.70143 5.22656
#
# Compressibility (1/GPa) = 0.04205494
#
# Stress axis : x y z
#
# Youngs Moduli (GPa) = 79.58597 46.12242 27.59719
#
# Poissons Ratio (x) = 0.26978 0.20413
# Poissons Ratio (y) = 0.46552 0.02670
# Poissons Ratio (z) = 0.58867 0.04463
#
# Static dielectric constant tensor:
#      x y z
#    x 1.854410 0.000000 -0.020200 
#    y 0.000000 1.938170 0.000000 
#    z -0.020200 0.000000 1.949870 
# 
# From -- ./inp_files/72824.got.cif
#   From: 2010.05.17/outbox.cif.g08.bks.cpg/sg14_37_cif.got.tgz:72824.got - 2010.06.03 17:49:19.
