data_PCOD9242312
_publ_section_title
;
Structure prediction by ZEFSAII (Michael W. Deem and Ramdas Pophale) SiO2 
 PCOD9242312
Probable space group: P 21/C
;
_chemical_formula_sum "Si O2"
_cell_formula_units_Z 28
_cell_length_a 11.481783
_cell_length_b 21.247510
_cell_length_c 7.822231
_cell_angle_alpha 90.000000
_cell_angle_beta 36.395864
_cell_angle_gamma 90.000000
_cell_volume 1132.313936
_symmetry_space_group_name_H-M "P 21/C"
_symmetry_group_IT_number 14
_symmetry_cell_setting 'monoclinic'
loop_
_space_group_symop_operation_xyz
x,y,z
-x,1/2+y,1/2-z
-x,-y,-z
x,1/2-y,1/2+z
loop_
_atom_site_type_symbol
_atom_site_label
_atom_site_fract_x
_atom_site_fract_y
_atom_site_fract_z
Si Si1 0.838042 0.649748 0.278993
Si Si2 0.510839 0.335276 0.560881
Si Si3 0.190674 0.936022 0.224678
Si Si4 0.118672 0.500157 0.142797
Si Si5 0.988509 0.210154 0.901210
Si Si6 0.160814 0.094687 0.865031
Si Si7 0.697372 0.236090 0.527858
O O1 0.686135 0.648690 0.303552
O O2 0.909469 0.721536 0.220730
O O3 0.751750 0.620736 0.558971
O O4 0.019702 0.607215 0.007730
O O5 0.617649 0.393699 0.523027
O O6 0.510110 0.274808 0.685986
O O7 0.647940 0.308248 0.243622
O O8 0.085455 0.967236 0.184919
O O9 0.228442 0.985142 0.335586
O O10 0.233293 0.458473 0.146583
O O11 0.043015 0.562436 0.329731
O O12 0.133595 0.155194 0.777324
O O13 0.862409 0.211386 0.878586
O O14 0.811235 0.200576 0.245965
#
# Coordination Sequence:
#
# PCOD9242312 Si02
#       7
#     4   4   4   4   4   4   4
#     4  11  23  37  61  93 124 157 201 250 320 375
#     4  11  23  38  58  93 124 160 196 251 309 379
#     4  10  19  43  64  86 122 162 208 259 301 365
#     4   9  20  37  65  87 116 166 219 249 301 355
#     4  11  19  37  61  88 124 159 194 251 311 372
#     4  10  20  36  58  93 119 159 206 258 298 361
#     4  10  20  36  57  86 124 156 196 236 310 374
#
# _framework density 24.728124000000001
#
# number of rings (size 3 to 8) (size 9 to 14) (size 15 to 20)
#    0.000    1.714    4.286    1.714    2.000    0.000 
#    0.000    7.143    0.000    0.000    0.000    0.000 
#    0.000    0.000    0.000    0.000    0.000    0.000 
#
# Total GULP energy -156319.718039 kJ/mol
# GULP energy per Si atom -5582.847073 kJ/mol
# Density = 2.467184 g / cm^3
# Si number density = 24.728124 Si / 1000 Ang^3
#
#
#
# Elastic Constant Matrix: (Units=GPa)
#
#
# Indices 1 2 3 4 5 6 
#
# 1 105.8326 33.2347 14.5831 0.0000 1.8397 0.0000
# 2 33.2347 101.8453 6.8361 0.0000 1.0485 0.0000
# 3 14.5831 6.8361 43.7596 0.0000 5.6491 0.0000
# 4 0.0000 0.0000 0.0000 21.2893 0.0000 9.3468
# 5 1.8397 1.0485 5.6491 0.0000 37.8215 0.0000
# 6 0.0000 0.0000 0.0000 9.3468 0.0000 42.8501
#
#
#
# Elastic Compliance Matrix: (Units=1/GPa)
#
#
# Indices 1 2 3 4 5 6 
#
# 1 0.010933 -0.003359 -0.003123 0.000000 0.000028 0.000000
# 2 -0.003359 0.010955 -0.000585 0.000000 -0.000053 0.000000
# 3 -0.003123 -0.000585 0.024434 0.000000 -0.003481 0.000000
# 4 0.000000 0.000000 0.000000 0.051947 0.000000 -0.011331
# 5 0.000028 -0.000053 -0.003481 0.000000 0.026960 0.000000
# 6 0.000000 0.000000 0.000000 -0.011331 0.000000 0.025809
#
#
# Mechanical properties :
#
#
# Convention : Reuss Voigt Hill
#
# Bulk Modulus (GPa) = 31.06655 40.08283 35.57469
# Shear Modulus (GPa) = 28.42537 33.51109 30.96823
#
# Velocity S-wave (km/s) = 3.39413 3.68527 3.54269
# Velocity P-wave (km/s) = 5.28684 5.86114 5.58138
#
# Compressibility (1/GPa) = 0.03218896
#
# Stress axis : x y z
#
# Youngs Moduli (GPa) = 91.46335 91.28579 40.92731
#
# Poissons Ratio (x) = 0.30659 0.12780
# Poissons Ratio (y) = 0.30718 0.02395
# Poissons Ratio (z) = 0.28559 0.05343
#
# Static dielectric constant tensor:
#      x y z
#    x 2.000570 0.000000 -0.006980 
#    y 0.000000 2.038060 0.000000 
#    z -0.006980 0.000000 1.984030 
# 
# From -- ./inp_files/14266.got.cif
#   From: 2010.05.17/outbox.cif.g08.bks.cpg/sg14_8_cif.got.tgz:14266.got - 2010.06.03 17:49:19.
