data_PCOD9242677
_publ_section_title
;
Structure prediction by ZEFSAII (Michael W. Deem and Ramdas Pophale) SiO2 
 PCOD9242677
Probable space group: P 21/C
;
_chemical_formula_sum "Si O2"
_cell_formula_units_Z 28
_cell_length_a 17.510103
_cell_length_b 13.145474
_cell_length_c 20.611813
_cell_angle_alpha 90.000000
_cell_angle_beta 19.036563
_cell_angle_gamma 90.000000
_cell_volume 1547.487360
_symmetry_space_group_name_H-M "P 21/C"
_symmetry_group_IT_number 14
_symmetry_cell_setting 'monoclinic'
loop_
_space_group_symop_operation_xyz
x,y,z
-x,1/2+y,1/2-z
-x,-y,-z
x,1/2-y,1/2+z
loop_
_atom_site_type_symbol
_atom_site_label
_atom_site_fract_x
_atom_site_fract_y
_atom_site_fract_z
Si Si1 0.888195 0.533543 0.380343
Si Si2 0.889011 0.890727 0.610862
Si Si3 0.112177 0.582039 0.063491
Si Si4 0.565838 0.591332 0.258885
Si Si5 0.776667 0.999914 0.268958
Si Si6 0.408966 0.313113 0.300474
Si Si7 0.065841 0.161255 0.959295
O O1 0.699922 0.443196 0.532823
O O2 0.737668 0.630600 0.526000
O O3 0.091987 0.512992 0.268257
O O4 0.988376 0.550282 0.228801
O O5 0.638859 0.893686 0.775626
O O6 0.990932 0.781328 0.503993
O O7 0.924366 0.886362 0.659593
O O8 0.000000 0.000000 0.500000
O O9 0.265087 0.492210 0.908471
O O10 0.316667 0.662531 0.915019
O O11 0.616182 0.693192 0.179531
O O12 0.500000 0.000000 0.500000
O O13 0.863799 0.897318 0.162877
O O14 0.860337 0.095075 0.157177
O O15 0.287103 0.348671 0.330984
#
# Coordination Sequence:
#
# PCOD9242677 Si02
#       7
#     4   4   4   4   4   4   4
#     4  10  21  35  56  86 113 145 188 235 289 334
#     4   9  19  38  60  81 113 154 195 230 282 340
#     4  10  20  35  56  83 115 145 190 235 276 340
#     4   9  20  38  56  78 110 155 185 231 283 332
#     4  10  20  36  58  87 117 146 191 238 287 343
#     4   9  19  37  56  76 113 149 186 228 285 335
#     4   9  19  37  59  81 113 154 186 234 286 337
#
# _framework density 18.093847
#
# number of rings (size 3 to 8) (size 9 to 14) (size 15 to 20)
#    0.000    2.571    0.000    0.857    2.000    2.857 
#    0.000   10.000    0.000    0.000    0.000    0.000 
#    0.000    0.000    0.000    0.000    0.000    0.000 
#
# Total GULP energy -155897.444329 kJ/mol
# GULP energy per Si atom -5567.765869 kJ/mol
# Density = 1.805266 g / cm^3
# Si number density = 18.093847 Si / 1000 Ang^3
#
#
#
# Elastic Constant Matrix: (Units=GPa)
#
#
# Indices 1 2 3 4 5 6 
#
# 1 110.4794 26.7282 56.9418 0.0000 7.0108 0.0000
# 2 26.7282 87.4243 17.0441 0.0000 -10.1803 0.0000
# 3 56.9418 17.0441 88.4908 0.0000 -8.4051 0.0000
# 4 0.0000 0.0000 0.0000 6.9040 0.0000 -6.5371
# 5 7.0108 -10.1803 -8.4051 0.0000 24.3824 0.0000
# 6 0.0000 0.0000 0.0000 -6.5371 0.0000 24.6970
#
#
#
# Elastic Compliance Matrix: (Units=1/GPa)
#
#
# Indices 1 2 3 4 5 6 
#
# 1 0.016070 -0.004020 -0.010509 0.000000 -0.009921 0.000000
# 2 -0.004020 0.013346 0.000677 0.000000 0.006962 0.000000
# 3 -0.010509 0.000677 0.018864 0.000000 0.009807 0.000000
# 4 0.000000 0.000000 0.000000 0.193286 0.000000 0.051161
# 5 -0.009921 0.006962 0.009807 0.000000 0.050153 0.000000
# 6 0.000000 0.000000 0.000000 0.051161 0.000000 0.054033
#
#
# Mechanical properties :
#
#
# Convention : Reuss Voigt Hill
#
# Bulk Modulus (GPa) = 48.59707 54.20251 51.39979
# Shear Modulus (GPa) = 13.14708 23.57538 18.36123
#
# Velocity S-wave (km/s) = 2.69849 3.61356 3.18901
# Velocity P-wave (km/s) = 6.05192 6.88707 6.48296
#
# Compressibility (1/GPa) = 0.02057737
#
# Stress axis : x y z
#
# Youngs Moduli (GPa) = 62.22868 74.92884 53.01161
#
# Poissons Ratio (x) = 0.30118 0.55708
# Poissons Ratio (y) = 0.25013 -0.03590
# Poissons Ratio (z) = 0.65394 -0.05074
#
# Static dielectric constant tensor:
#      x y z
#    x 1.643060 0.000000 -0.017140 
#    y 0.000000 1.671950 0.000000 
#    z -0.017140 0.000000 1.575950 
# 
# From -- ./inp_files/69277.got.cif
#   From: 2010.05.17/outbox.cif.g08.bks.cpg/sg14_35_cif.got.tgz:69277.got - 2010.06.03 17:49:19.
