data_PCOD9242786
_publ_section_title
;
Structure prediction by ZEFSAII (Michael W. Deem and Ramdas Pophale) SiO2 
 PCOD9242786
Probable space group: P 21/C
;
_chemical_formula_sum "Si O2"
_cell_formula_units_Z 28
_cell_length_a 10.492747
_cell_length_b 9.654915
_cell_length_c 14.131790
_cell_angle_alpha 90.000000
_cell_angle_beta 78.492129
_cell_angle_gamma 90.000000
_cell_volume 1402.863434
_symmetry_space_group_name_H-M "P 21/C"
_symmetry_group_IT_number 14
_symmetry_cell_setting 'monoclinic'
loop_
_space_group_symop_operation_xyz
x,y,z
-x,1/2+y,1/2-z
-x,-y,-z
x,1/2-y,1/2+z
loop_
_atom_site_type_symbol
_atom_site_label
_atom_site_fract_x
_atom_site_fract_y
_atom_site_fract_z
Si Si1 0.392232 0.619215 0.811783
Si Si2 0.081014 0.954792 0.079391
Si Si3 0.964591 0.484151 0.897257
Si Si4 0.268774 0.710938 0.027489
Si Si5 0.207813 0.089251 0.233195
Si Si6 0.840828 0.887977 0.250619
Si Si7 0.616557 0.395727 0.802988
O O1 0.314496 0.650777 0.920471
O O2 0.310682 0.527731 0.747801
O O3 0.512457 0.519597 0.818828
O O4 0.417547 0.770043 0.762602
O O5 0.966141 0.889530 0.162973
O O6 0.149440 0.066986 0.137446
O O7 0.205272 0.862366 0.029561
O O8 0.000000 0.000000 0.000000
O O9 0.901139 0.608923 0.847722
O O10 0.088958 0.438591 0.821262
O O11 0.855494 0.369312 0.914830
O O12 0.000000 0.500000 0.000000
O O13 0.371521 0.677096 0.095347
O O14 0.243790 0.248845 0.245400
O O15 0.751038 0.024911 0.253165
#
# Coordination Sequence:
#
# PCOD9242786 Si02
#       7
#     4   4   4   4   4   4   4
#     4  12  24  44  72  86 134 178 224 278 328 388
#     4  11  23  37  64 100 140 169 211 278 339 391
#     4  10  20  35  60  94 127 166 212 259 322 394
#     4  11  22  41  67  99 130 173 220 273 325 399
#     4  11  22  38  63  97 129 177 215 268 330 397
#     4  10  23  38  63  94 134 168 216 265 330 395
#     4  11  25  46  65  98 129 179 228 273 324 394
#
# _framework density 19.959178000000001
#
# number of rings (size 3 to 8) (size 9 to 14) (size 15 to 20)
#    0.000    1.143    4.286    2.143    2.000    0.000 
#    0.000    0.714    0.000    0.000    0.000    0.000 
#    0.000    0.000    0.000    0.000    0.000    0.000 
#
# Total GULP energy -155958.137922 kJ/mol
# GULP energy per Si atom -5569.933497 kJ/mol
# Density = 1.991375 g / cm^3
# Si number density = 19.959178 Si / 1000 Ang^3
#
#
#
# Elastic Constant Matrix: (Units=GPa)
#
#
# Indices 1 2 3 4 5 6 
#
# 1 73.5057 34.2990 33.0726 0.0000 11.9984 0.0000
# 2 34.2990 115.5967 31.8903 0.0000 5.5438 0.0000
# 3 33.0726 31.8903 86.4794 0.0000 24.4564 0.0000
# 4 0.0000 0.0000 0.0000 18.1258 0.0000 0.6226
# 5 11.9984 5.5438 24.4564 0.0000 23.9807 0.0000
# 6 0.0000 0.0000 0.0000 0.6226 0.0000 36.1897
#
#
#
# Elastic Compliance Matrix: (Units=1/GPa)
#
#
# Indices 1 2 3 4 5 6 
#
# 1 0.018026 -0.003957 -0.004416 0.000000 -0.003600 0.000000
# 2 -0.003957 0.010565 -0.003165 0.000000 0.002765 0.000000
# 3 -0.004416 -0.003165 0.019095 0.000000 -0.016532 0.000000
# 4 0.000000 0.000000 0.000000 0.055203 0.000000 -0.000950
# 5 -0.003600 0.002765 -0.016532 0.000000 0.059723 0.000000
# 6 0.000000 0.000000 0.000000 -0.000950 0.000000 0.027649
#
#
# Mechanical properties :
#
#
# Convention : Reuss Voigt Hill
#
# Bulk Modulus (GPa) = 40.63481 52.67841 46.65661
# Shear Modulus (GPa) = 22.56937 27.41386 24.99162
#
# Velocity S-wave (km/s) = 3.36635 3.71009 3.54239
# Velocity P-wave (km/s) = 5.95927 6.69354 6.33705
#
# Compressibility (1/GPa) = 0.02460944
#
# Stress axis : x y z
#
# Youngs Moduli (GPa) = 55.47651 94.64822 52.37078
#
# Poissons Ratio (x) = 0.37457 0.23127
# Poissons Ratio (y) = 0.21955 0.16573
# Poissons Ratio (z) = 0.24499 0.29952
#
# Static dielectric constant tensor:
#      x y z
#    x 1.729110 0.000000 0.040810 
#    y 0.000000 1.795380 0.000000 
#    z 0.040810 0.000000 1.724240 
# 
# From -- ./inp_files/43089.got.cif
#   From: 2010.05.17/outbox.cif.g08.bks.cpg/sg14_22_cif.got.tgz:43089.got - 2010.06.03 17:49:19.
