data_PCOD9242751
_publ_section_title
;
Structure prediction by ZEFSAII (Michael W. Deem and Ramdas Pophale) SiO2 
 PCOD9242751
Probable space group: P 21/C
;
_chemical_formula_sum "Si O2"
_cell_formula_units_Z 32
_cell_length_a 11.906811
_cell_length_b 8.769713
_cell_length_c 31.112259
_cell_angle_alpha 90.000000
_cell_angle_beta 152.247870
_cell_angle_gamma 90.000000
_cell_volume 1512.758449
_symmetry_space_group_name_H-M "P 21/C"
_symmetry_group_IT_number 14
_symmetry_cell_setting 'monoclinic'
loop_
_space_group_symop_operation_xyz
x,y,z
-x,1/2+y,1/2-z
-x,-y,-z
x,1/2-y,1/2+z
loop_
_atom_site_type_symbol
_atom_site_label
_atom_site_fract_x
_atom_site_fract_y
_atom_site_fract_z
Si Si1 0.720139 0.317613 0.456369
Si Si2 0.811255 0.919367 0.833193
Si Si3 0.441240 0.644258 0.691368
Si Si4 0.953894 0.621533 0.652316
Si Si5 0.449929 0.739992 0.952942
Si Si6 0.752592 0.509206 0.669535
Si Si7 0.141384 0.939890 0.701861
Si Si8 0.332123 0.568066 0.998899
O O1 0.721396 0.321969 0.405423
O O2 0.507794 0.425382 0.403599
O O3 0.654007 0.150081 0.451159
O O4 0.975164 0.360368 0.563651
O O5 0.608294 0.789996 0.758473
O O6 0.704256 0.071728 0.818771
O O7 0.934694 0.969267 0.830195
O O8 0.616991 0.509309 0.734875
O O9 0.703400 0.669098 0.544140
O O10 0.884431 0.609979 0.678555
O O11 0.134578 0.759676 0.704695
O O12 0.373516 0.695180 0.975666
O O13 0.287775 0.849357 0.869023
O O14 0.490186 0.574339 0.945667
O O15 0.898702 0.499799 0.763234
O O16 0.928198 0.997830 0.599392
#
# Coordination Sequence:
#
# PCOD9242751 Si02
#       8
#     4   4   4   4   4   4   4   4
#     4  11  22  43  68  96 124 166 209 255 320 378
#     4  12  24  46  68  88 129 161 213 267 315 371
#     4  11  26  44  69  93 121 166 215 265 315 373
#     4  11  22  38  63  90 126 173 203 257 317 369
#     4  10  20  35  58  90 130 169 204 248 312 377
#     4  11  22  36  61  97 128 163 214 246 310 389
#     4  10  24  39  59  93 130 167 208 262 309 365
#     4  10  20  38  61  91 132 170 199 259 313 368
#
# _framework density 21.153411999999999
#
# number of rings (size 3 to 8) (size 9 to 14) (size 15 to 20)
#    0.000    1.250    3.750    2.250    1.750    2.000 
#    0.000    0.625    0.000    0.000    0.000    0.000 
#    0.000    0.000    0.000    0.000    0.000    0.000 
#
# Total GULP energy -178822.054993 kJ/mol
# GULP energy per Si atom -5588.189219 kJ/mol
# Density = 2.110527 g / cm^3
# Si number density = 21.153412 Si / 1000 Ang^3
#
#
#
# Elastic Constant Matrix: (Units=GPa)
#
#
# Indices 1 2 3 4 5 6 
#
# 1 80.9649 14.9632 5.8465 0.0000 -8.3710 0.0000
# 2 14.9632 66.4042 11.5986 0.0000 -3.3741 0.0000
# 3 5.8465 11.5986 40.5765 0.0000 -8.1801 0.0000
# 4 0.0000 0.0000 0.0000 21.9096 0.0000 5.7523
# 5 -8.3710 -3.3741 -8.1801 0.0000 17.5892 0.0000
# 6 0.0000 0.0000 0.0000 5.7523 0.0000 36.2596
#
#
#
# Elastic Compliance Matrix: (Units=1/GPa)
#
#
# Indices 1 2 3 4 5 6 
#
# 1 0.013465 -0.002740 0.000032 0.000000 0.005897 0.000000
# 2 -0.002740 0.016425 -0.004334 0.000000 -0.000169 0.000000
# 3 0.000032 -0.004334 0.028375 0.000000 0.012380 0.000000
# 4 0.000000 0.000000 0.000000 0.047626 0.000000 -0.007555
# 5 0.005897 -0.000169 0.012380 0.000000 0.065385 0.000000
# 6 0.000000 0.000000 0.000000 -0.007555 0.000000 0.028778
#
#
# Mechanical properties :
#
#
# Convention : Reuss Voigt Hill
#
# Bulk Modulus (GPa) = 22.63457 28.08470 25.35963
# Shear Modulus (GPa) = 21.84701 25.52083 23.68392
#
# Velocity S-wave (km/s) = 3.21719 3.47719 3.34971
# Velocity P-wave (km/s) = 4.95215 5.42463 5.19377
#
# Compressibility (1/GPa) = 0.04418022
#
# Stress axis : x y z
#
# Youngs Moduli (GPa) = 74.26746 60.88207 35.24249
#
# Poissons Ratio (x) = 0.16682 -0.00113
# Poissons Ratio (y) = 0.20350 0.15275
# Poissons Ratio (z) = -0.00238 0.26388
#
# Static dielectric constant tensor:
#      x y z
#    x 1.769980 0.000000 -0.000020 
#    y 0.000000 1.774980 0.000000 
#    z -0.000020 0.000000 1.752450 
# 
# From -- ./inp_files/79946.got.cif
#   From: 2010.05.17/outbox.cif.g08.bks.cpg/sg14_40_cif.got.tgz:79946.got - 2010.06.03 17:49:19.
