data_PCOD9242058
_publ_section_title
;
Structure prediction by ZEFSAII (Michael W. Deem and Ramdas Pophale) SiO2 
 PCOD9242058
Probable space group: P 21/C
;
_chemical_formula_sum "Si O2"
_cell_formula_units_Z 32
_cell_length_a 13.232367
_cell_length_b 10.071170
_cell_length_c 27.995028
_cell_angle_alpha 90.000000
_cell_angle_beta 27.736008
_cell_angle_gamma 90.000000
_cell_volume 1736.293919
_symmetry_space_group_name_H-M "P 21/C"
_symmetry_group_IT_number 14
_symmetry_cell_setting 'monoclinic'
loop_
_space_group_symop_operation_xyz
x,y,z
-x,1/2+y,1/2-z
-x,-y,-z
x,1/2-y,1/2+z
loop_
_atom_site_type_symbol
_atom_site_label
_atom_site_fract_x
_atom_site_fract_y
_atom_site_fract_z
Si Si1 0.674741 0.256695 0.111940
Si Si2 0.368580 0.005946 0.721392
Si Si3 0.017117 0.047451 0.791617
Si Si4 0.428516 0.559685 0.479405
Si Si5 0.360453 0.028537 0.202132
Si Si6 0.849730 0.828298 0.787879
Si Si7 0.892690 0.885941 0.077797
Si Si8 0.563210 0.282971 0.267913
O O1 0.573109 0.394543 0.136306
O O2 0.509193 0.139239 0.165510
O O3 0.671025 0.262916 0.170958
O O4 0.913995 0.218596 0.994027
O O5 0.425975 0.854586 0.708542
O O6 0.236430 0.017400 0.727825
O O7 0.211499 0.056114 0.830228
O O8 0.038661 0.187783 0.756374
O O9 0.826412 0.069891 0.910225
O O10 0.949048 0.931491 0.783873
O O11 0.500000 0.500000 0.500000
O O12 0.503617 0.478312 0.401401
O O13 0.411091 0.314330 0.593327
O O14 0.157978 0.103691 0.261639
O O15 0.324075 0.905196 0.251688
O O16 0.687189 0.823270 0.136408
O O17 0.000000 0.000000 0.000000
#
# Coordination Sequence:
#
# PCOD9242058 Si02
#       8
#     4   4   4   4   4   4   4   4
#     4  11  20  40  59  87 123 160 201 244 303 364
#     4  11  23  35  61  92 118 152 204 256 291 356
#     4  11  20  38  63  87 116 158 202 240 310 355
#     4   8  18  35  59  85 112 155 200 234 291 367
#     4  10  19  39  60  82 124 155 195 244 303 354
#     4   9  22  37  61  88 117 156 197 251 293 369
#     4  11  21  39  62  82 118 169 199 235 310 368
#     4  11  23  35  61  92 119 153 209 258 284 355
#
# _framework density 18.430059
#
# number of rings (size 3 to 8) (size 9 to 14) (size 15 to 20)
#    0.750    1.000    3.750    1.500    1.750    0.500 
#    0.000    0.625    2.750    0.000    0.000    0.000 
#    0.000    0.000    0.000    0.000    0.000    0.000 
#
# Total GULP energy -178227.622773 kJ/mol
# GULP energy per Si atom -5569.613212 kJ/mol
# Density = 1.838811 g / cm^3
# Si number density = 18.430059 Si / 1000 Ang^3
#
#
#
# Elastic Constant Matrix: (Units=GPa)
#
#
# Indices 1 2 3 4 5 6 
#
# 1 70.7961 37.2504 3.5727 0.0000 10.5338 0.0000
# 2 37.2504 98.1314 2.4977 0.0000 -0.3506 0.0000
# 3 3.5727 2.4977 29.2484 0.0000 0.7337 0.0000
# 4 0.0000 0.0000 0.0000 24.3449 0.0000 -2.6412
# 5 10.5338 -0.3506 0.7337 0.0000 26.2122 0.0000
# 6 0.0000 0.0000 0.0000 -2.6412 0.0000 34.4646
#
#
#
# Elastic Compliance Matrix: (Units=1/GPa)
#
#
# Indices 1 2 3 4 5 6 
#
# 1 0.019183 -0.007271 -0.001528 0.000000 -0.007763 0.000000
# 2 -0.007271 0.012969 -0.000297 0.000000 0.003104 0.000000
# 3 -0.001528 -0.000297 0.034411 0.000000 -0.000353 0.000000
# 4 0.000000 0.000000 0.000000 0.041421 0.000000 0.003174
# 5 -0.007763 0.003104 -0.000353 0.000000 0.041321 0.000000
# 6 0.000000 0.000000 0.000000 0.003174 0.000000 0.029259
#
#
# Mechanical properties :
#
#
# Convention : Reuss Voigt Hill
#
# Bulk Modulus (GPa) = 20.67326 31.64640 26.15983
# Shear Modulus (GPa) = 23.48765 27.32801 25.40783
#
# Velocity S-wave (km/s) = 3.57378 3.85489 3.71699
# Velocity P-wave (km/s) = 5.31702 6.08456 5.71369
#
# Compressibility (1/GPa) = 0.04837168
#
# Stress axis : x y z
#
# Youngs Moduli (GPa) = 52.13005 77.10713 29.06073
#
# Poissons Ratio (x) = 0.56061 0.04439
# Poissons Ratio (y) = 0.37902 0.00864
# Poissons Ratio (z) = 0.07963 0.02292
#
# Static dielectric constant tensor:
#      x y z
#    x 1.661670 0.000000 0.000940 
#    y 0.000000 1.615900 0.000000 
#    z 0.000940 0.000000 1.661520 
# 
# From -- ./inp_files/80189.got.cif
#   From: 2010.05.17/outbox.cif.g08.bks.cpg/sg14_41_cif.got.tgz:80189.got - 2010.06.03 17:49:19.
