data_PCOD9242560
_publ_section_title
;
Structure prediction by ZEFSAII (Michael W. Deem and Ramdas Pophale) SiO2 
 PCOD9242560
Probable space group: P 21/C
;
_chemical_formula_sum "Si O2"
_cell_formula_units_Z 32
_cell_length_a 24.304491
_cell_length_b 5.029719
_cell_length_c 21.213321
_cell_angle_alpha 90.000000
_cell_angle_beta 37.799051
_cell_angle_gamma 90.000000
_cell_volume 1589.367259
_symmetry_space_group_name_H-M "P 21/C"
_symmetry_group_IT_number 14
_symmetry_cell_setting 'monoclinic'
loop_
_space_group_symop_operation_xyz
x,y,z
-x,1/2+y,1/2-z
-x,-y,-z
x,1/2-y,1/2+z
loop_
_atom_site_type_symbol
_atom_site_label
_atom_site_fract_x
_atom_site_fract_y
_atom_site_fract_z
Si Si1 0.349450 0.983761 0.666656
Si Si2 0.384757 0.618768 0.522511
Si Si3 0.420902 0.500754 0.670775
Si Si4 0.223494 0.225252 0.692956
Si Si5 0.115223 0.869565 0.633004
Si Si6 0.556875 0.780758 0.710419
Si Si7 0.063012 0.370083 0.762596
Si Si8 0.698596 0.451244 0.001970
O O1 0.391947 0.255034 0.653062
O O2 0.250272 0.059400 0.730483
O O3 0.397135 0.854848 0.561939
O O4 0.361630 0.756601 0.707992
O O5 0.474086 0.443242 0.438769
O O6 0.294895 0.466372 0.624789
O O7 0.368026 0.737349 0.468304
O O8 0.416251 0.394888 0.745888
O O9 0.122083 0.314346 0.771080
O O10 0.251954 0.057295 0.605497
O O11 0.089486 0.655465 0.710118
O O12 0.221472 0.844479 0.526374
O O13 0.044672 0.837968 0.639782
O O14 0.094730 0.158922 0.680721
O O15 0.480158 0.982660 0.753907
O O16 0.641334 0.825458 0.588242
#
# Coordination Sequence:
#
# PCOD9242560 Si02
#       8
#     4   4   4   4   4   4   4   4
#     4  11  24  36  53  78 104 140 181 224 268 311
#     4  11  20  35  56  76 110 137 179 219 272 317
#     4  12  24  37  52  75 107 142 184 224 257 307
#     4  10  20  34  56  81 110 138 175 220 273 330
#     4   9  17  30  50  76 111 136 171 209 267 335
#     4  12  25  41  56  76 107 148 189 223 260 311
#     4   9  17  30  49  79 109 139 162 214 273 328
#     4  10  21  34  55  82 107 148 178 219 269 322
#
# _framework density 20.133800000000001
#
# number of rings (size 3 to 8) (size 9 to 14) (size 15 to 20)
#    0.000    1.500    3.750    2.250    3.500    0.000 
#    0.000    0.000    0.000    0.000    0.000    1.750 
#    0.000    0.125    0.000    0.000    0.000    0.000 
#
# Total GULP energy -178524.662925 kJ/mol
# GULP energy per Si atom -5578.895716 kJ/mol
# Density = 2.008797 g / cm^3
# Si number density = 20.133800 Si / 1000 Ang^3
#
#
#
# Elastic Constant Matrix: (Units=GPa)
#
#
# Indices 1 2 3 4 5 6 
#
# 1 128.8732 16.5820 18.0586 0.0000 -22.4853 0.0000
# 2 16.5820 63.0197 -4.3227 0.0000 -4.8406 0.0000
# 3 18.0586 -4.3227 9.4339 0.0000 -0.3125 0.0000
# 4 0.0000 0.0000 0.0000 12.5525 0.0000 0.6560
# 5 -22.4853 -4.8406 -0.3125 0.0000 20.2638 0.0000
# 6 0.0000 0.0000 0.0000 0.6560 0.0000 30.5388
#
#
#
# Elastic Compliance Matrix: (Units=1/GPa)
#
#
# Indices 1 2 3 4 5 6 
#
# 1 0.015549 -0.005062 -0.031568 0.000000 0.015557 0.000000
# 2 -0.005062 0.018367 0.018073 0.000000 -0.000950 0.000000
# 3 -0.031568 0.018073 0.173780 0.000000 -0.028031 0.000000
# 4 0.000000 0.000000 0.000000 0.079755 0.000000 -0.001713
# 5 0.015557 -0.000950 -0.028031 0.000000 0.065953 0.000000
# 6 0.000000 0.000000 0.000000 -0.001713 0.000000 0.032782
#
#
# Mechanical properties :
#
#
# Convention : Reuss Voigt Hill
#
# Bulk Modulus (GPa) = 5.86222 29.10697 17.48459
# Shear Modulus (GPa) = 10.41322 24.07161 17.24242
#
# Velocity S-wave (km/s) = 2.27667 3.46147 2.92959
# Velocity P-wave (km/s) = 3.13511 5.51941 4.48847
#
# Compressibility (1/GPa) = 0.17058373
#
# Stress axis : x y z
#
# Youngs Moduli (GPa) = 64.31396 54.44673 5.75439
#
# Poissons Ratio (x) = 0.27559 0.18165
# Poissons Ratio (y) = 0.32553 -0.10400
# Poissons Ratio (z) = 2.03024 -0.98403
#
# Static dielectric constant tensor:
#      x y z
#    x 1.823620 0.000000 -0.030960 
#    y 0.000000 1.763490 0.000000 
#    z -0.030960 0.000000 1.686850 
# 
# From -- ./inp_files/69530.got.cif
#   From: 2010.05.17/outbox.cif.g08.bks.cpg/sg14_35_cif.got.tgz:69530.got - 2010.06.03 17:49:19.
