data_PCOD9242021
_publ_section_title
;
Structure prediction by ZEFSAII (Michael W. Deem and Ramdas Pophale) SiO2 
 PCOD9242021
Probable space group: P 21/C
;
_chemical_formula_sum "Si O2"
_cell_formula_units_Z 32
_cell_length_a 11.207648
_cell_length_b 16.336865
_cell_length_c 10.373141
_cell_angle_alpha 90.000000
_cell_angle_beta 117.129384
_cell_angle_gamma 90.000000
_cell_volume 1690.336906
_symmetry_space_group_name_H-M "P 21/C"
_symmetry_group_IT_number 14
_symmetry_cell_setting 'monoclinic'
loop_
_space_group_symop_operation_xyz
x,y,z
-x,1/2+y,1/2-z
-x,-y,-z
x,1/2-y,1/2+z
loop_
_atom_site_type_symbol
_atom_site_label
_atom_site_fract_x
_atom_site_fract_y
_atom_site_fract_z
Si Si1 0.933876 0.424306 0.896215
Si Si2 0.271635 0.729248 0.850474
Si Si3 0.077840 0.004128 0.240005
Si Si4 0.367876 0.951989 0.385951
Si Si5 0.645867 0.091105 0.150314
Si Si6 0.365027 0.024840 0.099854
Si Si7 0.086014 0.749683 0.011040
Si Si8 0.897898 0.891372 0.002747
O O1 0.774234 0.425911 0.802884
O O2 0.966559 0.340387 0.981912
O O3 0.995583 0.432068 0.784505
O O4 0.000000 0.500000 0.000000
O O5 0.357196 0.645661 0.906911
O O6 0.356532 0.812785 0.884098
O O7 0.191815 0.725002 0.675384
O O8 0.164826 0.744218 0.914157
O O9 0.224334 0.984915 0.368828
O O10 0.096645 0.043622 0.110368
O O11 0.989398 0.923343 0.166773
O O12 0.361154 0.973901 0.230649
O O13 0.500000 0.000000 0.500000
O O14 0.511725 0.061582 0.152339
O O15 0.664557 0.038086 0.030232
O O16 0.257642 0.099069 0.037687
O O17 0.962754 0.811269 0.972453
#
# Coordination Sequence:
#
# PCOD9242021 Si02
#       8
#     4   4   4   4   4   4   4   4
#     4  11  23  37  62  94 128 160 204 265 321 372
#     4  11  23  40  65  94 122 166 214 264 315 386
#     4  10  20  38  61  88 117 160 205 255 307 373
#     4  11  24  39  64  90 129 164 210 262 333 379
#     4  10  22  41  64  90 127 168 218 250 312 393
#     4  10  22  41  64  89 123 176 210 253 318 382
#     4  11  23  38  68  94 126 162 217 264 321 374
#     4  10  19  38  66  88 117 159 219 256 296 378
#
# _framework density 18.931138000000001
#
# number of rings (size 3 to 8) (size 9 to 14) (size 15 to 20)
#    0.000    1.500    2.500    3.000    7.000    0.000 
#    2.250    0.000    5.500    0.000    0.000    0.000 
#    0.000    0.000    0.000    0.000    0.000    0.000 
#
# Total GULP energy -178429.757775 kJ/mol
# GULP energy per Si atom -5575.929930 kJ/mol
# Density = 1.888805 g / cm^3
# Si number density = 18.931138 Si / 1000 Ang^3
#
#
#
# Elastic Constant Matrix: (Units=GPa)
#
#
# Indices 1 2 3 4 5 6 
#
# 1 93.7650 50.2950 44.9852 0.0000 9.0541 0.0000
# 2 50.2950 138.6049 33.8722 0.0000 22.4729 0.0000
# 3 44.9852 33.8722 58.6792 0.0000 10.4645 0.0000
# 4 0.0000 0.0000 0.0000 23.4269 0.0000 1.8782
# 5 9.0541 22.4729 10.4645 0.0000 33.2959 0.0000
# 6 0.0000 0.0000 0.0000 1.8782 0.0000 35.3954
#
#
#
# Elastic Compliance Matrix: (Units=1/GPa)
#
#
# Indices 1 2 3 4 5 6 
#
# 1 0.018477 -0.003979 -0.012131 0.000000 0.001474 0.000000
# 2 -0.003979 0.009910 -0.001769 0.000000 -0.005051 0.000000
# 3 -0.012131 -0.001769 0.028139 0.000000 -0.004351 0.000000
# 4 0.000000 0.000000 0.000000 0.042868 0.000000 -0.002275
# 5 0.001474 -0.005051 -0.004351 0.000000 0.034409 0.000000
# 6 0.000000 0.000000 0.000000 -0.002275 0.000000 0.028373
#
#
# Mechanical properties :
#
#
# Convention : Reuss Voigt Hill
#
# Bulk Modulus (GPa) = 48.15274 61.03933 54.59603
# Shear Modulus (GPa) = 24.40724 29.21676 26.81200
#
# Velocity S-wave (km/s) = 3.59453 3.93277 3.76745
# Velocity P-wave (km/s) = 6.53594 7.27565 6.91569
#
# Compressibility (1/GPa) = 0.02076725
#
# Stress axis : x y z
#
# Youngs Moduli (GPa) = 54.12130 100.90947 35.53791
#
# Poissons Ratio (x) = 0.40153 0.43111
# Poissons Ratio (y) = 0.21535 0.06288
# Poissons Ratio (z) = 0.65654 0.17853
#
# Static dielectric constant tensor:
#      x y z
#    x 1.721030 0.000000 0.035940 
#    y 0.000000 1.656460 0.000000 
#    z 0.035940 0.000000 1.842810 
# 
# From -- ./inp_files/29828.got.cif
#   From: 2010.05.17/outbox.cif.g08.bks.cpg/sg14_15_cif.got.tgz:29828.got - 2010.06.03 17:49:19.
