data_PCOD9242609
_publ_section_title
;
Structure prediction by ZEFSAII (Michael W. Deem and Ramdas Pophale) SiO2 
 PCOD9242609
Probable space group: P 21/C
;
_chemical_formula_sum "Si O2"
_cell_formula_units_Z 28
_cell_length_a 11.744670
_cell_length_b 9.591234
_cell_length_c 22.580626
_cell_angle_alpha 90.000000
_cell_angle_beta 29.965362
_cell_angle_gamma 90.000000
_cell_volume 1270.475274
_symmetry_space_group_name_H-M "P 21/C"
_symmetry_group_IT_number 14
_symmetry_cell_setting 'monoclinic'
loop_
_space_group_symop_operation_xyz
x,y,z
-x,1/2+y,1/2-z
-x,-y,-z
x,1/2-y,1/2+z
loop_
_atom_site_type_symbol
_atom_site_label
_atom_site_fract_x
_atom_site_fract_y
_atom_site_fract_z
Si Si1 0.327556 0.563717 0.388699
Si Si2 0.920357 0.260425 0.658226
Si Si3 0.819401 0.362563 0.079245
Si Si4 0.663689 0.958809 0.233722
Si Si5 0.747918 0.526596 0.455789
Si Si6 0.819561 0.847274 0.689236
Si Si7 0.202840 0.971864 0.196135
O O1 0.297561 0.712846 0.374438
O O2 0.251854 0.453672 0.373461
O O3 0.200275 0.560944 0.508336
O O4 0.596012 0.556554 0.279449
O O5 0.914958 0.160461 0.602947
O O6 0.764986 0.400145 0.717259
O O7 0.846524 0.171718 0.748200
O O8 0.169625 0.321237 0.560964
O O9 0.611706 0.462960 0.151597
O O10 0.017268 0.367451 0.940800
O O11 0.735960 0.813287 0.231019
O O12 0.866782 0.483021 0.341248
O O13 0.477423 0.513850 0.570526
O O14 0.904780 0.906429 0.713960
#
# Coordination Sequence:
#
# PCOD9242609 Si02
#       7
#     4   4   4   4   4   4   4
#     4   9  19  35  56  84 114 152 196 238 295 363
#     4  11  23  38  63  93 120 158 203 247 303 361
#     4  10  20  34  59  90 121 149 189 252 306 353
#     4  10  21  37  59  90 122 151 195 249 303 366
#     4  10  21  41  62  80 121 166 202 244 294 353
#     4  10  20  36  58  84 116 155 194 238 304 360
#     4  10  24  41  61  88 118 160 207 249 293 353
#
# _framework density 22.038997999999999
#
# number of rings (size 3 to 8) (size 9 to 14) (size 15 to 20)
#    0.000    2.000    0.000    3.429    0.000   10.286 
#    0.000    0.000    0.000   15.429    0.000    0.000 
#    0.000    0.000    0.000    0.000    0.000    0.000 
#
# Total GULP energy -156014.742402 kJ/mol
# GULP energy per Si atom -5571.955086 kJ/mol
# Density = 2.198884 g / cm^3
# Si number density = 22.038998 Si / 1000 Ang^3
#
#
#
# Elastic Constant Matrix: (Units=GPa)
#
#
# Indices 1 2 3 4 5 6 
#
# 1 71.9949 13.2706 30.5022 0.0000 24.4037 0.0000
# 2 13.2706 68.5732 -1.0129 0.0000 2.4986 0.0000
# 3 30.5022 -1.0129 85.6008 0.0000 17.7399 0.0000
# 4 0.0000 0.0000 0.0000 31.3676 0.0000 -10.0026
# 5 24.4037 2.4986 17.7399 0.0000 28.7266 0.0000
# 6 0.0000 0.0000 0.0000 -10.0026 0.0000 21.4472
#
#
#
# Elastic Compliance Matrix: (Units=1/GPa)
#
#
# Indices 1 2 3 4 5 6 
#
# 1 0.021703 -0.003712 -0.004614 0.000000 -0.015265 0.000000
# 2 -0.003712 0.015283 0.001291 0.000000 0.001027 0.000000
# 3 -0.004614 0.001291 0.014395 0.000000 -0.005082 0.000000
# 4 0.000000 0.000000 0.000000 0.037450 0.000000 0.017466
# 5 -0.015265 0.001027 -0.005082 0.000000 0.050828 0.000000
# 6 0.000000 0.000000 0.000000 0.017466 0.000000 0.054772
#
#
# Mechanical properties :
#
#
# Convention : Reuss Voigt Hill
#
# Bulk Modulus (GPa) = 26.80226 34.63208 30.71717
# Shear Modulus (GPa) = 22.63085 28.53555 25.58320
#
# Velocity S-wave (km/s) = 3.20793 3.60220 3.41077
# Velocity P-wave (km/s) = 5.09007 5.74885 5.42946
#
# Compressibility (1/GPa) = 0.03731029
#
# Stress axis : x y z
#
# Youngs Moduli (GPa) = 46.07618 65.43229 69.47014
#
# Poissons Ratio (x) = 0.24289 0.32053
# Poissons Ratio (y) = 0.17104 -0.08967
# Poissons Ratio (z) = 0.21259 -0.08445
#
# Static dielectric constant tensor:
#      x y z
#    x 1.928380 0.000000 -0.004220 
#    y 0.000000 1.848610 0.000000 
#    z -0.004220 0.000000 1.861260 
# 
# From -- ./inp_files/67319.got.cif
#   From: 2010.05.17/outbox.cif.g08.bks.cpg/sg14_34_cif.got.tgz:67319.got - 2010.06.03 17:49:19.
