data_PCOD9242666
_publ_section_title
;
Structure prediction by ZEFSAII (Michael W. Deem and Ramdas Pophale) SiO2 
 PCOD9242666
Probable space group: P 21/C
;
_chemical_formula_sum "Si O2"
_cell_formula_units_Z 24
_cell_length_a 13.398373
_cell_length_b 5.121636
_cell_length_c 15.481780
_cell_angle_alpha 90.000000
_cell_angle_beta 92.976538
_cell_angle_gamma 90.000000
_cell_volume 1060.951070
_symmetry_space_group_name_H-M "P 21/C"
_symmetry_group_IT_number 14
_symmetry_cell_setting 'monoclinic'
loop_
_space_group_symop_operation_xyz
x,y,z
-x,1/2+y,1/2-z
-x,-y,-z
x,1/2-y,1/2+z
loop_
_atom_site_type_symbol
_atom_site_label
_atom_site_fract_x
_atom_site_fract_y
_atom_site_fract_z
Si Si1 0.991852 0.154136 0.141629
Si Si2 0.840784 0.922285 0.253052
Si Si3 0.726393 0.295556 0.526614
Si Si4 0.325562 0.296229 0.866255
Si Si5 0.911423 0.355286 0.926512
Si Si6 0.526619 0.250270 0.443573
O O1 0.022139 0.888972 0.097114
O O2 0.885281 0.111504 0.181082
O O3 0.070115 0.213447 0.223659
O O4 0.018520 0.387559 0.077022
O O5 0.741061 0.779888 0.218647
O O6 0.837349 0.079784 0.341643
O O7 0.712517 0.587918 0.562613
O O8 0.646067 0.259336 0.444639
O O9 0.695838 0.085143 0.598673
O O10 0.835632 0.224839 0.497957
O O11 0.445303 0.256616 0.863304
O O12 0.500000 0.500000 0.500000
O O13 0.500000 0.000000 0.500000
#
# Coordination Sequence:
#
# PCOD9242666 Si02
#       6
#     4   4   4   4   4   4
#     4  10  20  35  57  72 105 152 182 214 275 332
#     4  10  21  36  59  75 108 143 197 213 269 324
#     4  10  20  36  55  81 112 139 173 229 284 314
#     4  10  21  33  59  82 103 140 191 224 254 334
#     4  10  20  35  56  76 108 148 176 215 288 325
#     4   8  16  33  53  75 104 140 170 209 273 328
#
# _framework density 22.621213999999998
#
# number of rings (size 3 to 8) (size 9 to 14) (size 15 to 20)
#    1.000    1.333    1.667    1.000    2.333    0.000 
#    0.000    5.000    3.667    0.000    0.000    0.000 
#    0.000    0.000    0.000    0.000    0.000    0.000 
#
# Total GULP energy -133858.086954 kJ/mol
# GULP energy per Si atom -5577.420290 kJ/mol
# Density = 2.256973 g / cm^3
# Si number density = 22.621214 Si / 1000 Ang^3
#
#
#
# Elastic Constant Matrix: (Units=GPa)
#
#
# Indices 1 2 3 4 5 6 
#
# 1 93.0243 -6.1346 -1.6492 0.0000 24.6161 0.0000
# 2 -6.1346 121.3138 -12.8157 0.0000 -4.2423 0.0000
# 3 -1.6492 -12.8157 22.1192 0.0000 13.7259 0.0000
# 4 0.0000 0.0000 0.0000 30.7209 0.0000 5.7614
# 5 24.6161 -4.2423 13.7259 0.0000 38.3892 0.0000
# 6 0.0000 0.0000 0.0000 5.7614 0.0000 26.7857
#
#
#
# Elastic Compliance Matrix: (Units=1/GPa)
#
#
# Indices 1 2 3 4 5 6 
#
# 1 0.014293 0.001295 0.009528 0.000000 -0.012429 0.000000
# 2 0.001295 0.008933 0.006651 0.000000 -0.002221 0.000000
# 3 0.009528 0.006651 0.068252 0.000000 -0.029778 0.000000
# 4 0.000000 0.000000 0.000000 0.033919 0.000000 -0.007296
# 5 -0.012429 -0.002221 -0.029778 0.000000 0.044420 0.000000
# 6 0.000000 0.000000 0.000000 -0.007296 0.000000 0.038903
#
#
# Mechanical properties :
#
#
# Convention : Reuss Voigt Hill
#
# Bulk Modulus (GPa) = 7.90975 21.69537 14.80256
# Shear Modulus (GPa) = 23.15727 36.31630 29.73678
#
# Velocity S-wave (km/s) = 3.20300 4.01110 3.62961
# Velocity P-wave (km/s) = 4.14525 5.57346 4.91155
#
# Compressibility (1/GPa) = 0.12642625
#
# Stress axis : x y z
#
# Youngs Moduli (GPa) = 69.96378 111.93851 14.65162
#
# Poissons Ratio (x) = -0.14493 -0.13961
# Poissons Ratio (y) = -0.09058 -0.09744
# Poissons Ratio (z) = -0.66665 -0.74447
#
# Static dielectric constant tensor:
#      x y z
#    x 1.914220 0.000000 0.087720 
#    y 0.000000 1.804300 0.000000 
#    z 0.087720 0.000000 1.988530 
# 
# From -- ./inp_files/45739.got.cif
#   From: 2010.05.17/outbox.cif.g08.bks.cpg/sg14_23_cif.got.tgz:45739.got - 2010.06.03 17:49:19.
