data_PCOD9242853
_publ_section_title
;
Structure prediction by ZEFSAII (Michael W. Deem and Ramdas Pophale) SiO2 
 PCOD9242853
Probable space group: P 21/C
;
_chemical_formula_sum "Si O2"
_cell_formula_units_Z 28
_cell_length_a 13.004937
_cell_length_b 12.441827
_cell_length_c 11.868827
_cell_angle_alpha 90.000000
_cell_angle_beta 32.761247
_cell_angle_gamma 90.000000
_cell_volume 1039.224772
_symmetry_space_group_name_H-M "P 21/C"
_symmetry_group_IT_number 14
_symmetry_cell_setting 'monoclinic'
loop_
_space_group_symop_operation_xyz
x,y,z
-x,1/2+y,1/2-z
-x,-y,-z
x,1/2-y,1/2+z
loop_
_atom_site_type_symbol
_atom_site_label
_atom_site_fract_x
_atom_site_fract_y
_atom_site_fract_z
Si Si1 0.625816 0.869071 0.734426
Si Si2 0.155516 0.108422 0.233506
Si Si3 0.546472 0.571605 0.714657
Si Si4 0.291866 0.755354 0.608659
Si Si5 0.243252 0.699782 0.889011
Si Si6 0.757690 0.423863 0.667020
Si Si7 0.996019 0.603921 0.763925
O O1 0.738730 0.895485 0.745096
O O2 0.480446 0.963823 0.837273
O O3 0.780681 0.869695 0.492197
O O4 0.507013 0.760339 0.866293
O O5 0.983122 0.192063 0.403983
O O6 0.056844 0.997720 0.284748
O O7 0.300137 0.136147 0.999760
O O8 0.339718 0.624691 0.891795
O O9 0.632189 0.526794 0.752601
O O10 0.297083 0.671996 0.711212
O O11 0.231933 0.869973 0.719745
O O12 0.126706 0.704359 0.684613
O O13 0.334557 0.818440 0.807908
O O14 0.950405 0.430162 0.414341
#
# Coordination Sequence:
#
# PCOD9242853 Si02
#       7
#     4   4   4   4   4   4   4
#     4  12  18  30  56  84 109 137 175 226 294 334
#     4  11  18  30  53  85 108 137 171 224 297 337
#     4  11  20  33  55  81 116 144 176 223 280 335
#     4  10  20  36  51  80 116 141 176 231 270 332
#     4  10  20  36  52  80 119 142 178 227 271 337
#     4   9  22  38  48  82 120 144 182 227 273 330
#     4  11  20  33  53  77 113 144 174 224 283 334
#
# _framework density 26.943159999999999
#
# number of rings (size 3 to 8) (size 9 to 14) (size 15 to 20)
#    0.857    0.571    7.143    1.714    0.000    0.000 
#    7.714    0.000    0.000    0.857    0.000    5.000 
#    0.000    0.000    0.000    0.000    0.000    0.000 
#
# Total GULP energy -156390.320564 kJ/mol
# GULP energy per Si atom -5585.368592 kJ/mol
# Density = 2.688184 g / cm^3
# Si number density = 26.943160 Si / 1000 Ang^3
#
#
#
# Elastic Constant Matrix: (Units=GPa)
#
#
# Indices 1 2 3 4 5 6 
#
# 1 46.8213 -21.3368 12.2740 0.0000 9.9634 0.0000
# 2 -21.3368 55.6315 -9.9860 0.0000 -19.2755 0.0000
# 3 12.2740 -9.9860 163.5496 0.0000 -1.4464 0.0000
# 4 0.0000 0.0000 0.0000 22.5773 0.0000 -4.8349
# 5 9.9634 -19.2755 -1.4464 0.0000 36.4735 0.0000
# 6 0.0000 0.0000 0.0000 -4.8349 0.0000 43.4353
#
#
#
# Elastic Compliance Matrix: (Units=1/GPa)
#
#
# Indices 1 2 3 4 5 6 
#
# 1 0.026366 0.008981 -0.001453 0.000000 -0.002514 0.000000
# 2 0.008981 0.025411 0.000975 0.000000 0.011015 0.000000
# 3 -0.001453 0.000975 0.006293 0.000000 0.001162 0.000000
# 4 0.000000 0.000000 0.000000 0.045374 0.000000 0.005051
# 5 -0.002514 0.011015 0.001162 0.000000 0.033971 0.000000
# 6 0.000000 0.000000 0.000000 0.005051 0.000000 0.023585
#
#
# Mechanical properties :
#
#
# Convention : Reuss Voigt Hill
#
# Bulk Modulus (GPa) = 13.31972 25.32275 19.32124
# Shear Modulus (GPa) = 29.58230 39.50062 34.54146
#
# Velocity S-wave (km/s) = 3.31713 3.83309 3.58440
# Velocity P-wave (km/s) = 4.43007 5.38601 4.93126
#
# Compressibility (1/GPa) = 0.07507663
#
# Stress axis : x y z
#
# Youngs Moduli (GPa) = 37.92748 39.35255 158.90233
#
# Poissons Ratio (x) = -0.35341 0.23082
# Poissons Ratio (y) = -0.34061 -0.15493
# Poissons Ratio (z) = 0.05509 -0.03837
#
# Static dielectric constant tensor:
#      x y z
#    x 2.142780 0.000000 0.161710 
#    y 0.000000 2.208960 0.000000 
#    z 0.161710 0.000000 2.172430 
# 
# From -- ./inp_files/47470.got.cif
#   From: 2010.05.17/outbox.cif.g08.bks.cpg/sg14_24_cif.got.tgz:47470.got - 2010.06.03 17:49:19.
