data_PCOD9242358
_publ_section_title
;
Structure prediction by ZEFSAII (Michael W. Deem and Ramdas Pophale) SiO2 
 PCOD9242358
Probable space group: P 21/C
;
_chemical_formula_sum "Si O2"
_cell_formula_units_Z 24
_cell_length_a 11.954950
_cell_length_b 7.026136
_cell_length_c 19.139420
_cell_angle_alpha 90.000000
_cell_angle_beta 141.349539
_cell_angle_gamma 90.000000
_cell_volume 1004.089841
_symmetry_space_group_name_H-M "P 21/C"
_symmetry_group_IT_number 14
_symmetry_cell_setting 'monoclinic'
loop_
_space_group_symop_operation_xyz
x,y,z
-x,1/2+y,1/2-z
-x,-y,-z
x,1/2-y,1/2+z
loop_
_atom_site_type_symbol
_atom_site_label
_atom_site_fract_x
_atom_site_fract_y
_atom_site_fract_z
Si Si1 0.807902 0.155825 0.301124
Si Si2 0.105086 0.211500 0.132639
Si Si3 0.714158 0.194124 0.408345
Si Si4 0.423767 0.337026 0.874173
Si Si5 0.515528 0.765547 0.946963
Si Si6 0.801768 0.755800 0.975647
O O1 0.704012 0.225524 0.320280
O O2 0.681877 0.176090 0.173364
O O3 0.999595 0.258365 0.394626
O O4 0.853738 0.935129 0.335481
O O5 0.222935 0.119164 0.250804
O O6 0.181812 0.157349 0.093816
O O7 0.890645 0.200813 0.024613
O O8 0.535979 0.243673 0.363575
O O9 0.753997 0.967661 0.437798
O O10 0.516885 0.536195 0.937868
O O11 0.436834 0.206159 0.948891
O O12 0.659425 0.836905 0.960687
#
# Coordination Sequence:
#
# PCOD9242358 Si02
#       6
#     4   4   4   4   4   4
#     4   9  17  32  53  70  87 119 161 195 221 264
#     4   9  17  32  53  70  87 119 161 195 221 264
#     4   8  16  32  51  69  91 121 154 189 232 273
#     4  10  20  32  46  68  99 127 148 182 235 281
#     4  10  20  32  46  68  99 127 148 182 235 281
#     4   8  16  32  51  69  91 121 154 189 232 273
#
# _framework density 23.902244
#
# number of rings (size 3 to 8) (size 9 to 14) (size 15 to 20)
#    0.000    3.000    0.000    3.000    0.000    2.000 
#    0.000    5.000    0.000    0.000    0.000    0.000 
#    0.000    0.000    0.000    0.000    0.000    0.000 
#
# Total GULP energy -134184.342439 kJ/mol
# GULP energy per Si atom -5591.014268 kJ/mol
# Density = 2.384784 g / cm^3
# Si number density = 23.902244 Si / 1000 Ang^3
#
#
#
# Elastic Constant Matrix: (Units=GPa)
#
#
# Indices 1 2 3 4 5 6 
#
# 1 11.6738 2.2557 28.7948 0.0000 7.1485 0.0000
# 2 2.2557 61.7396 2.7935 0.0000 -3.0277 0.0000
# 3 28.7948 2.7935 142.2712 0.0000 -13.5270 0.0000
# 4 0.0000 0.0000 0.0000 38.3399 0.0000 3.8089
# 5 7.1485 -3.0277 -13.5270 0.0000 17.9528 0.0000
# 6 0.0000 0.0000 0.0000 3.8089 0.0000 5.9589
#
#
#
# Elastic Compliance Matrix: (Units=1/GPa)
#
#
# Indices 1 2 3 4 5 6 
#
# 1 -5.016636 0.272743 1.297208 0.000000 3.020950 0.000000
# 2 0.272743 0.001504 -0.070590 0.000000 -0.161535 0.000000
# 3 1.297208 -0.070590 -0.327862 0.000000 -0.775467 0.000000
# 4 0.000000 0.000000 0.000000 0.027851 0.000000 -0.017802
# 5 3.020950 -0.161535 -0.775467 0.000000 -1.758726 0.000000
# 6 0.000000 0.000000 0.000000 -0.017802 0.000000 0.179195
#
#
# Mechanical properties :
#
#
# Convention : Reuss Voigt Hill
#
# Bulk Modulus (GPa) = -0.42657 31.48584 15.52964
# Shear Modulus (GPa) = -0.46839 24.57304 12.05232
#
# Velocity S-wave (km/s) = -0.44316 3.20982 2.24795
# Velocity P-wave (km/s) = 0.66385 5.19024 3.63991
#
# Compressibility (1/GPa) = -2.34427056
#
# Stress axis : x y z
#
# Youngs Moduli (GPa) = -0.19934 664.77594 -3.05006
#
# Poissons Ratio (x) = -181.31287 3.95656
# Poissons Ratio (y) = 0.05437 -0.21530
# Poissons Ratio (z) = 0.25858 46.92623
#
# Static dielectric constant tensor:
#      x y z
#    x 1.873330 0.000000 -0.014140 
#    y 0.000000 2.017050 0.000000 
#    z -0.014140 0.000000 1.869670 
# 
# From -- ./inp_files/28486.got.cif
#   From: 2010.05.17/outbox.cif.g08.bks.cpg/sg14_15_cif.got.tgz:28486.got - 2010.06.03 17:49:19.
