data_PCOD9242224
_publ_section_title
;
Structure prediction by ZEFSAII (Michael W. Deem and Ramdas Pophale) SiO2 
 PCOD9242224
Probable space group: P 21/C
;
_chemical_formula_sum "Si O2"
_cell_formula_units_Z 28
_cell_length_a 11.225312
_cell_length_b 7.831666
_cell_length_c 15.982096
_cell_angle_alpha 90.000000
_cell_angle_beta 55.845500
_cell_angle_gamma 90.000000
_cell_volume 1162.701725
_symmetry_space_group_name_H-M "P 21/C"
_symmetry_group_IT_number 14
_symmetry_cell_setting 'monoclinic'
loop_
_space_group_symop_operation_xyz
x,y,z
-x,1/2+y,1/2-z
-x,-y,-z
x,1/2-y,1/2+z
loop_
_atom_site_type_symbol
_atom_site_label
_atom_site_fract_x
_atom_site_fract_y
_atom_site_fract_z
Si Si1 0.795346 0.787260 0.179552
Si Si2 0.284914 0.026182 0.934597
Si Si3 0.437533 0.040233 0.283981
Si Si4 0.729399 0.016693 0.353952
Si Si5 0.022473 0.494997 0.111772
Si Si6 0.535116 0.714684 0.044832
Si Si7 0.183777 0.687141 0.911382
O O1 0.817327 0.841299 0.074204
O O2 0.650409 0.675735 0.236279
O O3 0.917728 0.658381 0.160965
O O4 0.774438 0.953304 0.244639
O O5 0.372941 0.111334 0.976095
O O6 0.413438 0.995325 0.818180
O O7 0.196831 0.850792 0.966169
O O8 0.446272 0.110371 0.374976
O O9 0.342236 0.868908 0.320759
O O10 0.872836 0.993465 0.351266
O O11 0.638505 0.194303 0.398225
O O12 0.615451 0.881074 0.437898
O O13 0.923038 0.332519 0.125989
O O14 0.128003 0.535011 0.992654
#
# Coordination Sequence:
#
# PCOD9242224 Si02
#       7
#     4   4   4   4   4   4   4
#     4  10  23  39  62  93 120 164 222 251 313 390
#     4  11  22  38  68 100 120 155 224 283 305 374
#     4  10  19  40  67  92 119 163 212 268 318 380
#     4  11  22  43  63  88 135 172 204 270 327 394
#     4  10  23  43  62  87 131 181 207 247 337 390
#     4  10  22  39  67  92 124 168 211 261 344 369
#     4  10  21  40  68  91 125 168 218 266 314 394
#
# _framework density 24.081842000000002
#
# number of rings (size 3 to 8) (size 9 to 14) (size 15 to 20)
#    0.000    1.714    2.857    1.714    2.000    1.714 
#    5.143    1.429    0.000    0.000    0.000    0.000 
#    0.000    0.000    0.000    0.000    0.000    0.000 
#
# Total GULP energy -156249.079850 kJ/mol
# GULP energy per Si atom -5580.324280 kJ/mol
# Density = 2.402703 g / cm^3
# Si number density = 24.081842 Si / 1000 Ang^3
#
#
#
# Elastic Constant Matrix: (Units=GPa)
#
#
# Indices 1 2 3 4 5 6 
#
# 1 130.9770 27.0898 6.9477 0.0000 2.6349 0.0000
# 2 27.0898 106.5255 -9.4279 0.0000 -4.3711 0.0000
# 3 6.9477 -9.4279 30.1928 0.0000 -8.0280 0.0000
# 4 0.0000 0.0000 0.0000 21.8656 0.0000 0.5231
# 5 2.6349 -4.3711 -8.0280 0.0000 29.4029 0.0000
# 6 0.0000 0.0000 0.0000 0.5231 0.0000 38.2002
#
#
#
# Elastic Compliance Matrix: (Units=1/GPa)
#
#
# Indices 1 2 3 4 5 6 
#
# 1 0.008363 -0.002495 -0.003237 0.000000 -0.002004 0.000000
# 2 -0.002495 0.010563 0.004690 0.000000 0.003075 0.000000
# 3 -0.003237 0.004690 0.038378 0.000000 0.011466 0.000000
# 4 0.000000 0.000000 0.000000 0.045749 0.000000 -0.000626
# 5 -0.002004 0.003075 0.011466 0.000000 0.037777 0.000000
# 6 0.000000 0.000000 0.000000 -0.000626 0.000000 0.026186
#
#
# Mechanical properties :
#
#
# Convention : Reuss Voigt Hill
#
# Bulk Modulus (GPa) = 18.10900 35.21273 26.66087
# Shear Modulus (GPa) = 26.66550 34.09945 30.38247
#
# Velocity S-wave (km/s) = 3.33120 3.76704 3.55580
# Velocity P-wave (km/s) = 4.72567 5.79436 5.28709
#
# Compressibility (1/GPa) = 0.05522116
#
# Stress axis : x y z
#
# Youngs Moduli (GPa) = 119.57349 94.66758 26.05632
#
# Poissons Ratio (x) = 0.23624 0.08433
# Poissons Ratio (y) = 0.29839 -0.12221
# Poissons Ratio (z) = 0.38700 -0.44401
#
# Static dielectric constant tensor:
#      x y z
#    x 2.027620 0.000000 0.036210 
#    y 0.000000 2.021310 0.000000 
#    z 0.036210 0.000000 1.903930 
# 
# From -- ./inp_files/43304.got.cif
#   From: 2010.05.17/outbox.cif.g08.bks.cpg/sg14_22_cif.got.tgz:43304.got - 2010.06.03 17:49:19.
