data_PCOD9242362
_publ_section_title
;
Structure prediction by ZEFSAII (Michael W. Deem and Ramdas Pophale) SiO2 
 PCOD9242362
Probable space group: P 21/C
;
_chemical_formula_sum "Si O2"
_cell_formula_units_Z 26
_cell_length_a 29.213405
_cell_length_b 4.354137
_cell_length_c 7.764347
_cell_angle_alpha 90.000000
_cell_angle_beta 117.909307
_cell_angle_gamma 90.000000
_cell_volume 872.748184
_symmetry_space_group_name_H-M "P 21/C"
_symmetry_group_IT_number 14
_symmetry_cell_setting 'monoclinic'
loop_
_space_group_symop_operation_xyz
x,y,z
-x,1/2+y,1/2-z
-x,-y,-z
x,1/2-y,1/2+z
loop_
_atom_site_type_symbol
_atom_site_label
_atom_site_fract_x
_atom_site_fract_y
_atom_site_fract_z
Si Si1 0.657054 0.035258 0.720606
Si Si2 0.500000 0.500000 0.500000
Si Si3 0.960761 0.017309 0.180409
Si Si4 0.114538 0.560604 0.178231
Si Si5 0.419806 0.928440 0.150952
Si Si6 0.191433 0.541057 0.048151
Si Si7 0.732631 0.455381 0.085571
O O1 0.619787 0.234787 0.533246
O O2 0.617000 0.877646 0.783306
O O3 0.695443 0.866546 0.654073
O O4 0.694602 0.248821 0.901573
O O5 0.456007 0.723899 0.338779
O O6 0.539803 0.592112 0.404405
O O7 0.923826 0.881059 0.263506
O O8 0.002108 0.258973 0.329838
O O9 0.922817 0.206250 0.989744
O O10 0.154176 0.746420 0.368090
O O11 0.151127 0.381958 0.107560
O O12 0.229053 0.370950 0.978853
O O13 0.229743 0.745257 0.232570
#
# Coordination Sequence:
#
# PCOD9242362 Si02
#       7
#     4   2   4   4   4   4   4
#     4   8  14  24  42  69 104 131 169 233 275 331
#     4  10  20  32  48  66 100 140 172 224 280 328
#     4  11  22  37  56  79 112 152 193 240 293 352
#     4   9  18  31  48  74 108 136 173 224 273 338
#     4   9  18  31  46  70 104 138 183 234 277 338
#     4   8  14  25  44  71 106 133 164 219 270 335
#     4   8  12  22  42  70 104 132 162 218 284 332
#
# _framework density 29.790951
#
# number of rings (size 3 to 8) (size 9 to 14) (size 15 to 20)
#    0.000    3.077    0.000    0.923    0.000    2.462 
#    0.000    0.000    0.000    0.000    0.000    0.000 
#    0.000 1949.539    0.000    0.000    0.000    0.000 
#
# Total GULP energy -145151.447927 kJ/mol
# GULP energy per Si atom -5582.747997 kJ/mol
# Density = 2.972315 g / cm^3
# Si number density = 29.790951 Si / 1000 Ang^3
#
#
#
# Elastic Constant Matrix: (Units=GPa)
#
#
# Indices 1 2 3 4 5 6 
#
# 1 383.5333 41.3062 36.4740 0.0000 -59.0533 0.0000
# 2 41.3062 66.2104 66.6366 0.0000 20.6794 0.0000
# 3 36.4740 66.6366 213.1180 0.0000 60.0407 0.0000
# 4 0.0000 0.0000 0.0000 60.7918 0.0000 16.9376
# 5 -59.0533 20.6794 60.0407 0.0000 65.4350 0.0000
# 6 0.0000 0.0000 0.0000 16.9376 0.0000 -15.4117
#
#
#
# Elastic Compliance Matrix: (Units=1/GPa)
#
#
# Indices 1 2 3 4 5 6 
#
# 1 0.003926 -0.002827 -0.001399 0.000000 0.005720 0.000000
# 2 -0.002827 0.024111 -0.005650 0.000000 -0.004987 0.000000
# 3 -0.001399 -0.005650 0.008835 0.000000 -0.007584 0.000000
# 4 0.000000 0.000000 0.000000 0.012593 0.000000 0.013840
# 5 0.005720 -0.004987 -0.007584 0.000000 0.028980 0.000000
# 6 0.000000 0.000000 0.000000 0.013840 0.000000 -0.049675
#
#
# Mechanical properties :
#
#
# Convention : Reuss Voigt Hill
#
# Bulk Modulus (GPa) = 58.41696 105.74391 82.08043
# Shear Modulus (GPa) = 92.20016 56.72601 74.46308
#
# Velocity S-wave (km/s) = 5.56922 4.36837 5.00494
# Velocity P-wave (km/s) = 7.81067 7.81127 7.81097
#
# Compressibility (1/GPa) = 0.01711832
#
# Stress axis : x y z
#
# Youngs Moduli (GPa) = 254.73174 41.47426 113.18631
#
# Poissons Ratio (x) = 0.11726 0.15839
# Poissons Ratio (y) = 0.72021 0.63952
# Poissons Ratio (z) = 0.35648 0.23433
#
# Static dielectric constant tensor:
#      x y z
#    x 2.222390 0.000000 -0.168620 
#    y 0.000000 2.211520 0.000000 
#    z -0.168620 0.000000 2.106100 
# 
# From -- ./inp_files/19860.got.cif
#   From: 2010.05.17/outbox.cif.g08.bks.cpg/sg14_10_cif.got.tgz:19860.got - 2010.06.03 17:49:19.
