data_PCOD9242955
_publ_section_title
;
Structure prediction by ZEFSAII (Michael W. Deem and Ramdas Pophale) SiO2 
 PCOD9242955
Probable space group: P 21/C
;
_chemical_formula_sum "Si O2"
_cell_formula_units_Z 32
_cell_length_a 12.111612
_cell_length_b 19.756330
_cell_length_c 15.179807
_cell_angle_alpha 90.000000
_cell_angle_beta 154.317964
_cell_angle_gamma 90.000000
_cell_volume 1574.127394
_symmetry_space_group_name_H-M "P 21/C"
_symmetry_group_IT_number 14
_symmetry_cell_setting 'monoclinic'
loop_
_space_group_symop_operation_xyz
x,y,z
-x,1/2+y,1/2-z
-x,-y,-z
x,1/2-y,1/2+z
loop_
_atom_site_type_symbol
_atom_site_label
_atom_site_fract_x
_atom_site_fract_y
_atom_site_fract_z
Si Si1 0.453299 0.930710 0.585844
Si Si2 0.851936 0.176387 0.157938
Si Si3 0.674614 0.596150 0.567510
Si Si4 0.780777 0.933356 0.657808
Si Si5 0.866399 0.154169 0.362498
Si Si6 0.245466 0.483173 0.542620
Si Si7 0.110257 0.811833 0.423468
Si Si8 0.372335 0.078021 0.777608
O O1 0.562749 0.910067 0.568892
O O2 0.682892 0.942873 0.819384
O O3 0.278014 0.873408 0.504128
O O4 0.326861 0.004824 0.478638
O O5 0.880215 0.194831 0.281180
O O6 0.841109 0.242277 0.090470
O O7 0.085758 0.126836 0.299806
O O8 0.593089 0.133596 0.955420
O O9 0.386236 0.609389 0.331615
O O10 0.810767 0.564228 0.581450
O O11 0.694557 0.552547 0.671563
O O12 0.819364 0.665002 0.697432
O O13 0.009019 0.966534 0.879443
O O14 0.844024 0.192973 0.438952
O O15 0.119087 0.108948 0.554350
O O16 0.495086 0.524062 0.689678
#
# Coordination Sequence:
#
# PCOD9242955 Si02
#       8
#     4   4   4   4   4   4   4   4
#     4  11  22  39  65  89 124 166 211 253 314 370
#     4  10  23  43  62  88 128 162 207 261 311 371
#     4  10  20  36  58  91 124 154 197 252 302 363
#     4  10  23  41  60  91 126 163 205 263 308 369
#     4  10  21  41  61  90 119 158 208 252 312 365
#     4  11  19  37  60  89 120 156 202 249 309 363
#     4  11  23  41  62  93 124 165 208 253 310 377
#     4   9  21  36  60  89 120 156 201 252 307 366
#
# _framework density 20.328723
#
# number of rings (size 3 to 8) (size 9 to 14) (size 15 to 20)
#    0.000    1.750    2.500    1.500    0.000    4.500 
#    2.250    2.500    0.000    0.000    0.000    0.000 
#    0.000    0.000    0.000    0.000    0.000    0.000 
#
# Total GULP energy -178603.549205 kJ/mol
# GULP energy per Si atom -5581.360913 kJ/mol
# Density = 2.028245 g / cm^3
# Si number density = 20.328723 Si / 1000 Ang^3
#
#
#
# Elastic Constant Matrix: (Units=GPa)
#
#
# Indices 1 2 3 4 5 6 
#
# 1 114.0445 48.1874 32.2162 0.0000 -27.5711 0.0000
# 2 48.1874 61.9562 7.9015 0.0000 -13.2491 0.0000
# 3 32.2162 7.9015 75.4678 0.0000 -18.0967 0.0000
# 4 0.0000 0.0000 0.0000 11.8412 0.0000 -6.3719
# 5 -27.5711 -13.2491 -18.0967 0.0000 15.6164 0.0000
# 6 0.0000 0.0000 0.0000 -6.3719 0.0000 16.2669
#
#
#
# Elastic Compliance Matrix: (Units=1/GPa)
#
#
# Indices 1 2 3 4 5 6 
#
# 1 0.018883 -0.009435 -0.001382 0.000000 0.023731 0.000000
# 2 -0.009435 0.024837 0.003442 0.000000 0.008402 0.000000
# 3 -0.001382 0.003442 0.018827 0.000000 0.022297 0.000000
# 4 0.000000 0.000000 0.000000 0.107006 0.000000 0.041915
# 5 0.023731 0.008402 0.022297 0.000000 0.138901 0.000000
# 6 0.000000 0.000000 0.000000 0.041915 0.000000 0.077893
#
#
# Mechanical properties :
#
#
# Convention : Reuss Voigt Hill
#
# Bulk Modulus (GPa) = 20.92237 47.56429 34.24333
# Shear Modulus (GPa) = 11.98956 19.62247 15.80602
#
# Velocity S-wave (km/s) = 2.43118 3.11023 2.79143
# Velocity P-wave (km/s) = 4.26559 6.02880 5.22215
#
# Compressibility (1/GPa) = 0.04779572
#
# Stress axis : x y z
#
# Youngs Moduli (GPa) = 52.95765 40.26302 53.11499
#
# Poissons Ratio (x) = 0.37990 0.07342
# Poissons Ratio (y) = 0.49967 -0.18283
# Poissons Ratio (z) = 0.07321 -0.13859
#
# Static dielectric constant tensor:
#      x y z
#    x 1.770640 0.000000 0.017950 
#    y 0.000000 1.695560 0.000000 
#    z 0.017950 0.000000 1.712900 
# 
# From -- ./inp_files/38072.got.cif
#   From: 2010.05.17/outbox.cif.g08.bks.cpg/sg14_20_cif.got.tgz:38072.got - 2010.06.03 17:49:19.
