data_PCOD9242992
_publ_section_title
;
Structure prediction by ZEFSAII (Michael W. Deem and Ramdas Pophale) SiO2 
 PCOD9242992
Probable space group: P 21/C
;
_chemical_formula_sum "Si O2"
_cell_formula_units_Z 32
_cell_length_a 15.890381
_cell_length_b 8.375610
_cell_length_c 19.282658
_cell_angle_alpha 90.000000
_cell_angle_beta 141.496670
_cell_angle_gamma 90.000000
_cell_volume 1597.713678
_symmetry_space_group_name_H-M "P 21/C"
_symmetry_group_IT_number 14
_symmetry_cell_setting 'monoclinic'
loop_
_space_group_symop_operation_xyz
x,y,z
-x,1/2+y,1/2-z
-x,-y,-z
x,1/2-y,1/2+z
loop_
_atom_site_type_symbol
_atom_site_label
_atom_site_fract_x
_atom_site_fract_y
_atom_site_fract_z
Si Si1 0.778884 0.450389 0.502057
Si Si2 0.484434 0.078830 0.803114
Si Si3 0.978825 0.989206 0.591941
Si Si4 0.224279 0.491423 0.655895
Si Si5 0.474748 0.545331 0.144396
Si Si6 0.052739 0.868374 0.166581
Si Si7 0.198264 0.118206 0.646287
Si Si8 0.202504 0.616818 0.905649
O O1 0.623985 0.510909 0.411924
O O2 0.784268 0.414170 0.422439
O O3 0.794591 0.296395 0.560837
O O4 0.904701 0.568030 0.593398
O O5 0.515078 0.266324 0.831102
O O6 0.347369 0.050169 0.757113
O O7 0.449024 0.042415 0.700582
O O8 0.869937 0.982123 0.459515
O O9 0.041929 0.814718 0.638031
O O10 0.905982 0.029483 0.615841
O O11 0.097267 0.108457 0.645756
O O12 0.376705 0.510439 0.783705
O O13 0.111987 0.539586 0.638466
O O14 0.209984 0.302439 0.630429
O O15 0.348159 0.535070 0.011778
O O16 0.153488 0.886120 0.295782
#
# Coordination Sequence:
#
# PCOD9242992 Si02
#       8
#     4   4   4   4   4   4   4   4
#     4  10  21  38  61  85 116 152 192 240 288 339
#     4   9  18  34  59  87 113 140 189 244 291 325
#     4  11  23  34  57  87 115 148 190 238 280 341
#     4  10  21  38  62  85 113 152 193 245 285 337
#     4   9  19  35  58  85 113 150 189 240 288 337
#     4  12  24  38  57  85 121 160 190 228 290 354
#     4  10  20  36  59  88 114 138 191 248 288 323
#     4  11  23  39  58  84 123 153 190 235 292 349
#
# _framework density 20.02862
#
# number of rings (size 3 to 8) (size 9 to 14) (size 15 to 20)
#    0.000    1.750    2.500    1.875    3.500    1.500 
#    0.000    0.000    0.000   13.500    0.000    0.000 
#    0.000    0.000    0.000    0.000    0.000    0.000 
#
# Total GULP energy -178590.961966 kJ/mol
# GULP energy per Si atom -5580.967561 kJ/mol
# Density = 1.998303 g / cm^3
# Si number density = 20.028620 Si / 1000 Ang^3
#
#
#
# Elastic Constant Matrix: (Units=GPa)
#
#
# Indices 1 2 3 4 5 6 
#
# 1 44.4835 -4.5643 24.2235 0.0000 9.7849 0.0000
# 2 -4.5643 7.7468 2.2360 0.0000 1.4311 0.0000
# 3 24.2235 2.2360 119.9882 0.0000 5.6933 0.0000
# 4 0.0000 0.0000 0.0000 9.6113 0.0000 8.0244
# 5 9.7849 1.4311 5.6933 0.0000 25.9872 0.0000
# 6 0.0000 0.0000 0.0000 8.0244 0.0000 11.7757
#
#
#
# Elastic Compliance Matrix: (Units=1/GPa)
#
#
# Indices 1 2 3 4 5 6 
#
# 1 0.030498 0.021807 -0.006024 0.000000 -0.011365 0.000000
# 2 0.021807 0.146537 -0.006428 0.000000 -0.014873 0.000000
# 3 -0.006024 -0.006428 0.009646 0.000000 0.000509 0.000000
# 4 0.000000 0.000000 0.000000 0.241363 0.000000 -0.164474
# 5 -0.011365 -0.014873 0.000509 0.000000 0.043467 0.000000
# 6 0.000000 0.000000 0.000000 -0.164474 0.000000 0.196999
#
#
# Mechanical properties :
#
#
# Convention : Reuss Voigt Hill
#
# Bulk Modulus (GPa) = 4.86873 24.00100 14.43487
# Shear Modulus (GPa) = 6.96123 19.49638 13.22880
#
# Velocity S-wave (km/s) = 1.86633 3.12336 2.57280
# Velocity P-wave (km/s) = 2.66090 5.00166 4.00606
#
# Compressibility (1/GPa) = 0.20539226
#
# Stress axis : x y z
#
# Youngs Moduli (GPa) = 32.78891 6.82421 103.67036
#
# Poissons Ratio (x) = -0.14882 0.62453
# Poissons Ratio (y) = -0.71504 0.66635
# Poissons Ratio (z) = 0.19753 0.04386
#
# Static dielectric constant tensor:
#      x y z
#    x 1.682480 0.000000 0.050910 
#    y 0.000000 1.713480 0.000000 
#    z 0.050910 0.000000 1.743180 
# 
# From -- ./inp_files/68224.got.cif
#   From: 2010.05.17/outbox.cif.g08.bks.cpg/sg14_35_cif.got.tgz:68224.got - 2010.06.03 17:49:19.
