data_PCOD9242171
_publ_section_title
;
Structure prediction by ZEFSAII (Michael W. Deem and Ramdas Pophale) SiO2 
 PCOD9242171
Probable space group: P 21/C
;
_chemical_formula_sum "Si O2"
_cell_formula_units_Z 28
_cell_length_a 14.242314
_cell_length_b 7.361851
_cell_length_c 13.847010
_cell_angle_alpha 90.000000
_cell_angle_beta 51.828899
_cell_angle_gamma 90.000000
_cell_volume 1141.403865
_symmetry_space_group_name_H-M "P 21/C"
_symmetry_group_IT_number 14
_symmetry_cell_setting 'monoclinic'
loop_
_space_group_symop_operation_xyz
x,y,z
-x,1/2+y,1/2-z
-x,-y,-z
x,1/2-y,1/2+z
loop_
_atom_site_type_symbol
_atom_site_label
_atom_site_fract_x
_atom_site_fract_y
_atom_site_fract_z
Si Si1 0.844221 0.093375 0.385326
Si Si2 0.869104 0.574024 0.067246
Si Si3 0.368221 0.985450 0.207518
Si Si4 0.289592 0.115964 0.056047
Si Si5 0.923060 0.789935 0.206860
Si Si6 0.407097 0.510777 0.974417
Si Si7 0.564873 0.656794 0.705997
O O1 0.848587 0.938794 0.466847
O O2 0.892298 0.991404 0.260504
O O3 0.706253 0.148992 0.457222
O O4 0.938477 0.242989 0.361486
O O5 0.766746 0.443480 0.175004
O O6 0.874118 0.754203 0.129621
O O7 0.000000 0.500000 0.000000
O O8 0.361632 0.017779 0.097129
O O9 0.393435 0.173590 0.253108
O O10 0.463807 0.840974 0.184339
O O11 0.154609 0.141902 0.180807
O O12 0.338141 0.321958 0.024486
O O13 0.325659 0.063869 0.923135
O O14 0.488737 0.542991 0.830521
O O15 0.500000 0.500000 0.000000
#
# Coordination Sequence:
#
# PCOD9242171 Si02
#       7
#     4   4   4   4   4   4   4
#     4  10  19  40  61  83 118 151 198 240 298 344
#     4   9  18  37  64  83 110 161 200 229 291 366
#     4  11  21  36  60  89 121 155 201 245 296 359
#     4  10  21  38  58  86 120 156 202 242 299 357
#     4   9  20  37  62  85 110 154 195 246 291 348
#     4  11  21  38  63  87 120 166 192 242 301 366
#     4  12  21  37  59  87 121 160 196 240 303 353
#
# _framework density 24.531196000000001
#
# number of rings (size 3 to 8) (size 9 to 14) (size 15 to 20)
#    0.000    1.714    4.286    1.286    0.000    0.000 
#    2.571    3.571    0.000    0.000    0.000    0.000 
#    0.000    0.000    0.000    0.000    0.000    0.000 
#
# Total GULP energy -155993.284328 kJ/mol
# GULP energy per Si atom -5571.188726 kJ/mol
# Density = 2.447536 g / cm^3
# Si number density = 24.531196 Si / 1000 Ang^3
#
#
#
# Elastic Constant Matrix: (Units=GPa)
#
#
# Indices 1 2 3 4 5 6 
#
# 1 158.0869 26.8697 47.3936 0.0000 -8.5170 0.0000
# 2 26.8697 43.5734 17.6210 0.0000 4.0729 0.0000
# 3 47.3936 17.6210 88.4377 0.0000 2.8195 0.0000
# 4 0.0000 0.0000 0.0000 26.4317 0.0000 0.5673
# 5 -8.5170 4.0729 2.8195 0.0000 45.0779 0.0000
# 6 0.0000 0.0000 0.0000 0.5673 0.0000 15.8700
#
#
#
# Elastic Compliance Matrix: (Units=1/GPa)
#
#
# Indices 1 2 3 4 5 6 
#
# 1 0.008189 -0.003748 -0.003709 0.000000 0.002118 0.000000
# 2 -0.003748 0.026848 -0.003248 0.000000 -0.002931 0.000000
# 3 -0.003709 -0.003248 0.013983 0.000000 -0.001282 0.000000
# 4 0.000000 0.000000 0.000000 0.037862 0.000000 -0.001353
# 5 0.002118 -0.002931 -0.001282 0.000000 0.022929 0.000000
# 6 0.000000 0.000000 0.000000 -0.001353 0.000000 0.063060
#
#
# Mechanical properties :
#
#
# Convention : Reuss Voigt Hill
#
# Bulk Modulus (GPa) = 36.21736 52.65184 44.43460
# Shear Modulus (GPa) = 24.57198 30.69015 27.63107
#
# Velocity S-wave (km/s) = 3.16834 3.54088 3.35978
# Velocity P-wave (km/s) = 5.30852 6.18279 5.76226
#
# Compressibility (1/GPa) = 0.02761107
#
# Stress axis : x y z
#
# Youngs Moduli (GPa) = 122.11997 37.24674 71.51508
#
# Poissons Ratio (x) = 0.13958 0.26526
# Poissons Ratio (y) = 0.45765 0.23226
# Poissons Ratio (z) = 0.45296 0.12096
#
# Static dielectric constant tensor:
#      x y z
#    x 1.976880 0.000000 0.019660 
#    y 0.000000 2.035610 0.000000 
#    z 0.019660 0.000000 2.101850 
# 
# From -- ./inp_files/46452.got.cif
#   From: 2010.05.17/outbox.cif.g08.bks.cpg/sg14_24_cif.got.tgz:46452.got - 2010.06.03 17:49:19.
