data_PCOD9242155
_publ_section_title
;
Structure prediction by ZEFSAII (Michael W. Deem and Ramdas Pophale) SiO2 
 PCOD9242155
Probable space group: P 21/C
;
_chemical_formula_sum "Si O2"
_cell_formula_units_Z 32
_cell_length_a 8.958133
_cell_length_b 23.876153
_cell_length_c 11.729356
_cell_angle_alpha 90.000000
_cell_angle_beta 35.706247
_cell_angle_gamma 90.000000
_cell_volume 1464.176556
_symmetry_space_group_name_H-M "P 21/C"
_symmetry_group_IT_number 14
_symmetry_cell_setting 'monoclinic'
loop_
_space_group_symop_operation_xyz
x,y,z
-x,1/2+y,1/2-z
-x,-y,-z
x,1/2-y,1/2+z
loop_
_atom_site_type_symbol
_atom_site_label
_atom_site_fract_x
_atom_site_fract_y
_atom_site_fract_z
Si Si1 0.010730 0.320528 0.395258
Si Si2 0.224330 0.044282 0.378489
Si Si3 0.633906 0.992864 0.292908
Si Si4 0.964315 0.304598 0.953222
Si Si5 0.522194 0.131672 0.605268
Si Si6 0.095362 0.898772 0.829897
Si Si7 0.330939 0.118883 0.095575
Si Si8 0.922272 0.139477 0.698270
O O1 0.901212 0.258275 0.458274
O O2 0.897163 0.358431 0.566014
O O3 0.979473 0.349677 0.293594
O O4 0.314644 0.319449 0.230154
O O5 0.458561 0.017337 0.300817
O O6 0.300598 0.070349 0.209456
O O7 0.102152 0.091774 0.534592
O O8 0.000000 0.000000 0.500000
O O9 0.869019 0.036072 0.159493
O O10 0.500000 0.000000 0.500000
O O11 0.632508 0.925929 0.273609
O O12 0.746642 0.349565 0.051475
O O13 0.981159 0.308220 0.079102
O O14 0.217148 0.326545 0.731508
O O15 0.667751 0.120155 0.396917
O O16 0.848201 0.891158 0.902715
O O17 0.623114 0.124590 0.878772
#
# Coordination Sequence:
#
# PCOD9242155 Si02
#       8
#     4   4   4   4   4   4   4   4
#     4  12  26  40  69  99 129 178 228 279 338 406
#     4  11  22  41  68  99 136 178 220 277 341 403
#     4  10  19  39  69  94 133 177 213 277 336 402
#     4  10  25  43  64  93 133 179 221 281 337 397
#     4  10  23  46  65  94 135 175 221 274 338 399
#     4  10  22  41  67 101 132 175 226 275 337 407
#     4  10  23  43  67  97 139 176 226 278 338 406
#     4  11  24  43  64 100 133 172 229 273 333 407
#
# _framework density 21.855288999999999
#
# number of rings (size 3 to 8) (size 9 to 14) (size 15 to 20)
#    0.000    1.500    0.000    6.000    5.250    2.000 
#    0.000    3.750    0.000    0.000    0.000    0.000 
#    0.000    0.000    0.000    0.000    0.000    0.000 
#
# Total GULP energy -178894.945852 kJ/mol
# GULP energy per Si atom -5590.467058 kJ/mol
# Density = 2.180555 g / cm^3
# Si number density = 21.855289 Si / 1000 Ang^3
#
#
#
# Elastic Constant Matrix: (Units=GPa)
#
#
# Indices 1 2 3 4 5 6 
#
# 1 76.6905 8.6510 15.9784 0.0000 25.2418 0.0000
# 2 8.6510 74.4616 12.8660 0.0000 17.1425 0.0000
# 3 15.9784 12.8660 77.8502 0.0000 20.9397 0.0000
# 4 0.0000 0.0000 0.0000 15.9877 0.0000 -7.1340
# 5 25.2418 17.1425 20.9397 0.0000 45.4427 0.0000
# 6 0.0000 0.0000 0.0000 -7.1340 0.0000 24.0945
#
#
#
# Elastic Compliance Matrix: (Units=1/GPa)
#
#
# Indices 1 2 3 4 5 6 
#
# 1 0.016033 0.000282 -0.001042 0.000000 -0.008532 0.000000
# 2 0.000282 0.014791 -0.001095 0.000000 -0.005231 0.000000
# 3 -0.001042 -0.001095 0.014809 0.000000 -0.005832 0.000000
# 4 0.000000 0.000000 0.000000 0.072070 0.000000 0.021339
# 5 -0.008532 -0.005231 -0.005832 0.000000 0.031405 0.000000
# 6 0.000000 0.000000 0.000000 0.021339 0.000000 0.047821
#
#
# Mechanical properties :
#
#
# Convention : Reuss Voigt Hill
#
# Bulk Modulus (GPa) = 23.85481 33.77699 28.81590
# Shear Modulus (GPa) = 23.29760 29.87209 26.58485
#
# Velocity S-wave (km/s) = 3.26850 3.70105 3.49148
# Velocity P-wave (km/s) = 5.01824 5.80966 5.42839
#
# Compressibility (1/GPa) = 0.04192027
#
# Stress axis : x y z
#
# Youngs Moduli (GPa) = 62.37159 67.61050 67.52799
#
# Poissons Ratio (x) = -0.01904 0.07039
# Poissons Ratio (y) = -0.01756 0.07395
# Poissons Ratio (z) = 0.06502 0.07404
#
# Static dielectric constant tensor:
#      x y z
#    x 1.796690 0.000000 -0.010210 
#    y 0.000000 1.797950 0.000000 
#    z -0.010210 0.000000 1.811900 
# 
# From -- ./inp_files/27014.got.cif
#   From: 2010.05.17/outbox.cif.g08.bks.cpg/sg14_14_cif.got.tgz:27014.got - 2010.06.03 17:49:19.
