data_PCOD9242999
_publ_section_title
;
Structure prediction by ZEFSAII (Michael W. Deem and Ramdas Pophale) SiO2 
 PCOD9242999
Probable space group: P 21/C
;
_chemical_formula_sum "Si O2"
_cell_formula_units_Z 32
_cell_length_a 9.461856
_cell_length_b 21.914270
_cell_length_c 13.942721
_cell_angle_alpha 90.000000
_cell_angle_beta 31.601041
_cell_angle_gamma 90.000000
_cell_volume 1514.897716
_symmetry_space_group_name_H-M "P 21/C"
_symmetry_group_IT_number 14
_symmetry_cell_setting 'monoclinic'
loop_
_space_group_symop_operation_xyz
x,y,z
-x,1/2+y,1/2-z
-x,-y,-z
x,1/2-y,1/2+z
loop_
_atom_site_type_symbol
_atom_site_label
_atom_site_fract_x
_atom_site_fract_y
_atom_site_fract_z
Si Si1 0.334967 0.654653 0.227259
Si Si2 0.071440 0.706666 0.033901
Si Si3 0.072026 0.244425 0.092847
Si Si4 0.120396 0.631568 0.705730
Si Si5 0.873141 0.932705 0.071767
Si Si6 0.516174 0.362594 0.321876
Si Si7 0.653811 0.936464 0.408584
Si Si8 0.477555 0.808303 0.852430
O O1 0.507583 0.678314 0.219918
O O2 0.199575 0.704729 0.236065
O O3 0.101760 0.616545 0.415624
O O4 0.476926 0.609974 0.071721
O O5 0.764107 0.693484 0.244102
O O6 0.985942 0.741301 0.985489
O O7 0.256466 0.651553 0.889985
O O8 0.284206 0.748654 0.967307
O O9 0.051435 0.305799 0.169173
O O10 0.325855 0.197766 0.949015
O O11 0.324010 0.625319 0.674667
O O12 0.292219 0.642064 0.511029
O O13 0.938174 0.572092 0.798148
O O14 0.660242 0.919188 0.110909
O O15 0.724273 0.920095 0.258360
O O16 0.000000 0.000000 0.000000
O O17 0.500000 0.000000 0.500000
#
# Coordination Sequence:
#
# PCOD9242999 Si02
#       8
#     4   4   4   4   4   4   4   4
#     4  10  21  41  70  97 140 176 235 292 352 418
#     4  10  20  36  59  94 142 184 220 271 349 427
#     4   9  20  38  63  96 139 183 219 287 352 424
#     4  11  25  38  65 102 144 182 235 287 365 418
#     4  11  23  47  73  98 128 182 242 298 346 417
#     4  10  22  43  64 100 143 178 231 292 354 421
#     4  12  25  44  74 102 132 190 247 291 354 427
#     4  11  22  37  63 102 144 185 225 286 348 433
#
# _framework density 21.123539000000001
#
# number of rings (size 3 to 8) (size 9 to 14) (size 15 to 20)
#    0.000    1.500    3.750    1.500    5.250    1.000 
#    2.250    1.250    0.000    0.000    0.000    0.000 
#    0.000    0.000    0.000    0.000    0.000    0.000 
#
# Total GULP energy -178306.265012 kJ/mol
# GULP energy per Si atom -5572.070782 kJ/mol
# Density = 2.107546 g / cm^3
# Si number density = 21.123539 Si / 1000 Ang^3
#
#
#
# Elastic Constant Matrix: (Units=GPa)
#
#
# Indices 1 2 3 4 5 6 
#
# 1 72.9975 48.8953 44.2965 0.0000 -11.1446 0.0000
# 2 48.8953 87.3740 33.5817 0.0000 -18.6045 0.0000
# 3 44.2965 33.5817 113.9891 0.0000 -4.1456 0.0000
# 4 0.0000 0.0000 0.0000 34.2004 0.0000 -10.2150
# 5 -11.1446 -18.6045 -4.1456 0.0000 47.5627 0.0000
# 6 0.0000 0.0000 0.0000 -10.2150 0.0000 27.3440
#
#
#
# Elastic Compliance Matrix: (Units=1/GPa)
#
#
# Indices 1 2 3 4 5 6 
#
# 1 0.025543 -0.011621 -0.006471 0.000000 0.000876 0.000000
# 2 -0.011621 0.019350 -0.001012 0.000000 0.004758 0.000000
# 3 -0.006471 -0.001012 0.011552 0.000000 -0.000905 0.000000
# 4 0.000000 0.000000 0.000000 0.032912 0.000000 0.012295
# 5 0.000876 0.004758 -0.000905 0.000000 0.023012 0.000000
# 6 0.000000 0.000000 0.000000 0.012295 0.000000 0.041164
#
#
# Mechanical properties :
#
#
# Convention : Reuss Voigt Hill
#
# Bulk Modulus (GPa) = 54.82693 58.65641 56.74167
# Shear Modulus (GPa) = 25.27547 31.66056 28.46802
#
# Velocity S-wave (km/s) = 3.46288 3.87567 3.67507
# Velocity P-wave (km/s) = 6.48077 6.91783 6.70286
#
# Compressibility (1/GPa) = 0.01823921
#
# Stress axis : x y z
#
# Youngs Moduli (GPa) = 39.14925 51.67933 86.56142
#
# Poissons Ratio (x) = 0.60056 0.56012
# Poissons Ratio (y) = 0.45495 0.08757
# Poissons Ratio (z) = 0.25333 0.05228
#
# Static dielectric constant tensor:
#      x y z
#    x 1.793550 0.000000 -0.017870 
#    y 0.000000 1.754340 0.000000 
#    z -0.017870 0.000000 1.929330 
# 
# From -- ./inp_files/42234.got.cif
#   From: 2010.05.17/outbox.cif.g08.bks.cpg/sg14_22_cif.got.tgz:42234.got - 2010.06.03 17:49:19.
