data_PCOD9242250
_publ_section_title
;
Structure prediction by ZEFSAII (Michael W. Deem and Ramdas Pophale) SiO2 
 PCOD9242250
Probable space group: P 21/C
;
_chemical_formula_sum "Si O2"
_cell_formula_units_Z 32
_cell_length_a 9.277615
_cell_length_b 24.114795
_cell_length_c 13.953675
_cell_angle_alpha 90.000000
_cell_angle_beta 28.110872
_cell_angle_gamma 90.000000
_cell_volume 1470.939086
_symmetry_space_group_name_H-M "P 21/C"
_symmetry_group_IT_number 14
_symmetry_cell_setting 'monoclinic'
loop_
_space_group_symop_operation_xyz
x,y,z
-x,1/2+y,1/2-z
-x,-y,-z
x,1/2-y,1/2+z
loop_
_atom_site_type_symbol
_atom_site_label
_atom_site_fract_x
_atom_site_fract_y
_atom_site_fract_z
Si Si1 0.366910 0.173639 0.272920
Si Si2 0.520770 0.837060 0.464071
Si Si3 0.488271 0.217600 0.935049
Si Si4 0.900044 0.886687 0.855676
Si Si5 0.289269 0.719281 0.910287
Si Si6 0.208498 0.063169 0.278201
Si Si7 0.026627 0.359094 0.163583
Si Si8 0.341688 0.940760 0.251943
O O1 0.404744 0.116287 0.194687
O O2 0.278283 0.155693 0.433482
O O3 0.060092 0.203889 0.410630
O O4 0.642556 0.216976 0.101827
O O5 0.556028 0.777472 0.495093
O O6 0.428859 0.821521 0.409241
O O7 0.825836 0.867974 0.319563
O O8 0.249001 0.873228 0.670177
O O9 0.530404 0.216292 0.795949
O O10 0.798326 0.192738 0.796093
O O11 0.224623 0.173063 0.107409
O O12 0.865113 0.930008 0.789708
O O13 0.666590 0.910183 0.071620
O O14 0.887925 0.066920 0.524533
O O15 0.360961 0.005413 0.217037
O O16 0.830194 0.409616 0.235212
#
# Coordination Sequence:
#
# PCOD9242250 Si02
#       8
#     4   4   4   4   4   4   4   4
#     4  10  20  38  58  85 120 157 204 243 301 367
#     4  12  22  35  57  90 125 162 200 253 309 373
#     4  10  22  39  55  88 124 167 206 243 300 381
#     4  11  22  36  63  89 120 156 210 254 299 359
#     4  11  23  36  58  85 127 166 194 249 305 367
#     4  10  19  41  64  94 111 163 214 254 304 372
#     4   9  20  37  57  86 120 162 197 250 311 356
#     4   9  21  40  69  83 121 158 213 260 307 363
#
# _framework density 21.754809999999999
#
# number of rings (size 3 to 8) (size 9 to 14) (size 15 to 20)
#    0.000    1.750    2.500    2.625    3.500    0.000 
#    0.000    0.625    0.000    6.750    0.000    0.000 
#    0.000    0.000    0.000    0.000    0.000    0.000 
#
# Total GULP energy -178768.899119 kJ/mol
# GULP energy per Si atom -5586.528097 kJ/mol
# Density = 2.170529 g / cm^3
# Si number density = 21.754810 Si / 1000 Ang^3
#
#
#
# Elastic Constant Matrix: (Units=GPa)
#
#
# Indices 1 2 3 4 5 6 
#
# 1 85.9283 5.4897 23.8589 0.0000 -1.9525 0.0000
# 2 5.4897 100.4333 15.4818 0.0000 -0.7875 0.0000
# 3 23.8589 15.4818 40.1620 0.0000 4.8008 0.0000
# 4 0.0000 0.0000 0.0000 29.2278 0.0000 6.5208
# 5 -1.9525 -0.7875 4.8008 0.0000 27.0151 0.0000
# 6 0.0000 0.0000 0.0000 6.5208 0.0000 9.9028
#
#
#
# Elastic Compliance Matrix: (Units=1/GPa)
#
#
# Indices 1 2 3 4 5 6 
#
# 1 0.014145 0.000629 -0.008960 0.000000 0.002633 0.000000
# 2 0.000629 0.010643 -0.004617 0.000000 0.001176 0.000000
# 3 -0.008960 -0.004617 0.032792 0.000000 -0.006610 0.000000
# 4 0.000000 0.000000 0.000000 0.040106 0.000000 -0.026409
# 5 0.002633 0.001176 -0.006610 0.000000 0.038415 0.000000
# 6 0.000000 0.000000 0.000000 -0.026409 0.000000 0.118372
#
#
# Mechanical properties :
#
#
# Convention : Reuss Voigt Hill
#
# Bulk Modulus (GPa) = 31.56213 35.13161 33.34687
# Shear Modulus (GPa) = 17.18616 25.34202 21.26409
#
# Velocity S-wave (km/s) = 2.81373 3.41676 3.12980
# Velocity P-wave (km/s) = 5.00956 5.63468 5.33129
#
# Compressibility (1/GPa) = 0.03168354
#
# Stress axis : x y z
#
# Youngs Moduli (GPa) = 70.69547 93.95477 30.49531
#
# Poissons Ratio (x) = -0.05907 0.27325
# Poissons Ratio (y) = -0.04445 0.14080
# Poissons Ratio (z) = 0.63345 0.43378
#
# Static dielectric constant tensor:
#      x y z
#    x 1.837320 0.000000 0.041000 
#    y 0.000000 1.783950 0.000000 
#    z 0.041000 0.000000 1.855910 
# 
# From -- ./inp_files/42295.got.cif
#   From: 2010.05.17/outbox.cif.g08.bks.cpg/sg14_22_cif.got.tgz:42295.got - 2010.06.03 17:49:19.
