data_PCOD9242264
_publ_section_title
;
Structure prediction by ZEFSAII (Michael W. Deem and Ramdas Pophale) SiO2 
 PCOD9242264
Probable space group: P 21/C
;
_chemical_formula_sum "Si O2"
_cell_formula_units_Z 28
_cell_length_a 13.831010
_cell_length_b 7.204250
_cell_length_c 15.542636
_cell_angle_alpha 90.000000
_cell_angle_beta 43.139232
_cell_angle_gamma 90.000000
_cell_volume 1058.960255
_symmetry_space_group_name_H-M "P 21/C"
_symmetry_group_IT_number 14
_symmetry_cell_setting 'monoclinic'
loop_
_space_group_symop_operation_xyz
x,y,z
-x,1/2+y,1/2-z
-x,-y,-z
x,1/2-y,1/2+z
loop_
_atom_site_type_symbol
_atom_site_label
_atom_site_fract_x
_atom_site_fract_y
_atom_site_fract_z
Si Si1 0.807210 0.900204 0.414283
Si Si2 0.524955 0.757181 0.309432
Si Si3 0.236665 0.848004 0.054572
Si Si4 0.195228 0.814427 0.266171
Si Si5 0.846786 0.641633 0.086989
Si Si6 0.030525 0.071089 0.860248
Si Si7 0.492520 0.814391 0.634150
O O1 0.861786 0.856248 0.474434
O O2 0.655172 0.802074 0.498400
O O3 0.909822 0.851098 0.269582
O O4 0.785399 0.123787 0.430988
O O5 0.403384 0.633030 0.431540
O O6 0.679812 0.675618 0.212086
O O7 0.482335 0.766927 0.236957
O O8 0.529716 0.963048 0.344886
O O9 0.185598 0.915244 0.180561
O O10 0.138220 0.934017 0.044594
O O11 0.112404 0.621087 0.318094
O O12 0.361816 0.768226 0.167547
O O13 0.134783 0.941438 0.380952
O O14 0.925311 0.797579 0.090884
#
# Coordination Sequence:
#
# PCOD9242264 Si02
#       7
#     4   4   4   4   4   4   4
#     4   9  23  45  73 102 147 184 233 309 356 417
#     4  10  21  42  70 103 145 176 240 300 356 420
#     4  10  24  43  67 103 146 189 233 302 356 429
#     4  11  24  42  71 103 140 183 244 295 357 436
#     4  11  24  47  75 107 138 194 243 297 364 427
#     4  11  25  48  70 104 147 195 240 292 366 430
#     4  10  19  41  68 104 137 182 234 304 356 416
#
# _framework density 26.441029
#
# number of rings (size 3 to 8) (size 9 to 14) (size 15 to 20)
#    0.000    1.714    1.429    2.571    6.000    2.857 
#    7.714    4.286    0.000    0.000    0.000    0.000 
#    0.000    0.000    0.000    0.000    0.000    0.000 
#
# Total GULP energy -157238.497404 kJ/mol
# GULP energy per Si atom -5615.660622 kJ/mol
# Density = 2.638085 g / cm^3
# Si number density = 26.441029 Si / 1000 Ang^3
#
#
#
# Elastic Constant Matrix: (Units=GPa)
#
#
# Indices 1 2 3 4 5 6 
#
# 1 156.5482 38.6443 47.0826 0.0000 -5.4680 0.0000
# 2 38.6443 98.4391 16.9702 0.0000 11.5302 0.0000
# 3 47.0826 16.9702 135.3658 0.0000 11.9199 0.0000
# 4 0.0000 0.0000 0.0000 77.2221 0.0000 -1.5488
# 5 -5.4680 11.5302 11.9199 0.0000 34.0415 0.0000
# 6 0.0000 0.0000 0.0000 -1.5488 0.0000 31.0313
#
#
#
# Elastic Compliance Matrix: (Units=1/GPa)
#
#
# Indices 1 2 3 4 5 6 
#
# 1 0.008082 -0.003091 -0.002714 0.000000 0.003295 0.000000
# 2 -0.003091 0.011905 -0.000019 0.000000 -0.004522 0.000000
# 3 -0.002714 -0.000019 0.008638 0.000000 -0.003454 0.000000
# 4 0.000000 0.000000 0.000000 0.012963 0.000000 0.000647
# 5 0.003295 -0.004522 -0.003454 0.000000 0.032646 0.000000
# 6 0.000000 0.000000 0.000000 0.000647 0.000000 0.032258
#
#
# Mechanical properties :
#
#
# Convention : Reuss Voigt Hill
#
# Bulk Modulus (GPa) = 58.90294 66.19413 62.54853
# Shear Modulus (GPa) = 40.38820 47.63605 44.01212
#
# Velocity S-wave (km/s) = 3.91254 4.24913 4.08430
# Velocity P-wave (km/s) = 6.53729 7.01159 6.77859
#
# Compressibility (1/GPa) = 0.01697708
#
# Stress axis : x y z
#
# Youngs Moduli (GPa) = 123.73028 83.99863 115.76962
#
# Poissons Ratio (x) = 0.25963 0.31417
# Poissons Ratio (y) = 0.38244 0.00222
# Poissons Ratio (z) = 0.33578 0.00161
#
# Static dielectric constant tensor:
#      x y z
#    x 2.061010 0.000000 -0.063610 
#    y 0.000000 2.058290 0.000000 
#    z -0.063610 0.000000 2.086410 
# 
# From -- ./inp_files/46701.got.cif
#   From: 2010.05.17/outbox.cif.g08.bks.cpg/sg14_24_cif.got.tgz:46701.got - 2010.06.03 17:49:19.
