data_PCOD9242825
_publ_section_title
;
Structure prediction by ZEFSAII (Michael W. Deem and Ramdas Pophale) SiO2 
 PCOD9242825
Probable space group: P 21/C
;
_chemical_formula_sum "Si O2"
_cell_formula_units_Z 32
_cell_length_a 16.769142
_cell_length_b 14.200846
_cell_length_c 9.116282
_cell_angle_alpha 90.000000
_cell_angle_beta 141.372183
_cell_angle_gamma 90.000000
_cell_volume 1355.213093
_symmetry_space_group_name_H-M "P 21/C"
_symmetry_group_IT_number 14
_symmetry_cell_setting 'monoclinic'
loop_
_space_group_symop_operation_xyz
x,y,z
-x,1/2+y,1/2-z
-x,-y,-z
x,1/2-y,1/2+z
loop_
_atom_site_type_symbol
_atom_site_label
_atom_site_fract_x
_atom_site_fract_y
_atom_site_fract_z
Si Si1 0.652389 0.783536 0.015214
Si Si2 0.128067 0.422739 0.517726
Si Si3 0.283171 0.566051 0.567592
Si Si4 0.107323 0.804691 0.993517
Si Si5 0.516100 0.318165 0.986045
Si Si6 0.709836 0.358946 0.735377
Si Si7 0.175400 0.288862 0.997854
Si Si8 0.160068 0.947505 0.325984
O O1 0.549907 0.836468 0.765540
O O2 0.580804 0.712753 0.024185
O O3 0.733339 0.729640 0.008080
O O4 0.747748 0.839984 0.260894
O O5 0.214112 0.470710 0.515882
O O6 0.138731 0.312134 0.516406
O O7 0.178504 0.465255 0.743438
O O8 0.979712 0.454599 0.299765
O O9 0.181943 0.647753 0.466456
O O10 0.402554 0.593860 0.840780
O O11 0.314666 0.581332 0.444562
O O12 0.959668 0.823497 0.753334
O O13 0.154773 0.698021 0.075994
O O14 0.149078 0.858789 0.200049
O O15 0.606873 0.225428 0.099365
O O16 0.727631 0.426042 0.900217
#
# Coordination Sequence:
#
# PCOD9242825 Si02
#       8
#     4   4   4   4   4   4   4   4
#     4  10  23  38  63  87 112 160 209 256 292 345
#     4  10  22  39  56  90 133 162 191 235 327 378
#     4  10  22  36  64  94 119 160 196 260 305 364
#     4  10  20  35  62  95 118 156 204 247 310 358
#     4  10  20  41  62  90 114 149 219 266 287 339
#     4  11  20  34  66  90 118 151 206 262 295 340
#     4  11  22  40  62  90 126 160 197 255 306 369
#     4  10  21  37  58  93 130 163 188 243 311 381
#
# _framework density 23.612522999999999
#
# number of rings (size 3 to 8) (size 9 to 14) (size 15 to 20)
#    0.000    1.750    2.500    2.250    5.250    0.500 
#    0.000    6.250    0.000    1.500    0.000    0.000 
#    0.000    0.000    0.000    0.000    0.000    0.000 
#
# Total GULP energy -178968.217481 kJ/mol
# GULP energy per Si atom -5592.756796 kJ/mol
# Density = 2.355878 g / cm^3
# Si number density = 23.612523 Si / 1000 Ang^3
#
#
#
# Elastic Constant Matrix: (Units=GPa)
#
#
# Indices 1 2 3 4 5 6 
#
# 1 90.0443 0.6976 34.9563 0.0000 -7.6607 0.0000
# 2 0.6976 60.1751 -7.4419 0.0000 -10.8161 0.0000
# 3 34.9563 -7.4419 117.7236 0.0000 -23.4241 0.0000
# 4 0.0000 0.0000 0.0000 17.4023 0.0000 -4.1467
# 5 -7.6607 -10.8161 -23.4241 0.0000 34.3926 0.0000
# 6 0.0000 0.0000 0.0000 -4.1467 0.0000 27.1356
#
#
#
# Elastic Compliance Matrix: (Units=1/GPa)
#
#
# Indices 1 2 3 4 5 6 
#
# 1 0.012575 -0.000602 -0.003762 0.000000 0.000049 0.000000
# 2 -0.000602 0.018338 0.002844 0.000000 0.007570 0.000000
# 3 -0.003762 0.002844 0.011339 0.000000 0.007779 0.000000
# 4 0.000000 0.000000 0.000000 0.059635 0.000000 0.009113
# 5 0.000049 0.007570 0.007779 0.000000 0.036766 0.000000
# 6 0.000000 0.000000 0.000000 0.009113 0.000000 0.038244
#
#
# Mechanical properties :
#
#
# Convention : Reuss Voigt Hill
#
# Bulk Modulus (GPa) = 25.50269 36.04080 30.77175
# Shear Modulus (GPa) = 25.90560 31.76818 28.83689
#
# Velocity S-wave (km/s) = 3.31586 3.67194 3.49844
# Velocity P-wave (km/s) = 5.04815 5.76837 5.42024
#
# Compressibility (1/GPa) = 0.03921155
#
# Stress axis : x y z
#
# Youngs Moduli (GPa) = 79.52257 54.53284 88.18850
#
# Poissons Ratio (x) = 0.03284 0.33179
# Poissons Ratio (y) = 0.04789 -0.25083
# Poissons Ratio (z) = 0.29918 -0.15511
#
# Static dielectric constant tensor:
#      x y z
#    x 1.893860 0.000000 0.031460 
#    y 0.000000 1.899630 0.000000 
#    z 0.031460 0.000000 1.961160 
# 
# From -- ./inp_files/18138.got.cif
#   From: 2010.05.17/outbox.cif.g08.bks.cpg/sg14_10_cif.got.tgz:18138.got - 2010.06.03 17:49:19.
