data_PCOD9242474
_publ_section_title
;
Structure prediction by ZEFSAII (Michael W. Deem and Ramdas Pophale) SiO2 
 PCOD9242474
Probable space group: P 21/C
;
_chemical_formula_sum "Si O2"
_cell_formula_units_Z 32
_cell_length_a 17.873778
_cell_length_b 13.685760
_cell_length_c 8.736935
_cell_angle_alpha 90.000000
_cell_angle_beta 131.905647
_cell_angle_gamma 90.000000
_cell_volume 1590.599094
_symmetry_space_group_name_H-M "P 21/C"
_symmetry_group_IT_number 14
_symmetry_cell_setting 'monoclinic'
loop_
_space_group_symop_operation_xyz
x,y,z
-x,1/2+y,1/2-z
-x,-y,-z
x,1/2-y,1/2+z
loop_
_atom_site_type_symbol
_atom_site_label
_atom_site_fract_x
_atom_site_fract_y
_atom_site_fract_z
Si Si1 0.054629 0.880879 0.370971
Si Si2 0.821354 0.094375 0.905094
Si Si3 0.634613 0.220924 0.561865
Si Si4 0.657236 0.958436 0.219066
Si Si5 0.471080 0.637094 0.346349
Si Si6 0.763310 0.104607 0.159780
Si Si7 0.139763 0.055932 0.313762
Si Si8 0.000327 0.778607 0.983774
O O1 0.166229 0.876258 0.596145
O O2 0.991533 0.835597 0.426979
O O3 0.059692 0.989018 0.302078
O O4 0.024095 0.808665 0.190652
O O5 0.711276 0.137632 0.718956
O O6 0.840840 0.005215 0.815680
O O7 0.823330 0.076445 0.089356
O O8 0.902946 0.175920 0.971192
O O9 0.543208 0.175246 0.343307
O O10 0.590460 0.288106 0.633193
O O11 0.701617 0.295949 0.551887
O O12 0.757046 0.933479 0.450637
O O13 0.587640 0.033936 0.219348
O O14 0.691316 0.017735 0.114590
O O15 0.582972 0.873875 0.062888
O O16 0.092725 0.158755 0.203788
#
# Coordination Sequence:
#
# PCOD9242474 Si02
#       8
#     4   4   4   4   4   4   4   4
#     4  10  20  35  56  84 117 155 199 239 286 350
#     4  11  19  32  56  88 117 145 189 245 288 341
#     4  11  19  31  56  89 114 137 188 237 295 343
#     4   9  20  39  58  78 118 153 189 234 301 351
#     4  10  20  36  58  87 113 149 186 244 296 349
#     4  10  20  33  58  89 113 150 191 244 289 342
#     4  10  22  40  58  84 122 162 197 246 296 346
#     4  11  22  36  58  87 121 158 196 244 300 345
#
# _framework density 20.118205
#
# number of rings (size 3 to 8) (size 9 to 14) (size 15 to 20)
#    0.000    1.750    3.750    2.250    3.500    0.000 
#    0.000   14.375    0.000    0.000    0.000    0.000 
#    0.000    0.000    0.000    0.000    0.000    0.000 
#
# Total GULP energy -178386.527748 kJ/mol
# GULP energy per Si atom -5574.578992 kJ/mol
# Density = 2.007242 g / cm^3
# Si number density = 20.118205 Si / 1000 Ang^3
#
#
#
# Elastic Constant Matrix: (Units=GPa)
#
#
# Indices 1 2 3 4 5 6 
#
# 1 23.7244 5.2352 15.8839 0.0000 3.6519 0.0000
# 2 5.2352 42.4752 27.8630 0.0000 11.6561 0.0000
# 3 15.8839 27.8630 126.1778 0.0000 10.1989 0.0000
# 4 0.0000 0.0000 0.0000 29.6407 0.0000 12.7296
# 5 3.6519 11.6561 10.1989 0.0000 24.1614 0.0000
# 6 0.0000 0.0000 0.0000 12.7296 0.0000 17.8625
#
#
#
# Elastic Compliance Matrix: (Units=1/GPa)
#
#
# Indices 1 2 3 4 5 6 
#
# 1 0.046585 -0.001108 -0.005274 0.000000 -0.004281 0.000000
# 2 -0.001108 0.030764 -0.005661 0.000000 -0.012284 0.000000
# 3 -0.005274 -0.005661 0.009892 0.000000 -0.000647 0.000000
# 4 0.000000 0.000000 0.000000 0.048617 0.000000 -0.034646
# 5 -0.004281 -0.012284 -0.000647 0.000000 0.048235 0.000000
# 6 0.000000 0.000000 0.000000 -0.034646 0.000000 0.080674
#
#
# Mechanical properties :
#
#
# Convention : Reuss Voigt Hill
#
# Bulk Modulus (GPa) = 15.83379 32.26017 24.04698
# Shear Modulus (GPa) = 16.13407 23.89261 20.01334
#
# Velocity S-wave (km/s) = 2.83497 3.44991 3.15745
# Velocity P-wave (km/s) = 4.31318 5.65149 5.02707
#
# Compressibility (1/GPa) = 0.06315609
#
# Stress axis : x y z
#
# Youngs Moduli (GPa) = 21.46615 32.50515 101.09550
#
# Poissons Ratio (x) = 0.03600 0.53315
# Poissons Ratio (y) = 0.02378 0.57231
# Poissons Ratio (z) = 0.11321 0.18402
#
# Static dielectric constant tensor:
#      x y z
#    x 1.745470 0.000000 -0.033330 
#    y 0.000000 1.757820 0.000000 
#    z -0.033330 0.000000 1.729390 
# 
# From -- ./inp_files/19081.got.cif
#   From: 2010.05.17/outbox.cif.g08.bks.cpg/sg14_10_cif.got.tgz:19081.got - 2010.06.03 17:49:19.
