data_PCOD9242374
_publ_section_title
;
Structure prediction by ZEFSAII (Michael W. Deem and Ramdas Pophale) SiO2 
 PCOD9242374
Probable space group: P 21/C
;
_chemical_formula_sum "Si O2"
_cell_formula_units_Z 32
_cell_length_a 14.116478
_cell_length_b 17.746469
_cell_length_c 8.847823
_cell_angle_alpha 90.000000
_cell_angle_beta 44.264959
_cell_angle_gamma 90.000000
_cell_volume 1547.091959
_symmetry_space_group_name_H-M "P 21/C"
_symmetry_group_IT_number 14
_symmetry_cell_setting 'monoclinic'
loop_
_space_group_symop_operation_xyz
x,y,z
-x,1/2+y,1/2-z
-x,-y,-z
x,1/2-y,1/2+z
loop_
_atom_site_type_symbol
_atom_site_label
_atom_site_fract_x
_atom_site_fract_y
_atom_site_fract_z
Si Si1 0.410724 0.933643 0.023729
Si Si2 0.719698 0.766619 0.555231
Si Si3 0.182207 0.538291 0.322436
Si Si4 0.042935 0.491121 0.200296
Si Si5 0.813477 0.542818 0.247801
Si Si6 0.249996 0.140523 0.766983
Si Si7 0.463078 0.581757 0.110245
Si Si8 0.413189 0.161044 0.002244
O O1 0.462346 0.920064 0.793870
O O2 0.442528 0.866824 0.103818
O O3 0.500000 0.000000 0.000000
O O4 0.256986 0.960813 0.184384
O O5 0.798796 0.696817 0.544727
O O6 0.786385 0.818791 0.350511
O O7 0.595626 0.726427 0.608332
O O8 0.663265 0.812966 0.759089
O O9 0.140143 0.540577 0.195725
O O10 0.209528 0.447602 0.317523
O O11 0.309882 0.588772 0.223812
O O12 0.053553 0.554792 0.575373
O O13 0.939081 0.539388 0.216849
O O14 0.129228 0.442002 0.984438
O O15 0.687814 0.594803 0.440860
O O16 0.415804 0.135879 0.581023
O O17 0.500000 0.500000 0.000000
#
# Coordination Sequence:
#
# PCOD9242374 Si02
#       8
#     4   4   4   4   4   4   4   4
#     4  10  20  32  52  78 107 136 165 215 275 326
#     4  10  20  32  50  80 104 144 172 210 270 310
#     4  10  20  34  53  78 111 139 173 218 276 320
#     4  10  20  32  50  80 106 136 170 210 258 322
#     4  10  20  34  53  78 111 139 173 218 276 320
#     4  10  20  34  53  78 110 133 176 218 264 328
#     4  10  20  32  52  78 107 136 165 215 275 326
#     4  10  20  34  53  78 110 133 176 218 264 328
#
# _framework density 20.683968
#
# number of rings (size 3 to 8) (size 9 to 14) (size 15 to 20)
#    0.000    2.000    2.500    1.500   10.500    0.000 
#    0.000    0.000    0.000    0.000    0.000  122.500 
#    0.000    0.000    0.000    0.000    0.000    0.000 
#
# Total GULP energy -178226.210786 kJ/mol
# GULP energy per Si atom -5569.569087 kJ/mol
# Density = 2.063689 g / cm^3
# Si number density = 20.683968 Si / 1000 Ang^3
#
#
#
# Elastic Constant Matrix: (Units=GPa)
#
#
# Indices 1 2 3 4 5 6 
#
# 1 102.9171 10.4922 17.3517 0.0000 13.0080 0.0000
# 2 10.4922 44.2011 0.0402 0.0000 0.8875 0.0000
# 3 17.3517 0.0402 56.2246 0.0000 7.0769 0.0000
# 4 0.0000 0.0000 0.0000 21.1465 0.0000 10.8666
# 5 13.0080 0.8875 7.0769 0.0000 35.4761 0.0000
# 6 0.0000 0.0000 0.0000 10.8666 0.0000 30.2264
#
#
#
# Elastic Compliance Matrix: (Units=1/GPa)
#
#
# Indices 1 2 3 4 5 6 
#
# 1 0.010891 -0.002515 -0.002938 0.000000 -0.003344 0.000000
# 2 -0.002515 0.023216 0.000735 0.000000 0.000195 0.000000
# 3 -0.002938 0.000735 0.019037 0.000000 -0.002738 0.000000
# 4 0.000000 0.000000 0.000000 0.058005 0.000000 -0.020853
# 5 -0.003344 0.000195 -0.002738 0.000000 0.029956 0.000000
# 6 0.000000 0.000000 0.000000 -0.020853 0.000000 0.040580
#
#
# Mechanical properties :
#
#
# Convention : Reuss Voigt Hill
#
# Bulk Modulus (GPa) = 22.87964 28.79011 25.83487
# Shear Modulus (GPa) = 24.30822 29.06706 26.68764
#
# Velocity S-wave (km/s) = 3.43187 3.75279 3.59591
# Velocity P-wave (km/s) = 5.17583 5.72077 5.45511
#
# Compressibility (1/GPa) = 0.04370698
#
# Stress axis : x y z
#
# Youngs Moduli (GPa) = 91.81798 43.07298 52.52983
#
# Poissons Ratio (x) = 0.10835 0.15435
# Poissons Ratio (y) = 0.23096 -0.03862
# Poissons Ratio (z) = 0.26980 -0.03167
#
# Static dielectric constant tensor:
#      x y z
#    x 1.820920 0.000000 0.008400 
#    y 0.000000 1.828560 0.000000 
#    z 0.008400 0.000000 1.779730 
# 
# From -- ./inp_files/16769.got.cif
#   From: 2010.05.17/outbox.cif.g08.bks.cpg/sg14_9_cif.got.tgz:16769.got - 2010.06.03 17:49:19.
