data_PCOD9242656
_publ_section_title
;
Structure prediction by ZEFSAII (Michael W. Deem and Ramdas Pophale) SiO2 
 PCOD9242656
Probable space group: P 21/C
;
_chemical_formula_sum "Si O2"
_cell_formula_units_Z 32
_cell_length_a 6.862273
_cell_length_b 7.992132
_cell_length_c 28.539094
_cell_angle_alpha 90.000000
_cell_angle_beta 89.259858
_cell_angle_gamma 90.000000
_cell_volume 1565.072948
_symmetry_space_group_name_H-M "P 21/C"
_symmetry_group_IT_number 14
_symmetry_cell_setting 'monoclinic'
loop_
_space_group_symop_operation_xyz
x,y,z
-x,1/2+y,1/2-z
-x,-y,-z
x,1/2-y,1/2+z
loop_
_atom_site_type_symbol
_atom_site_label
_atom_site_fract_x
_atom_site_fract_y
_atom_site_fract_z
Si Si1 0.076001 0.635722 0.932932
Si Si2 0.042271 0.815965 0.841074
Si Si3 0.956006 0.822002 0.022673
Si Si4 0.195050 0.661561 0.096282
Si Si5 0.110751 0.959705 0.696775
Si Si6 0.630771 0.186565 0.232683
Si Si7 0.589261 0.603477 0.043787
Si Si8 0.779792 0.541588 0.270517
O O1 0.271109 0.525025 0.928211
O O2 0.065439 0.787353 0.896141
O O3 0.059211 0.695739 0.985938
O O4 0.896683 0.513142 0.922363
O O5 0.950828 0.641356 0.821851
O O6 0.900687 0.953253 0.818594
O O7 0.251629 0.833708 0.815969
O O8 0.734300 0.754206 0.027589
O O9 0.062922 0.801234 0.071904
O O10 0.000000 0.000000 0.000000
O O11 0.164862 0.650487 0.151696
O O12 0.414867 0.668990 0.076929
O O13 0.291298 0.953659 0.731504
O O14 0.929515 0.899686 0.729353
O O15 0.700123 0.360262 0.255811
O O16 0.404384 0.161984 0.226056
O O17 0.500000 0.500000 0.000000
#
# Coordination Sequence:
#
# PCOD9242656 Si02
#       8
#     4   4   4   4   4   4   4   4
#     4  10  20  37  59  82 113 151 195 237 284 347
#     4   9  20  36  56  82 109 148 193 234 281 336
#     4  11  23  37  55  87 123 152 183 240 299 345
#     4  10  20  38  61  83 110 153 200 237 282 352
#     4   9  20  36  58  81 110 147 190 237 282 333
#     4  10  20  35  55  82 112 148 191 232 285 340
#     4  11  19  38  64  84 110 152 202 240 285 345
#     4  10  20  36  56  81 116 149 185 236 285 339
#
# _framework density 20.446332999999999
#
# number of rings (size 3 to 8) (size 9 to 14) (size 15 to 20)
#    0.000    2.000    2.500    1.500    0.000    8.500 
#    0.000    1.250    0.000    0.000    0.000    0.000 
#    0.000    0.000    0.000    0.000    0.000    0.000 
#
# Total GULP energy -178568.783253 kJ/mol
# GULP energy per Si atom -5580.274477 kJ/mol
# Density = 2.039980 g / cm^3
# Si number density = 20.446333 Si / 1000 Ang^3
#
#
#
# Elastic Constant Matrix: (Units=GPa)
#
#
# Indices 1 2 3 4 5 6 
#
# 1 128.1614 22.8100 16.6210 0.0000 -4.8945 0.0000
# 2 22.8100 48.2816 -8.2022 0.0000 -9.8534 0.0000
# 3 16.6210 -8.2022 64.6803 0.0000 -3.0824 0.0000
# 4 0.0000 0.0000 0.0000 26.8535 0.0000 0.6474
# 5 -4.8945 -9.8534 -3.0824 0.0000 9.3425 0.0000
# 6 0.0000 0.0000 0.0000 0.6474 0.0000 18.1061
#
#
#
# Elastic Compliance Matrix: (Units=1/GPa)
#
#
# Indices 1 2 3 4 5 6 
#
# 1 0.009049 -0.005139 -0.003058 0.000000 -0.001688 0.000000
# 2 -0.005139 0.030829 0.006758 0.000000 0.032052 0.000000
# 3 -0.003058 0.006758 0.017644 0.000000 0.011347 0.000000
# 4 0.000000 0.000000 0.000000 0.037271 0.000000 -0.001333
# 5 -0.001688 0.032052 0.011347 0.000000 0.143703 0.000000
# 6 0.000000 0.000000 0.000000 -0.001333 0.000000 0.055278
#
#
# Mechanical properties :
#
#
# Convention : Reuss Voigt Hill
#
# Bulk Modulus (GPa) = 18.30022 33.73119 26.01571
# Shear Modulus (GPa) = 15.87969 24.85338 20.36654
#
# Velocity S-wave (km/s) = 2.78987 3.49025 3.15952
# Velocity P-wave (km/s) = 4.39860 5.72500 5.10506
#
# Compressibility (1/GPa) = 0.05464415
#
# Stress axis : x y z
#
# Youngs Moduli (GPa) = 110.50464 32.43687 56.67634
#
# Poissons Ratio (x) = 0.16670 0.17329
# Poissons Ratio (y) = 0.56791 -0.38300
# Poissons Ratio (z) = 0.33788 -0.21920
#
# Static dielectric constant tensor:
#      x y z
#    x 1.703570 0.000000 0.000740 
#    y 0.000000 1.787470 0.000000 
#    z 0.000740 0.000000 1.706170 
# 
# From -- ./inp_files/78700.got.cif
#   From: 2010.05.17/outbox.cif.g08.bks.cpg/sg14_40_cif.got.tgz:78700.got - 2010.06.03 17:49:19.
