data_PCOD9242655
_publ_section_title
;
Structure prediction by ZEFSAII (Michael W. Deem and Ramdas Pophale) SiO2 
 PCOD9242655
Probable space group: P 21/C
;
_chemical_formula_sum "Si O2"
_cell_formula_units_Z 32
_cell_length_a 17.374401
_cell_length_b 12.058782
_cell_length_c 7.232599
_cell_angle_alpha 90.000000
_cell_angle_beta 131.468280
_cell_angle_gamma 90.000000
_cell_volume 1135.471958
_symmetry_space_group_name_H-M "P 21/C"
_symmetry_group_IT_number 14
_symmetry_cell_setting 'monoclinic'
loop_
_space_group_symop_operation_xyz
x,y,z
-x,1/2+y,1/2-z
-x,-y,-z
x,1/2-y,1/2+z
loop_
_atom_site_type_symbol
_atom_site_label
_atom_site_fract_x
_atom_site_fract_y
_atom_site_fract_z
Si Si1 0.135490 0.152011 0.839916
Si Si2 0.385696 0.123640 0.904597
Si Si3 0.326718 0.124704 0.413341
Si Si4 0.673282 0.124705 0.586656
Si Si5 0.909951 0.887873 0.637720
Si Si6 0.614304 0.123639 0.095399
Si Si7 0.090047 0.612127 0.862282
Si Si8 0.135489 0.652010 0.339919
O O1 0.114127 0.281666 0.784795
O O2 0.149764 0.113918 0.652790
O O3 0.028451 0.114025 0.758642
O O4 0.231010 0.127972 0.121775
O O5 0.311126 0.120796 0.608562
O O6 0.374444 0.248803 0.970109
O O7 0.375288 0.000001 0.983340
O O8 0.500000 0.122553 0.999999
O O9 0.376865 0.999999 0.455970
O O10 0.688874 0.120796 0.391434
O O11 0.625556 0.251198 0.529887
O O12 0.768991 0.127973 0.878222
O O13 0.028449 0.885974 0.758644
O O14 0.891917 0.000001 0.715495
O O15 0.149762 0.613917 0.152793
O O16 0.114125 0.718334 0.784799
#
# Coordination Sequence:
#
# PCOD9242655 Si02
#       8
#     4   4   4   4   4   4   4   4
#     4  10  20  35  55  81 109 144 185 224 269 320
#     4  10  23  41  59  83 114 145 181 230 283 334
#     4  11  22  37  60  86 112 145 187 230 275 331
#     4  11  22  37  60  86 112 145 187 230 275 331
#     4  10  20  36  54  75 112 149 180 223 270 317
#     4  10  23  41  59  83 114 145 181 230 283 334
#     4  10  20  36  54  75 112 149 180 223 270 317
#     4  10  20  35  55  81 109 144 185 224 269 320
#
# _framework density 28.182113999999999
#
# number of rings (size 3 to 8) (size 9 to 14) (size 15 to 20)
#    0.000    1.750    0.000    5.250    0.000    2.500 
#    0.000   12.500    0.000    0.000    0.000    0.000 
#    0.000    0.000    0.000    0.000    0.000    0.000 
#
# Total GULP energy -178900.743084 kJ/mol
# GULP energy per Si atom -5590.648221 kJ/mol
# Density = 2.811797 g / cm^3
# Si number density = 28.182114 Si / 1000 Ang^3
#
#
#
# Elastic Constant Matrix: (Units=GPa)
#
#
# Indices 1 2 3 4 5 6 
#
# 1 69.9732 57.0758 20.4996 0.0000 -0.5753 0.0000
# 2 57.0758 386.7658 3.6248 0.0000 -5.1187 0.0000
# 3 20.4996 3.6248 122.9944 0.0000 -7.2348 0.0000
# 4 0.0000 0.0000 0.0000 1.3567 0.0000 -17.6545
# 5 -0.5753 -5.1187 -7.2348 0.0000 43.1990 0.0000
# 6 0.0000 0.0000 0.0000 -17.6545 0.0000 43.0241
#
#
#
# Elastic Compliance Matrix: (Units=1/GPa)
#
#
# Indices 1 2 3 4 5 6 
#
# 1 0.017163 -0.002513 -0.002818 0.000000 -0.000541 0.000000
# 2 -0.002513 0.002958 0.000354 0.000000 0.000376 0.000000
# 3 -0.002818 0.000354 0.008675 0.000000 0.001457 0.000000
# 4 0.000000 0.000000 0.000000 -0.169848 0.000000 -0.069695
# 5 -0.000541 0.000376 0.001457 0.000000 0.023430 0.000000
# 6 0.000000 0.000000 0.000000 -0.069695 0.000000 -0.005356
#
#
# Mechanical properties :
#
#
# Convention : Reuss Voigt Hill
#
# Bulk Modulus (GPa) = 53.07726 82.45930 67.76828
# Shear Modulus (GPa) = -46.84193 50.75152 1.95480
#
# Velocity S-wave (km/s) = -4.08133 4.24824 0.83375
# Velocity P-wave (km/s) = 1.82622 7.30659 5.00256
#
# Compressibility (1/GPa) = 0.01884046
#
# Stress axis : x y z
#
# Youngs Moduli (GPa) = 58.26633 338.05199 115.26756
#
# Poissons Ratio (x) = 0.84968 0.32485
# Poissons Ratio (y) = 0.14645 -0.04079
# Poissons Ratio (z) = 0.16421 -0.11963
#
# Static dielectric constant tensor:
#      x y z
#    x 2.236140 0.000000 0.148420 
#    y 0.000000 2.234230 0.000000 
#    z 0.148420 0.000000 2.202700 
# 
# From -- ./inp_files/19494.got.cif
#   From: 2010.05.17/outbox.cif.g08.bks.cpg/sg14_10_cif.got.tgz:19494.got - 2010.06.03 17:49:19.
