data_PCOD9242808
_publ_section_title
;
Structure prediction by ZEFSAII (Michael W. Deem and Ramdas Pophale) SiO2 
 PCOD9242808
Probable space group: P 21/C
;
_chemical_formula_sum "Si O2"
_cell_formula_units_Z 32
_cell_length_a 20.219699
_cell_length_b 8.446537
_cell_length_c 9.171833
_cell_angle_alpha 90.000000
_cell_angle_beta 76.868893
_cell_angle_gamma 90.000000
_cell_volume 1525.467002
_symmetry_space_group_name_H-M "P 21/C"
_symmetry_group_IT_number 14
_symmetry_cell_setting 'monoclinic'
loop_
_space_group_symop_operation_xyz
x,y,z
-x,1/2+y,1/2-z
-x,-y,-z
x,1/2-y,1/2+z
loop_
_atom_site_type_symbol
_atom_site_label
_atom_site_fract_x
_atom_site_fract_y
_atom_site_fract_z
Si Si1 0.162375 0.321314 0.637124
Si Si2 0.903823 0.232486 0.556160
Si Si3 0.252153 0.211696 0.338693
Si Si4 0.531544 0.868813 0.091764
Si Si5 0.555729 0.072327 0.363302
Si Si6 0.123124 0.538162 0.196893
Si Si7 0.654805 0.871315 0.450498
Si Si8 0.965126 0.041301 0.792432
O O1 0.206957 0.321013 0.468726
O O2 0.202588 0.387914 0.757233
O O3 0.090213 0.404104 0.654998
O O4 0.152153 0.136440 0.678623
O O5 0.862848 0.128624 0.460600
O O6 0.859097 0.351929 0.675332
O O7 0.944494 0.125394 0.651135
O O8 0.954498 0.336057 0.430095
O O9 0.298046 0.308267 0.202637
O O10 0.302138 0.120481 0.423119
O O11 0.470533 0.746858 0.159588
O O12 0.556605 0.963477 0.220133
O O13 0.594051 0.759546 0.002449
O O14 0.500000 0.000000 0.000000
O O15 0.500000 0.000000 0.500000
O O16 0.624479 0.039275 0.416323
O O17 0.041339 0.518561 0.247007
#
# Coordination Sequence:
#
# PCOD9242808 Si02
#       8
#     4   4   4   4   4   4   4   4
#     4  11  22  39  66  92 113 162 227 255 305 409
#     4  10  22  35  54  82 119 156 172 243 332 377
#     4  10  22  38  62  90 120 169 224 257 298 370
#     4  11  22  37  64 103 134 168 209 261 318 358
#     4  10  20  35  61  97 134 170 207 260 312 357
#     4  11  22  38  59  90 123 152 199 262 331 389
#     4  10  20  40  62  90 129 171 210 262 313 358
#     4  11  22  38  59  90 121 154 198 264 331 386
#
# _framework density 20.977183
#
# number of rings (size 3 to 8) (size 9 to 14) (size 15 to 20)
#    0.000    1.500    1.250    5.250    1.750    2.000 
#    0.000    0.000    0.000   30.000    0.000    0.000 
#    0.000    0.000    0.000    0.000    0.000    0.000 
#
# Total GULP energy -178763.395254 kJ/mol
# GULP energy per Si atom -5586.356102 kJ/mol
# Density = 2.092944 g / cm^3
# Si number density = 20.977183 Si / 1000 Ang^3
#
#
#
# Elastic Constant Matrix: (Units=GPa)
#
#
# Indices 1 2 3 4 5 6 
#
# 1 83.7282 18.2732 26.4989 0.0000 -2.7307 0.0000
# 2 18.2732 86.5673 25.5162 0.0000 -4.0517 0.0000
# 3 26.4989 25.5162 128.1694 0.0000 4.1204 0.0000
# 4 0.0000 0.0000 0.0000 34.2605 0.0000 5.1937
# 5 -2.7307 -4.0517 4.1204 0.0000 27.5069 0.0000
# 6 0.0000 0.0000 0.0000 5.1937 0.0000 22.6904
#
#
#
# Elastic Compliance Matrix: (Units=1/GPa)
#
#
# Indices 1 2 3 4 5 6 
#
# 1 0.013178 -0.002020 -0.002366 0.000000 0.001365 0.000000
# 2 -0.002020 0.012714 -0.002178 0.000000 0.001998 0.000000
# 3 -0.002366 -0.002178 0.008785 0.000000 -0.001872 0.000000
# 4 0.000000 0.000000 0.000000 0.030237 0.000000 -0.006921
# 5 0.001365 0.001998 -0.001872 0.000000 0.037065 0.000000
# 6 0.000000 0.000000 0.000000 -0.006921 0.000000 0.045656
#
#
# Mechanical properties :
#
#
# Convention : Reuss Voigt Hill
#
# Bulk Modulus (GPa) = 46.40752 48.78237 47.59495
# Shear Modulus (GPa) = 29.77168 32.10334 30.93751
#
# Velocity S-wave (km/s) = 3.77137 3.91627 3.84450
# Velocity P-wave (km/s) = 6.41367 6.61476 6.51499
#
# Compressibility (1/GPa) = 0.02154823
#
# Stress axis : x y z
#
# Youngs Moduli (GPa) = 75.88575 78.65625 113.82962
#
# Poissons Ratio (x) = 0.15891 0.26934
# Poissons Ratio (y) = 0.15331 0.24787
# Poissons Ratio (z) = 0.17956 0.17128
#
# Static dielectric constant tensor:
#      x y z
#    x 1.784170 0.000000 0.026420 
#    y 0.000000 1.766530 0.000000 
#    z 0.026420 0.000000 1.769390 
# 
# From -- ./inp_files/18610.got.cif
#   From: 2010.05.17/outbox.cif.g08.bks.cpg/sg14_10_cif.got.tgz:18610.got - 2010.06.03 17:49:19.
