data_PCOD9242840
_publ_section_title
;
Structure prediction by ZEFSAII (Michael W. Deem and Ramdas Pophale) SiO2 
 PCOD9242840
Probable space group: P 21/C
;
_chemical_formula_sum "Si O2"
_cell_formula_units_Z 32
_cell_length_a 12.241402
_cell_length_b 17.739691
_cell_length_c 9.383452
_cell_angle_alpha 90.000000
_cell_angle_beta 128.182518
_cell_angle_gamma 90.000000
_cell_volume 1601.723539
_symmetry_space_group_name_H-M "P 21/C"
_symmetry_group_IT_number 14
_symmetry_cell_setting 'monoclinic'
loop_
_space_group_symop_operation_xyz
x,y,z
-x,1/2+y,1/2-z
-x,-y,-z
x,1/2-y,1/2+z
loop_
_atom_site_type_symbol
_atom_site_label
_atom_site_fract_x
_atom_site_fract_y
_atom_site_fract_z
Si Si1 0.863494 0.008595 0.486295
Si Si2 0.169445 0.817062 0.581306
Si Si3 0.991536 0.244023 0.283632
Si Si4 0.627384 0.558222 0.594161
Si Si5 0.760955 0.645443 0.453983
Si Si6 0.433608 0.210542 0.626480
Si Si7 0.561250 0.298697 0.504150
Si Si8 0.810652 0.886584 0.665928
O O1 0.740875 0.971682 0.294885
O O2 0.864495 0.963175 0.636058
O O3 0.840876 0.097442 0.480606
O O4 0.000000 0.000000 0.500000
O O5 0.141149 0.767085 0.418218
O O6 0.050795 0.789633 0.597169
O O7 0.306871 0.814425 0.790817
O O8 0.092521 0.316650 0.380310
O O9 0.076783 0.178643 0.273258
O O10 0.500000 0.500000 0.500000
O O11 0.706129 0.577686 0.509726
O O12 0.555296 0.637192 0.571317
O O13 0.655042 0.716692 0.390011
O O14 0.777215 0.615778 0.306348
O O15 0.492753 0.225072 0.517548
O O16 0.327954 0.141606 0.528246
O O17 0.564613 0.204487 0.837285
#
# Coordination Sequence:
#
# PCOD9242840 Si02
#       8
#     4   4   4   4   4   4   4   4
#     4  12  24  41  68  98 132 182 226 272 340 409
#     4  12  24  41  65  96 136 172 220 282 341 399
#     4  11  23  41  65  99 131 174 227 279 338 393
#     4  11  23  43  67  95 133 180 222 268 339 416
#     4  10  22  39  68  94 128 174 229 279 324 400
#     4  10  20  35  64  98 125 168 227 274 328 388
#     4  11  21  38  64  93 133 171 222 276 333 400
#     4  11  21  40  66  97 132 172 228 281 327 400
#
# _framework density 19.978477999999999
#
# number of rings (size 3 to 8) (size 9 to 14) (size 15 to 20)
#    0.000    1.000    6.250    1.500    0.000    0.000 
#    0.000    4.375    2.750    0.000    0.000    0.000 
#    0.000    0.000    0.000    0.000    0.000    0.000 
#
# Total GULP energy -178396.979753 kJ/mol
# GULP energy per Si atom -5574.905617 kJ/mol
# Density = 1.993301 g / cm^3
# Si number density = 19.978478 Si / 1000 Ang^3
#
#
#
# Elastic Constant Matrix: (Units=GPa)
#
#
# Indices 1 2 3 4 5 6 
#
# 1 53.5867 32.7442 22.5290 0.0000 -6.4303 0.0000
# 2 32.7442 80.9107 33.3936 0.0000 -8.2716 0.0000
# 3 22.5290 33.3936 111.7153 0.0000 1.1827 0.0000
# 4 0.0000 0.0000 0.0000 24.3466 0.0000 -1.6269
# 5 -6.4303 -8.2716 1.1827 0.0000 49.6140 0.0000
# 6 0.0000 0.0000 0.0000 -1.6269 0.0000 34.3485
#
#
#
# Elastic Compliance Matrix: (Units=1/GPa)
#
#
# Indices 1 2 3 4 5 6 
#
# 1 0.025476 -0.009119 -0.002431 0.000000 0.001840 0.000000
# 2 -0.009119 0.017667 -0.003462 0.000000 0.001846 0.000000
# 3 -0.002431 -0.003462 0.010488 0.000000 -0.001142 0.000000
# 4 0.000000 0.000000 0.000000 0.041204 0.000000 0.001952
# 5 0.001840 0.001846 -0.001142 0.000000 0.020729 0.000000
# 6 0.000000 0.000000 0.000000 0.001952 0.000000 0.029206
#
#
# Mechanical properties :
#
#
# Convention : Reuss Voigt Hill
#
# Bulk Modulus (GPa) = 42.35765 47.06069 44.70917
# Shear Modulus (GPa) = 27.37279 32.16486 29.76883
#
# Velocity S-wave (km/s) = 3.70552 4.01680 3.86430
# Velocity P-wave (km/s) = 6.28932 6.71713 6.50674
#
# Compressibility (1/GPa) = 0.02360849
#
# Stress axis : x y z
#
# Youngs Moduli (GPa) = 39.25225 56.60286 95.34260
#
# Poissons Ratio (x) = 0.51614 0.23182
# Poissons Ratio (y) = 0.35792 0.33004
# Poissons Ratio (z) = 0.09544 0.19594
#
# Static dielectric constant tensor:
#      x y z
#    x 1.663280 0.000000 -0.062500 
#    y 0.000000 1.779390 0.000000 
#    z -0.062500 0.000000 1.646100 
# 
# From -- ./inp_files/13907.got.cif
#   From: 2010.05.17/outbox.cif.g08.bks.cpg/sg14_7_cif.got.tgz:13907.got - 2010.06.03 17:49:19.
