data_PCOD9242300
_publ_section_title
;
Structure prediction by ZEFSAII (Michael W. Deem and Ramdas Pophale) SiO2 
 PCOD9242300
Probable space group: P 21/C
;
_chemical_formula_sum "Si O2"
_cell_formula_units_Z 28
_cell_length_a 18.186740
_cell_length_b 12.645276
_cell_length_c 13.581382
_cell_angle_alpha 90.000000
_cell_angle_beta 22.896471
_cell_angle_gamma 90.000000
_cell_volume 1215.211211
_symmetry_space_group_name_H-M "P 21/C"
_symmetry_group_IT_number 14
_symmetry_cell_setting 'monoclinic'
loop_
_space_group_symop_operation_xyz
x,y,z
-x,1/2+y,1/2-z
-x,-y,-z
x,1/2-y,1/2+z
loop_
_atom_site_type_symbol
_atom_site_label
_atom_site_fract_x
_atom_site_fract_y
_atom_site_fract_z
Si Si1 0.180521 0.058163 0.829918
Si Si2 0.061696 0.921486 0.282794
Si Si3 0.663335 0.473765 0.220592
Si Si4 0.616785 0.419392 0.062011
Si Si5 0.070595 0.727825 0.395365
Si Si6 0.144016 0.746528 0.521701
Si Si7 0.219521 0.383050 0.505087
O O1 0.191448 0.059189 0.934086
O O2 0.353318 0.004075 0.562142
O O3 0.139145 0.180513 0.855528
O O4 0.000000 0.000000 0.000000
O O5 0.069430 0.850636 0.370794
O O6 0.162754 0.846046 0.077409
O O7 0.848799 0.954925 0.514446
O O8 0.170452 0.031402 0.149253
O O9 0.500000 0.500000 0.500000
O O10 0.605558 0.483628 0.177441
O O11 0.723052 0.349516 0.148415
O O12 0.433493 0.351899 0.260632
O O13 0.795582 0.339382 0.843320
O O14 0.148120 0.701760 0.406782
O O15 0.932629 0.791092 0.801476
#
# Coordination Sequence:
#
# PCOD9242300 Si02
#       7
#     4   4   4   4   4   4   4
#     4  10  19  42  67  92 125 172 215 267 331 387
#     4  11  22  45  65  94 130 180 222 264 346 401
#     4  11  26  44  67  95 138 177 221 286 337 394
#     4  11  23  44  64  99 131 168 226 275 334 390
#     4  11  22  40  69  92 127 174 219 270 326 407
#     4  11  23  44  66  95 133 174 224 270 336 407
#     4  11  24  40  68  98 135 169 217 283 331 392
#
# _framework density 23.041260999999999
#
# number of rings (size 3 to 8) (size 9 to 14) (size 15 to 20)
#    0.000    1.143    2.857    5.571    4.000    2.286 
#    5.143    0.000    0.000    0.000    0.000    0.000 
#    0.000    0.000    0.000    0.000    0.000    0.000 
#
# Total GULP energy -156375.438079 kJ/mol
# GULP energy per Si atom -5584.837074 kJ/mol
# Density = 2.298882 g / cm^3
# Si number density = 23.041261 Si / 1000 Ang^3
#
#
#
# Elastic Constant Matrix: (Units=GPa)
#
#
# Indices 1 2 3 4 5 6 
#
# 1 51.7160 -9.9299 25.7816 0.0000 15.1318 0.0000
# 2 -9.9299 45.1004 -0.2362 0.0000 10.0664 0.0000
# 3 25.7816 -0.2362 74.4303 0.0000 10.9575 0.0000
# 4 0.0000 0.0000 0.0000 12.5653 0.0000 12.4263
# 5 15.1318 10.0664 10.9575 0.0000 40.9789 0.0000
# 6 0.0000 0.0000 0.0000 12.4263 0.0000 28.6350
#
#
#
# Elastic Compliance Matrix: (Units=1/GPa)
#
#
# Indices 1 2 3 4 5 6 
#
# 1 0.028017 0.008408 -0.008173 0.000000 -0.010226 0.000000
# 2 0.008408 0.026049 -0.001489 0.000000 -0.009105 0.000000
# 3 -0.008173 -0.001489 0.016409 0.000000 -0.001004 0.000000
# 4 0.000000 0.000000 0.000000 0.139414 0.000000 -0.060500
# 5 -0.010226 -0.009105 -0.001004 0.000000 0.030684 0.000000
# 6 0.000000 0.000000 0.000000 -0.060500 0.000000 0.061177
#
#
# Mechanical properties :
#
#
# Convention : Reuss Voigt Hill
#
# Bulk Modulus (GPa) = 14.71296 22.49753 18.60525
# Shear Modulus (GPa) = 15.29459 26.81126 21.05292
#
# Velocity S-wave (km/s) = 2.57921 3.41489 3.02604
# Velocity P-wave (km/s) = 3.90757 5.03327 4.50571
#
# Compressibility (1/GPa) = 0.06796727
#
# Stress axis : x y z
#
# Youngs Moduli (GPa) = 35.69264 38.38991 60.94082
#
# Poissons Ratio (x) = -0.32279 0.49805
# Poissons Ratio (y) = -0.30011 0.09076
# Poissons Ratio (z) = 0.29170 0.05718
#
# Static dielectric constant tensor:
#      x y z
#    x 1.901290 0.000000 0.017700 
#    y 0.000000 1.877430 0.000000 
#    z 0.017700 0.000000 1.882250 
# 
# From -- ./inp_files/50564.got.cif
#   From: 2010.05.17/outbox.cif.g08.bks.cpg/sg14_26_cif.got.tgz:50564.got - 2010.06.03 17:49:19.
