data_PCOD9242036
_publ_section_title
;
Structure prediction by ZEFSAII (Michael W. Deem and Ramdas Pophale) SiO2 
 PCOD9242036
Probable space group: P 21/C
;
_chemical_formula_sum "Si O2"
_cell_formula_units_Z 30
_cell_length_a 7.888791
_cell_length_b 21.655206
_cell_length_c 12.433401
_cell_angle_alpha 90.000000
_cell_angle_beta 36.338002
_cell_angle_gamma 90.000000
_cell_volume 1258.594836
_symmetry_space_group_name_H-M "P 21/C"
_symmetry_group_IT_number 14
_symmetry_cell_setting 'monoclinic'
loop_
_space_group_symop_operation_xyz
x,y,z
-x,1/2+y,1/2-z
-x,-y,-z
x,1/2-y,1/2+z
loop_
_atom_site_type_symbol
_atom_site_label
_atom_site_fract_x
_atom_site_fract_y
_atom_site_fract_z
Si Si1 0.086291 0.827159 0.250733
Si Si2 0.066799 0.671397 0.017483
Si Si3 0.492464 0.226509 0.230932
Si Si4 0.958201 0.959082 0.223766
Si Si5 0.801070 0.124399 0.219742
Si Si6 0.000000 0.500000 0.500000
Si Si7 0.721899 0.712195 0.451468
Si Si8 0.351267 0.561153 0.993221
O O1 0.054012 0.835989 0.395292
O O2 0.041845 0.891490 0.214734
O O3 0.860197 0.774650 0.334243
O O4 0.406577 0.802841 0.073331
O O5 0.745226 0.689551 0.214477
O O6 0.197913 0.609136 0.996134
O O7 0.275398 0.728346 0.939476
O O8 0.319139 0.271805 0.399755
O O9 0.650979 0.177625 0.227360
O O10 0.671082 0.957870 0.290680
O O11 0.849861 0.003198 0.374701
O O12 0.169002 0.990549 0.032576
O O13 0.601551 0.094698 0.414923
O O14 0.055191 0.156215 0.158342
O O15 0.903167 0.070491 0.089508
#
# Coordination Sequence:
#
# PCOD9242036 Si02
#       8
#     4   4   4   4   4   2   4   4
#     4  10  21  40  69  99 134 175 220 276 341 399
#     4  10  21  39  63 101 132 175 218 284 336 406
#     4  10  19  39  64  93 135 173 220 271 343 397
#     4  10  23  46  69  96 129 185 228 275 341 402
#     4  11  21  45  65  93 137 179 226 275 339 401
#     4  10  26  44  70  92 132 186 226 276 332 408
#     4  10  19  38  68  94 137 171 214 285 334 395
#     4  10  23  42  67  95 133 177 227 277 337 400
#
# _framework density 23.836106999999998
#
# number of rings (size 3 to 8) (size 9 to 14) (size 15 to 20)
#    0.000    1.867    4.000    1.600    3.733    0.533 
#   12.000    1.333    0.000    0.000    0.000    0.000 
#    0.000    0.000    0.000    0.000    0.000    0.000 
#
# Total GULP energy -167353.388560 kJ/mol
# GULP energy per Si atom -5578.446285 kJ/mol
# Density = 2.378185 g / cm^3
# Si number density = 23.836107 Si / 1000 Ang^3
#
#
#
# Elastic Constant Matrix: (Units=GPa)
#
#
# Indices 1 2 3 4 5 6 
#
# 1 69.5261 49.8427 11.1235 0.0000 -18.3029 0.0000
# 2 49.8427 129.3855 10.4529 0.0000 -23.0956 0.0000
# 3 11.1235 10.4529 42.0613 0.0000 -9.2718 0.0000
# 4 0.0000 0.0000 0.0000 9.0049 0.0000 6.5780
# 5 -18.3029 -23.0956 -9.2718 0.0000 41.3405 0.0000
# 6 0.0000 0.0000 0.0000 6.5780 0.0000 69.6531
#
#
#
# Elastic Compliance Matrix: (Units=1/GPa)
#
#
# Indices 1 2 3 4 5 6 
#
# 1 0.021159 -0.007071 -0.002782 0.000000 0.004794 0.000000
# 2 -0.007071 0.010999 -0.000209 0.000000 0.002968 0.000000
# 3 -0.002782 -0.000209 0.025527 0.000000 0.004377 0.000000
# 4 0.000000 0.000000 0.000000 0.119280 0.000000 -0.011265
# 5 0.004794 0.002968 0.004377 0.000000 0.028951 0.000000
# 6 0.000000 0.000000 0.000000 -0.011265 0.000000 0.015421
#
#
# Mechanical properties :
#
#
# Convention : Reuss Voigt Hill
#
# Bulk Modulus (GPa) = 26.62271 42.64567 34.63419
# Shear Modulus (GPa) = 19.68647 35.30328 27.49487
#
# Velocity S-wave (km/s) = 2.87698 3.85266 3.40000
# Velocity P-wave (km/s) = 4.71480 6.14172 5.47495
#
# Compressibility (1/GPa) = 0.03756192
#
# Stress axis : x y z
#
# Youngs Moduli (GPa) = 47.26132 90.91542 39.17371
#
# Poissons Ratio (x) = 0.64282 0.10897
# Poissons Ratio (y) = 0.33416 0.00820
# Poissons Ratio (z) = 0.13147 0.01904
#
# Static dielectric constant tensor:
#      x y z
#    x 1.819940 0.000000 -0.236290 
#    y 0.000000 1.814490 0.000000 
#    z -0.236290 0.000000 1.303830 
# 
# From -- ./inp_files/42108.got.cif
#   From: 2010.05.17/outbox.cif.g08.bks.cpg/sg14_22_cif.got.tgz:42108.got - 2010.06.03 17:49:19.
