data_PCOD9242212
_publ_section_title
;
Structure prediction by ZEFSAII (Michael W. Deem and Ramdas Pophale) SiO2 
 PCOD9242212
Probable space group: P 21/C
;
_chemical_formula_sum "Si O2"
_cell_formula_units_Z 32
_cell_length_a 8.869099
_cell_length_b 21.498472
_cell_length_c 17.477687
_cell_angle_alpha 90.000000
_cell_angle_beta 29.342304
_cell_angle_gamma 90.000000
_cell_volume 1633.015698
_symmetry_space_group_name_H-M "P 21/C"
_symmetry_group_IT_number 14
_symmetry_cell_setting 'monoclinic'
loop_
_space_group_symop_operation_xyz
x,y,z
-x,1/2+y,1/2-z
-x,-y,-z
x,1/2-y,1/2+z
loop_
_atom_site_type_symbol
_atom_site_label
_atom_site_fract_x
_atom_site_fract_y
_atom_site_fract_z
Si Si1 0.188674 0.520524 0.844010
Si Si2 0.067548 0.949104 0.780948
Si Si3 0.014545 0.807417 0.508621
Si Si4 0.306037 0.410185 0.158584
Si Si5 0.978542 0.593052 0.157259
Si Si6 0.174014 0.060133 0.953025
Si Si7 0.246919 0.326055 0.332245
Si Si8 0.709739 0.882596 0.505945
O O1 0.257124 0.459227 0.766319
O O2 0.494077 0.554344 0.731965
O O3 0.000000 0.500000 0.000000
O O4 0.978473 0.566813 0.890917
O O5 0.387473 0.917088 0.667805
O O6 0.955991 0.907973 0.758524
O O7 0.135467 0.022247 0.731911
O O8 0.827083 0.944814 0.955742
O O9 0.946933 0.850469 0.612905
O O10 0.917112 0.739411 0.579928
O O11 0.815449 0.831968 0.522868
O O12 0.380863 0.813622 0.327179
O O13 0.202296 0.363764 0.271962
O O14 0.304669 0.371329 0.079208
O O15 0.665288 0.428197 0.011898
O O16 0.084963 0.128196 0.965525
O O17 0.000000 0.000000 0.000000
#
# Coordination Sequence:
#
# PCOD9242212 Si02
#       8
#     4   4   4   4   4   4   4   4
#     4  12  19  35  64  93 121 163 208 255 312 382
#     4  11  21  37  65 101 132 154 199 267 335 366
#     4  11  25  43  65  88 124 177 218 255 306 393
#     4  10  19  40  65  96 127 158 200 268 319 376
#     4  10  20  37  65  93 127 165 207 247 317 390
#     4  12  25  38  62  97 132 159 208 280 321 365
#     4  11  25  45  61  86 127 169 218 257 316 377
#     4  11  20  38  69  93 121 168 209 248 315 387
#
# _framework density 19.595648000000001
#
# number of rings (size 3 to 8) (size 9 to 14) (size 15 to 20)
#    0.000    1.000    6.250    2.250    1.750    0.500 
#    2.250    1.250    0.000    0.000    0.000    0.000 
#    0.000    0.000    0.000    0.000    0.000    0.000 
#
# Total GULP energy -178221.182393 kJ/mol
# GULP energy per Si atom -5569.411950 kJ/mol
# Density = 1.955105 g / cm^3
# Si number density = 19.595648 Si / 1000 Ang^3
#
#
#
# Elastic Constant Matrix: (Units=GPa)
#
#
# Indices 1 2 3 4 5 6 
#
# 1 91.1951 35.8578 20.3940 0.0000 23.8049 0.0000
# 2 35.8578 113.3629 21.6505 0.0000 11.3139 0.0000
# 3 20.3940 21.6505 51.5623 0.0000 22.2623 0.0000
# 4 0.0000 0.0000 0.0000 28.1022 0.0000 -0.2123
# 5 23.8049 11.3139 22.2623 0.0000 33.9419 0.0000
# 6 0.0000 0.0000 0.0000 -0.2123 0.0000 16.0785
#
#
#
# Elastic Compliance Matrix: (Units=1/GPa)
#
#
# Indices 1 2 3 4 5 6 
#
# 1 0.014848 -0.003720 -0.000488 0.000000 -0.008854 0.000000
# 2 -0.003720 0.010537 -0.003576 0.000000 0.001442 0.000000
# 3 -0.000488 -0.003576 0.028496 0.000000 -0.017156 0.000000
# 4 0.000000 0.000000 0.000000 0.035588 0.000000 0.000470
# 5 -0.008854 0.001442 -0.017156 0.000000 0.046443 0.000000
# 6 0.000000 0.000000 0.000000 0.000470 0.000000 0.062201
#
#
# Mechanical properties :
#
#
# Convention : Reuss Voigt Hill
#
# Bulk Modulus (GPa) = 26.10056 45.76941 35.93498
# Shear Modulus (GPa) = 22.07979 27.50573 24.79276
#
# Velocity S-wave (km/s) = 3.36038 3.75062 3.56085
# Velocity P-wave (km/s) = 5.32961 6.49337 5.94005
#
# Compressibility (1/GPa) = 0.03831336
#
# Stress axis : x y z
#
# Youngs Moduli (GPa) = 67.34728 94.90536 35.09318
#
# Poissons Ratio (x) = 0.35303 0.01714
# Poissons Ratio (y) = 0.25052 0.12548
# Poissons Ratio (z) = 0.03289 0.33934
#
# Static dielectric constant tensor:
#      x y z
#    x 1.754570 0.000000 0.001890 
#    y 0.000000 1.694760 0.000000 
#    z 0.001890 0.000000 1.726240 
# 
# From -- ./inp_files/56259.got.cif
#   From: 2010.05.17/outbox.cif.g08.bks.cpg/sg14_29_cif.got.tgz:56259.got - 2010.06.03 17:49:19.
