data_PCOD9242988
_publ_section_title
;
Structure prediction by ZEFSAII (Michael W. Deem and Ramdas Pophale) SiO2 
 PCOD9242988
Probable space group: P 21/C
;
_chemical_formula_sum "Si O2"
_cell_formula_units_Z 20
_cell_length_a 12.745247
_cell_length_b 7.131647
_cell_length_c 13.943750
_cell_angle_alpha 90.000000
_cell_angle_beta 34.429423
_cell_angle_gamma 90.000000
_cell_volume 716.582674
_symmetry_space_group_name_H-M "P 21/C"
_symmetry_group_IT_number 14
_symmetry_cell_setting 'monoclinic'
loop_
_space_group_symop_operation_xyz
x,y,z
-x,1/2+y,1/2-z
-x,-y,-z
x,1/2-y,1/2+z
loop_
_atom_site_type_symbol
_atom_site_label
_atom_site_fract_x
_atom_site_fract_y
_atom_site_fract_z
Si Si1 0.927600 0.565628 0.220615
Si Si2 0.777468 0.145032 0.335499
Si Si3 0.362287 0.221955 0.921186
Si Si4 0.267513 0.536603 0.848691
Si Si5 0.345321 0.354314 0.227043
O O1 0.068899 0.566229 0.206982
O O2 0.854438 0.353913 0.254454
O O3 0.762274 0.681591 0.394214
O O4 0.074540 0.621946 0.026960
O O5 0.565324 0.162521 0.535933
O O6 0.755478 0.003175 0.263640
O O7 0.571493 0.181430 0.794466
O O8 0.337647 0.420816 0.889783
O O9 0.312163 0.098261 0.864791
O O10 0.270440 0.360767 0.773586
#
# Coordination Sequence:
#
# PCOD9242988 Si02
#       5
#     4   4   4   4   4
#     4  12  20  34  60  88 114 154 202 232 296 350
#     4  11  21  37  65  87 117 157 203 242 291 359
#     4  10  20  36  59  86 118 155 192 246 291 349
#     4  10  20  36  59  86 118 155 192 246 291 349
#     4   9  21  39  61  85 119 160 196 241 293 353
#
# _framework density 27.910246999999998
#
# number of rings (size 3 to 8) (size 9 to 14) (size 15 to 20)
#    1.200    0.400    6.000    0.000    0.000    3.200 
#    0.000    0.000    4.400    7.200    0.000    0.000 
#    0.000    0.000    0.000    0.000    0.000    0.000 
#
# Total GULP energy -111925.635576 kJ/mol
# GULP energy per Si atom -5596.281779 kJ/mol
# Density = 2.784672 g / cm^3
# Si number density = 27.910247 Si / 1000 Ang^3
#
#
#
# Elastic Constant Matrix: (Units=GPa)
#
#
# Indices 1 2 3 4 5 6 
#
# 1 67.2924 13.7222 57.4289 0.0000 4.7400 0.0000
# 2 13.7222 91.2279 25.3992 0.0000 -4.2472 0.0000
# 3 57.4289 25.3992 191.2546 0.0000 -8.3777 0.0000
# 4 0.0000 0.0000 0.0000 40.4835 0.0000 -7.4292
# 5 4.7400 -4.2472 -8.3777 0.0000 60.0094 0.0000
# 6 0.0000 0.0000 0.0000 -7.4292 0.0000 61.7909
#
#
#
# Elastic Compliance Matrix: (Units=1/GPa)
#
#
# Indices 1 2 3 4 5 6 
#
# 1 0.020539 -0.001517 -0.006079 0.000000 -0.002578 0.000000
# 2 -0.001517 0.011516 -0.001039 0.000000 0.000790 0.000000
# 3 -0.006079 -0.001039 0.007254 0.000000 0.001419 0.000000
# 4 0.000000 0.000000 0.000000 0.025259 0.000000 0.003037
# 5 -0.002578 0.000790 0.001419 0.000000 0.017122 0.000000
# 6 0.000000 0.000000 0.000000 0.003037 0.000000 0.016549
#
#
# Mechanical properties :
#
#
# Convention : Reuss Voigt Hill
#
# Bulk Modulus (GPa) = 45.37405 60.31949 52.84677
# Shear Modulus (GPa) = 40.69823 49.33838 45.01831
#
# Velocity S-wave (km/s) = 3.82276 4.20902 4.02053
# Velocity P-wave (km/s) = 5.98139 6.72905 6.36620
#
# Compressibility (1/GPa) = 0.02203903
#
# Stress axis : x y z
#
# Youngs Moduli (GPa) = 48.68688 86.83681 137.85171
#
# Poissons Ratio (x) = 0.13174 0.83799
# Poissons Ratio (y) = 0.07386 0.14326
# Poissons Ratio (z) = 0.29596 0.09024
#
# Static dielectric constant tensor:
#      x y z
#    x 2.437870 0.000000 -0.021140 
#    y 0.000000 2.180360 0.000000 
#    z -0.021140 0.000000 2.096830 
# 
# From -- ./inp_files/39208.got.cif
#   From: 2010.05.17/outbox.cif.g08.bks.cpg/sg14_20_cif.got.tgz:39208.got - 2010.06.03 17:49:19.
