data_PCOD9242637
_publ_section_title
;
Structure prediction by ZEFSAII (Michael W. Deem and Ramdas Pophale) SiO2 
 PCOD9242637
Probable space group: P 21/C
;
_chemical_formula_sum "Si O2"
_cell_formula_units_Z 24
_cell_length_a 14.829178
_cell_length_b 7.791676
_cell_length_c 30.007685
_cell_angle_alpha 90.000000
_cell_angle_beta 161.184654
_cell_angle_gamma 90.000000
_cell_volume 1118.242704
_symmetry_space_group_name_H-M "P 21/C"
_symmetry_group_IT_number 14
_symmetry_cell_setting 'monoclinic'
loop_
_space_group_symop_operation_xyz
x,y,z
-x,1/2+y,1/2-z
-x,-y,-z
x,1/2-y,1/2+z
loop_
_atom_site_type_symbol
_atom_site_label
_atom_site_fract_x
_atom_site_fract_y
_atom_site_fract_z
Si Si1 0.343330 0.147440 0.028819
Si Si2 0.213658 0.105652 0.314080
Si Si3 0.288640 0.552885 0.763136
Si Si4 0.628818 0.228846 0.074283
Si Si5 0.410622 0.039372 0.152770
Si Si6 0.201395 0.678467 0.630255
O O1 0.457416 0.326095 0.102790
O O2 0.498195 0.126198 0.054590
O O3 0.417267 0.014158 0.102724
O O4 0.009882 0.147601 0.866744
O O5 0.401645 0.233274 0.430503
O O6 0.897103 0.144976 0.177997
O O7 0.276549 0.106847 0.290791
O O8 0.285593 0.914154 0.365100
O O9 0.287547 0.540613 0.709307
O O10 0.680661 0.142620 0.296152
O O11 0.348350 0.874070 0.153223
O O12 0.132526 0.158957 0.030493
#
# Coordination Sequence:
#
# PCOD9242637 Si02
#       6
#     4   4   4   4   4   4
#     4   9  17  32  54  73  98 136 172 200 247 308
#     4  10  21  35  52  75 105 135 171 212 254 300
#     4   9  18  33  52  75 103 134 170 212 251 300
#     4  10  20  35  53  76 102 134 173 214 252 300
#     4   9  18  33  54  77 102 132 168 209 251 300
#     4   9  18  34  53  76 104 133 168 209 253 301
#
# _framework density 21.462247000000001
#
# number of rings (size 3 to 8) (size 9 to 14) (size 15 to 20)
#    0.000    2.667    0.000    2.000    0.000    3.333 
#    0.000    6.667    0.000    0.000    0.000    0.000 
#    0.000    0.000    0.000    0.000    0.000    0.000 
#
# Total GULP energy -133909.996772 kJ/mol
# GULP energy per Si atom -5579.583199 kJ/mol
# Density = 2.141340 g / cm^3
# Si number density = 21.462247 Si / 1000 Ang^3
#
#
#
# Elastic Constant Matrix: (Units=GPa)
#
#
# Indices 1 2 3 4 5 6 
#
# 1 124.8545 22.7902 16.2144 0.0000 -7.9706 0.0000
# 2 22.7902 27.8535 15.6933 0.0000 1.2544 0.0000
# 3 16.2144 15.6933 90.7315 0.0000 -6.6354 0.0000
# 4 0.0000 0.0000 0.0000 16.2702 0.0000 10.2314
# 5 -7.9706 1.2544 -6.6354 0.0000 19.3833 0.0000
# 6 0.0000 0.0000 0.0000 10.2314 0.0000 26.7556
#
#
#
# Elastic Compliance Matrix: (Units=1/GPa)
#
#
# Indices 1 2 3 4 5 6 
#
# 1 0.009802 -0.008229 0.000005 0.000000 0.004565 0.000000
# 2 -0.008229 0.047176 -0.007344 0.000000 -0.008951 0.000000
# 3 0.000005 -0.007344 0.012642 0.000000 0.004805 0.000000
# 4 0.000000 0.000000 0.000000 0.080922 0.000000 -0.030945
# 5 0.004565 -0.008951 0.004805 0.000000 0.055692 0.000000
# 6 0.000000 0.000000 0.000000 -0.030945 0.000000 0.049209
#
#
# Mechanical properties :
#
#
# Convention : Reuss Voigt Hill
#
# Bulk Modulus (GPa) = 25.98364 39.20391 32.59377
# Shear Modulus (GPa) = 16.69976 25.06459 20.88218
#
# Velocity S-wave (km/s) = 2.79247 3.42108 3.12263
# Velocity P-wave (km/s) = 4.74659 5.82333 5.31231
#
# Compressibility (1/GPa) = 0.03848575
#
# Stress axis : x y z
#
# Youngs Moduli (GPa) = 102.01903 21.19731 79.10027
#
# Poissons Ratio (x) = 0.17443 -0.00043
# Poissons Ratio (y) = 0.83950 0.58089
# Poissons Ratio (z) = -0.00056 0.15567
#
# Static dielectric constant tensor:
#      x y z
#    x 1.816890 0.000000 -0.032650 
#    y 0.000000 1.770000 0.000000 
#    z -0.032650 0.000000 1.756960 
# 
# From -- ./inp_files/15106.got.cif
#   From: 2010.05.17/outbox.cif.g08.bks.cpg/sg14_8_cif.got.tgz:15106.got - 2010.06.03 17:49:19.
