data_PCOD9242614
_publ_section_title
;
Structure prediction by ZEFSAII (Michael W. Deem and Ramdas Pophale) SiO2 
 PCOD9242614
Probable space group: P 21/C
;
_chemical_formula_sum "Si O2"
_cell_formula_units_Z 28
_cell_length_a 14.825240
_cell_length_b 12.792529
_cell_length_c 7.340783
_cell_angle_alpha 90.000000
_cell_angle_beta 132.153572
_cell_angle_gamma 90.000000
_cell_volume 1032.102993
_symmetry_space_group_name_H-M "P 21/C"
_symmetry_group_IT_number 14
_symmetry_cell_setting 'monoclinic'
loop_
_space_group_symop_operation_xyz
x,y,z
-x,1/2+y,1/2-z
-x,-y,-z
x,1/2-y,1/2+z
loop_
_atom_site_type_symbol
_atom_site_label
_atom_site_fract_x
_atom_site_fract_y
_atom_site_fract_z
Si Si1 0.937165 0.179170 0.439616
Si Si2 0.470902 0.677283 0.580291
Si Si3 0.330685 0.337739 0.681330
Si Si4 0.747510 0.455623 0.576060
Si Si5 0.333196 0.044894 0.550391
Si Si6 0.124005 0.323024 0.911697
Si Si7 0.731860 0.337007 0.195050
O O1 0.839214 0.269891 0.248778
O O2 0.028019 0.244208 0.687940
O O3 0.034185 0.128320 0.435679
O O4 0.842359 0.086827 0.353020
O O5 0.563488 0.770542 0.770262
O O6 0.381429 0.598906 0.564411
O O7 0.367195 0.755252 0.357682
O O8 0.577050 0.592867 0.675865
O O9 0.268466 0.421876 0.466476
O O10 0.377044 0.405200 0.916664
O O11 0.230141 0.256615 0.618545
O O12 0.785512 0.407880 0.430732
O O13 0.198261 0.090988 0.399386
O O14 0.330929 0.920819 0.524207
#
# Coordination Sequence:
#
# PCOD9242614 Si02
#       7
#     4   4   4   4   4   4   4
#     4  11  22  39  63  90 124 157 197 250 298 349
#     4  10  20  34  60  88 118 146 198 254 294 338
#     4  10  21  38  62  88 118 159 202 245 297 358
#     4  10  21  38  62  88 118 159 202 245 297 358
#     4  10  21  38  63  88 115 160 206 243 293 362
#     4  11  22  39  63  90 124 157 197 250 298 349
#     4  10  21  38  63  88 115 160 206 243 293 362
#
# _framework density 27.129076999999999
#
# number of rings (size 3 to 8) (size 9 to 14) (size 15 to 20)
#    0.000    1.714    2.857    1.714    0.000    4.571 
#    0.000    0.000    0.000   10.286    0.000    0.000 
#    0.000    0.000    0.000    0.000    0.000    0.000 
#
# Total GULP energy -156187.909592 kJ/mol
# GULP energy per Si atom -5578.139628 kJ/mol
# Density = 2.706733 g / cm^3
# Si number density = 27.129077 Si / 1000 Ang^3
#
#
#
# Elastic Constant Matrix: (Units=GPa)
#
#
# Indices 1 2 3 4 5 6 
#
# 1 98.7297 50.4534 30.6295 0.0000 31.4020 0.0000
# 2 50.4534 185.2372 50.4455 0.0000 11.1542 0.0000
# 3 30.6295 50.4455 113.1193 0.0000 40.2500 0.0000
# 4 0.0000 0.0000 0.0000 51.9759 0.0000 4.2793
# 5 31.4020 11.1542 40.2500 0.0000 38.6640 0.0000
# 6 0.0000 0.0000 0.0000 4.2793 0.0000 42.0791
#
#
#
# Elastic Compliance Matrix: (Units=1/GPa)
#
#
# Indices 1 2 3 4 5 6 
#
# 1 0.016148 -0.004269 0.002795 0.000000 -0.014793 0.000000
# 2 -0.004269 0.007346 -0.004129 0.000000 0.005646 0.000000
# 3 0.002795 -0.004129 0.016374 0.000000 -0.018124 0.000000
# 4 0.000000 0.000000 0.000000 0.019402 0.000000 -0.001973
# 5 -0.014793 0.005646 -0.018124 0.000000 0.055117 0.000000
# 6 0.000000 0.000000 0.000000 -0.001973 0.000000 0.023965
#
#
# Mechanical properties :
#
#
# Convention : Reuss Voigt Hill
#
# Bulk Modulus (GPa) = 34.88948 73.34923 54.11936
# Shear Modulus (GPa) = 31.42450 44.24766 37.83608
#
# Velocity S-wave (km/s) = 3.40712 4.04295 3.73858
# Velocity P-wave (km/s) = 5.32601 6.99212 6.21515
#
# Compressibility (1/GPa) = 0.02866194
#
# Stress axis : x y z
#
# Youngs Moduli (GPa) = 61.92676 136.13621 61.07377
#
# Poissons Ratio (x) = 0.58112 -0.17069
# Poissons Ratio (y) = 0.26434 0.25217
# Poissons Ratio (z) = -0.17308 0.56209
#
# Static dielectric constant tensor:
#      x y z
#    x 2.120210 0.000000 -0.147760 
#    y 0.000000 2.088530 0.000000 
#    z -0.147760 0.000000 2.210440 
# 
# From -- ./inp_files/13423.got.cif
#   From: 2010.05.17/outbox.cif.g08.bks.cpg/sg14_7_cif.got.tgz:13423.got - 2010.06.03 17:49:19.
