data_PCOD9242287
_publ_section_title
;
Structure prediction by ZEFSAII (Michael W. Deem and Ramdas Pophale) SiO2 
 PCOD9242287
Probable space group: P 21/C
;
_chemical_formula_sum "Si O2"
_cell_formula_units_Z 24
_cell_length_a 8.453531
_cell_length_b 21.659515
_cell_length_c 8.164467
_cell_angle_alpha 90.000000
_cell_angle_beta 47.901199
_cell_angle_gamma 90.000000
_cell_volume 1109.207230
_symmetry_space_group_name_H-M "P 21/C"
_symmetry_group_IT_number 14
_symmetry_cell_setting 'monoclinic'
loop_
_space_group_symop_operation_xyz
x,y,z
-x,1/2+y,1/2-z
-x,-y,-z
x,1/2-y,1/2+z
loop_
_atom_site_type_symbol
_atom_site_label
_atom_site_fract_x
_atom_site_fract_y
_atom_site_fract_z
Si Si1 0.654199 0.444659 0.036432
Si Si2 0.242135 0.074494 0.653049
Si Si3 0.753555 0.276718 0.455760
Si Si4 0.789385 0.396005 0.585652
Si Si5 0.373616 0.350027 0.774857
Si Si6 0.902874 0.158959 0.517625
O O1 0.708702 0.516632 0.999660
O O2 0.738579 0.420945 0.799925
O O3 0.769466 0.403435 0.089788
O O4 0.400587 0.433992 0.196601
O O5 0.301802 0.136674 0.512480
O O6 0.997149 0.072509 0.870532
O O7 0.833116 0.322282 0.546622
O O8 0.497015 0.286551 0.647093
O O9 0.827092 0.207990 0.435267
O O10 0.844290 0.307461 0.228598
O O11 0.574723 0.397445 0.622651
O O12 0.154166 0.355070 0.830965
#
# Coordination Sequence:
#
# PCOD9242287 Si02
#       6
#     4   4   4   4   4   4
#     4  10  23  35  68  93 122 165 206 248 309 357
#     4  10  19  42  63  91 127 162 205 251 296 377
#     4  10  24  38  63  88 122 157 203 253 310 359
#     4   9  19  42  61  90 122 163 198 249 304 363
#     4   9  21  40  61  90 122 157 203 251 306 356
#     4  12  23  43  60  92 120 158 205 257 304 364
#
# _framework density 21.637073999999998
#
# number of rings (size 3 to 8) (size 9 to 14) (size 15 to 20)
#    1.000    1.000    1.667    1.500    0.000    4.667 
#    0.000    1.667    0.000    0.000    0.000    0.000 
#    0.000    0.000    0.000    0.000    0.000    0.000 
#
# Total GULP energy -133623.004766 kJ/mol
# GULP energy per Si atom -5567.625199 kJ/mol
# Density = 2.158783 g / cm^3
# Si number density = 21.637074 Si / 1000 Ang^3
#
#
#
# Elastic Constant Matrix: (Units=GPa)
#
#
# Indices 1 2 3 4 5 6 
#
# 1 83.4805 31.6933 58.2429 0.0000 -29.1428 0.0000
# 2 31.6933 45.1563 20.7988 0.0000 -18.2920 0.0000
# 3 58.2429 20.7988 82.7364 0.0000 -24.9088 0.0000
# 4 0.0000 0.0000 0.0000 20.8812 0.0000 1.4829
# 5 -29.1428 -18.2920 -24.9088 0.0000 29.5240 0.0000
# 6 0.0000 0.0000 0.0000 1.4829 0.0000 31.9761
#
#
#
# Elastic Compliance Matrix: (Units=1/GPa)
#
#
# Indices 1 2 3 4 5 6 
#
# 1 0.030374 -0.009754 -0.015715 0.000000 0.010681 0.000000
# 2 -0.009754 0.033111 0.002440 0.000000 0.012945 0.000000
# 3 -0.015715 0.002440 0.024559 0.000000 0.006720 0.000000
# 4 0.000000 0.000000 0.000000 0.048048 0.000000 -0.002228
# 5 0.010681 0.012945 0.006720 0.000000 0.058103 0.000000
# 6 0.000000 0.000000 0.000000 -0.002228 0.000000 0.031377
#
#
# Mechanical properties :
#
#
# Convention : Reuss Voigt Hill
#
# Bulk Modulus (GPa) = 23.81691 48.09370 35.95530
# Shear Modulus (GPa) = 17.50545 23.18547 20.34546
#
# Velocity S-wave (km/s) = 2.84746 3.27702 3.06977
# Velocity P-wave (km/s) = 4.67355 6.04932 5.40538
#
# Compressibility (1/GPa) = 0.04198698
#
# Stress axis : x y z
#
# Youngs Moduli (GPa) = 32.92242 30.20134 40.71867
#
# Poissons Ratio (x) = 0.29458 0.63988
# Poissons Ratio (y) = 0.32112 -0.09935
# Poissons Ratio (z) = 0.51737 -0.07369
#
# Static dielectric constant tensor:
#      x y z
#    x 1.824690 0.000000 -0.006340 
#    y 0.000000 1.818230 0.000000 
#    z -0.006340 0.000000 1.816940 
# 
# From -- ./inp_files/10144.got.cif
#   From: 2010.05.17/outbox.cif.g08.bks.cpg/sg14_6_cif.got.tgz:10144.got - 2010.06.03 17:49:19.
