data_PCOD9242446
_publ_section_title
;
Structure prediction by ZEFSAII (Michael W. Deem and Ramdas Pophale) SiO2 
 PCOD9242446
Probable space group: P 21/C
;
_chemical_formula_sum "Si O2"
_cell_formula_units_Z 24
_cell_length_a 14.398575
_cell_length_b 13.688692
_cell_length_c 8.577048
_cell_angle_alpha 90.000000
_cell_angle_beta 27.647158
_cell_angle_gamma 90.000000
_cell_volume 784.442194
_symmetry_space_group_name_H-M "P 21/C"
_symmetry_group_IT_number 14
_symmetry_cell_setting 'monoclinic'
loop_
_space_group_symop_operation_xyz
x,y,z
-x,1/2+y,1/2-z
-x,-y,-z
x,1/2-y,1/2+z
loop_
_atom_site_type_symbol
_atom_site_label
_atom_site_fract_x
_atom_site_fract_y
_atom_site_fract_z
Si Si1 0.520683 0.893172 0.306407
Si Si2 0.448580 0.629276 0.243212
Si Si3 0.023112 0.567599 0.125164
Si Si4 0.530751 0.116198 0.958674
Si Si5 0.004329 0.284519 0.065925
Si Si6 0.963167 0.110926 0.934319
O O1 0.568247 0.851542 0.407280
O O2 0.541717 0.849209 0.101508
O O3 0.582422 0.009329 0.211975
O O4 0.276900 0.889763 0.687871
O O5 0.554115 0.651168 0.250199
O O6 0.235311 0.685181 0.565138
O O7 0.994168 0.497118 0.316744
O O8 0.231644 0.620272 0.862155
O O9 0.905853 0.656249 0.216147
O O10 0.000000 0.500000 0.000000
O O11 0.500000 0.000000 0.000000
O O12 0.061382 0.327874 0.146249
O O13 0.029658 0.171971 0.987063
#
# Coordination Sequence:
#
# PCOD9242446 Si02
#       6
#     4   4   4   4   4   4
#     4   9  17  30  52  81 105 144 185 236 285 341
#     4   8  16  32  51  76 110 142 187 231 284 339
#     4   9  19  36  55  84 115 154 192 240 299 347
#     4   9  17  31  55  82 103 144 188 232 281 344
#     4   9  19  34  54  80 112 153 195 239 289 354
#     4  10  20  33  54  83 111 150 196 244 290 351
#
# _framework density 30.594988000000001
#
# number of rings (size 3 to 8) (size 9 to 14) (size 15 to 20)
#    0.000    3.000    0.000    1.000    4.667    0.667 
#    0.000    0.000    0.000    6.000   56.333    0.000 
#    0.000    0.000    0.000    0.000    0.000    0.000 
#
# Total GULP energy -133934.919836 kJ/mol
# GULP energy per Si atom -5580.621660 kJ/mol
# Density = 3.052535 g / cm^3
# Si number density = 30.594988 Si / 1000 Ang^3
#
#
#
# Elastic Constant Matrix: (Units=GPa)
#
#
# Indices 1 2 3 4 5 6 
#
# 1 203.0634 52.4790 74.7976 0.0000 39.8174 0.0000
# 2 52.4790 173.6105 43.0962 0.0000 63.5511 0.0000
# 3 74.7976 43.0962 185.7268 0.0000 48.2372 0.0000
# 4 0.0000 0.0000 0.0000 57.2959 0.0000 29.6006
# 5 39.8174 63.5511 48.2372 0.0000 54.3919 0.0000
# 6 0.0000 0.0000 0.0000 29.6006 0.0000 57.4926
#
#
#
# Elastic Compliance Matrix: (Units=1/GPa)
#
#
# Indices 1 2 3 4 5 6 
#
# 1 0.006170 -0.000605 -0.001761 0.000000 -0.002249 0.000000
# 2 -0.000605 0.010250 0.001118 0.000000 -0.012525 0.000000
# 3 -0.001761 0.001118 0.007586 0.000000 -0.006745 0.000000
# 4 0.000000 0.000000 0.000000 0.023778 0.000000 -0.012242
# 5 -0.002249 -0.012525 -0.006745 0.000000 0.040647 0.000000
# 6 0.000000 0.000000 0.000000 -0.012242 0.000000 0.023697
#
#
# Mechanical properties :
#
#
# Convention : Reuss Voigt Hill
#
# Bulk Modulus (GPa) = 46.48657 100.34960 73.41809
# Shear Modulus (GPa) = 41.05321 59.97127 50.51224
#
# Velocity S-wave (km/s) = 3.66707 4.43218 4.06765
# Velocity P-wave (km/s) = 5.75822 7.68524 6.79043
#
# Compressibility (1/GPa) = 0.02151159
#
# Stress axis : x y z
#
# Youngs Moduli (GPa) = 162.06511 97.55923 131.82851
#
# Poissons Ratio (x) = 0.05902 0.23209
# Poissons Ratio (y) = 0.09804 -0.14741
# Poissons Ratio (z) = 0.28532 -0.10909
#
# Static dielectric constant tensor:
#      x y z
#    x 3.202390 0.000000 -0.690990 
#    y 0.000000 2.390310 0.000000 
#    z -0.690990 0.000000 3.032820 
# 
# From -- ./inp_files/17951.got.cif
#   From: 2010.05.17/outbox.cif.g08.bks.cpg/sg14_9_cif.got.tgz:17951.got - 2010.06.03 17:49:19.
