data_PCOD9242231
_publ_section_title
;
Structure prediction by ZEFSAII (Michael W. Deem and Ramdas Pophale) SiO2 
 PCOD9242231
Probable space group: P 21/C
;
_chemical_formula_sum "Si O2"
_cell_formula_units_Z 24
_cell_length_a 22.115661
_cell_length_b 10.039983
_cell_length_c 12.543268
_cell_angle_alpha 90.000000
_cell_angle_beta 21.047249
_cell_angle_gamma 90.000000
_cell_volume 1000.240895
_symmetry_space_group_name_H-M "P 21/C"
_symmetry_group_IT_number 14
_symmetry_cell_setting 'monoclinic'
loop_
_space_group_symop_operation_xyz
x,y,z
-x,1/2+y,1/2-z
-x,-y,-z
x,1/2-y,1/2+z
loop_
_atom_site_type_symbol
_atom_site_label
_atom_site_fract_x
_atom_site_fract_y
_atom_site_fract_z
Si Si1 0.687259 0.739150 0.149712
Si Si2 0.955243 0.144003 0.198254
Si Si3 0.719040 0.531168 0.946926
Si Si4 0.504638 0.583483 0.101621
Si Si5 0.938097 0.903316 0.376666
Si Si6 0.801368 0.978509 0.810024
O O1 0.586793 0.782892 0.420260
O O2 0.607636 0.623685 0.208254
O O3 0.859437 0.676209 0.908705
O O4 0.733976 0.862129 0.997229
O O5 0.942029 0.294498 0.263732
O O6 0.801057 0.087966 0.380807
O O7 0.993168 0.043318 0.235445
O O8 0.122016 0.122563 0.852503
O O9 0.617275 0.508387 0.005491
O O10 0.322817 0.597483 0.454732
O O11 0.500000 0.500000 0.000000
O O12 0.794781 0.938510 0.698133
O O13 0.000000 0.000000 0.500000
#
# Coordination Sequence:
#
# PCOD9242231 Si02
#       6
#     4   4   4   4   4   4
#     4  10  19  40  69  93 136 181 231 284 356 410
#     4  10  21  38  73 105 143 188 233 288 352 432
#     4  10  20  41  70  99 138 186 235 289 359 413
#     4  10  22  40  66  94 135 187 235 289 354 412
#     4  11  21  40  68 100 145 188 229 290 355 418
#     4  11  23  39  61  96 137 179 237 291 346 417
#
# _framework density 23.994219000000001
#
# number of rings (size 3 to 8) (size 9 to 14) (size 15 to 20)
#    0.000    1.667    3.333    1.000    2.333    0.000 
#    0.000   11.667    0.000    0.000    0.000    0.000 
#    0.000    0.000    0.000    0.000    0.000    0.000 
#
# Total GULP energy -133903.720499 kJ/mol
# GULP energy per Si atom -5579.321687 kJ/mol
# Density = 2.393961 g / cm^3
# Si number density = 23.994219 Si / 1000 Ang^3
#
#
#
# Elastic Constant Matrix: (Units=GPa)
#
#
# Indices 1 2 3 4 5 6 
#
# 1 157.0189 45.7791 30.6827 0.0000 14.6912 0.0000
# 2 45.7791 98.6905 38.3039 0.0000 13.0859 0.0000
# 3 30.6827 38.3039 105.6688 0.0000 19.4840 0.0000
# 4 0.0000 0.0000 0.0000 30.6889 0.0000 17.9460
# 5 14.6912 13.0859 19.4840 0.0000 38.2948 0.0000
# 6 0.0000 0.0000 0.0000 17.9460 0.0000 43.9452
#
#
#
# Elastic Compliance Matrix: (Units=1/GPa)
#
#
# Indices 1 2 3 4 5 6 
#
# 1 0.007537 -0.002977 -0.000843 0.000000 -0.001445 0.000000
# 2 -0.002977 0.013115 -0.003613 0.000000 -0.001501 0.000000
# 3 -0.000843 -0.003613 0.011841 0.000000 -0.004467 0.000000
# 4 0.000000 0.000000 0.000000 0.042808 0.000000 -0.017481
# 5 -0.001445 -0.001501 -0.004467 0.000000 0.029453 0.000000
# 6 0.000000 0.000000 0.000000 -0.017481 0.000000 0.029895
#
#
# Mechanical properties :
#
#
# Convention : Reuss Voigt Hill
#
# Bulk Modulus (GPa) = 56.72899 65.65660 61.19279
# Shear Modulus (GPa) = 32.17712 39.02661 35.60186
#
# Velocity S-wave (km/s) = 3.66599 4.03737 3.85615
# Velocity P-wave (km/s) = 6.45084 7.01118 6.73684
#
# Compressibility (1/GPa) = 0.01762767
#
# Stress axis : x y z
#
# Youngs Moduli (GPa) = 132.68642 76.24871 84.44909
#
# Poissons Ratio (x) = 0.22701 0.07116
# Poissons Ratio (y) = 0.39504 0.30509
# Poissons Ratio (z) = 0.11181 0.27547
#
# Static dielectric constant tensor:
#      x y z
#    x 2.008020 0.000000 -0.022530 
#    y 0.000000 2.236080 0.000000 
#    z -0.022530 0.000000 1.936470 
# 
# From -- ./inp_files/35891.got.cif
#   From: 2010.05.17/outbox.cif.g08.bks.cpg/sg14_18_cif.got.tgz:35891.got - 2010.06.03 17:49:19.
