data_PCOD9242794
_publ_section_title
;
Structure prediction by ZEFSAII (Michael W. Deem and Ramdas Pophale) SiO2 
 PCOD9242794
Probable space group: P 21/C
;
_chemical_formula_sum "Si O2"
_cell_formula_units_Z 32
_cell_length_a 26.185889
_cell_length_b 5.223931
_cell_length_c 14.370174
_cell_angle_alpha 90.000000
_cell_angle_beta 139.863439
_cell_angle_gamma 90.000000
_cell_volume 1267.140872
_symmetry_space_group_name_H-M "P 21/C"
_symmetry_group_IT_number 14
_symmetry_cell_setting 'monoclinic'
loop_
_space_group_symop_operation_xyz
x,y,z
-x,1/2+y,1/2-z
-x,-y,-z
x,1/2-y,1/2+z
loop_
_atom_site_type_symbol
_atom_site_label
_atom_site_fract_x
_atom_site_fract_y
_atom_site_fract_z
Si Si1 0.247966 0.036257 0.535271
Si Si2 0.708042 0.314787 0.255802
Si Si3 0.612983 0.805947 0.071683
Si Si4 0.473834 0.769232 0.269251
Si Si5 0.954734 0.254157 0.800685
Si Si6 0.322514 0.432505 0.536707
Si Si7 0.184693 0.729266 0.772782
Si Si8 0.097236 0.251749 0.888293
O O1 0.256169 0.763589 0.595574
O O2 0.209995 0.990937 0.380885
O O3 0.190016 0.195377 0.522530
O O4 0.320583 0.218297 0.612903
O O5 0.653793 0.560862 0.172529
O O6 0.779197 0.321318 0.278569
O O7 0.650517 0.070472 0.158038
O O8 0.518223 0.788631 0.928212
O O9 0.640612 0.803600 0.002713
O O10 0.489650 0.530420 0.223415
O O11 0.381131 0.834757 0.143785
O O12 0.908835 0.263164 0.835320
O O13 0.933156 0.991614 0.716448
O O14 0.049672 0.264332 0.919439
O O15 0.921287 0.491690 0.693086
O O16 0.237052 0.535363 0.385024
#
# Coordination Sequence:
#
# PCOD9242794 Si02
#       8
#     4   4   4   4   4   4   4   4
#     4  11  22  37  59  87 119 152 198 239 290 343
#     4  11  24  37  60  85 119 153 194 245 286 339
#     4  10  21  41  55  85 117 150 192 239 290 345
#     4  10  20  35  61  87 113 153 196 237 291 349
#     4   9  17  31  56  79 112 149 191 231 288 340
#     4  10  20  35  63  85 112 153 199 235 290 350
#     4  10  20  38  59  85 116 154 198 236 291 346
#     4   9  18  32  52  84 111 149 188 236 283 343
#
# _framework density 25.253702000000001
#
# number of rings (size 3 to 8) (size 9 to 14) (size 15 to 20)
#    0.000    2.000    2.500    2.250    3.500    0.000 
#    0.000    1.875    0.000    0.000    0.000   12.250 
#    0.000    0.000    0.000    0.000    0.000    0.000 
#
# Total GULP energy -178831.986586 kJ/mol
# GULP energy per Si atom -5588.499581 kJ/mol
# Density = 2.519622 g / cm^3
# Si number density = 25.253702 Si / 1000 Ang^3
#
#
#
# Elastic Constant Matrix: (Units=GPa)
#
#
# Indices 1 2 3 4 5 6 
#
# 1 87.8388 9.2055 14.9684 0.0000 -11.4097 0.0000
# 2 9.2055 131.7700 11.1087 0.0000 -4.2872 0.0000
# 3 14.9684 11.1087 12.0389 0.0000 -3.4330 0.0000
# 4 0.0000 0.0000 0.0000 34.2839 0.0000 -0.5828
# 5 -11.4097 -4.2872 -3.4330 0.0000 21.9610 0.0000
# 6 0.0000 0.0000 0.0000 -0.5828 0.0000 31.8483
#
#
#
# Elastic Compliance Matrix: (Units=1/GPa)
#
#
# Indices 1 2 3 4 5 6 
#
# 1 0.015017 0.000617 -0.017773 0.000000 0.005144 0.000000
# 2 0.000617 0.008258 -0.008202 0.000000 0.000650 0.000000
# 3 -0.017773 -0.008202 0.114756 0.000000 0.007104 0.000000
# 4 0.000000 0.000000 0.000000 0.029177 0.000000 0.000534
# 5 0.005144 0.000650 0.007104 0.000000 0.049445 0.000000
# 6 0.000000 0.000000 0.000000 0.000534 0.000000 0.031409
#
#
# Mechanical properties :
#
#
# Convention : Reuss Voigt Hill
#
# Bulk Modulus (GPa) = 11.45279 33.57922 22.51600
# Shear Modulus (GPa) = 15.24935 30.70966 22.97951
#
# Velocity S-wave (km/s) = 2.45999 3.49097 3.01980
# Velocity P-wave (km/s) = 3.55158 5.43827 4.59285
#
# Compressibility (1/GPa) = 0.08731497
#
# Stress axis : x y z
#
# Youngs Moduli (GPa) = 66.59266 121.08744 8.71417
#
# Poissons Ratio (x) = -0.07466 0.15488
# Poissons Ratio (y) = -0.04106 0.07147
# Poissons Ratio (z) = 1.18355 0.99311
#
# Static dielectric constant tensor:
#      x y z
#    x 2.062740 0.000000 0.048910 
#    y 0.000000 1.974670 0.000000 
#    z 0.048910 0.000000 2.093150 
# 
# From -- ./inp_files/51009.got.cif
#   From: 2010.05.17/outbox.cif.g08.bks.cpg/sg14_26_cif.got.tgz:51009.got - 2010.06.03 17:49:19.
