data_PCOD9242088
_publ_section_title
;
Structure prediction by ZEFSAII (Michael W. Deem and Ramdas Pophale) SiO2 
 PCOD9242088
Probable space group: P 21/C
;
_chemical_formula_sum "Si O2"
_cell_formula_units_Z 32
_cell_length_a 22.299969
_cell_length_b 10.965965
_cell_length_c 12.522595
_cell_angle_alpha 90.000000
_cell_angle_beta 24.841382
_cell_angle_gamma 90.000000
_cell_volume 1286.488789
_symmetry_space_group_name_H-M "P 21/C"
_symmetry_group_IT_number 14
_symmetry_cell_setting 'monoclinic'
loop_
_space_group_symop_operation_xyz
x,y,z
-x,1/2+y,1/2-z
-x,-y,-z
x,1/2-y,1/2+z
loop_
_atom_site_type_symbol
_atom_site_label
_atom_site_fract_x
_atom_site_fract_y
_atom_site_fract_z
Si Si1 0.146577 0.034094 0.821134
Si Si2 0.804937 0.580083 0.256229
Si Si3 0.344963 0.683719 0.023852
Si Si4 0.220541 0.884061 0.364526
Si Si5 0.958506 0.753081 0.880781
Si Si6 0.549941 0.499728 0.798571
Si Si7 0.259783 0.126404 0.424071
Si Si8 0.558137 0.762696 0.029982
O O1 0.236540 0.108127 0.586510
O O2 0.212362 0.905235 0.745194
O O3 0.120290 0.119549 0.965138
O O4 0.000000 0.000000 0.000000
O O5 0.857281 0.466338 0.100174
O O6 0.717330 0.522293 0.497581
O O7 0.680523 0.659723 0.394872
O O8 0.936170 0.674289 0.026347
O O9 0.324907 0.806094 0.122391
O O10 0.471277 0.611369 0.873500
O O11 0.399193 0.691971 0.814357
O O12 0.116936 0.792920 0.594351
O O13 0.281525 0.990375 0.341314
O O14 0.880675 0.684461 0.907677
O O15 0.468627 0.376313 0.891263
O O16 0.500000 0.500000 0.000000
O O17 0.388661 0.212522 0.176073
#
# Coordination Sequence:
#
# PCOD9242088 Si02
#       8
#     4   4   4   4   4   4   4   4
#     4  12  24  42  68 100 129 172 232 271 327 407
#     4   9  21  40  64  91 131 171 214 280 323 393
#     4  11  23  39  68  92 129 174 214 277 331 388
#     4  10  19  39  63  87 131 167 218 270 332 388
#     4  10  21  40  63  91 131 168 214 277 326 380
#     4  11  23  42  63  97 134 171 220 273 336 401
#     4  10  23  42  65  95 131 175 221 279 333 395
#     4   9  20  41  61  91 127 167 217 266 333 388
#
# _framework density 24.873906000000002
#
# number of rings (size 3 to 8) (size 9 to 14) (size 15 to 20)
#    0.000    2.000    2.500    2.250    3.500    1.500 
#    0.000    0.000    0.000   12.750    0.000    0.000 
#    0.000    0.000    0.000    0.000    0.000    0.000 
#
# Total GULP energy -178374.268601 kJ/mol
# GULP energy per Si atom -5574.195894 kJ/mol
# Density = 2.481729 g / cm^3
# Si number density = 24.873906 Si / 1000 Ang^3
#
#
#
# Elastic Constant Matrix: (Units=GPa)
#
#
# Indices 1 2 3 4 5 6 
#
# 1 47.5541 13.6967 20.4832 0.0000 12.6045 0.0000
# 2 13.6967 101.0265 32.4694 0.0000 3.4070 0.0000
# 3 20.4832 32.4694 129.5569 0.0000 34.6609 0.0000
# 4 0.0000 0.0000 0.0000 33.6830 0.0000 12.6276
# 5 12.6045 3.4070 34.6609 0.0000 30.3497 0.0000
# 6 0.0000 0.0000 0.0000 12.6276 0.0000 22.5276
#
#
#
# Elastic Compliance Matrix: (Units=1/GPa)
#
#
# Indices 1 2 3 4 5 6 
#
# 1 0.024547 -0.002774 -0.000780 0.000000 -0.008993 0.000000
# 2 -0.002774 0.011235 -0.003381 0.000000 0.003752 0.000000
# 3 -0.000780 -0.003381 0.012241 0.000000 -0.013277 0.000000
# 4 0.000000 0.000000 0.000000 0.037587 0.000000 -0.021069
# 5 -0.008993 0.003752 -0.013277 0.000000 0.051425 0.000000
# 6 0.000000 0.000000 0.000000 -0.021069 0.000000 0.056200
#
#
# Mechanical properties :
#
#
# Convention : Reuss Voigt Hill
#
# Bulk Modulus (GPa) = 29.27973 45.71512 37.49742
# Shear Modulus (GPa) = 22.88444 31.41128 27.14786
#
# Velocity S-wave (km/s) = 3.03647 3.55747 3.30725
# Velocity P-wave (km/s) = 4.90819 5.94077 5.44900
#
# Compressibility (1/GPa) = 0.03415333
#
# Stress axis : x y z
#
# Youngs Moduli (GPa) = 40.73795 89.01138 81.69160
#
# Poissons Ratio (x) = 0.24692 0.06371
# Poissons Ratio (y) = 0.11301 0.27618
# Poissons Ratio (z) = 0.03177 0.30093
#
# Static dielectric constant tensor:
#      x y z
#    x 2.029300 0.000000 0.032710 
#    y 0.000000 2.008800 0.000000 
#    z 0.032710 0.000000 2.055860 
# 
# From -- ./inp_files/52031.got.cif
#   From: 2010.05.17/outbox.cif.g08.bks.cpg/sg14_27_cif.got.tgz:52031.got - 2010.06.03 17:49:19.
