data_PCOD9242090
_publ_section_title
;
Structure prediction by ZEFSAII (Michael W. Deem and Ramdas Pophale) SiO2 
 PCOD9242090
Probable space group: P 21/C
;
_chemical_formula_sum "Si O2"
_cell_formula_units_Z 28
_cell_length_a 11.036450
_cell_length_b 17.127121
_cell_length_c 14.053916
_cell_angle_alpha 90.000000
_cell_angle_beta 151.514374
_cell_angle_gamma 90.000000
_cell_volume 1266.990313
_symmetry_space_group_name_H-M "P 21/C"
_symmetry_group_IT_number 14
_symmetry_cell_setting 'monoclinic'
loop_
_space_group_symop_operation_xyz
x,y,z
-x,1/2+y,1/2-z
-x,-y,-z
x,1/2-y,1/2+z
loop_
_atom_site_type_symbol
_atom_site_label
_atom_site_fract_x
_atom_site_fract_y
_atom_site_fract_z
Si Si1 0.465252 0.618392 0.899204
Si Si2 0.017172 0.697877 0.284238
Si Si3 0.503661 0.406166 0.568722
Si Si4 0.178357 0.730963 0.182220
Si Si5 0.681359 0.460625 0.007382
Si Si6 0.794685 0.458975 0.593256
Si Si7 0.984550 0.852572 0.381923
O O1 0.250865 0.679078 0.715132
O O2 0.420757 0.596011 0.979881
O O3 0.732800 0.664138 0.079231
O O4 0.494502 0.534857 0.865959
O O5 0.111498 0.723965 0.246142
O O6 0.189103 0.626033 0.440749
O O7 0.034450 0.773018 0.360189
O O8 0.575621 0.324476 0.664959
O O9 0.732672 0.438339 0.661736
O O10 0.409539 0.475111 0.571885
O O11 0.275640 0.388268 0.337420
O O12 0.974535 0.681170 0.981323
O O13 0.792173 0.412849 0.994005
O O14 0.933824 0.500410 0.226502
#
# Coordination Sequence:
#
# PCOD9242090 Si02
#       7
#     4   4   4   4   4   4   4
#     4  10  19  39  63  89 125 168 202 256 317 357
#     4  10  20  39  58  89 125 154 208 258 302 368
#     4   9  18  38  58  87 123 152 202 254 298 360
#     4  11  22  38  62  91 121 165 207 253 310 367
#     4   9  19  37  67  88 124 168 204 253 314 369
#     4   8  17  35  62  83 116 167 188 250 313 351
#     4  11  21  38  62  93 123 163 208 255 307 366
#
# _framework density 22.099618
#
# number of rings (size 3 to 8) (size 9 to 14) (size 15 to 20)
#    0.000    2.286    2.857    0.000    0.000    0.000 
#   10.286   24.286    0.000    2.571    0.000    0.000 
#    0.000    0.000    0.000    0.000    0.000    0.000 
#
# Total GULP energy -155979.841141 kJ/mol
# GULP energy per Si atom -5570.708612 kJ/mol
# Density = 2.204932 g / cm^3
# Si number density = 22.099618 Si / 1000 Ang^3
#
#
#
# Elastic Constant Matrix: (Units=GPa)
#
#
# Indices 1 2 3 4 5 6 
#
# 1 28.7514 14.9333 -2.2615 0.0000 11.0258 0.0000
# 2 14.9333 134.2782 11.6494 0.0000 2.9227 0.0000
# 3 -2.2615 11.6494 27.6999 0.0000 -1.1831 0.0000
# 4 0.0000 0.0000 0.0000 27.4185 0.0000 3.4852
# 5 11.0258 2.9227 -1.1831 0.0000 23.6020 0.0000
# 6 0.0000 0.0000 0.0000 3.4852 0.0000 26.1232
#
#
#
# Elastic Compliance Matrix: (Units=1/GPa)
#
#
# Indices 1 2 3 4 5 6 
#
# 1 0.045643 -0.005063 0.004983 0.000000 -0.020446 0.000000
# 2 -0.005063 0.008321 -0.003864 0.000000 0.001141 0.000000
# 3 0.004983 -0.003864 0.038136 0.000000 0.000062 0.000000
# 4 0.000000 0.000000 0.000000 0.037101 0.000000 -0.004950
# 5 -0.020446 0.001141 0.000062 0.000000 0.051782 0.000000
# 6 0.000000 0.000000 0.000000 -0.004950 0.000000 0.038941
#
#
# Mechanical properties :
#
#
# Convention : Reuss Voigt Hill
#
# Bulk Modulus (GPa) = 11.87502 26.59688 19.23595
# Shear Modulus (GPa) = 19.54020 26.52264 23.03142
#
# Velocity S-wave (km/s) = 2.97675 3.46806 3.23176
# Velocity P-wave (km/s) = 4.14727 5.30073 4.75907
#
# Compressibility (1/GPa) = 0.08421036
#
# Stress axis : x y z
#
# Youngs Moduli (GPa) = 21.90906 120.18217 26.22214
#
# Poissons Ratio (x) = 0.60852 -0.13066
# Poissons Ratio (y) = 0.11093 0.10132
# Poissons Ratio (z) = -0.10917 0.46438
#
# Static dielectric constant tensor:
#      x y z
#    x 1.792410 0.000000 0.004860 
#    y 0.000000 1.859590 0.000000 
#    z 0.004860 0.000000 1.859560 
# 
# From -- ./inp_files/37902.got.cif
#   From: 2010.05.17/outbox.cif.g08.bks.cpg/sg14_19_cif.got.tgz:37902.got - 2010.06.03 17:49:19.
