data_PCOD9242172
_publ_section_title
;
Structure prediction by ZEFSAII (Michael W. Deem and Ramdas Pophale) SiO2 
 PCOD9242172
Probable space group: P 21/C
;
_chemical_formula_sum "Si O2"
_cell_formula_units_Z 28
_cell_length_a 9.362505
_cell_length_b 10.485167
_cell_length_c 14.343918
_cell_angle_alpha 90.000000
_cell_angle_beta 118.799017
_cell_angle_gamma 90.000000
_cell_volume 1233.943933
_symmetry_space_group_name_H-M "P 21/C"
_symmetry_group_IT_number 14
_symmetry_cell_setting 'monoclinic'
loop_
_space_group_symop_operation_xyz
x,y,z
-x,1/2+y,1/2-z
-x,-y,-z
x,1/2-y,1/2+z
loop_
_atom_site_type_symbol
_atom_site_label
_atom_site_fract_x
_atom_site_fract_y
_atom_site_fract_z
Si Si1 0.345588 0.200162 0.732744
Si Si2 0.899470 0.387220 0.658180
Si Si3 0.674900 0.390266 0.971046
Si Si4 0.009135 0.098667 0.661979
Si Si5 0.787717 0.531709 0.322797
Si Si6 0.366558 0.614178 0.564160
Si Si7 0.552823 0.381112 0.138246
O O1 0.175186 0.130377 0.659402
O O2 0.292359 0.341062 0.744812
O O3 0.445244 0.128711 0.846247
O O4 0.461753 0.213972 0.679006
O O5 0.942859 0.482657 0.755079
O O6 0.714099 0.399862 0.563106
O O7 0.951277 0.238092 0.686282
O O8 0.021656 0.439997 0.616360
O O9 0.578195 0.356485 0.037407
O O10 0.852438 0.441067 0.053157
O O11 0.696522 0.256167 0.926175
O O12 0.565887 0.496368 0.889378
O O13 0.709906 0.495024 0.396208
O O14 0.727004 0.419377 0.235791
#
# Coordination Sequence:
#
# PCOD9242172 Si02
#       7
#     4   4   4   4   4   4   4
#     4  10  22  40  58  90 122 157 192 260 295 360
#     4  10  21  41  61  89 121 168 197 252 303 363
#     4  10  20  40  63  87 115 163 200 248 294 377
#     4  10  22  40  62  86 128 154 206 250 305 354
#     4  10  19  40  61  84 122 162 194 246 307 357
#     4  10  21  38  61  87 120 153 207 240 298 360
#     4  10  20  37  64  83 121 159 204 235 309 357
#
# _framework density 22.691466999999999
#
# number of rings (size 3 to 8) (size 9 to 14) (size 15 to 20)
#    0.000    2.000    2.857    0.429    0.000    1.143 
#   18.000    0.000    0.000    0.000    0.000    0.000 
#    0.000    0.000    0.000    0.000    0.000    0.000 
#
# Total GULP energy -155970.402456 kJ/mol
# GULP energy per Si atom -5570.371516 kJ/mol
# Density = 2.263982 g / cm^3
# Si number density = 22.691467 Si / 1000 Ang^3
#
#
#
# Elastic Constant Matrix: (Units=GPa)
#
#
# Indices 1 2 3 4 5 6 
#
# 1 70.7427 11.3390 15.8533 0.0000 22.5610 0.0000
# 2 11.3390 47.4585 11.7150 0.0000 -0.2446 0.0000
# 3 15.8533 11.7150 68.5030 0.0000 26.6570 0.0000
# 4 0.0000 0.0000 0.0000 36.4905 0.0000 2.7809
# 5 22.5610 -0.2446 26.6570 0.0000 29.7172 0.0000
# 6 0.0000 0.0000 0.0000 2.7809 0.0000 24.2898
#
#
#
# Elastic Compliance Matrix: (Units=1/GPa)
#
#
# Indices 1 2 3 4 5 6 
#
# 1 0.020185 -0.005791 0.003535 0.000000 -0.018543 0.000000
# 2 -0.005791 0.024254 -0.007061 0.000000 0.010930 0.000000
# 3 0.003535 -0.007061 0.024663 0.000000 -0.024865 0.000000
# 4 0.000000 0.000000 0.000000 0.027646 0.000000 -0.003165
# 5 -0.018543 0.010930 -0.024865 0.000000 0.070123 0.000000
# 6 0.000000 0.000000 0.000000 -0.003165 0.000000 0.041532
#
#
# Mechanical properties :
#
#
# Convention : Reuss Voigt Hill
#
# Bulk Modulus (GPa) = 19.81428 29.39097 24.60262
# Shear Modulus (GPa) = 20.50360 27.95263 24.22811
#
# Velocity S-wave (km/s) = 3.00922 3.51359 3.27114
# Velocity P-wave (km/s) = 4.56343 5.42595 5.01328
#
# Compressibility (1/GPa) = 0.05046866
#
# Stress axis : x y z
#
# Youngs Moduli (GPa) = 49.54067 41.23047 40.54602
#
# Poissons Ratio (x) = 0.23876 -0.14332
# Poissons Ratio (y) = 0.28688 0.28628
# Poissons Ratio (z) = -0.17511 0.29112
#
# Static dielectric constant tensor:
#      x y z
#    x 1.869780 0.000000 -0.002520 
#    y 0.000000 1.843720 0.000000 
#    z -0.002520 0.000000 1.856470 
# 
# From -- ./inp_files/40189.got.cif
#   From: 2010.05.17/outbox.cif.g08.bks.cpg/sg14_21_cif.got.tgz:40189.got - 2010.06.03 17:49:19.
