data_PCOD9242338
_publ_section_title
;
Structure prediction by ZEFSAII (Michael W. Deem and Ramdas Pophale) SiO2 
 PCOD9242338
Probable space group: P 21/C
;
_chemical_formula_sum "Si O2"
_cell_formula_units_Z 20
_cell_length_a 5.593176
_cell_length_b 8.903852
_cell_length_c 14.065540
_cell_angle_alpha 90.000000
_cell_angle_beta 80.904669
_cell_angle_gamma 90.000000
_cell_volume 691.668012
_symmetry_space_group_name_H-M "P 21/C"
_symmetry_group_IT_number 14
_symmetry_cell_setting 'monoclinic'
loop_
_space_group_symop_operation_xyz
x,y,z
-x,1/2+y,1/2-z
-x,-y,-z
x,1/2-y,1/2+z
loop_
_atom_site_type_symbol
_atom_site_label
_atom_site_fract_x
_atom_site_fract_y
_atom_site_fract_z
Si Si1 0.759733 0.503608 0.403489
Si Si2 0.868170 0.336953 0.961575
Si Si3 0.041101 0.052972 0.716370
Si Si4 0.372534 0.204970 0.476387
Si Si5 0.515077 0.338425 0.271975
O O1 0.832717 0.342727 0.444586
O O2 0.680231 0.629683 0.479882
O O3 0.544993 0.484529 0.339086
O O4 0.987797 0.527496 0.320978
O O5 0.921714 0.419401 0.859582
O O6 0.599518 0.368212 0.014961
O O7 0.108920 0.364883 0.006069
O O8 0.289676 0.145670 0.715717
O O9 0.793481 0.152161 0.715647
O O10 0.443165 0.216479 0.359127
#
# Coordination Sequence:
#
# PCOD9242338 Si02
#       5
#     4   4   4   4   4
#     4   9  21  31  54  73 106 123 164 205 252 283
#     4  11  20  31  48  77 102 134 158 198 253 295
#     4  10  20  30  46  71 109 127 160 194 253 296
#     4  11  19  32  54  75 101 127 163 208 252 285
#     4   9  17  31  46  70 101 129 154 199 246 289
#
# _framework density 28.915606
#
# number of rings (size 3 to 8) (size 9 to 14) (size 15 to 20)
#    1.200    0.800    2.000    4.200    2.800    0.000 
#    0.000    0.000    0.000    0.000    0.000    2.800 
#    0.000    0.000    0.000    0.000    0.000    0.000 
#
# Total GULP energy -111724.994384 kJ/mol
# GULP energy per Si atom -5586.249719 kJ/mol
# Density = 2.884979 g / cm^3
# Si number density = 28.915606 Si / 1000 Ang^3
#
#
#
# Elastic Constant Matrix: (Units=GPa)
#
#
# Indices 1 2 3 4 5 6 
#
# 1 313.6721 64.4384 54.4496 0.0000 -7.3883 0.0000
# 2 64.4384 89.5242 28.3791 0.0000 -20.2450 0.0000
# 3 54.4496 28.3791 83.0502 0.0000 -28.1276 0.0000
# 4 0.0000 0.0000 0.0000 57.9896 0.0000 -11.2699
# 5 -7.3883 -20.2450 -28.1276 0.0000 53.5399 0.0000
# 6 0.0000 0.0000 0.0000 -11.2699 0.0000 48.3880
#
#
#
# Elastic Compliance Matrix: (Units=1/GPa)
#
#
# Indices 1 2 3 4 5 6 
#
# 1 0.004086 -0.002565 -0.002360 0.000000 -0.001646 0.000000
# 2 -0.002565 0.014554 -0.001882 0.000000 0.004160 0.000000
# 3 -0.002360 -0.001882 0.016884 0.000000 0.007833 0.000000
# 4 0.000000 0.000000 0.000000 0.018062 0.000000 0.004207
# 5 -0.001646 0.004160 0.007833 0.000000 0.024139 0.000000
# 6 0.000000 0.000000 0.000000 0.004207 0.000000 0.021646
#
#
# Mechanical properties :
#
#
# Convention : Reuss Voigt Hill
#
# Bulk Modulus (GPa) = 45.64240 86.75340 66.19790
# Shear Modulus (GPa) = 41.56679 54.58212 48.07446
#
# Velocity S-wave (km/s) = 3.79558 4.34941 4.08190
# Velocity P-wave (km/s) = 5.91841 7.43576 6.72005
#
# Compressibility (1/GPa) = 0.02190945
#
# Stress axis : x y z
#
# Youngs Moduli (GPa) = 244.74786 68.70934 59.22760
#
# Poissons Ratio (x) = 0.17625 0.13976
# Poissons Ratio (y) = 0.62780 0.11150
# Poissons Ratio (z) = 0.57752 0.12934
#
# Static dielectric constant tensor:
#      x y z
#    x 2.363280 0.000000 0.024970 
#    y 0.000000 2.332210 0.000000 
#    z 0.024970 0.000000 2.222150 
# 
# From -- ./inp_files/36954.got.cif
#   From: 2010.05.17/outbox.cif.g08.bks.cpg/sg14_19_cif.got.tgz:36954.got - 2010.06.03 17:49:19.
