data_PCOD9242804
_publ_section_title
;
Structure prediction by ZEFSAII (Michael W. Deem and Ramdas Pophale) SiO2 
 PCOD9242804
Probable space group: P 21/C
;
_chemical_formula_sum "Si O2"
_cell_formula_units_Z 32
_cell_length_a 8.704095
_cell_length_b 7.012711
_cell_length_c 23.070889
_cell_angle_alpha 90.000000
_cell_angle_beta 117.993533
_cell_angle_gamma 90.000000
_cell_volume 1243.468766
_symmetry_space_group_name_H-M "P 21/C"
_symmetry_group_IT_number 14
_symmetry_cell_setting 'monoclinic'
loop_
_space_group_symop_operation_xyz
x,y,z
-x,1/2+y,1/2-z
-x,-y,-z
x,1/2-y,1/2+z
loop_
_atom_site_type_symbol
_atom_site_label
_atom_site_fract_x
_atom_site_fract_y
_atom_site_fract_z
Si Si1 0.935526 0.487400 0.905670
Si Si2 0.936868 0.641649 0.707003
Si Si3 0.062640 0.437148 0.619878
Si Si4 0.262064 0.458010 0.491247
Si Si5 0.275064 0.588848 0.014188
Si Si6 0.381858 0.280326 0.902414
Si Si7 0.421647 0.473096 0.639627
Si Si8 0.759689 0.126941 0.258205
O O1 0.830496 0.429761 0.944632
O O2 0.831891 0.386400 0.835720
O O3 0.146707 0.465994 0.950393
O O4 0.053657 0.057281 0.946433
O O5 0.811178 0.804247 0.657774
O O6 0.837439 0.564796 0.744101
O O7 0.964216 0.480623 0.662445
O O8 0.128956 0.710685 0.753075
O O9 0.259031 0.509489 0.652021
O O10 0.075586 0.215228 0.606899
O O11 0.277556 0.689899 0.493828
O O12 0.354827 0.359460 0.453137
O O13 0.338460 0.384369 0.565746
O O14 0.481633 0.551535 0.059168
O O15 0.482580 0.157389 0.870379
O O16 0.561841 0.360702 0.702970
#
# Coordination Sequence:
#
# PCOD9242804 Si02
#       8
#     4   4   4   4   4   4   4   4
#     4  10  22  39  60  90 131 162 198 265 319 370
#     4  10  23  42  62  88 122 169 209 261 320 380
#     4  10  21  39  62  93 122 160 210 262 313 373
#     4   9  18  36  66  93 123 160 208 264 314 372
#     4   9  18  37  64  87 124 162 206 256 323 362
#     4   9  19  38  64  94 120 163 212 261 310 379
#     4  10  20  35  61  93 119 158 210 251 308 375
#     4  11  24  42  60  86 125 166 207 252 319 384
#
# _framework density 25.734462000000001
#
# number of rings (size 3 to 8) (size 9 to 14) (size 15 to 20)
#    0.000    2.250    0.000    2.625    3.500    4.000 
#   13.500    0.625    0.000    0.000    0.000    0.000 
#    0.000    0.000    0.000    0.000    0.000    0.000 
#
# Total GULP energy -178723.185354 kJ/mol
# GULP energy per Si atom -5585.099542 kJ/mol
# Density = 2.567589 g / cm^3
# Si number density = 25.734462 Si / 1000 Ang^3
#
#
#
# Elastic Constant Matrix: (Units=GPa)
#
#
# Indices 1 2 3 4 5 6 
#
# 1 133.6973 29.0831 46.2850 0.0000 34.5283 0.0000
# 2 29.0831 77.3919 11.6088 0.0000 12.6528 0.0000
# 3 46.2850 11.6088 101.7300 0.0000 20.8260 0.0000
# 4 0.0000 0.0000 0.0000 23.7890 0.0000 -0.7060
# 5 34.5283 12.6528 20.8260 0.0000 51.3785 0.0000
# 6 0.0000 0.0000 0.0000 -0.7060 0.0000 38.7374
#
#
#
# Elastic Compliance Matrix: (Units=1/GPa)
#
#
# Indices 1 2 3 4 5 6 
#
# 1 0.010553 -0.002621 -0.003470 0.000000 -0.005040 0.000000
# 2 -0.002621 0.014196 -0.000079 0.000000 -0.001703 0.000000
# 3 -0.003470 -0.000079 0.011926 0.000000 -0.002482 0.000000
# 4 0.000000 0.000000 0.000000 0.042059 0.000000 0.000767
# 5 -0.005040 -0.001703 -0.002482 0.000000 0.024276 0.000000
# 6 0.000000 0.000000 0.000000 0.000767 0.000000 0.025829
#
#
# Mechanical properties :
#
#
# Convention : Reuss Voigt Hill
#
# Bulk Modulus (GPa) = 41.09413 54.08589 47.59001
# Shear Modulus (GPa) = 33.49155 37.83711 35.66433
#
# Velocity S-wave (km/s) = 3.61144 3.83860 3.72675
# Velocity P-wave (km/s) = 5.77869 6.38036 6.08696
#
# Compressibility (1/GPa) = 0.02433438
#
# Stress axis : x y z
#
# Youngs Moduli (GPa) = 94.76236 70.44018 83.84939
#
# Poissons Ratio (x) = 0.18463 0.29100
# Poissons Ratio (y) = 0.24838 0.00662
# Poissons Ratio (z) = 0.32887 0.00556
#
# Static dielectric constant tensor:
#      x y z
#    x 2.037120 0.000000 0.038500 
#    y 0.000000 2.088210 0.000000 
#    z 0.038500 0.000000 2.137210 
# 
# From -- ./inp_files/65428.got.cif
#   From: 2010.05.17/outbox.cif.g08.bks.cpg/sg14_33_cif.got.tgz:65428.got - 2010.06.03 17:49:19.
