data_PCOD9242384
_publ_section_title
;
Structure prediction by ZEFSAII (Michael W. Deem and Ramdas Pophale) SiO2 
 PCOD9242384
Probable space group: P 21/C
;
_chemical_formula_sum "Si O2"
_cell_formula_units_Z 26
_cell_length_a 13.621053
_cell_length_b 5.016173
_cell_length_c 21.770450
_cell_angle_alpha 90.000000
_cell_angle_beta 53.868394
_cell_angle_gamma 90.000000
_cell_volume 1201.383659
_symmetry_space_group_name_H-M "P 21/C"
_symmetry_group_IT_number 14
_symmetry_cell_setting 'monoclinic'
loop_
_space_group_symop_operation_xyz
x,y,z
-x,1/2+y,1/2-z
-x,-y,-z
x,1/2-y,1/2+z
loop_
_atom_site_type_symbol
_atom_site_label
_atom_site_fract_x
_atom_site_fract_y
_atom_site_fract_z
Si Si1 0.150065 0.709570 0.256585
Si Si2 0.000000 0.000000 0.000000
Si Si3 0.886797 0.080218 0.859563
Si Si4 0.641100 0.495539 0.740335
Si Si5 0.979362 0.942558 0.604128
Si Si6 0.636345 0.990771 0.654123
Si Si7 0.180252 0.309622 0.497856
O O1 0.260036 0.540194 0.242757
O O2 0.020405 0.552737 0.299187
O O3 0.171765 0.846705 0.183156
O O4 0.125021 0.932121 0.317140
O O5 0.857358 0.067360 0.027503
O O6 0.944113 0.808699 0.077672
O O7 0.810863 0.897826 0.934999
O O8 0.917966 0.348060 0.885800
O O9 0.650723 0.775050 0.702744
O O10 0.503477 0.474298 0.816460
O O11 0.652675 0.271316 0.682638
O O12 0.038880 0.187091 0.542664
O O13 0.724433 0.885335 0.567307
#
# Coordination Sequence:
#
# PCOD9242384 Si02
#       7
#     4   2   4   4   4   4   4
#     4  11  21  38  59  85 122 160 203 250 296 373
#     4  10  20  32  52  88 112 150 194 232 324 356
#     4  10  22  36  56  87 119 157 203 241 309 357
#     4  10  24  40  66  88 119 163 207 250 312 352
#     4  10  21  34  52  86 117 156 186 250 301 366
#     4  10  23  43  61  92 120 159 208 258 297 373
#     4  10  22  34  56  81 122 153 197 252 305 356
#
# _framework density 21.641712999999999
#
# number of rings (size 3 to 8) (size 9 to 14) (size 15 to 20)
#    0.000    1.846    1.538    1.385   12.923    0.000 
#    0.000    0.769    0.000    0.923    0.000    0.000 
#    0.000    0.000    0.000    0.000    0.000    0.000 
#
# Total GULP energy -144879.839283 kJ/mol
# GULP energy per Si atom -5572.301511 kJ/mol
# Density = 2.159246 g / cm^3
# Si number density = 21.641713 Si / 1000 Ang^3
#
#
#
# Elastic Constant Matrix: (Units=GPa)
#
#
# Indices 1 2 3 4 5 6 
#
# 1 86.3537 11.1580 37.8821 0.0000 9.8828 0.0000
# 2 11.1580 73.3627 9.0632 0.0000 -3.5077 0.0000
# 3 37.8821 9.0632 98.1259 0.0000 7.2539 0.0000
# 4 0.0000 0.0000 0.0000 26.4306 0.0000 0.1233
# 5 9.8828 -3.5077 7.2539 0.0000 29.5561 0.0000
# 6 0.0000 0.0000 0.0000 0.1233 0.0000 22.6940
#
#
#
# Elastic Compliance Matrix: (Units=1/GPa)
#
#
# Indices 1 2 3 4 5 6 
#
# 1 0.014503 -0.001750 -0.005157 0.000000 -0.003791 0.000000
# 2 -0.001750 0.014115 -0.000810 0.000000 0.002459 0.000000
# 3 -0.005157 -0.000810 0.012361 0.000000 -0.001405 0.000000
# 4 0.000000 0.000000 0.000000 0.037836 0.000000 -0.000206
# 5 -0.003791 0.002459 -0.001405 0.000000 0.035738 0.000000
# 6 0.000000 0.000000 0.000000 -0.000206 0.000000 0.044066
#
#
# Mechanical properties :
#
#
# Convention : Reuss Voigt Hill
#
# Bulk Modulus (GPa) = 39.14762 41.56099 40.35430
# Shear Modulus (GPa) = 27.38739 29.05209 28.21974
#
# Velocity S-wave (km/s) = 3.56123 3.66787 3.61494
# Velocity P-wave (km/s) = 5.91930 6.09783 6.00922
#
# Compressibility (1/GPa) = 0.02554434
#
# Stress axis : x y z
#
# Youngs Moduli (GPa) = 68.95337 70.84818 80.90259
#
# Poissons Ratio (x) = 0.12398 0.41721
# Poissons Ratio (y) = 0.12066 0.06552
# Poissons Ratio (z) = 0.35559 0.05738
#
# Static dielectric constant tensor:
#      x y z
#    x 3.807180 0.000000 1.692910 
#    y 0.000000 8.075780 0.000000 
#    z 1.692910 0.000000 3.329720 
# 
# From -- ./inp_files/66241.got.cif
#   From: 2010.05.17/outbox.cif.g08.bks.cpg/sg14_34_cif.got.tgz:66241.got - 2010.06.03 17:49:19.
