data_PCOD9242139
_publ_section_title
;
Structure prediction by ZEFSAII (Michael W. Deem and Ramdas Pophale) SiO2 
 PCOD9242139
Probable space group: P 21/C
;
_chemical_formula_sum "Si O2"
_cell_formula_units_Z 28
_cell_length_a 19.310687
_cell_length_b 5.064536
_cell_length_c 15.822780
_cell_angle_alpha 90.000000
_cell_angle_beta 49.705225
_cell_angle_gamma 90.000000
_cell_volume 1180.292027
_symmetry_space_group_name_H-M "P 21/C"
_symmetry_group_IT_number 14
_symmetry_cell_setting 'monoclinic'
loop_
_space_group_symop_operation_xyz
x,y,z
-x,1/2+y,1/2-z
-x,-y,-z
x,1/2-y,1/2+z
loop_
_atom_site_type_symbol
_atom_site_label
_atom_site_fract_x
_atom_site_fract_y
_atom_site_fract_z
Si Si1 0.271993 0.197372 0.549565
Si Si2 0.214299 0.707207 0.507254
Si Si3 0.116418 0.338741 0.468531
Si Si4 0.016862 0.630705 0.794822
Si Si5 0.437746 0.336218 0.794007
Si Si6 0.710549 0.467917 0.200222
Si Si7 0.816720 0.119282 0.243166
O O1 0.253086 0.498102 0.542463
O O2 0.204309 0.997556 0.552835
O O3 0.368134 0.138105 0.428830
O O4 0.245953 0.104672 0.663408
O O5 0.131366 0.572640 0.524746
O O6 0.286051 0.741951 0.374828
O O7 0.114366 0.481891 0.379118
O O8 0.041776 0.156553 0.572254
O O9 0.208037 0.169099 0.385236
O O10 0.116387 0.718495 0.748221
O O11 0.014468 0.346910 0.750982
O O12 0.485242 0.055349 0.758669
O O13 0.382140 0.385229 0.750206
O O14 0.744818 0.315904 0.255579
#
# Coordination Sequence:
#
# PCOD9242139 Si02
#       7
#     4   4   4   4   4   4   4
#     4  11  22  41  68 101 136 180 231 276 348 418
#     4  10  19  39  67  94 132 179 229 276 324 411
#     4  11  23  44  71 100 142 182 231 283 350 412
#     4  12  29  47  70 105 139 185 245 289 329 400
#     4  11  23  43  72 103 132 178 238 294 339 414
#     4  10  24  43  72 100 140 183 227 279 361 414
#     4  11  27  43  70 104 146 188 223 287 352 416
#
# _framework density 23.722940999999999
#
# number of rings (size 3 to 8) (size 9 to 14) (size 15 to 20)
#    0.000    1.143    2.857    3.857   10.000    0.571 
#    0.000    1.429    0.000    0.000    0.000    0.000 
#    0.000    0.000    0.000    0.000    0.000    0.000 
#
# Total GULP energy -156344.824193 kJ/mol
# GULP energy per Si atom -5583.743721 kJ/mol
# Density = 2.366895 g / cm^3
# Si number density = 23.722941 Si / 1000 Ang^3
#
#
#
# Elastic Constant Matrix: (Units=GPa)
#
#
# Indices 1 2 3 4 5 6 
#
# 1 92.3263 21.2108 26.6441 0.0000 2.8665 0.0000
# 2 21.2108 105.6563 17.2224 0.0000 5.8190 0.0000
# 3 26.6441 17.2224 106.9889 0.0000 -1.9661 0.0000
# 4 0.0000 0.0000 0.0000 34.6627 0.0000 -11.9455
# 5 2.8665 5.8190 -1.9661 0.0000 25.3943 0.0000
# 6 0.0000 0.0000 0.0000 -11.9455 0.0000 33.2978
#
#
#
# Elastic Compliance Matrix: (Units=1/GPa)
#
#
# Indices 1 2 3 4 5 6 
#
# 1 0.012094 -0.001921 -0.002723 0.000000 -0.001136 0.000000
# 2 -0.001921 0.010167 -0.001199 0.000000 -0.002206 0.000000
# 3 -0.002723 -0.001199 0.010243 0.000000 0.001375 0.000000
# 4 0.000000 0.000000 0.000000 0.032919 0.000000 0.011810
# 5 -0.001136 -0.002206 0.001375 0.000000 0.040119 0.000000
# 6 0.000000 0.000000 0.000000 0.011810 0.000000 0.034269
#
#
# Mechanical properties :
#
#
# Convention : Reuss Voigt Hill
#
# Bulk Modulus (GPa) = 48.03693 48.34734 48.19213
# Shear Modulus (GPa) = 31.55823 34.66391 33.11107
#
# Velocity S-wave (km/s) = 3.65126 3.82671 3.74001
# Velocity P-wave (km/s) = 6.16999 6.32054 6.24571
#
# Compressibility (1/GPa) = 0.02081732
#
# Stress axis : x y z
#
# Youngs Moduli (GPa) = 82.68733 98.35505 97.62568
#
# Poissons Ratio (x) = 0.18898 0.26587
# Poissons Ratio (y) = 0.15887 0.11702
# Poissons Ratio (z) = 0.22519 0.11790
#
# Static dielectric constant tensor:
#      x y z
#    x 1.969600 0.000000 0.072240 
#    y 0.000000 1.951610 0.000000 
#    z 0.072240 0.000000 2.016520 
# 
# From -- ./inp_files/49638.got.cif
#   From: 2010.05.17/outbox.cif.g08.bks.cpg/sg14_25_cif.got.tgz:49638.got - 2010.06.03 17:49:19.
