data_PCOD9242043
_publ_section_title
;
Structure prediction by ZEFSAII (Michael W. Deem and Ramdas Pophale) SiO2 
 PCOD9242043
Probable space group: P 21/C
;
_chemical_formula_sum "Si O2"
_cell_formula_units_Z 26
_cell_length_a 25.258582
_cell_length_b 7.896679
_cell_length_c 10.096687
_cell_angle_alpha 90.000000
_cell_angle_beta 27.992389
_cell_angle_gamma 90.000000
_cell_volume 945.220468
_symmetry_space_group_name_H-M "P 21/C"
_symmetry_group_IT_number 14
_symmetry_cell_setting 'monoclinic'
loop_
_space_group_symop_operation_xyz
x,y,z
-x,1/2+y,1/2-z
-x,-y,-z
x,1/2-y,1/2+z
loop_
_atom_site_type_symbol
_atom_site_label
_atom_site_fract_x
_atom_site_fract_y
_atom_site_fract_z
Si Si1 0.434150 0.049604 0.312274
Si Si2 0.904267 0.010335 0.326739
Si Si3 0.922542 0.710669 0.465989
Si Si4 0.000000 0.000000 0.500000
Si Si5 0.720353 0.947366 0.562204
Si Si6 0.739397 0.548859 0.581463
Si Si7 0.588578 0.551761 0.689748
O O1 0.386161 0.975092 0.279653
O O2 0.346952 0.984549 0.616891
O O3 0.418146 0.247851 0.318889
O O4 0.552003 0.022202 0.128374
O O5 0.889349 0.824118 0.417405
O O6 0.787736 0.061459 0.518236
O O7 0.963911 0.107820 0.316201
O O8 0.000000 0.000000 0.000000
O O9 0.964322 0.830078 0.492111
O O10 0.818619 0.593315 0.735670
O O11 0.863755 0.016240 0.837960
O O12 0.709476 0.753966 0.642348
O O13 0.705235 0.501796 0.504499
O O14 0.500000 0.500000 0.000000
#
# Coordination Sequence:
#
# PCOD9242043 Si02
#       7
#     4   4   4   2   4   4   4
#     4  10  19  38  70  89 132 173 218 282 342 403
#     4  10  22  35  56  86 120 167 219 261 321 393
#     4  10  22  36  59  83 129 164 217 268 323 388
#     4  10  22  38  64  94 126 180 222 272 338 396
#     4   9  19  36  59  89 118 171 219 256 327 405
#     4   9  19  37  65  91 127 174 221 266 338 411
#     4   9  20  40  65  98 127 173 228 285 342 407
#
# _framework density 27.506810000000002
#
# number of rings (size 3 to 8) (size 9 to 14) (size 15 to 20)
#    0.000    2.462    0.000    0.923   10.769    0.000 
#    2.769    6.923   20.308    0.000    0.000    0.000 
#    0.000    0.000    0.000    0.000    0.000    0.000 
#
# Total GULP energy -144809.860029 kJ/mol
# GULP energy per Si atom -5569.610001 kJ/mol
# Density = 2.744420 g / cm^3
# Si number density = 27.506810 Si / 1000 Ang^3
#
#
#
# Elastic Constant Matrix: (Units=GPa)
#
#
# Indices 1 2 3 4 5 6 
#
# 1 151.6667 31.8092 10.8157 0.0000 -41.5690 0.0000
# 2 31.8092 23.1583 3.2145 0.0000 -0.0351 0.0000
# 3 10.8157 3.2145 98.4286 0.0000 -23.4184 0.0000
# 4 0.0000 0.0000 0.0000 30.2975 0.0000 -1.6467
# 5 -41.5690 -0.0351 -23.4184 0.0000 56.2857 0.0000
# 6 0.0000 0.0000 0.0000 -1.6467 0.0000 46.9141
#
#
#
# Elastic Compliance Matrix: (Units=1/GPa)
#
#
# Indices 1 2 3 4 5 6 
#
# 1 0.013157 -0.018281 0.001621 0.000000 0.010380 0.000000
# 2 -0.018281 0.068798 -0.003818 0.000000 -0.015047 0.000000
# 3 0.001621 -0.003818 0.011532 0.000000 0.005993 0.000000
# 4 0.000000 0.000000 0.000000 0.033069 0.000000 0.001161
# 5 0.010380 -0.015047 0.005993 0.000000 0.027916 0.000000
# 6 0.000000 0.000000 0.000000 0.001161 0.000000 0.021356
#
#
# Mechanical properties :
#
#
# Convention : Reuss Voigt Hill
#
# Bulk Modulus (GPa) = 19.03640 40.54803 29.79222
# Shear Modulus (GPa) = 21.34066 41.86041 31.60054
#
# Velocity S-wave (km/s) = 2.78840 3.90528 3.39311
# Velocity P-wave (km/s) = 4.15963 5.92521 5.11911
#
# Compressibility (1/GPa) = 0.05253094
#
# Stress axis : x y z
#
# Youngs Moduli (GPa) = 76.00660 14.53531 86.71493
#
# Poissons Ratio (x) = 0.26572 -0.14055
# Poissons Ratio (y) = 1.38946 0.33108
# Poissons Ratio (z) = -0.12320 0.05550
#
# Static dielectric constant tensor:
#      x y z
#    x 2.338720 0.000000 -0.025280 
#    y 0.000000 2.118370 0.000000 
#    z -0.025280 0.000000 2.437940 
# 
# From -- ./inp_files/36092.got.cif
#   From: 2010.05.17/outbox.cif.g08.bks.cpg/sg14_19_cif.got.tgz:36092.got - 2010.06.03 17:49:19.
