data_PCOD9242188
_publ_section_title
;
Structure prediction by ZEFSAII (Michael W. Deem and Ramdas Pophale) SiO2 
 PCOD9242188
Probable space group: P 21/C
;
_chemical_formula_sum "Si O2"
_cell_formula_units_Z 28
_cell_length_a 12.164300
_cell_length_b 8.232363
_cell_length_c 15.708402
_cell_angle_alpha 90.000000
_cell_angle_beta 121.386090
_cell_angle_gamma 90.000000
_cell_volume 1342.880460
_symmetry_space_group_name_H-M "P 21/C"
_symmetry_group_IT_number 14
_symmetry_cell_setting 'monoclinic'
loop_
_space_group_symop_operation_xyz
x,y,z
-x,1/2+y,1/2-z
-x,-y,-z
x,1/2-y,1/2+z
loop_
_atom_site_type_symbol
_atom_site_label
_atom_site_fract_x
_atom_site_fract_y
_atom_site_fract_z
Si Si1 0.933554 0.322093 0.976188
Si Si2 0.959012 0.764875 0.148866
Si Si3 0.628833 0.168503 0.317304
Si Si4 0.118469 0.614677 0.862533
Si Si5 0.384597 0.487476 0.018291
Si Si6 0.498783 0.052226 0.865777
Si Si7 0.683753 0.634619 0.560516
O O1 0.784650 0.327848 0.884780
O O2 0.009624 0.214837 0.938319
O O3 0.934476 0.285005 0.077248
O O4 0.000000 0.500000 0.000000
O O5 0.929333 0.573142 0.150989
O O6 0.837175 0.872800 0.128866
O O7 0.076250 0.811840 0.256762
O O8 0.564196 0.335546 0.321139
O O9 0.587892 0.044838 0.375947
O O10 0.571234 0.100222 0.206767
O O11 0.270576 0.601443 0.937348
O O12 0.500000 0.500000 0.000000
O O13 0.337829 0.303061 0.997755
O O14 0.389386 0.140092 0.878572
O O15 0.611908 0.000777 0.976189
#
# Coordination Sequence:
#
# PCOD9242188 Si02
#       7
#     4   4   4   4   4   4   4
#     4   9  21  41  61  89 123 167 203 249 313 378
#     4  10  21  40  62  90 121 165 202 250 312 363
#     4  11  23  40  64  93 124 163 208 257 314 375
#     4   9  21  37  61  90 120 160 205 248 305 366
#     4  10  19  40  63  89 125 160 204 256 306 368
#     4  11  24  41  63  92 124 162 209 258 315 370
#     4  10  23  42  62  89 126 164 205 261 308 370
#
# _framework density 20.850701000000001
#
# number of rings (size 3 to 8) (size 9 to 14) (size 15 to 20)
#    0.000    2.000    1.429    1.714    4.000    4.571 
#    0.000    1.429    0.000    0.000    0.000    0.000 
#    0.000    0.000    0.000    0.000    0.000    0.000 
#
# Total GULP energy -156281.309290 kJ/mol
# GULP energy per Si atom -5581.475332 kJ/mol
# Density = 2.080324 g / cm^3
# Si number density = 20.850701 Si / 1000 Ang^3
#
#
#
# Elastic Constant Matrix: (Units=GPa)
#
#
# Indices 1 2 3 4 5 6 
#
# 1 95.2654 13.4925 23.0229 0.0000 0.1245 0.0000
# 2 13.4925 29.5683 9.0665 0.0000 5.8353 0.0000
# 3 23.0229 9.0665 75.8196 0.0000 5.8576 0.0000
# 4 0.0000 0.0000 0.0000 39.3903 0.0000 -2.1695
# 5 0.1245 5.8353 5.8576 0.0000 16.3791 0.0000
# 6 0.0000 0.0000 0.0000 -2.1695 0.0000 19.9735
#
#
#
# Elastic Compliance Matrix: (Units=1/GPa)
#
#
# Indices 1 2 3 4 5 6 
#
# 1 0.011995 -0.005040 -0.003262 0.000000 0.002871 0.000000
# 2 -0.005040 0.039391 -0.002158 0.000000 -0.013224 0.000000
# 3 -0.003262 -0.002158 0.014785 0.000000 -0.004494 0.000000
# 4 0.000000 0.000000 0.000000 0.025540 0.000000 0.002774
# 5 0.002871 -0.013224 -0.004494 0.000000 0.067350 0.000000
# 6 0.000000 0.000000 0.000000 0.002774 0.000000 0.050368
#
#
# Mechanical properties :
#
#
# Convention : Reuss Voigt Hill
#
# Bulk Modulus (GPa) = 22.09866 32.42411 27.26139
# Shear Modulus (GPa) = 20.37219 25.48667 22.92943
#
# Velocity S-wave (km/s) = 3.12917 3.49999 3.31976
# Velocity P-wave (km/s) = 4.86592 5.64957 5.27232
#
# Compressibility (1/GPa) = 0.04525160
#
# Stress axis : x y z
#
# Youngs Moduli (GPa) = 83.36605 25.38622 67.63682
#
# Poissons Ratio (x) = 0.12795 0.22060
# Poissons Ratio (y) = 0.42018 0.14598
# Poissons Ratio (z) = 0.27190 0.05479
#
# Static dielectric constant tensor:
#      x y z
#    x 1.769110 0.000000 0.011490 
#    y 0.000000 1.771480 0.000000 
#    z 0.011490 0.000000 1.739930 
# 
# From -- ./inp_files/43555.got.cif
#   From: 2010.05.17/outbox.cif.g08.bks.cpg/sg14_22_cif.got.tgz:43555.got - 2010.06.03 17:49:19.
