data_PCOD9242274
_publ_section_title
;
Structure prediction by ZEFSAII (Michael W. Deem and Ramdas Pophale) SiO2 
 PCOD9242274
Probable space group: P 21/C
;
_chemical_formula_sum "Si O2"
_cell_formula_units_Z 32
_cell_length_a 11.180659
_cell_length_b 17.845468
_cell_length_c 13.129504
_cell_angle_alpha 90.000000
_cell_angle_beta 34.745600
_cell_angle_gamma 90.000000
_cell_volume 1493.028071
_symmetry_space_group_name_H-M "P 21/C"
_symmetry_group_IT_number 14
_symmetry_cell_setting 'monoclinic'
loop_
_space_group_symop_operation_xyz
x,y,z
-x,1/2+y,1/2-z
-x,-y,-z
x,1/2-y,1/2+z
loop_
_atom_site_type_symbol
_atom_site_label
_atom_site_fract_x
_atom_site_fract_y
_atom_site_fract_z
Si Si1 0.012319 0.588869 0.491397
Si Si2 0.822311 0.550381 0.261396
Si Si3 0.297091 0.550564 0.846050
Si Si4 0.585470 0.084989 0.425133
Si Si5 0.425887 0.172182 0.161346
Si Si6 0.447102 0.342948 0.218078
Si Si7 0.149748 0.918073 0.125518
Si Si8 0.713443 0.597661 0.037212
O O1 0.791694 0.627050 0.619600
O O2 0.000000 0.500000 0.500000
O O3 0.195892 0.601841 0.282103
O O4 0.082131 0.603921 0.558742
O O5 0.718086 0.490319 0.253806
O O6 0.711745 0.631234 0.329780
O O7 0.809693 0.506720 0.378376
O O8 0.058578 0.562003 0.053267
O O9 0.437376 0.625216 0.760930
O O10 0.377933 0.483096 0.862970
O O11 0.586963 0.116344 0.535681
O O12 0.414782 0.123215 0.471013
O O13 0.500000 0.000000 0.500000
O O14 0.446867 0.259233 0.172969
O O15 0.317276 0.145142 0.341622
O O16 0.650667 0.132641 0.991648
O O17 0.953834 0.904791 0.336985
#
# Coordination Sequence:
#
# PCOD9242274 Si02
#       8
#     4   4   4   4   4   4   4   4
#     4  12  24  40  72 104 127 171 237 287 334 408
#     4   9  21  42  69  94 129 181 228 277 326 416
#     4   9  19  41  68  94 125 173 230 274 327 399
#     4  12  21  42  68  96 134 173 221 284 334 397
#     4  11  25  43  62 103 142 175 220 281 350 409
#     4  12  26  42  67 105 138 175 224 285 356 403
#     4  11  22  42  72  97 129 182 230 274 341 410
#     4  10  19  41  69  90 129 175 222 276 326 400
#
# _framework density 21.432953000000001
#
# number of rings (size 3 to 8) (size 9 to 14) (size 15 to 20)
#    0.000    1.250    5.000    1.125    3.500    2.000 
#    2.250    0.000    0.000    0.000    0.000    0.000 
#    0.000    0.000    0.000    0.000    0.000    0.000 
#
# Total GULP energy -178416.910427 kJ/mol
# GULP energy per Si atom -5575.528451 kJ/mol
# Density = 2.138417 g / cm^3
# Si number density = 21.432953 Si / 1000 Ang^3
#
#
#
# Elastic Constant Matrix: (Units=GPa)
#
#
# Indices 1 2 3 4 5 6 
#
# 1 59.4997 5.7682 17.8379 0.0000 -7.3523 0.0000
# 2 5.7682 111.4554 27.5727 0.0000 -9.5205 0.0000
# 3 17.8379 27.5727 113.8113 0.0000 0.5582 0.0000
# 4 0.0000 0.0000 0.0000 19.1724 0.0000 4.7908
# 5 -7.3523 -9.5205 0.5582 0.0000 36.3972 0.0000
# 6 0.0000 0.0000 0.0000 4.7908 0.0000 10.5753
#
#
#
# Elastic Compliance Matrix: (Units=1/GPa)
#
#
# Indices 1 2 3 4 5 6 
#
# 1 0.018122 0.000093 -0.002881 0.000000 0.003729 0.000000
# 2 0.000093 0.009784 -0.002398 0.000000 0.002615 0.000000
# 3 -0.002881 -0.002398 0.009826 0.000000 -0.001360 0.000000
# 4 0.000000 0.000000 0.000000 0.058816 0.000000 -0.026645
# 5 0.003729 0.002615 -0.001360 0.000000 0.028933 0.000000
# 6 0.000000 0.000000 0.000000 -0.026645 0.000000 0.106631
#
#
# Mechanical properties :
#
#
# Convention : Reuss Voigt Hill
#
# Bulk Modulus (GPa) = 36.54880 43.01380 39.78130
# Shear Modulus (GPa) = 19.87253 28.80147 24.33700
#
# Velocity S-wave (km/s) = 3.04829 3.66976 3.37337
# Velocity P-wave (km/s) = 5.42946 6.16999 5.81153
#
# Compressibility (1/GPa) = 0.02736068
#
# Stress axis : x y z
#
# Youngs Moduli (GPa) = 55.18037 102.20869 101.77455
#
# Poissons Ratio (x) = -0.00955 0.29324
# Poissons Ratio (y) = -0.00516 0.24403
# Poissons Ratio (z) = 0.15899 0.24507
#
# Static dielectric constant tensor:
#      x y z
#    x 1.880210 0.000000 -0.008580 
#    y 0.000000 1.712340 0.000000 
#    z -0.008580 0.000000 1.738540 
# 
# From -- ./inp_files/45422.got.cif
#   From: 2010.05.17/outbox.cif.g08.bks.cpg/sg14_23_cif.got.tgz:45422.got - 2010.06.03 17:49:19.
