data_PCOD9242933
_publ_section_title
;
Structure prediction by ZEFSAII (Michael W. Deem and Ramdas Pophale) SiO2 
 PCOD9242933
Probable space group: P 21/C
;
_chemical_formula_sum "Si O2"
_cell_formula_units_Z 32
_cell_length_a 7.817928
_cell_length_b 20.703418
_cell_length_c 14.368861
_cell_angle_alpha 90.000000
_cell_angle_beta 32.204779
_cell_angle_gamma 90.000000
_cell_volume 1239.481257
_symmetry_space_group_name_H-M "P 21/C"
_symmetry_group_IT_number 14
_symmetry_cell_setting 'monoclinic'
loop_
_space_group_symop_operation_xyz
x,y,z
-x,1/2+y,1/2-z
-x,-y,-z
x,1/2-y,1/2+z
loop_
_atom_site_type_symbol
_atom_site_label
_atom_site_fract_x
_atom_site_fract_y
_atom_site_fract_z
Si Si1 0.172433 0.914185 0.599611
Si Si2 0.137538 0.523122 0.654793
Si Si3 0.765347 0.560717 0.123130
Si Si4 0.930819 0.831587 0.031509
Si Si5 0.351199 0.302315 0.836314
Si Si6 0.168000 0.295113 0.700757
Si Si7 0.298261 0.454060 0.296086
Si Si8 0.128235 0.665054 0.662138
O O1 0.459812 0.921970 0.393701
O O2 0.837155 0.922653 0.696779
O O3 0.130927 0.844998 0.666238
O O4 0.134175 0.973608 0.685725
O O5 0.500000 0.500000 0.500000
O O6 0.079056 0.593800 0.725285
O O7 0.046763 0.533706 0.589930
O O8 0.820558 0.630964 0.051701
O O9 0.440443 0.524380 0.250740
O O10 0.000000 0.500000 0.000000
O O11 0.728647 0.769283 0.092710
O O12 0.742311 0.899134 0.106639
O O13 0.019459 0.833182 0.102294
O O14 0.278055 0.821656 0.826679
O O15 0.252446 0.291880 0.772593
O O16 0.493317 0.321173 0.506866
O O17 0.066649 0.225575 0.709145
#
# Coordination Sequence:
#
# PCOD9242933 Si02
#       8
#     4   4   4   4   4   4   4   4
#     4  10  20  36  58  83 113 148 180 231 288 332
#     4  11  21  37  54  83 115 148 189 232 282 332
#     4   9  20  36  58  85 115 146 186 231 284 336
#     4   9  19  30  52  81 113 140 187 234 276 329
#     4   9  18  31  51  82 112 144 179 235 285 323
#     4   9  17  29  50  78 108 136 180 231 277 320
#     4  10  22  36  55  86 112 150 189 230 280 342
#     4   9  18  30  49  78 108 139 177 235 277 323
#
# _framework density 25.817250999999999
#
# number of rings (size 3 to 8) (size 9 to 14) (size 15 to 20)
#    0.000    2.500    1.250    0.375   14.000    0.500 
#    0.000    0.000    0.000    1.500    0.000    0.000 
#    0.000    0.000    0.000    0.000    0.000    0.000 
#
# Total GULP energy -178538.322535 kJ/mol
# GULP energy per Si atom -5579.322579 kJ/mol
# Density = 2.575849 g / cm^3
# Si number density = 25.817251 Si / 1000 Ang^3
#
#
#
# Elastic Constant Matrix: (Units=GPa)
#
#
# Indices 1 2 3 4 5 6 
#
# 1 50.7741 22.4315 16.3668 0.0000 -6.3744 0.0000
# 2 22.4315 176.4494 28.7372 0.0000 -22.3756 0.0000
# 3 16.3668 28.7372 86.8628 0.0000 -16.8324 0.0000
# 4 0.0000 0.0000 0.0000 38.9765 0.0000 -8.7556
# 5 -6.3744 -22.3756 -16.8324 0.0000 20.1595 0.0000
# 6 0.0000 0.0000 0.0000 -8.7556 0.0000 27.1355
#
#
#
# Elastic Compliance Matrix: (Units=1/GPa)
#
#
# Indices 1 2 3 4 5 6 
#
# 1 0.021829 -0.002010 -0.003034 0.000000 0.002139 0.000000
# 2 -0.002010 0.006842 -0.000640 0.000000 0.006424 0.000000
# 3 -0.003034 -0.000640 0.014283 0.000000 0.010256 0.000000
# 4 0.000000 0.000000 0.000000 0.027661 0.000000 0.008925
# 5 0.002139 0.006424 0.010256 0.000000 0.065974 0.000000
# 6 0.000000 0.000000 0.000000 0.008925 0.000000 0.039732
#
#
# Mechanical properties :
#
#
# Convention : Reuss Voigt Hill
#
# Bulk Modulus (GPa) = 31.65831 49.90636 40.78233
# Shear Modulus (GPa) = 25.22471 33.69104 29.45787
#
# Velocity S-wave (km/s) = 3.12917 3.61637 3.38156
# Velocity P-wave (km/s) = 5.03435 6.06713 5.57471
#
# Compressibility (1/GPa) = 0.03158729
#
# Stress axis : x y z
#
# Youngs Moduli (GPa) = 45.80975 146.16259 70.01210
#
# Poissons Ratio (x) = 0.29376 0.21240
# Poissons Ratio (y) = 0.09207 0.04480
# Poissons Ratio (z) = 0.13898 0.09353
#
# Static dielectric constant tensor:
#      x y z
#    x 2.153820 0.000000 0.048490 
#    y 0.000000 2.175190 0.000000 
#    z 0.048490 0.000000 2.150100 
# 
# From -- ./inp_files/13747.got.cif
#   From: 2010.05.17/outbox.cif.g08.bks.cpg/sg14_7_cif.got.tgz:13747.got - 2010.06.03 17:49:19.
