data_PCOD9242024
_publ_section_title
;
Structure prediction by ZEFSAII (Michael W. Deem and Ramdas Pophale) SiO2 
 PCOD9242024
Probable space group: P 21/C
;
_chemical_formula_sum "Si O2"
_cell_formula_units_Z 28
_cell_length_a 14.911375
_cell_length_b 9.682005
_cell_length_c 21.304563
_cell_angle_alpha 90.000000
_cell_angle_beta 154.952206
_cell_angle_gamma 90.000000
_cell_volume 1302.206728
_symmetry_space_group_name_H-M "P 21/C"
_symmetry_group_IT_number 14
_symmetry_cell_setting 'monoclinic'
loop_
_space_group_symop_operation_xyz
x,y,z
-x,1/2+y,1/2-z
-x,-y,-z
x,1/2-y,1/2+z
loop_
_atom_site_type_symbol
_atom_site_label
_atom_site_fract_x
_atom_site_fract_y
_atom_site_fract_z
Si Si1 0.386624 0.352409 0.929274
Si Si2 0.776929 0.280525 0.734401
Si Si3 0.312987 0.276702 0.745371
Si Si4 0.438475 0.976512 0.817672
Si Si5 0.225459 0.270018 0.957324
Si Si6 0.520432 0.980552 0.294536
Si Si7 0.882204 0.354346 0.429095
O O1 0.280166 0.328941 0.795214
O O2 0.500000 0.500000 0.000000
O O3 0.578325 0.246465 0.063968
O O4 0.238129 0.330996 0.895283
O O5 0.738741 0.425050 0.745458
O O6 0.779064 0.179530 0.796384
O O7 0.988825 0.253268 0.831214
O O8 0.453568 0.139400 0.836897
O O9 0.433196 0.392511 0.780620
O O10 0.076659 0.252219 0.567408
O O11 0.382382 0.964128 0.708391
O O12 0.638183 0.872610 0.953524
O O13 0.328563 0.381983 0.069770
O O14 0.313701 0.883881 0.149036
O O15 0.000000 0.500000 0.500000
#
# Coordination Sequence:
#
# PCOD9242024 Si02
#       7
#     4   4   4   4   4   4   4
#     4  11  22  48  68  93 134 182 221 268 328 412
#     4  11  24  44  67  97 134 179 216 277 342 392
#     4  11  24  40  69 102 133 169 230 280 323 396
#     4  11  24  42  66 103 138 166 221 291 331 383
#     4  11  23  44  69  91 138 181 215 273 345 397
#     4  11  20  42  68  98 134 180 221 267 336 403
#     4  10  19  38  66  95 126 172 220 263 320 394
#
# _framework density 21.501961999999999
#
# number of rings (size 3 to 8) (size 9 to 14) (size 15 to 20)
#    0.000    1.143    4.286    4.286    0.000    4.571 
#    7.714    0.000    0.000    0.000    0.000    0.000 
#    0.000    0.000    0.000    0.000    0.000    0.000 
#
# Total GULP energy -156298.162242 kJ/mol
# GULP energy per Si atom -5582.077223 kJ/mol
# Density = 2.145302 g / cm^3
# Si number density = 21.501962 Si / 1000 Ang^3
#
#
#
# Elastic Constant Matrix: (Units=GPa)
#
#
# Indices 1 2 3 4 5 6 
#
# 1 101.3230 22.0863 10.7573 0.0000 -3.4959 0.0000
# 2 22.0863 72.6107 -12.8545 0.0000 4.9925 0.0000
# 3 10.7573 -12.8545 39.2646 0.0000 -0.3840 0.0000
# 4 0.0000 0.0000 0.0000 8.1274 0.0000 -9.0787
# 5 -3.4959 4.9925 -0.3840 0.0000 36.2044 0.0000
# 6 0.0000 0.0000 0.0000 -9.0787 0.0000 33.3798
#
#
#
# Elastic Compliance Matrix: (Units=1/GPa)
#
#
# Indices 1 2 3 4 5 6 
#
# 1 0.011360 -0.004370 -0.004527 0.000000 0.001652 0.000000
# 2 -0.004370 0.016442 0.006554 0.000000 -0.002620 0.000000
# 3 -0.004527 0.006554 0.028844 0.000000 -0.001035 0.000000
# 4 0.000000 0.000000 0.000000 0.176736 0.000000 0.048069
# 5 0.001652 -0.002620 -0.001035 0.000000 0.028131 0.000000
# 6 0.000000 0.000000 0.000000 0.048069 0.000000 0.043032
#
#
# Mechanical properties :
#
#
# Convention : Reuss Voigt Hill
#
# Bulk Modulus (GPa) = 19.24539 28.13072 23.68806
# Shear Modulus (GPa) = 15.31160 28.42294 21.86727
#
# Velocity S-wave (km/s) = 2.67142 3.63971 3.19249
# Velocity P-wave (km/s) = 4.29945 5.54748 4.96285
#
# Compressibility (1/GPa) = 0.05196050
#
# Stress axis : x y z
#
# Youngs Moduli (GPa) = 88.03100 60.82032 34.66909
#
# Poissons Ratio (x) = 0.26580 0.15694
# Poissons Ratio (y) = 0.38472 -0.22724
# Poissons Ratio (z) = 0.39850 -0.39864
#
# Static dielectric constant tensor:
#      x y z
#    x 1.781190 0.000000 0.018030 
#    y 0.000000 1.992760 0.000000 
#    z 0.018030 0.000000 1.787240 
# 
# From -- ./inp_files/68380.got.cif
#   From: 2010.05.17/outbox.cif.g08.bks.cpg/sg14_35_cif.got.tgz:68380.got - 2010.06.03 17:49:19.
