data_PCOD9242829
_publ_section_title
;
Structure prediction by ZEFSAII (Michael W. Deem and Ramdas Pophale) SiO2 
 PCOD9242829
Probable space group: P 21/C
;
_chemical_formula_sum "Si O2"
_cell_formula_units_Z 24
_cell_length_a 5.345727
_cell_length_b 10.907962
_cell_length_c 16.506193
_cell_angle_alpha 90.000000
_cell_angle_beta 69.683094
_cell_angle_gamma 90.000000
_cell_volume 902.612408
_symmetry_space_group_name_H-M "P 21/C"
_symmetry_group_IT_number 14
_symmetry_cell_setting 'monoclinic'
loop_
_space_group_symop_operation_xyz
x,y,z
-x,1/2+y,1/2-z
-x,-y,-z
x,1/2-y,1/2+z
loop_
_atom_site_type_symbol
_atom_site_label
_atom_site_fract_x
_atom_site_fract_y
_atom_site_fract_z
Si Si1 0.123606 0.240718 0.731204
Si Si2 0.465011 0.570883 0.329086
Si Si3 0.456657 0.495711 0.161636
Si Si4 0.040241 0.883355 0.596663
Si Si5 0.281185 0.427878 0.473874
Si Si6 0.938089 0.268423 0.077451
O O1 0.238831 0.377212 0.699238
O O2 0.004392 0.267299 0.835057
O O3 0.958630 0.197607 0.670399
O O4 0.366903 0.141565 0.697688
O O5 0.364811 0.574967 0.249203
O O6 0.413412 0.436481 0.370542
O O7 0.289853 0.666368 0.397675
O O8 0.765261 0.537984 0.123479
O O9 0.283398 0.538194 0.105349
O O10 0.110873 0.847944 0.497017
O O11 0.500000 0.500000 0.500000
O O12 0.215795 0.298213 0.520304
O O13 0.000000 0.500000 0.500000
#
# Coordination Sequence:
#
# PCOD9242829 Si02
#       6
#     4   4   4   4   4   4
#     4  11  24  45  70  96 139 180 221 278 342 397
#     4  10  22  44  67  98 135 177 226 279 337 391
#     4  11  26  44  67  98 138 178 224 275 334 408
#     4  11  27  45  66 103 133 174 232 275 332 410
#     4  10  20  35  62  97 122 160 216 268 319 382
#     4  11  23  42  71  96 136 177 222 280 338 393
#
# _framework density 26.589486999999998
#
# number of rings (size 3 to 8) (size 9 to 14) (size 15 to 20)
#    0.000    1.333    3.333    1.000    4.667    1.333 
#    0.000    0.000    0.000    0.000    0.000    0.000 
#    0.000    0.000    0.000    0.000    0.000    0.000 
#
# Total GULP energy -133897.725122 kJ/mol
# GULP energy per Si atom -5579.071880 kJ/mol
# Density = 2.652897 g / cm^3
# Si number density = 26.589487 Si / 1000 Ang^3
#
#
#
# Elastic Constant Matrix: (Units=GPa)
#
#
# Indices 1 2 3 4 5 6 
#
# 1 157.7693 28.5941 36.4586 0.0000 30.7798 0.0000
# 2 28.5941 71.8003 50.4596 0.0000 11.0981 0.0000
# 3 36.4586 50.4596 160.2686 0.0000 35.1477 0.0000
# 4 0.0000 0.0000 0.0000 47.5012 0.0000 -8.2385
# 5 30.7798 11.0981 35.1477 0.0000 36.3802 0.0000
# 6 0.0000 0.0000 0.0000 -8.2385 0.0000 45.8824
#
#
#
# Elastic Compliance Matrix: (Units=1/GPa)
#
#
# Indices 1 2 3 4 5 6 
#
# 1 0.007927 -0.002423 0.000340 0.000000 -0.006297 0.000000
# 2 -0.002423 0.018625 -0.005731 0.000000 0.001905 0.000000
# 3 0.000340 -0.005731 0.009702 0.000000 -0.007913 0.000000
# 4 0.000000 0.000000 0.000000 0.021729 0.000000 0.003902
# 5 -0.006297 0.001905 -0.007913 0.000000 0.039879 0.000000
# 6 0.000000 0.000000 0.000000 0.003902 0.000000 0.022495
#
#
# Mechanical properties :
#
#
# Convention : Reuss Voigt Hill
#
# Bulk Modulus (GPa) = 48.47767 68.98476 58.73122
# Shear Modulus (GPa) = 34.99942 44.24113 39.62028
#
# Velocity S-wave (km/s) = 3.63200 4.08347 3.86433
# Velocity P-wave (km/s) = 5.98833 6.94504 6.48435
#
# Compressibility (1/GPa) = 0.02062805
#
# Stress axis : x y z
#
# Youngs Moduli (GPa) = 126.14656 53.69007 103.07513
#
# Poissons Ratio (x) = 0.13009 -0.03509
# Poissons Ratio (y) = 0.30565 0.59068
# Poissons Ratio (z) = -0.04294 0.30768
#
# Static dielectric constant tensor:
#      x y z
#    x 1.927410 0.000000 -0.045610 
#    y 0.000000 2.310380 0.000000 
#    z -0.045610 0.000000 2.194450 
# 
# From -- ./inp_files/52939.got.cif
#   From: 2010.05.17/outbox.cif.g08.bks.cpg/sg14_27_cif.got.tgz:52939.got - 2010.06.03 17:49:19.
