data_PCOD9242367
_publ_section_title
;
Structure prediction by ZEFSAII (Michael W. Deem and Ramdas Pophale) SiO2 
 PCOD9242367
Probable space group: P 21/C
;
_chemical_formula_sum "Si O2"
_cell_formula_units_Z 32
_cell_length_a 18.320313
_cell_length_b 17.514751
_cell_length_c 9.440391
_cell_angle_alpha 90.000000
_cell_angle_beta 140.619056
_cell_angle_gamma 90.000000
_cell_volume 1921.942141
_symmetry_space_group_name_H-M "P 21/C"
_symmetry_group_IT_number 14
_symmetry_cell_setting 'monoclinic'
loop_
_space_group_symop_operation_xyz
x,y,z
-x,1/2+y,1/2-z
-x,-y,-z
x,1/2-y,1/2+z
loop_
_atom_site_type_symbol
_atom_site_label
_atom_site_fract_x
_atom_site_fract_y
_atom_site_fract_z
Si Si1 0.618321 0.488044 0.759858
Si Si2 0.618321 0.011956 0.595106
Si Si3 0.731460 0.178131 0.430702
Si Si4 0.061044 0.881725 0.754346
Si Si5 0.824214 0.550582 0.573560
Si Si6 0.268540 0.821869 0.236321
Si Si7 0.175786 0.449418 0.100918
Si Si8 0.061044 0.881725 0.428784
O O1 0.500000 0.500000 0.500000
O O2 0.662056 0.400716 0.805047
O O3 0.716474 0.542658 0.840667
O O4 0.605643 0.501072 0.908465
O O5 0.662056 0.099284 0.681122
O O6 0.500000 0.000000 0.500000
O O7 0.716474 0.957342 0.808756
O O8 0.680188 0.250000 0.270282
O O9 0.736814 0.193568 0.605221
O O10 0.858451 0.164202 0.556398
O O11 0.068617 0.853690 0.602925
O O12 0.927145 0.891606 0.592926
O O13 0.115626 0.967002 0.835656
O O14 0.141549 0.835798 0.981044
O O15 0.788705 0.566069 0.683058
O O16 0.927145 0.608394 0.688510
O O17 0.115626 0.532999 0.011222
#
# Coordination Sequence:
#
# PCOD9242367 Si02
#       8
#     4   4   4   4   4   4   4   4
#     4  10  20  32  48  71  97 128 167 207 245 288
#     4  10  20  32  48  71  97 128 167 207 245 288
#     4  10  20  32  48  71  97 126 160 199 245 294
#     4   8  14  26  45  68  93 120 148 182 228 279
#     4   8  14  26  45  68  93 120 149 184 229 277
#     4  10  20  32  48  71  97 126 160 199 245 294
#     4   8  14  26  45  68  93 120 149 184 229 277
#     4   8  14  26  45  68  93 120 148 182 228 279
#
# _framework density 16.649826000000001
#
# number of rings (size 3 to 8) (size 9 to 14) (size 15 to 20)
#    0.000    3.000    0.000    3.000    0.000    4.000 
#    0.000    5.000    0.000    1.500    0.000    7.000 
#    0.000    0.000    0.000    0.000    0.000    0.000 
#
# Total GULP energy -178183.254068 kJ/mol
# GULP energy per Si atom -5568.226690 kJ/mol
# Density = 1.661193 g / cm^3
# Si number density = 16.649826 Si / 1000 Ang^3
#
#
#
# Elastic Constant Matrix: (Units=GPa)
#
#
# Indices 1 2 3 4 5 6 
#
# 1 134.9866 33.8563 76.2181 0.0000 2.4356 0.0000
# 2 33.8563 38.9222 31.3176 0.0000 -8.4538 0.0000
# 3 76.2181 31.3176 135.4980 0.0000 -0.7324 0.0000
# 4 0.0000 0.0000 0.0000 15.3461 0.0000 -6.3367
# 5 2.4356 -8.4538 -0.7324 0.0000 19.2006 0.0000
# 6 0.0000 0.0000 0.0000 -6.3367 0.0000 17.2490
#
#
#
# Elastic Compliance Matrix: (Units=1/GPa)
#
#
# Indices 1 2 3 4 5 6 
#
# 1 0.012371 -0.007688 -0.005210 0.000000 -0.005153 0.000000
# 2 -0.007688 0.040355 -0.004902 0.000000 0.018556 0.000000
# 3 -0.005210 -0.004902 0.011438 0.000000 -0.001061 0.000000
# 4 0.000000 0.000000 0.000000 0.076815 0.000000 0.028219
# 5 -0.005153 0.018556 -0.001061 0.000000 0.060865 0.000000
# 6 0.000000 0.000000 0.000000 0.028219 0.000000 0.068341
#
#
# Mechanical properties :
#
#
# Convention : Reuss Voigt Hill
#
# Bulk Modulus (GPa) = 35.00983 65.79896 50.40439
# Shear Modulus (GPa) = 15.85761 21.56013 18.70887
#
# Velocity S-wave (km/s) = 3.08948 3.60240 3.35575
# Velocity P-wave (km/s) = 5.81371 7.54375 6.73452
#
# Compressibility (1/GPa) = 0.02856341
#
# Stress axis : x y z
#
# Youngs Moduli (GPa) = 80.83462 24.78028 87.42892
#
# Poissons Ratio (x) = 0.19052 0.45546
# Poissons Ratio (y) = 0.62148 0.42859
# Poissons Ratio (z) = 0.42111 0.12148
#
# Static dielectric constant tensor:
#      x y z
#    x 1.555310 0.000000 0.001660 
#    y 0.000000 1.587780 0.000000 
#    z 0.001660 0.000000 1.555810 
# 
# From -- ./inp_files/18137.got.cif
#   From: 2010.05.17/outbox.cif.g08.bks.cpg/sg14_10_cif.got.tgz:18137.got - 2010.06.03 17:49:19.
