data_PCOD9242234
_publ_section_title
;
Structure prediction by ZEFSAII (Michael W. Deem and Ramdas Pophale) SiO2 
 PCOD9242234
Probable space group: P 21/C
;
_chemical_formula_sum "Si O2"
_cell_formula_units_Z 32
_cell_length_a 11.956044
_cell_length_b 12.879445
_cell_length_c 16.891841
_cell_angle_alpha 90.000000
_cell_angle_beta 32.104663
_cell_angle_gamma 90.000000
_cell_volume 1382.414776
_symmetry_space_group_name_H-M "P 21/C"
_symmetry_group_IT_number 14
_symmetry_cell_setting 'monoclinic'
loop_
_space_group_symop_operation_xyz
x,y,z
-x,1/2+y,1/2-z
-x,-y,-z
x,1/2-y,1/2+z
loop_
_atom_site_type_symbol
_atom_site_label
_atom_site_fract_x
_atom_site_fract_y
_atom_site_fract_z
Si Si1 0.416672 0.548699 0.815952
Si Si2 0.674719 0.182693 0.770373
Si Si3 0.521734 0.838028 0.404066
Si Si4 0.115970 0.834601 0.751059
Si Si5 0.049973 0.147486 0.759639
Si Si6 0.981229 0.492693 0.152570
Si Si7 0.284346 0.413922 0.571649
Si Si8 0.615077 0.386819 0.577132
O O1 0.409064 0.651440 0.765136
O O2 0.535512 0.579669 0.824333
O O3 0.509593 0.450704 0.711982
O O4 0.176423 0.525815 0.983843
O O5 0.793955 0.287867 0.721243
O O6 0.836997 0.090919 0.695291
O O7 0.468345 0.168709 0.949060
O O8 0.320724 0.869347 0.578934
O O9 0.731027 0.839967 0.329420
O O10 0.482660 0.722995 0.390164
O O11 0.027118 0.741336 0.749556
O O12 0.902170 0.900826 0.882396
O O13 0.061049 0.057556 0.686813
O O14 0.864388 0.134352 0.935081
O O15 0.832873 0.584658 0.273946
O O16 0.384002 0.527410 0.494657
#
# Coordination Sequence:
#
# PCOD9242234 Si02
#       8
#     4   4   4   4   4   4   4   4
#     4  11  23  43  65  99 139 174 220 280 350 397
#     4  10  22  39  64  97 130 170 218 276 339 398
#     4  11  22  44  68  96 135 178 230 285 335 403
#     4  10  20  39  65  99 127 169 230 273 324 400
#     4   9  21  40  68  95 128 176 223 272 330 400
#     4  10  20  40  65 100 126 169 223 276 332 399
#     4  10  19  40  70  92 129 173 227 275 328 407
#     4   9  23  45  64  95 133 180 223 274 343 406
#
# _framework density 23.147901000000001
#
# number of rings (size 3 to 8) (size 9 to 14) (size 15 to 20)
#    0.000    2.000    1.250    2.250    0.000    5.000 
#   15.750    0.000    0.000    0.000    0.000    0.000 
#    0.000    0.000    0.000    0.000    0.000    0.000 
#
# Total GULP energy -178748.097033 kJ/mol
# GULP energy per Si atom -5585.878032 kJ/mol
# Density = 2.309522 g / cm^3
# Si number density = 23.147901 Si / 1000 Ang^3
#
#
#
# Elastic Constant Matrix: (Units=GPa)
#
#
# Indices 1 2 3 4 5 6 
#
# 1 81.1510 2.3420 39.0968 0.0000 -19.1062 0.0000
# 2 2.3420 33.0825 21.6245 0.0000 -7.5421 0.0000
# 3 39.0968 21.6245 135.2710 0.0000 -6.1982 0.0000
# 4 0.0000 0.0000 0.0000 31.7906 0.0000 -2.6041
# 5 -19.1062 -7.5421 -6.1982 0.0000 37.9730 0.0000
# 6 0.0000 0.0000 0.0000 -2.6041 0.0000 23.9311
#
#
#
# Elastic Compliance Matrix: (Units=1/GPa)
#
#
# Indices 1 2 3 4 5 6 
#
# 1 0.016607 0.004033 -0.005063 0.000000 0.008330 0.000000
# 2 0.004033 0.036083 -0.006562 0.000000 0.008125 0.000000
# 3 -0.005063 -0.006562 0.009802 0.000000 -0.002251 0.000000
# 4 0.000000 0.000000 0.000000 0.031739 0.000000 0.003454
# 5 0.008330 0.008125 -0.002251 0.000000 0.031772 0.000000
# 6 0.000000 0.000000 0.000000 0.003454 0.000000 0.042162
#
#
# Mechanical properties :
#
#
# Convention : Reuss Voigt Hill
#
# Bulk Modulus (GPa) = 21.13779 41.73678 31.43728
# Shear Modulus (GPa) = 25.11075 31.16834 28.13955
#
# Velocity S-wave (km/s) = 3.29720 3.67343 3.49039
# Velocity P-wave (km/s) = 4.86280 6.00514 5.46391
#
# Compressibility (1/GPa) = 0.04730863
#
# Stress axis : x y z
#
# Youngs Moduli (GPa) = 60.21644 27.71363 102.02357
#
# Poissons Ratio (x) = -0.11176 0.51652
# Poissons Ratio (y) = -0.24284 0.66944
# Poissons Ratio (z) = 0.30486 0.18185
#
# Static dielectric constant tensor:
#      x y z
#    x 1.881270 0.000000 0.001300 
#    y 0.000000 1.972530 0.000000 
#    z 0.001300 0.000000 1.866900 
# 
# From -- ./inp_files/57918.got.cif
#   From: 2010.05.17/outbox.cif.g08.bks.cpg/sg14_29_cif.got.tgz:57918.got - 2010.06.03 17:49:19.
