data_PCOD9242049
_publ_section_title
;
Structure prediction by ZEFSAII (Michael W. Deem and Ramdas Pophale) SiO2 
 PCOD9242049
Probable space group: P 21/C
;
_chemical_formula_sum "Si O2"
_cell_formula_units_Z 24
_cell_length_a 12.326129
_cell_length_b 12.814446
_cell_length_c 21.105530
_cell_angle_alpha 90.000000
_cell_angle_beta 161.139729
_cell_angle_gamma 90.000000
_cell_volume 1077.647070
_symmetry_space_group_name_H-M "P 21/C"
_symmetry_group_IT_number 14
_symmetry_cell_setting 'monoclinic'
loop_
_space_group_symop_operation_xyz
x,y,z
-x,1/2+y,1/2-z
-x,-y,-z
x,1/2-y,1/2+z
loop_
_atom_site_type_symbol
_atom_site_label
_atom_site_fract_x
_atom_site_fract_y
_atom_site_fract_z
Si Si1 0.674180 0.464426 0.781261
Si Si2 0.078269 0.905993 0.902731
Si Si3 0.711675 0.783259 0.597900
Si Si4 0.131565 0.424517 0.924637
Si Si5 0.047924 0.913787 0.263689
Si Si6 0.680798 0.560798 0.298596
O O1 0.441328 0.563581 0.632023
O O2 0.480204 0.393849 0.726100
O O3 0.813753 0.412984 0.794812
O O4 0.000000 0.500000 0.000000
O O5 0.979475 0.016093 0.814482
O O6 0.824715 0.874319 0.819297
O O7 0.010686 0.822985 0.810045
O O8 0.776362 0.820930 0.561992
O O9 0.376427 0.841279 0.436205
O O10 0.734588 0.659429 0.607633
O O11 0.080454 0.507590 0.839966
O O12 0.426755 0.475998 0.128999
O O13 0.000000 0.500000 0.500000
#
# Coordination Sequence:
#
# PCOD9242049 Si02
#       6
#     4   4   4   4   4   4
#     4   9  20  32  61  90 106 149 195 230 271 331
#     4  10  19  39  62  81 117 151 183 230 285 336
#     4  11  23  36  59  87 114 148 185 234 288 336
#     4  10  19  39  58  83 119 142 188 232 281 338
#     4  11  23  36  59  87 114 148 185 234 288 336
#     4   9  16  34  61  82 102 155 194 220 274 334
#
# _framework density 22.270743
#
# number of rings (size 3 to 8) (size 9 to 14) (size 15 to 20)
#    0.000    2.000    3.333    1.000    4.667    1.333 
#    0.000    0.000    0.000   40.000    0.000    0.000 
#    0.000    0.000    0.000    0.000    0.000    0.000 
#
# Total GULP energy -133812.146329 kJ/mol
# GULP energy per Si atom -5575.506097 kJ/mol
# Density = 2.222005 g / cm^3
# Si number density = 22.270743 Si / 1000 Ang^3
#
#
#
# Elastic Constant Matrix: (Units=GPa)
#
#
# Indices 1 2 3 4 5 6 
#
# 1 152.1204 -1.3135 32.6832 0.0000 12.1811 0.0000
# 2 -1.3135 36.8970 5.3703 0.0000 -1.6040 0.0000
# 3 32.6832 5.3703 93.1053 0.0000 -11.5356 0.0000
# 4 0.0000 0.0000 0.0000 13.3863 0.0000 5.8215
# 5 12.1811 -1.6040 -11.5356 0.0000 26.1883 0.0000
# 6 0.0000 0.0000 0.0000 5.8215 0.0000 10.9925
#
#
#
# Elastic Compliance Matrix: (Units=1/GPa)
#
#
# Indices 1 2 3 4 5 6 
#
# 1 0.007703 0.000544 -0.003358 0.000000 -0.005029 0.000000
# 2 0.000544 0.027397 -0.001687 0.000000 0.000682 0.000000
# 3 -0.003358 -0.001687 0.012902 0.000000 0.007142 0.000000
# 4 0.000000 0.000000 0.000000 0.097056 0.000000 -0.051399
# 5 -0.005029 0.000682 0.007142 0.000000 0.043712 0.000000
# 6 0.000000 0.000000 0.000000 -0.051399 0.000000 0.118191
#
#
# Mechanical properties :
#
#
# Convention : Reuss Voigt Hill
#
# Bulk Modulus (GPa) = 25.64127 39.51138 32.57633
# Shear Modulus (GPa) = 15.19937 26.47227 20.83582
#
# Velocity S-wave (km/s) = 2.61527 3.45143 3.06203
# Velocity P-wave (km/s) = 4.54510 5.80199 5.21157
#
# Compressibility (1/GPa) = 0.03899963
#
# Stress axis : x y z
#
# Youngs Moduli (GPa) = 129.82515 36.50029 77.50983
#
# Poissons Ratio (x) = -0.01987 0.26031
# Poissons Ratio (y) = -0.07068 0.13075
# Poissons Ratio (z) = 0.43600 0.06157
#
# Static dielectric constant tensor:
#      x y z
#    x 1.926800 0.000000 0.040130 
#    y 0.000000 1.810140 0.000000 
#    z 0.040130 0.000000 1.884430 
# 
# From -- ./inp_files/16119.got.cif
#   From: 2010.05.17/outbox.cif.g08.bks.cpg/sg14_9_cif.got.tgz:16119.got - 2010.06.03 17:49:19.
