data_PCOD9242168
_publ_section_title
;
Structure prediction by ZEFSAII (Michael W. Deem and Ramdas Pophale) SiO2 
 PCOD9242168
Probable space group: P 21/C
;
_chemical_formula_sum "Si O2"
_cell_formula_units_Z 20
_cell_length_a 24.390234
_cell_length_b 6.972912
_cell_length_c 14.223880
_cell_angle_alpha 90.000000
_cell_angle_beta 160.408787
_cell_angle_gamma 90.000000
_cell_volume 811.130940
_symmetry_space_group_name_H-M "P 21/C"
_symmetry_group_IT_number 14
_symmetry_cell_setting 'monoclinic'
loop_
_space_group_symop_operation_xyz
x,y,z
-x,1/2+y,1/2-z
-x,-y,-z
x,1/2-y,1/2+z
loop_
_atom_site_type_symbol
_atom_site_label
_atom_site_fract_x
_atom_site_fract_y
_atom_site_fract_z
Si Si1 0.065115 0.142199 0.461772
Si Si2 0.553483 0.408760 0.949521
Si Si3 0.226494 0.883060 0.582965
Si Si4 0.403772 0.783265 0.691210
Si Si5 0.201595 0.086485 0.874782
O O1 0.143456 0.195625 0.688504
O O2 0.195317 0.063061 0.598507
O O3 0.945015 0.959930 0.292060
O O4 0.949196 0.307957 0.236459
O O5 0.545441 0.636301 0.952866
O O6 0.558065 0.386035 0.843979
O O7 0.373009 0.337768 0.689801
O O8 0.690339 0.288036 0.222334
O O9 0.339556 0.906566 0.673992
O O10 0.258365 0.629023 0.434396
#
# Coordination Sequence:
#
# PCOD9242168 Si02
#       5
#     4   4   4   4   4
#     4  10  20  38  58  83 119 145 189 231 290 325
#     4  10  19  40  60  80 116 152 190 231 280 336
#     4  11  21  38  59  88 112 151 188 237 274 346
#     4   9  20  36  60  81 112 146 192 233 275 329
#     4   8  19  38  59  75 115 158 174 233 286 328
#
# _framework density 24.656932000000001
#
# number of rings (size 3 to 8) (size 9 to 14) (size 15 to 20)
#    1.200    1.200    2.000    0.600    0.000    1.600 
#    3.600    3.000    0.000    0.000    0.000    0.000 
#    0.000    0.000    0.000    0.000    0.000    0.000 
#
# Total GULP energy -111723.749939 kJ/mol
# GULP energy per Si atom -5586.187497 kJ/mol
# Density = 2.460081 g / cm^3
# Si number density = 24.656932 Si / 1000 Ang^3
#
#
#
# Elastic Constant Matrix: (Units=GPa)
#
#
# Indices 1 2 3 4 5 6 
#
# 1 112.8163 29.3321 10.5314 0.0000 4.7930 0.0000
# 2 29.3321 64.3198 29.2972 0.0000 8.2759 0.0000
# 3 10.5314 29.2972 74.4570 0.0000 -8.3833 0.0000
# 4 0.0000 0.0000 0.0000 20.2792 0.0000 4.2679
# 5 4.7930 8.2759 -8.3833 0.0000 33.5784 0.0000
# 6 0.0000 0.0000 0.0000 4.2679 0.0000 25.7830
#
#
#
# Elastic Compliance Matrix: (Units=1/GPa)
#
#
# Indices 1 2 3 4 5 6 
#
# 1 0.010070 -0.004771 0.000436 0.000000 -0.000153 0.000000
# 2 -0.004771 0.022800 -0.009109 0.000000 -0.007212 0.000000
# 3 0.000436 -0.009109 0.017696 0.000000 0.006601 0.000000
# 4 0.000000 0.000000 0.000000 0.051091 0.000000 -0.008457
# 5 -0.000153 -0.007212 0.006601 0.000000 0.033228 0.000000
# 6 0.000000 0.000000 0.000000 -0.008457 0.000000 0.040185
#
#
# Mechanical properties :
#
#
# Convention : Reuss Voigt Hill
#
# Bulk Modulus (GPa) = 42.23232 43.32382 42.77807
# Shear Modulus (GPa) = 23.82625 28.09027 25.95826
#
# Velocity S-wave (km/s) = 3.11193 3.37893 3.24817
# Velocity P-wave (km/s) = 5.48427 5.72989 5.60843
#
# Compressibility (1/GPa) = 0.02367855
#
# Stress axis : x y z
#
# Youngs Moduli (GPa) = 99.30198 43.85947 56.50948
#
# Poissons Ratio (x) = 0.20927 -0.02463
# Poissons Ratio (y) = 0.47380 0.51472
# Poissons Ratio (z) = -0.04328 0.39950
#
# Static dielectric constant tensor:
#      x y z
#    x 1.930140 0.000000 0.045060 
#    y 0.000000 1.922990 0.000000 
#    z 0.045060 0.000000 1.981070 
# 
# From -- ./inp_files/42894.got.cif
#   From: 2010.05.17/outbox.cif.g08.bks.cpg/sg14_22_cif.got.tgz:42894.got - 2010.06.03 17:49:19.
