data_PCOD9242465
_publ_section_title
;
Structure prediction by ZEFSAII (Michael W. Deem and Ramdas Pophale) SiO2 
 PCOD9242465
Probable space group: P 21/C
;
_chemical_formula_sum "Si O2"
_cell_formula_units_Z 24
_cell_length_a 14.529333
_cell_length_b 8.144179
_cell_length_c 15.755165
_cell_angle_alpha 90.000000
_cell_angle_beta 152.865644
_cell_angle_gamma 90.000000
_cell_volume 850.267652
_symmetry_space_group_name_H-M "P 21/C"
_symmetry_group_IT_number 14
_symmetry_cell_setting 'monoclinic'
loop_
_space_group_symop_operation_xyz
x,y,z
-x,1/2+y,1/2-z
-x,-y,-z
x,1/2-y,1/2+z
loop_
_atom_site_type_symbol
_atom_site_label
_atom_site_fract_x
_atom_site_fract_y
_atom_site_fract_z
Si Si1 0.505933 0.625514 0.233220
Si Si2 0.097434 0.401432 0.706508
Si Si3 0.265539 0.307178 0.211159
Si Si4 0.896538 0.917429 0.171349
Si Si5 0.324559 0.663954 0.715880
Si Si6 0.177357 0.634708 0.235011
O O1 0.559923 0.771937 0.212495
O O2 0.701031 0.608328 0.453548
O O3 0.502119 0.459678 0.173908
O O4 0.337235 0.679024 0.161746
O O5 0.084907 0.549594 0.762951
O O6 0.888675 0.415791 0.483134
O O7 0.258208 0.349544 0.768200
O O8 0.082381 0.237600 0.751106
O O9 0.276985 0.472058 0.274485
O O10 0.047609 0.327984 0.986178
O O11 0.857368 0.076792 0.197863
O O12 0.312690 0.723261 0.802955
#
# Coordination Sequence:
#
# PCOD9242465 Si02
#       6
#     4   4   4   4   4   4
#     4  11  22  36  56  81 108 142 181 221 263 315
#     4   9  20  36  56  82 106 138 178 219 265 316
#     4   9  18  34  57  79 106 143 178 213 264 324
#     4  10  20  33  57  83 106 136 178 228 265 306
#     4  10  22  36  54  78 109 145 179 215 266 323
#     4   9  18  35  56  79 107 140 176 219 267 316
#
# _framework density 28.226407999999999
#
# number of rings (size 3 to 8) (size 9 to 14) (size 15 to 20)
#    0.000    2.333    0.000    3.000    0.000    9.333 
#    0.000    1.667    0.000    9.000    0.000    0.000 
#    0.000    0.000    0.000    0.000    0.000    0.000 
#
# Total GULP energy -134404.014740 kJ/mol
# GULP energy per Si atom -5600.167281 kJ/mol
# Density = 2.816216 g / cm^3
# Si number density = 28.226408 Si / 1000 Ang^3
#
#
#
# Elastic Constant Matrix: (Units=GPa)
#
#
# Indices 1 2 3 4 5 6 
#
# 1 167.1319 22.4759 2.0175 0.0000 -31.3017 0.0000
# 2 22.4759 112.4356 0.9549 0.0000 -13.2869 0.0000
# 3 2.0175 0.9549 69.4488 0.0000 2.4341 0.0000
# 4 0.0000 0.0000 0.0000 29.9743 0.0000 -19.4010
# 5 -31.3017 -13.2869 2.4341 0.0000 26.1528 0.0000
# 6 0.0000 0.0000 0.0000 -19.4010 0.0000 85.3959
#
#
#
# Elastic Compliance Matrix: (Units=1/GPa)
#
#
# Indices 1 2 3 4 5 6 
#
# 1 0.007756 -0.000471 -0.000538 0.000000 0.009094 0.000000
# 2 -0.000471 0.009497 -0.000267 0.000000 0.004286 0.000000
# 3 -0.000538 -0.000267 0.014493 0.000000 -0.002128 0.000000
# 4 0.000000 0.000000 0.000000 0.039114 0.000000 0.008886
# 5 0.009094 0.004286 -0.002128 0.000000 0.051497 0.000000
# 6 0.000000 0.000000 0.000000 0.008886 0.000000 0.013729
#
#
# Mechanical properties :
#
#
# Convention : Reuss Voigt Hill
#
# Bulk Modulus (GPa) = 34.25317 44.43477 39.34397
# Shear Modulus (GPa) = 33.69979 49.87579 41.78779
#
# Velocity S-wave (km/s) = 3.45905 4.20812 3.85184
# Velocity P-wave (km/s) = 5.30234 6.27594 5.80957
#
# Compressibility (1/GPa) = 0.02919438
#
# Stress axis : x y z
#
# Youngs Moduli (GPa) = 128.92641 105.29739 68.99898
#
# Poissons Ratio (x) = 0.04962 0.03709
# Poissons Ratio (y) = 0.06076 0.01843
# Poissons Ratio (z) = 0.06931 0.02812
#
# Static dielectric constant tensor:
#      x y z
#    x 2.155280 0.000000 -0.022200 
#    y 0.000000 2.284550 0.000000 
#    z -0.022200 0.000000 2.115100 
# 
# From -- ./inp_files/43024.got.cif
#   From: 2010.05.17/outbox.cif.g08.bks.cpg/sg14_22_cif.got.tgz:43024.got - 2010.06.03 17:49:19.
