data_PCOD9242315
_publ_section_title
;
Structure prediction by ZEFSAII (Michael W. Deem and Ramdas Pophale) SiO2 
 PCOD9242315
Probable space group: P 21/C
;
_chemical_formula_sum "Si O2"
_cell_formula_units_Z 26
_cell_length_a 7.480649
_cell_length_b 9.752096
_cell_length_c 14.534538
_cell_angle_alpha 90.000000
_cell_angle_beta 58.690830
_cell_angle_gamma 90.000000
_cell_volume 905.914791
_symmetry_space_group_name_H-M "P 21/C"
_symmetry_group_IT_number 14
_symmetry_cell_setting 'monoclinic'
loop_
_space_group_symop_operation_xyz
x,y,z
-x,1/2+y,1/2-z
-x,-y,-z
x,1/2-y,1/2+z
loop_
_atom_site_type_symbol
_atom_site_label
_atom_site_fract_x
_atom_site_fract_y
_atom_site_fract_z
Si Si1 0.825885 0.420413 0.754565
Si Si2 0.302097 0.396376 0.059721
Si Si3 0.511598 0.921850 0.202758
Si Si4 0.135961 0.755846 0.594293
Si Si5 0.827332 0.540553 0.471442
Si Si6 0.338399 0.205680 0.213940
Si Si7 0.000000 0.500000 0.000000
O O1 0.863515 0.531316 0.825572
O O2 0.659874 0.489242 0.732567
O O3 0.758506 0.295805 0.836475
O O4 0.035178 0.387611 0.643371
O O5 0.372215 0.266439 0.102521
O O6 0.174405 0.393394 0.999253
O O7 0.500000 0.500000 0.000000
O O8 0.344477 0.040547 0.224015
O O9 0.488146 0.784198 0.268764
O O10 0.640114 0.892173 0.076175
O O11 0.887896 0.748701 0.686216
O O12 0.232979 0.610828 0.544532
O O13 0.129059 0.869468 0.515223
O O14 0.000000 0.500000 0.500000
#
# Coordination Sequence:
#
# PCOD9242315 Si02
#       7
#     4   4   4   4   4   4   2
#     4   9  21  42  64  94 134 180 231 291 352 425
#     4  10  22  43  65 101 138 180 238 296 344 425
#     4  10  23  43  71  98 141 191 224 300 362 435
#     4  11  22  42  68  99 134 180 238 298 353 432
#     4  10  19  43  65  92 133 182 231 281 365 421
#     4  11  24  45  67 104 149 177 240 303 357 432
#     4  10  26  40  74 102 132 192 240 290 362 430
#
# _framework density 28.70027
#
# number of rings (size 3 to 8) (size 9 to 14) (size 15 to 20)
#    0.000    1.846    4.615    0.000    8.615    2.462 
#    2.769    0.769    0.000    0.000    0.000    0.000 
#    0.000    0.000    0.000    0.000    0.000    0.000 
#
# Total GULP energy -144941.756981 kJ/mol
# GULP energy per Si atom -5574.682961 kJ/mol
# Density = 2.863495 g / cm^3
# Si number density = 28.700270 Si / 1000 Ang^3
#
#
#
# Elastic Constant Matrix: (Units=GPa)
#
#
# Indices 1 2 3 4 5 6 
#
# 1 141.6631 13.4769 31.4564 0.0000 17.8616 0.0000
# 2 13.4769 101.2430 28.3775 0.0000 3.2441 0.0000
# 3 31.4564 28.3775 105.2504 0.0000 6.9491 0.0000
# 4 0.0000 0.0000 0.0000 52.5246 0.0000 8.5656
# 5 17.8616 3.2441 6.9491 0.0000 37.5657 0.0000
# 6 0.0000 0.0000 0.0000 8.5656 0.0000 53.2039
#
#
#
# Elastic Compliance Matrix: (Units=1/GPa)
#
#
# Indices 1 2 3 4 5 6 
#
# 1 0.007978 -0.000376 -0.002060 0.000000 -0.003380 0.000000
# 2 -0.000376 0.010708 -0.002759 0.000000 -0.000235 0.000000
# 3 -0.002060 -0.002759 0.010914 0.000000 -0.000801 0.000000
# 4 0.000000 0.000000 0.000000 0.019552 0.000000 -0.003148
# 5 -0.003380 -0.000235 -0.000801 0.000000 0.028396 0.000000
# 6 0.000000 0.000000 0.000000 -0.003148 0.000000 0.019302
#
#
# Mechanical properties :
#
#
# Convention : Reuss Voigt Hill
#
# Bulk Modulus (GPa) = 52.05764 54.97536 53.51650
# Shear Modulus (GPa) = 43.99699 46.98189 45.48944
#
# Velocity S-wave (km/s) = 3.91958 4.05036 3.98550
# Velocity P-wave (km/s) = 6.21787 6.40862 6.31396
#
# Compressibility (1/GPa) = 0.01920948
#
# Stress axis : x y z
#
# Youngs Moduli (GPa) = 125.33895 93.38618 91.62881
#
# Poissons Ratio (x) = 0.03515 0.18874
# Poissons Ratio (y) = 0.04717 0.25281
# Poissons Ratio (z) = 0.25818 0.25766
#
# Static dielectric constant tensor:
#      x y z
#    x 2.205910 0.000000 -0.003060 
#    y 0.000000 2.560180 0.000000 
#    z -0.003060 0.000000 2.270720 
# 
# From -- ./inp_files/39966.got.cif
#   From: 2010.05.17/outbox.cif.g08.bks.cpg/sg14_20_cif.got.tgz:39966.got - 2010.06.03 17:49:19.
