data_PCOD9242010
_publ_section_title
;
Structure prediction by ZEFSAII (Michael W. Deem and Ramdas Pophale) SiO2 
 PCOD9242010
Probable space group: P 21/C
;
_chemical_formula_sum "Si O2"
_cell_formula_units_Z 24
_cell_length_a 9.784481
_cell_length_b 7.639349
_cell_length_c 11.729486
_cell_angle_alpha 90.000000
_cell_angle_beta 75.462621
_cell_angle_gamma 90.000000
_cell_volume 848.674876
_symmetry_space_group_name_H-M "P 21/C"
_symmetry_group_IT_number 14
_symmetry_cell_setting 'monoclinic'
loop_
_space_group_symop_operation_xyz
x,y,z
-x,1/2+y,1/2-z
-x,-y,-z
x,1/2-y,1/2+z
loop_
_atom_site_type_symbol
_atom_site_label
_atom_site_fract_x
_atom_site_fract_y
_atom_site_fract_z
Si Si1 0.476018 0.925409 0.679118
Si Si2 0.414313 0.241342 0.135956
Si Si3 0.699175 0.371981 0.402623
Si Si4 0.204118 0.483237 0.392838
Si Si5 0.847745 0.674476 0.921682
Si Si6 0.035548 0.477853 0.747000
O O1 0.591921 0.834045 0.734147
O O2 0.408073 0.777153 0.613426
O O3 0.535853 0.112067 0.624538
O O4 0.348480 0.988081 0.791222
O O5 0.309628 0.367398 0.085611
O O6 0.385307 0.057359 0.080251
O O7 0.775130 0.376664 0.509428
O O8 0.832021 0.389323 0.289465
O O9 0.165369 0.300979 0.467314
O O10 0.076473 0.512083 0.333133
O O11 0.951839 0.512108 0.881472
O O12 0.892746 0.794524 0.801544
#
# Coordination Sequence:
#
# PCOD9242010 Si02
#       6
#     4   4   4   4   4   4
#     4  12  21  43  67  89 132 173 210 274 317 369
#     4  10  22  39  64  93 127 169 219 264 318 381
#     4  10  23  39  66  97 126 171 212 259 329 379
#     4  10  22  40  68  93 132 168 212 267 323 379
#     4  10  21  38  62  97 122 169 214 254 324 383
#     4  10  19  38  65  89 133 166 203 269 315 380
#
# _framework density 28.27938
#
# number of rings (size 3 to 8) (size 9 to 14) (size 15 to 20)
#    0.000    2.000    3.333    3.000    0.000    2.667 
#    0.000    5.000    7.333    1.000    0.000    0.000 
#    0.000    0.000    0.000    0.000    0.000    0.000 
#
# Total GULP energy -133805.792061 kJ/mol
# GULP energy per Si atom -5575.241336 kJ/mol
# Density = 2.821501 g / cm^3
# Si number density = 28.279380 Si / 1000 Ang^3
#
#
#
# Elastic Constant Matrix: (Units=GPa)
#
#
# Indices 1 2 3 4 5 6 
#
# 1 81.0964 36.4203 45.1224 0.0000 1.4852 0.0000
# 2 36.4203 108.3139 21.2500 0.0000 -15.3046 0.0000
# 3 45.1224 21.2500 85.4313 0.0000 2.1180 0.0000
# 4 0.0000 0.0000 0.0000 35.3533 0.0000 -15.4908
# 5 1.4852 -15.3046 2.1180 0.0000 47.4730 0.0000
# 6 0.0000 0.0000 0.0000 -15.4908 0.0000 38.1382
#
#
#
# Elastic Compliance Matrix: (Units=1/GPa)
#
#
# Indices 1 2 3 4 5 6 
#
# 1 0.019723 -0.005109 -0.009100 0.000000 -0.001858 0.000000
# 2 -0.005109 0.011554 -0.000272 0.000000 0.003897 0.000000
# 3 -0.009100 -0.000272 0.016593 0.000000 -0.000543 0.000000
# 4 0.000000 0.000000 0.000000 0.034410 0.000000 0.013977
# 5 -0.001858 0.003897 -0.000543 0.000000 0.022403 0.000000
# 6 0.000000 0.000000 0.000000 0.013977 0.000000 0.031897
#
#
# Mechanical properties :
#
#
# Convention : Reuss Voigt Hill
#
# Bulk Modulus (GPa) = 52.88925 53.38076 53.13500
# Shear Modulus (GPa) = 29.09583 35.66284 32.37933
#
# Velocity S-wave (km/s) = 3.21108 3.55504 3.38743
# Velocity P-wave (km/s) = 5.70009 5.98065 5.84206
#
# Compressibility (1/GPa) = 0.01890743
#
# Stress axis : x y z
#
# Youngs Moduli (GPa) = 50.70261 86.54761 60.26652
#
# Poissons Ratio (x) = 0.44217 0.54844
# Poissons Ratio (y) = 0.25904 0.01640
# Poissons Ratio (z) = 0.46140 0.02356
#
# Static dielectric constant tensor:
#      x y z
#    x 2.301450 0.000000 -0.181740 
#    y 0.000000 2.396600 0.000000 
#    z -0.181740 0.000000 2.344710 
# 
# From -- ./inp_files/28092.got.cif
#   From: 2010.05.17/outbox.cif.g08.bks.cpg/sg14_15_cif.got.tgz:28092.got - 2010.06.03 17:49:19.
