data_PCOD9242429
_publ_section_title
;
Structure prediction by ZEFSAII (Michael W. Deem and Ramdas Pophale) SiO2 
 PCOD9242429
Probable space group: P 21/C
;
_chemical_formula_sum "Si O2"
_cell_formula_units_Z 32
_cell_length_a 11.590447
_cell_length_b 25.927478
_cell_length_c 5.390383
_cell_angle_alpha 90.000000
_cell_angle_beta 117.714732
_cell_angle_gamma 90.000000
_cell_volume 1434.028657
_symmetry_space_group_name_H-M "P 21/C"
_symmetry_group_IT_number 14
_symmetry_cell_setting 'monoclinic'
loop_
_space_group_symop_operation_xyz
x,y,z
-x,1/2+y,1/2-z
-x,-y,-z
x,1/2-y,1/2+z
loop_
_atom_site_type_symbol
_atom_site_label
_atom_site_fract_x
_atom_site_fract_y
_atom_site_fract_z
Si Si1 0.110243 0.533940 0.346227
Si Si2 0.906495 0.276155 0.686805
Si Si3 0.610243 0.466060 0.374260
Si Si4 0.398664 0.423447 0.794371
Si Si5 0.898664 0.923447 0.002957
Si Si6 0.105773 0.872522 0.498346
Si Si7 0.605773 0.127478 0.213199
Si Si8 0.406493 0.776155 0.126183
O O1 0.250000 0.544106 0.624466
O O2 0.108030 0.472514 0.314434
O O3 0.984155 0.552678 0.367499
O O4 0.118306 0.569851 0.116071
O O5 0.955423 0.259585 0.464734
O O6 0.750001 0.269758 0.513624
O O7 0.925533 0.334036 0.806543
O O8 0.608030 0.527486 0.401625
O O9 0.618306 0.430149 0.620541
O O10 0.484155 0.447321 0.100811
O O11 0.250000 0.410033 0.709008
O O12 0.484867 0.376744 0.776130
O O13 0.984867 0.876745 0.193604
O O14 0.250000 0.856963 0.542361
O O15 0.574469 0.165964 0.955479
O O16 0.455421 0.740415 0.946110
#
# Coordination Sequence:
#
# PCOD9242429 Si02
#       8
#     4   4   4   4   4   4   4   4
#     4   9  19  34  52  78 110 148 189 229 278 335
#     4   9  19  34  55  85 114 141 183 242 297 343
#     4   9  19  34  52  78 110 148 189 229 278 335
#     4  10  20  33  51  78 113 148 185 228 277 340
#     4  10  20  33  51  78 113 148 185 228 277 340
#     4  10  20  33  56  80 106 142 183 233 286 340
#     4  10  20  33  56  80 106 142 183 233 286 340
#     4   9  19  34  55  85 114 141 183 242 297 343
#
# _framework density 22.314758999999999
#
# number of rings (size 3 to 8) (size 9 to 14) (size 15 to 20)
#    0.000    2.500    0.000    1.500    3.500    2.000 
#    0.000    0.000    0.000    1.500    0.000    0.000 
#    0.000    0.000    0.000    0.000    0.000    0.000 
#
# Total GULP energy -178312.954043 kJ/mol
# GULP energy per Si atom -5572.279814 kJ/mol
# Density = 2.226397 g / cm^3
# Si number density = 22.314759 Si / 1000 Ang^3
#
#
#
# Elastic Constant Matrix: (Units=GPa)
#
#
# Indices 1 2 3 4 5 6 
#
# 1 110.5670 27.1782 33.4829 0.0000 33.8399 0.0000
# 2 27.1782 42.4610 17.7262 0.0000 8.1862 0.0000
# 3 33.4829 17.7262 51.5527 0.0000 17.2688 0.0000
# 4 0.0000 0.0000 0.0000 35.9007 0.0000 -13.7920
# 5 33.8399 8.1862 17.2688 0.0000 33.3560 0.0000
# 6 0.0000 0.0000 0.0000 -13.7920 0.0000 19.9750
#
#
#
# Elastic Compliance Matrix: (Units=1/GPa)
#
#
# Indices 1 2 3 4 5 6 
#
# 1 0.015390 -0.005878 -0.003905 0.000000 -0.012149 0.000000
# 2 -0.005878 0.029883 -0.007257 0.000000 0.002387 0.000000
# 3 -0.003905 -0.007257 0.027227 0.000000 -0.008353 0.000000
# 4 0.000000 0.000000 0.000000 0.037911 0.000000 0.026176
# 5 -0.012149 0.002387 -0.008353 0.000000 0.046044 0.000000
# 6 0.000000 0.000000 0.000000 0.026176 0.000000 0.068136
#
#
# Mechanical properties :
#
#
# Convention : Reuss Voigt Hill
#
# Bulk Modulus (GPa) = 26.02783 40.15059 33.08921
# Shear Modulus (GPa) = 18.41774 26.25922 22.33848
#
# Velocity S-wave (km/s) = 2.87603 3.43412 3.16739
# Velocity P-wave (km/s) = 4.76634 5.81001 5.31386
#
# Compressibility (1/GPa) = 0.03842042
#
# Stress axis : x y z
#
# Youngs Moduli (GPa) = 64.97708 33.46388 36.72812
#
# Poissons Ratio (x) = 0.19671 0.14342
# Poissons Ratio (y) = 0.38196 0.26652
# Poissons Ratio (z) = 0.25372 0.24284
#
# Static dielectric constant tensor:
#      x y z
#    x 1.899590 0.000000 0.005860 
#    y 0.000000 1.857130 0.000000 
#    z 0.005860 0.000000 1.892820 
# 
# From -- ./inp_files/3309.got.cif
#   From: 2010.05.17/outbox.cif.g08.bks.cpg/sg14_2_cif.got.tgz:3309.got - 2010.06.03 17:49:19.
