data_PCOD9242322
_publ_section_title
;
Structure prediction by ZEFSAII (Michael W. Deem and Ramdas Pophale) SiO2 
 PCOD9242322
Probable space group: P 21/C
;
_chemical_formula_sum "Si O2"
_cell_formula_units_Z 20
_cell_length_a 9.176798
_cell_length_b 11.692583
_cell_length_c 11.479523
_cell_angle_alpha 90.000000
_cell_angle_beta 52.336516
_cell_angle_gamma 90.000000
_cell_volume 975.075975
_symmetry_space_group_name_H-M "P 21/C"
_symmetry_group_IT_number 14
_symmetry_cell_setting 'monoclinic'
loop_
_space_group_symop_operation_xyz
x,y,z
-x,1/2+y,1/2-z
-x,-y,-z
x,1/2-y,1/2+z
loop_
_atom_site_type_symbol
_atom_site_label
_atom_site_fract_x
_atom_site_fract_y
_atom_site_fract_z
Si Si1 0.853787 0.896252 0.556054
Si Si2 0.206524 0.537932 0.374653
Si Si3 0.554306 0.027102 0.839882
Si Si4 0.783915 0.293816 0.092967
Si Si5 0.707353 0.024925 0.429310
O O1 0.685850 0.924972 0.724330
O O2 0.992458 0.792688 0.504758
O O3 0.782155 0.913986 0.460971
O O4 0.000000 0.000000 0.500000
O O5 0.369384 0.461224 0.351460
O O6 0.265051 0.662498 0.393133
O O7 0.203194 0.546598 0.237180
O O8 0.000000 0.500000 0.500000
O O9 0.679507 0.140249 0.750545
O O10 0.500000 0.000000 0.000000
O O11 0.731014 0.369247 0.006069
O O12 0.500000 0.000000 0.500000
#
# Coordination Sequence:
#
# PCOD9242322 Si02
#       5
#     4   4   4   4   4
#     4   8  18  39  67  84 121 170 207 251 326 367
#     4  12  27  39  63 101 129 163 219 266 316 389
#     4  10  22  42  64  92 130 163 217 265 313 385
#     4  10  24  43  65  92 128 178 205 261 339 368
#     4  10  19  44  65  89 129 165 217 266 308 392
#
# _framework density 20.511220999999999
#
# number of rings (size 3 to 8) (size 9 to 14) (size 15 to 20)
#    0.000    2.400    4.000    0.000   11.200    1.600 
#    0.000    0.000    0.000    0.000    0.000    0.000 
#    0.000    0.000    0.000    0.000    0.000    0.000 
#
# Total GULP energy -111345.865447 kJ/mol
# GULP energy per Si atom -5567.293272 kJ/mol
# Density = 2.046454 g / cm^3
# Si number density = 20.511221 Si / 1000 Ang^3
#
#
#
# Elastic Constant Matrix: (Units=GPa)
#
#
# Indices 1 2 3 4 5 6 
#
# 1 130.1363 9.2033 53.7711 0.0000 -7.3658 0.0000
# 2 9.2033 43.9251 27.4714 0.0000 -5.6693 0.0000
# 3 53.7711 27.4714 154.0955 0.0000 2.7616 0.0000
# 4 0.0000 0.0000 0.0000 6.7860 0.0000 -5.1356
# 5 -7.3658 -5.6693 2.7616 0.0000 47.6661 0.0000
# 6 0.0000 0.0000 0.0000 -5.1356 0.0000 20.2956
#
#
#
# Elastic Compliance Matrix: (Units=1/GPa)
#
#
# Indices 1 2 3 4 5 6 
#
# 1 0.009102 0.000348 -0.003268 0.000000 0.001637 0.000000
# 2 0.000348 0.026171 -0.004849 0.000000 0.003447 0.000000
# 3 -0.003268 -0.004849 0.008522 0.000000 -0.001575 0.000000
# 4 0.000000 0.000000 0.000000 0.182267 0.000000 0.046121
# 5 0.001637 0.003447 -0.001575 0.000000 0.021734 0.000000
# 6 0.000000 0.000000 0.000000 0.046121 0.000000 0.060942
#
#
# Mechanical properties :
#
#
# Convention : Reuss Voigt Hill
#
# Bulk Modulus (GPa) = 35.38785 56.56095 45.97440
# Shear Modulus (GPa) = 14.98375 30.79694 22.89034
#
# Velocity S-wave (km/s) = 2.70574 3.87908 3.34427
# Velocity P-wave (km/s) = 5.20113 6.90641 6.11352
#
# Compressibility (1/GPa) = 0.02825828
#
# Stress axis : x y z
#
# Youngs Moduli (GPa) = 109.86024 38.21085 117.33859
#
# Poissons Ratio (x) = -0.01329 0.38342
# Poissons Ratio (y) = -0.03821 0.56894
# Poissons Ratio (z) = 0.35898 0.18527
#
# Static dielectric constant tensor:
#      x y z
#    x 1.796230 0.000000 -0.061700 
#    y 0.000000 1.826170 0.000000 
#    z -0.061700 0.000000 1.817470 
# 
# From -- ./inp_files/24035.got.cif
#   From: 2010.05.17/outbox.cif.g08.bks.cpg/sg14_13_cif.got.tgz:24035.got - 2010.06.03 17:49:19.
