data_PCOD9242799
_publ_section_title
;
Structure prediction by ZEFSAII (Michael W. Deem and Ramdas Pophale) SiO2 
 PCOD9242799
Probable space group: P 21/C
;
_chemical_formula_sum "Si O2"
_cell_formula_units_Z 28
_cell_length_a 8.629116
_cell_length_b 8.124101
_cell_length_c 26.505865
_cell_angle_alpha 90.000000
_cell_angle_beta 34.882008
_cell_angle_gamma 90.000000
_cell_volume 1062.661180
_symmetry_space_group_name_H-M "P 21/C"
_symmetry_group_IT_number 14
_symmetry_cell_setting 'monoclinic'
loop_
_space_group_symop_operation_xyz
x,y,z
-x,1/2+y,1/2-z
-x,-y,-z
x,1/2-y,1/2+z
loop_
_atom_site_type_symbol
_atom_site_label
_atom_site_fract_x
_atom_site_fract_y
_atom_site_fract_z
Si Si1 0.316051 0.112435 0.344364
Si Si2 0.587885 0.561795 0.615432
Si Si3 0.119996 0.774491 0.098072
Si Si4 0.334006 0.228718 0.503106
Si Si5 0.832300 0.395306 0.636763
Si Si6 0.577146 0.526460 0.862547
Si Si7 0.907627 0.660961 0.263554
O O1 0.372970 0.279173 0.360382
O O2 0.021349 0.141206 0.400208
O O3 0.537799 0.105628 0.241050
O O4 0.373662 0.969023 0.369442
O O5 0.646728 0.624536 0.543720
O O6 0.773531 0.424085 0.592896
O O7 0.285339 0.492967 0.695890
O O8 0.019255 0.733441 0.181328
O O9 0.443782 0.768101 0.013990
O O10 0.994065 0.948489 0.116126
O O11 0.437040 0.067232 0.446255
O O12 0.018616 0.239377 0.601049
O O13 0.717008 0.698742 0.837694
O O14 0.829676 0.408249 0.778337
#
# Coordination Sequence:
#
# PCOD9242799 Si02
#       7
#     4   4   4   4   4   4   4
#     4  10  20  36  60  92 115 156 211 251 298 352
#     4  10  22  37  62  89 121 165 206 249 296 375
#     4  10  20  35  61  91 116 158 203 252 297 361
#     4  10  22  39  60  90 129 159 199 247 317 363
#     4  11  20  37  63  92 124 159 201 260 305 358
#     4  10  21  36  62  86 120 157 203 250 301 367
#     4  11  19  38  61  90 111 158 213 247 296 361
#
# _framework density 26.348943999999999
#
# number of rings (size 3 to 8) (size 9 to 14) (size 15 to 20)
#    0.000    1.714    2.857    3.429    0.000    0.000 
#    0.000    0.714    3.143    2.571    0.000    0.000 
#    0.000    0.000    0.000    0.000    0.000    0.000 
#
# Total GULP energy -156900.231310 kJ/mol
# GULP energy per Si atom -5603.579690 kJ/mol
# Density = 2.628897 g / cm^3
# Si number density = 26.348944 Si / 1000 Ang^3
#
#
#
# Elastic Constant Matrix: (Units=GPa)
#
#
# Indices 1 2 3 4 5 6 
#
# 1 168.5892 28.5030 30.4735 0.0000 -35.9188 0.0000
# 2 28.5030 90.0121 27.6770 0.0000 -0.2209 0.0000
# 3 30.4735 27.6770 58.6471 0.0000 -13.5255 0.0000
# 4 0.0000 0.0000 0.0000 36.9011 0.0000 -7.8063
# 5 -35.9188 -0.2209 -13.5255 0.0000 34.3648 0.0000
# 6 0.0000 0.0000 0.0000 -7.8063 0.0000 12.2150
#
#
#
# Elastic Compliance Matrix: (Units=1/GPa)
#
#
# Indices 1 2 3 4 5 6 
#
# 1 0.008274 -0.002165 -0.001415 0.000000 0.008078 0.000000
# 2 -0.002165 0.013771 -0.006462 0.000000 -0.004718 0.000000
# 3 -0.001415 -0.006462 0.022530 0.000000 0.007347 0.000000
# 4 0.000000 0.000000 0.000000 0.031336 0.000000 0.020026
# 5 0.008078 -0.004718 0.007347 0.000000 0.040404 0.000000
# 6 0.000000 0.000000 0.000000 0.020026 0.000000 0.094665
#
#
# Mechanical properties :
#
#
# Convention : Reuss Voigt Hill
#
# Bulk Modulus (GPa) = 40.82987 54.50615 47.66801
# Shear Modulus (GPa) = 20.90068 32.06918 26.48493
#
# Velocity S-wave (km/s) = 2.81948 3.49247 3.17387
# Velocity P-wave (km/s) = 5.11163 6.08230 5.61797
#
# Compressibility (1/GPa) = 0.02449187
#
# Stress axis : x y z
#
# Youngs Moduli (GPa) = 120.85465 72.61886 44.38523
#
# Poissons Ratio (x) = 0.15725 0.06279
# Poissons Ratio (y) = 0.26169 0.28680
# Poissons Ratio (z) = 0.17096 0.46923
#
# Static dielectric constant tensor:
#      x y z
#    x 2.047540 0.000000 -0.033040 
#    y 0.000000 2.093470 0.000000 
#    z -0.033040 0.000000 2.076740 
# 
# From -- ./inp_files/76305.got.cif
#   From: 2010.05.17/outbox.cif.g08.bks.cpg/sg14_39_cif.got.tgz:76305.got - 2010.06.03 17:49:19.
