data_PCOD9242137
_publ_section_title
;
Structure prediction by ZEFSAII (Michael W. Deem and Ramdas Pophale) SiO2 
 PCOD9242137
Probable space group: P 21/C
;
_chemical_formula_sum "Si O2"
_cell_formula_units_Z 32
_cell_length_a 9.499410
_cell_length_b 18.435083
_cell_length_c 10.747749
_cell_angle_alpha 90.000000
_cell_angle_beta 40.215538
_cell_angle_gamma 90.000000
_cell_volume 1215.252026
_symmetry_space_group_name_H-M "P 21/C"
_symmetry_group_IT_number 14
_symmetry_cell_setting 'monoclinic'
loop_
_space_group_symop_operation_xyz
x,y,z
-x,1/2+y,1/2-z
-x,-y,-z
x,1/2-y,1/2+z
loop_
_atom_site_type_symbol
_atom_site_label
_atom_site_fract_x
_atom_site_fract_y
_atom_site_fract_z
Si Si1 0.723797 0.338732 0.240253
Si Si2 0.308286 0.976902 0.791726
Si Si3 0.950492 0.922269 0.657695
Si Si4 0.756440 0.882321 0.029083
Si Si5 0.669883 0.178168 0.247808
Si Si6 0.559326 0.662373 0.351208
Si Si7 0.189362 0.050096 0.612981
Si Si8 0.284535 0.314780 0.178027
O O1 0.479281 0.353620 0.355054
O O2 0.788268 0.254598 0.177599
O O3 0.668653 0.349356 0.422994
O O4 0.883143 0.386888 0.051248
O O5 0.268402 0.031884 0.929071
O O6 0.567631 0.965129 0.603794
O O7 0.212250 0.014289 0.733978
O O8 0.212675 0.896595 0.863530
O O9 0.022978 0.003520 0.643338
O O10 0.710637 0.908312 0.762715
O O11 0.936744 0.878873 0.799318
O O12 0.781918 0.842509 0.142389
O O13 0.498458 0.185710 0.249168
O O14 0.534782 0.166521 0.467279
O O15 0.157550 0.136098 0.661259
O O16 0.696122 0.728356 0.322417
#
# Coordination Sequence:
#
# PCOD9242137 Si02
#       8
#     4   4   4   4   4   4   4   4
#     4  10  21  40  63  86 122 166 210 254 300 367
#     4   9  18  34  64  95 118 162 205 263 307 358
#     4  11  23  38  64  95 123 169 201 257 315 369
#     4  10  19  39  67  89 126 157 206 260 313 350
#     4  10  20  38  65  92 124 167 207 251 316 378
#     4  10  22  42  62  90 129 168 201 251 320 371
#     4   9  18  36  65  94 120 156 218 259 305 361
#     4   9  19  38  65  91 119 165 204 261 308 353
#
# _framework density 26.331986000000001
#
# number of rings (size 3 to 8) (size 9 to 14) (size 15 to 20)
#    0.000    2.250    2.500    0.750    0.000    2.000 
#    6.750    5.000    2.750    0.000    0.000    0.000 
#    0.000    0.000    0.000    0.000    0.000    0.000 
#
# Total GULP energy -178893.520109 kJ/mol
# GULP energy per Si atom -5590.422503 kJ/mol
# Density = 2.627205 g / cm^3
# Si number density = 26.331986 Si / 1000 Ang^3
#
#
#
# Elastic Constant Matrix: (Units=GPa)
#
#
# Indices 1 2 3 4 5 6 
#
# 1 56.6668 35.3131 47.8770 0.0000 1.9122 0.0000
# 2 35.3131 131.4152 60.4251 0.0000 10.0607 0.0000
# 3 47.8770 60.4251 147.3427 0.0000 15.7998 0.0000
# 4 0.0000 0.0000 0.0000 31.9397 0.0000 5.3000
# 5 1.9122 10.0607 15.7998 0.0000 29.3313 0.0000
# 6 0.0000 0.0000 0.0000 5.3000 0.0000 29.1547
#
#
#
# Elastic Compliance Matrix: (Units=1/GPa)
#
#
# Indices 1 2 3 4 5 6 
#
# 1 0.026114 -0.003959 -0.007243 0.000000 0.003557 0.000000
# 2 -0.003959 0.010019 -0.002634 0.000000 -0.001760 0.000000
# 3 -0.007243 -0.002634 0.010691 0.000000 -0.004383 0.000000
# 4 0.000000 0.000000 0.000000 0.032283 0.000000 -0.005869
# 5 0.003557 -0.001760 -0.004383 0.000000 0.036826 0.000000
# 6 0.000000 0.000000 0.000000 -0.005869 0.000000 0.035367
#
#
# Mechanical properties :
#
#
# Convention : Reuss Voigt Hill
#
# Bulk Modulus (GPa) = 52.21492 69.18392 60.69942
# Shear Modulus (GPa) = 26.97535 30.87243 28.92389
#
# Velocity S-wave (km/s) = 3.20415 3.42779 3.31786
# Velocity P-wave (km/s) = 5.79321 6.48052 6.14648
#
# Compressibility (1/GPa) = 0.01915162
#
# Stress axis : x y z
#
# Youngs Moduli (GPa) = 38.29395 99.81040 93.54066
#
# Poissons Ratio (x) = 0.39515 0.67753
# Poissons Ratio (y) = 0.15161 0.24635
# Poissons Ratio (z) = 0.27737 0.26287
#
# Static dielectric constant tensor:
#      x y z
#    x 2.106930 0.000000 0.023570 
#    y 0.000000 2.076120 0.000000 
#    z 0.023570 0.000000 2.065500 
# 
# From -- ./inp_files/22295.got.cif
#   From: 2010.05.17/outbox.cif.g08.bks.cpg/sg14_12_cif.got.tgz:22295.got - 2010.06.03 17:49:19.
