data_PCOD9242210
_publ_section_title
;
Structure prediction by ZEFSAII (Michael W. Deem and Ramdas Pophale) SiO2 
 PCOD9242210
Probable space group: P 21/C
;
_chemical_formula_sum "Si O2"
_cell_formula_units_Z 32
_cell_length_a 8.864755
_cell_length_b 10.560886
_cell_length_c 23.329097
_cell_angle_alpha 90.000000
_cell_angle_beta 46.144565
_cell_angle_gamma 90.000000
_cell_volume 1574.905971
_symmetry_space_group_name_H-M "P 21/C"
_symmetry_group_IT_number 14
_symmetry_cell_setting 'monoclinic'
loop_
_space_group_symop_operation_xyz
x,y,z
-x,1/2+y,1/2-z
-x,-y,-z
x,1/2-y,1/2+z
loop_
_atom_site_type_symbol
_atom_site_label
_atom_site_fract_x
_atom_site_fract_y
_atom_site_fract_z
Si Si1 0.386479 0.083955 0.369390
Si Si2 0.158757 0.655468 0.889665
Si Si3 0.809653 0.599163 0.382236
Si Si4 0.761709 0.702215 0.519151
Si Si5 0.179901 0.057581 0.754706
Si Si6 0.446490 0.525386 0.649828
Si Si7 0.593068 0.705802 0.253973
Si Si8 0.039468 0.647245 0.795402
O O1 0.361266 0.169596 0.431866
O O2 0.333517 0.171492 0.328797
O O3 0.233980 0.962247 0.407820
O O4 0.618320 0.031738 0.296745
O O5 0.367088 0.727176 0.813991
O O6 0.046279 0.610245 0.860539
O O7 0.002642 0.754444 0.960680
O O8 0.727622 0.653703 0.463505
O O9 0.633045 0.545300 0.386707
O O10 0.988259 0.493015 0.343187
O O11 0.939201 0.713990 0.319209
O O12 0.669139 0.591035 0.582858
O O13 0.252483 0.195817 0.755988
O O14 0.096606 0.062076 0.711446
O O15 0.431802 0.423704 0.704175
O O16 0.274174 0.632920 0.709588
#
# Coordination Sequence:
#
# PCOD9242210 Si02
#       8
#     4   4   4   4   4   4   4   4
#     4  11  22  40  62  90 126 163 206 255 306 363
#     4  10  22  39  61  87 129 160 204 253 307 369
#     4  10  21  40  62  91 126 156 207 255 305 365
#     4  11  23  39  61  88 130 169 192 248 320 369
#     4  10  22  39  68  91 118 162 213 259 295 362
#     4  11  21  37  64  90 123 159 209 257 300 363
#     4  11  22  40  63  94 119 162 212 257 302 356
#     4  10  19  40  65  92 114 164 210 259 296 352
#
# _framework density 20.318673
#
# number of rings (size 3 to 8) (size 9 to 14) (size 15 to 20)
#    0.000    1.500    2.500    3.750    1.750    0.500 
#    2.250    2.500    2.750    0.000    0.000    0.000 
#    0.000    0.000    0.000    0.000    0.000    0.000 
#
# Total GULP energy -178657.283392 kJ/mol
# GULP energy per Si atom -5583.040106 kJ/mol
# Density = 2.027243 g / cm^3
# Si number density = 20.318673 Si / 1000 Ang^3
#
#
#
# Elastic Constant Matrix: (Units=GPa)
#
#
# Indices 1 2 3 4 5 6 
#
# 1 72.1600 26.3427 26.5797 0.0000 3.7138 0.0000
# 2 26.3427 90.3776 43.4807 0.0000 6.3171 0.0000
# 3 26.5797 43.4807 76.6093 0.0000 7.9206 0.0000
# 4 0.0000 0.0000 0.0000 14.1730 0.0000 3.7872
# 5 3.7138 6.3171 7.9206 0.0000 11.4898 0.0000
# 6 0.0000 0.0000 0.0000 3.7872 0.0000 27.6577
#
#
#
# Elastic Compliance Matrix: (Units=1/GPa)
#
#
# Indices 1 2 3 4 5 6 
#
# 1 0.016402 -0.002782 -0.004007 0.000000 -0.001009 0.000000
# 2 -0.002782 0.015765 -0.007730 0.000000 -0.002440 0.000000
# 3 -0.004007 -0.007730 0.019659 0.000000 -0.008007 0.000000
# 4 0.000000 0.000000 0.000000 0.073236 0.000000 -0.010028
# 5 -0.001009 -0.002440 -0.008007 0.000000 0.094221 0.000000
# 6 0.000000 0.000000 0.000000 -0.010028 0.000000 0.037529
#
#
# Mechanical properties :
#
#
# Convention : Reuss Voigt Hill
#
# Bulk Modulus (GPa) = 43.88581 47.99478 45.94029
# Shear Modulus (GPa) = 17.03886 20.18035 18.60961
#
# Velocity S-wave (km/s) = 2.89897 3.15491 3.02965
# Velocity P-wave (km/s) = 5.73158 6.07813 5.90739
#
# Compressibility (1/GPa) = 0.02278641
#
# Stress axis : x y z
#
# Youngs Moduli (GPa) = 60.96916 63.43089 50.86798
#
# Poissons Ratio (x) = 0.17648 0.20383
# Poissons Ratio (y) = 0.16963 0.39322
# Poissons Ratio (z) = 0.24431 0.49033
#
# Static dielectric constant tensor:
#      x y z
#    x 1.724110 0.000000 -0.005970 
#    y 0.000000 1.733760 0.000000 
#    z -0.005970 0.000000 1.737630 
# 
# From -- ./inp_files/65581.got.cif
#   From: 2010.05.17/outbox.cif.g08.bks.cpg/sg14_33_cif.got.tgz:65581.got - 2010.06.03 17:49:19.
