data_PCOD9242398
_publ_section_title
;
Structure prediction by ZEFSAII (Michael W. Deem and Ramdas Pophale) SiO2 
 PCOD9242398
Probable space group: P 21/C
;
_chemical_formula_sum "Si O2"
_cell_formula_units_Z 32
_cell_length_a 13.933854
_cell_length_b 11.171543
_cell_length_c 8.493755
_cell_angle_alpha 90.000000
_cell_angle_beta 91.349881
_cell_angle_gamma 90.000000
_cell_volume 1321.793477
_symmetry_space_group_name_H-M "P 21/C"
_symmetry_group_IT_number 14
_symmetry_cell_setting 'monoclinic'
loop_
_space_group_symop_operation_xyz
x,y,z
-x,1/2+y,1/2-z
-x,-y,-z
x,1/2-y,1/2+z
loop_
_atom_site_type_symbol
_atom_site_label
_atom_site_fract_x
_atom_site_fract_y
_atom_site_fract_z
Si Si1 0.677195 0.697368 0.600350
Si Si2 0.554407 0.929327 0.867453
Si Si3 0.888822 0.605540 0.528536
Si Si4 0.890774 0.538647 0.017463
Si Si5 0.701162 0.981220 0.649508
Si Si6 0.829323 0.094995 0.215432
Si Si7 0.633357 0.461903 0.803570
Si Si8 0.980666 0.777865 0.723307
O O1 0.601052 0.683495 0.456401
O O2 0.780631 0.654857 0.541167
O O3 0.690235 0.835538 0.646352
O O4 0.646723 0.596374 0.728362
O O5 0.640008 0.010687 0.800149
O O6 0.472257 0.910903 0.734960
O O7 0.500000 0.000000 0.000000
O O8 0.868374 0.464211 0.556982
O O9 0.957904 0.641777 0.680315
O O10 0.936820 0.650795 0.369456
O O11 0.814028 0.488400 0.140791
O O12 0.916040 0.670206 0.077044
O O13 0.838398 0.506845 0.853617
O O14 0.000000 0.500000 0.000000
O O15 0.652606 0.031553 0.489983
O O16 0.906558 0.194054 0.270983
O O17 0.716136 0.117850 0.219906
#
# Coordination Sequence:
#
# PCOD9242398 Si02
#       8
#     4   4   4   4   4   4   4   4
#     4  10  20  32  56  88 113 140 189 248 293 337
#     4  10  21  36  53  83 118 147 188 248 293 341
#     4  11  21  32  55  86 116 146 190 247 289 348
#     4   9  18  32  53  85 122 146 182 232 290 349
#     4  11  18  32  58  86 113 150 191 234 295 343
#     4   9  20  36  54  79 114 157 189 236 291 355
#     4   9  20  35  54  80 118 148 194 237 294 346
#     4  11  20  33  53  81 118 149 190 237 297 347
#
# _framework density 24.209531999999999
#
# number of rings (size 3 to 8) (size 9 to 14) (size 15 to 20)
#    0.000    2.000    1.250    3.000    3.500    0.000 
#    0.000    0.000    2.750    0.000   13.000    0.000 
#    0.000    0.000    0.000    0.000    0.000    0.000 
#
# Total GULP energy -178274.971715 kJ/mol
# GULP energy per Si atom -5571.092866 kJ/mol
# Density = 2.415443 g / cm^3
# Si number density = 24.209532 Si / 1000 Ang^3
#
#
#
# Elastic Constant Matrix: (Units=GPa)
#
#
# Indices 1 2 3 4 5 6 
#
# 1 142.9196 20.7918 33.4956 0.0000 -7.8996 0.0000
# 2 20.7918 14.8774 3.8656 0.0000 2.4329 0.0000
# 3 33.4956 3.8656 66.0203 0.0000 -14.8504 0.0000
# 4 0.0000 0.0000 0.0000 17.5767 0.0000 3.4455
# 5 -7.8996 2.4329 -14.8504 0.0000 42.9287 0.0000
# 6 0.0000 0.0000 0.0000 3.4455 0.0000 25.7490
#
#
#
# Elastic Compliance Matrix: (Units=1/GPa)
#
#
# Indices 1 2 3 4 5 6 
#
# 1 0.009884 -0.012968 -0.003991 0.000000 0.001173 0.000000
# 2 -0.012968 0.086577 -0.000141 0.000000 -0.007342 0.000000
# 3 -0.003991 -0.000141 0.018453 0.000000 0.005657 0.000000
# 4 0.000000 0.000000 0.000000 0.058426 0.000000 -0.007818
# 5 0.001173 -0.007342 0.005657 0.000000 0.025883 0.000000
# 6 0.000000 0.000000 0.000000 -0.007818 0.000000 0.039883
#
#
# Mechanical properties :
#
#
# Convention : Reuss Voigt Hill
#
# Bulk Modulus (GPa) = 12.38976 37.79149 25.09063
# Shear Modulus (GPa) = 16.65501 28.29517 22.47509
#
# Velocity S-wave (km/s) = 2.62573 3.42242 3.05020
# Velocity P-wave (km/s) = 3.78437 5.59119 4.77403
#
# Compressibility (1/GPa) = 0.08071178
#
# Stress axis : x y z
#
# Youngs Moduli (GPa) = 101.17586 11.55046 54.19277
#
# Poissons Ratio (x) = 0.14978 0.21631
# Poissons Ratio (y) = 1.31203 0.00767
# Poissons Ratio (z) = 0.40384 0.00163
#
# Static dielectric constant tensor:
#      x y z
#    x 1.993150 0.000000 -0.007200 
#    y 0.000000 2.539200 0.000000 
#    z -0.007200 0.000000 2.049600 
# 
# From -- ./inp_files/15809.got.cif
#   From: 2010.05.17/outbox.cif.g08.bks.cpg/sg14_8_cif.got.tgz:15809.got - 2010.06.03 17:49:19.
