data_PCOD9242569
_publ_section_title
;
Structure prediction by ZEFSAII (Michael W. Deem and Ramdas Pophale) SiO2 
 PCOD9242569
Probable space group: P 21/C
;
_chemical_formula_sum "Si O2"
_cell_formula_units_Z 16
_cell_length_a 9.036355
_cell_length_b 5.145833
_cell_length_c 18.039032
_cell_angle_alpha 90.000000
_cell_angle_beta 133.450488
_cell_angle_gamma 90.000000
_cell_volume 608.948046
_symmetry_space_group_name_H-M "P 21/C"
_symmetry_group_IT_number 14
_symmetry_cell_setting 'monoclinic'
loop_
_space_group_symop_operation_xyz
x,y,z
-x,1/2+y,1/2-z
-x,-y,-z
x,1/2-y,1/2+z
loop_
_atom_site_type_symbol
_atom_site_label
_atom_site_fract_x
_atom_site_fract_y
_atom_site_fract_z
Si Si1 0.293950 0.050604 0.528958
Si Si2 0.057782 0.266284 0.589654
Si Si3 0.033088 0.437457 0.810068
Si Si4 0.397103 0.900766 0.251921
O O1 0.237772 0.134893 0.426742
O O2 0.521363 0.084954 0.635721
O O3 0.187761 0.762657 0.497264
O O4 0.158037 0.196136 0.545551
O O5 0.164982 0.524008 0.655405
O O6 0.105158 0.053440 0.670269
O O7 0.956177 0.191196 0.738361
O O8 0.518564 0.143971 0.257114
#
# Coordination Sequence:
#
# PCOD9242569 Si02
#       4
#     4   4   4   4
#     4   8  18  38  58  82 110 143 185 226 273 319
#     4   8  18  38  58  82 110 143 185 226 273 319
#     4  10  21  36  55  80 112 146 182 220 271 328
#     4  10  20  34  56  86 108 136 186 232 270 322
#
# _framework density 26.274820999999999
#
# number of rings (size 3 to 8) (size 9 to 14) (size 15 to 20)
#    1.500    1.500    0.000    0.000    0.000    9.000 
#    0.000    2.500    0.000    0.000    0.000    0.000 
#    0.000    0.000    0.000    0.000    0.000    0.000 
#
# Total GULP energy -89252.527819 kJ/mol
# GULP energy per Si atom -5578.282989 kJ/mol
# Density = 2.621502 g / cm^3
# Si number density = 26.274821 Si / 1000 Ang^3
#
#
#
# Elastic Constant Matrix: (Units=GPa)
#
#
# Indices 1 2 3 4 5 6 
#
# 1 55.9496 34.8136 37.9777 0.0000 -13.1551 0.0000
# 2 34.8136 136.3499 48.4713 0.0000 -21.3303 0.0000
# 3 37.9777 48.4713 216.5818 0.0000 -20.0903 0.0000
# 4 0.0000 0.0000 0.0000 42.4376 0.0000 -4.9412
# 5 -13.1551 -21.3303 -20.0903 0.0000 49.0335 0.0000
# 6 0.0000 0.0000 0.0000 -4.9412 0.0000 26.6740
#
#
#
# Elastic Compliance Matrix: (Units=1/GPa)
#
#
# Indices 1 2 3 4 5 6 
#
# 1 0.023286 -0.004458 -0.002792 0.000000 0.003164 0.000000
# 2 -0.004458 0.009222 -0.001061 0.000000 0.002381 0.000000
# 3 -0.002792 -0.001061 0.005439 0.000000 0.001018 0.000000
# 4 0.000000 0.000000 0.000000 0.024083 0.000000 0.004461
# 5 0.003164 0.002381 0.001018 0.000000 0.022696 0.000000
# 6 0.000000 0.000000 0.000000 0.004461 0.000000 0.038316
#
#
# Mechanical properties :
#
#
# Convention : Reuss Voigt Hill
#
# Bulk Modulus (GPa) = 46.89499 72.37848 59.63674
# Shear Modulus (GPa) = 34.06610 42.80359 38.43485
#
# Velocity S-wave (km/s) = 3.60464 4.04056 3.82881
# Velocity P-wave (km/s) = 5.93390 7.02671 6.50330
#
# Compressibility (1/GPa) = 0.02132424
#
# Stress axis : x y z
#
# Youngs Moduli (GPa) = 42.94364 108.43537 183.86741
#
# Poissons Ratio (x) = 0.48341 0.51336
# Poissons Ratio (y) = 0.19145 0.19515
# Poissons Ratio (z) = 0.11990 0.11509
#
# Static dielectric constant tensor:
#      x y z
#    x 2.114690 0.000000 0.018600 
#    y 0.000000 2.108280 0.000000 
#    z 0.018600 0.000000 2.141670 
# 
# From -- ./inp_files/42526.got.cif
#   From: 2010.05.17/outbox.cif.g08.bks.cpg/sg14_22_cif.got.tgz:42526.got - 2010.06.03 17:49:19.
