data_PCOD9242461
_publ_section_title
;
Structure prediction by ZEFSAII (Michael W. Deem and Ramdas Pophale) SiO2 
 PCOD9242461
Probable space group: P 21/C
;
_chemical_formula_sum "Si O2"
_cell_formula_units_Z 32
_cell_length_a 12.139609
_cell_length_b 8.205817
_cell_length_c 19.533394
_cell_angle_alpha 90.000000
_cell_angle_beta 123.939142
_cell_angle_gamma 90.000000
_cell_volume 1614.318566
_symmetry_space_group_name_H-M "P 21/C"
_symmetry_group_IT_number 14
_symmetry_cell_setting 'monoclinic'
loop_
_space_group_symop_operation_xyz
x,y,z
-x,1/2+y,1/2-z
-x,-y,-z
x,1/2-y,1/2+z
loop_
_atom_site_type_symbol
_atom_site_label
_atom_site_fract_x
_atom_site_fract_y
_atom_site_fract_z
Si Si1 0.868503 0.266947 0.147516
Si Si2 0.198654 0.625154 0.240124
Si Si3 0.897465 0.625287 0.096143
Si Si4 0.157723 0.641556 0.502530
Si Si5 0.170742 0.234740 0.791503
Si Si6 0.656882 0.858953 0.762382
Si Si7 0.130856 0.277062 0.552197
Si Si8 0.630825 0.276857 0.312472
O O1 0.793559 0.247844 0.193039
O O2 0.870706 0.448697 0.118754
O O3 0.020987 0.216625 0.216874
O O4 0.813539 0.156193 0.067614
O O5 0.195039 0.447236 0.272785
O O6 0.312720 0.653221 0.224853
O O7 0.056516 0.654446 0.153969
O O8 0.830039 0.747805 0.127072
O O9 0.851471 0.648898 0.002662
O O10 0.141361 0.454812 0.520242
O O11 0.270655 0.719633 0.588682
O O12 0.016306 0.729951 0.466922
O O13 0.275540 0.346459 0.788327
O O14 0.760555 0.772719 0.850638
O O15 0.516546 0.769849 0.717153
O O16 0.639443 0.043799 0.781733
#
# Coordination Sequence:
#
# PCOD9242461 Si02
#       8
#     4   4   4   4   4   4   4   4
#     4  10  20  33  56  87 116 146 186 237 283 329
#     4  10  20  35  56  83 116 151 188 230 282 337
#     4  10  20  33  56  87 116 146 186 237 283 329
#     4  10  20  36  58  84 114 148 188 234 282 333
#     4  10  20  35  56  83 116 151 188 230 282 337
#     4  11  23  39  59  83 116 153 189 231 282 339
#     4  10  20  36  58  84 114 148 188 234 282 333
#     4  11  23  39  59  83 116 153 189 231 282 339
#
# _framework density 19.822606
#
# number of rings (size 3 to 8) (size 9 to 14) (size 15 to 20)
#    0.000    1.750    2.500    2.250    0.000    4.500 
#    0.000    1.250    0.000    7.500    0.000    0.000 
#    0.000    0.000    0.000    0.000    0.000    0.000 
#
# Total GULP energy -178859.443979 kJ/mol
# GULP energy per Si atom -5589.357624 kJ/mol
# Density = 1.977749 g / cm^3
# Si number density = 19.822606 Si / 1000 Ang^3
#
#
#
# Elastic Constant Matrix: (Units=GPa)
#
#
# Indices 1 2 3 4 5 6 
#
# 1 72.6729 8.6691 14.7914 0.0000 9.6291 0.0000
# 2 8.6691 36.3803 5.9908 0.0000 5.3344 0.0000
# 3 14.7914 5.9908 50.4465 0.0000 6.7068 0.0000
# 4 0.0000 0.0000 0.0000 28.0638 0.0000 -6.1962
# 5 9.6291 5.3344 6.7068 0.0000 27.1255 0.0000
# 6 0.0000 0.0000 0.0000 -6.1962 0.0000 29.0441
#
#
#
# Elastic Compliance Matrix: (Units=1/GPa)
#
#
# Indices 1 2 3 4 5 6 
#
# 1 0.015337 -0.002456 -0.003666 0.000000 -0.004055 0.000000
# 2 -0.002456 0.029060 -0.002158 0.000000 -0.004309 0.000000
# 3 -0.003666 -0.002158 0.021636 0.000000 -0.003624 0.000000
# 4 0.000000 0.000000 0.000000 0.037394 0.000000 0.007978
# 5 -0.004055 -0.004309 -0.003624 0.000000 0.040048 0.000000
# 6 0.000000 0.000000 0.000000 0.007978 0.000000 0.036132
#
#
# Mechanical properties :
#
#
# Convention : Reuss Voigt Hill
#
# Bulk Modulus (GPa) = 20.21346 24.26692 22.24019
# Shear Modulus (GPa) = 23.51180 25.51658 24.51419
#
# Velocity S-wave (km/s) = 3.44773 3.59171 3.52046
# Velocity P-wave (km/s) = 5.10573 5.42855 5.26961
#
# Compressibility (1/GPa) = 0.04947199
#
# Stress axis : x y z
#
# Youngs Moduli (GPa) = 65.20300 34.41161 46.21938
#
# Poissons Ratio (x) = 0.08453 0.16944
# Poissons Ratio (y) = 0.16016 0.09974
# Poissons Ratio (z) = 0.23904 0.07426
#
# Static dielectric constant tensor:
#      x y z
#    x 1.663540 0.000000 -0.012950 
#    y 0.000000 1.751880 0.000000 
#    z -0.012950 0.000000 1.678120 
# 
# From -- ./inp_files/57261.got.cif
#   From: 2010.05.17/outbox.cif.g08.bks.cpg/sg14_29_cif.got.tgz:57261.got - 2010.06.03 17:49:19.
