data_PCOD9242366
_publ_section_title
;
Structure prediction by ZEFSAII (Michael W. Deem and Ramdas Pophale) SiO2 
 PCOD9242366
Probable space group: P 21/C
;
_chemical_formula_sum "Si O2"
_cell_formula_units_Z 32
_cell_length_a 12.017258
_cell_length_b 17.752281
_cell_length_c 7.850821
_cell_angle_alpha 90.000000
_cell_angle_beta 87.102872
_cell_angle_gamma 90.000000
_cell_volume 1672.704380
_symmetry_space_group_name_H-M "P 21/C"
_symmetry_group_IT_number 14
_symmetry_cell_setting 'monoclinic'
loop_
_space_group_symop_operation_xyz
x,y,z
-x,1/2+y,1/2-z
-x,-y,-z
x,1/2-y,1/2+z
loop_
_atom_site_type_symbol
_atom_site_label
_atom_site_fract_x
_atom_site_fract_y
_atom_site_fract_z
Si Si1 0.633498 0.982664 0.645410
Si Si2 0.673679 0.928525 0.257142
Si Si3 0.429706 0.577921 0.347443
Si Si4 0.460683 0.862572 0.225954
Si Si5 0.861151 0.041411 0.659572
Si Si6 0.098919 0.005146 0.735198
Si Si7 0.769453 0.194879 0.771315
Si Si8 0.205657 0.853816 0.840023
O O1 0.655280 0.957833 0.451420
O O2 0.545901 0.927361 0.740565
O O3 0.577247 0.065278 0.658583
O O4 0.752240 0.995029 0.728394
O O5 0.593548 0.855664 0.244677
O O6 0.618789 0.992645 0.140076
O O7 0.806395 0.933858 0.219503
O O8 0.445994 0.612898 0.530982
O O9 0.328390 0.621324 0.265133
O O10 0.363251 0.801725 0.264182
O O11 0.884328 0.012275 0.467301
O O12 0.825245 0.128771 0.656379
O O13 0.971557 0.030351 0.762410
O O14 0.127394 0.925633 0.820701
O O15 0.824598 0.275860 0.746742
O O16 0.782726 0.165708 0.962256
#
# Coordination Sequence:
#
# PCOD9242366 Si02
#       8
#     4   4   4   4   4   4   4   4
#     4   9  15  24  42  66  89 115 146 181 223 269
#     4   9  15  24  42  66  89 115 146 181 223 269
#     4   9  16  26  41  63  90 116 143 180 227 274
#     4   9  16  26  41  63  90 116 143 180 227 274
#     4   9  18  32  49  70  97 128 163 201 238 281
#     4   9  18  32  49  70  97 128 163 201 238 281
#     4  10  20  32  48  70  95 124 157 197 244 291
#     4  10  20  32  48  70  95 124 157 197 244 291
#
# _framework density 19.130697000000001
#
# number of rings (size 3 to 8) (size 9 to 14) (size 15 to 20)
#    0.000    2.750    0.000    3.750    0.000    4.500 
#    0.000    0.000    0.000    1.500    0.000    3.500 
#    0.000    0.000    0.000    0.000    0.000    0.000 
#
# Total GULP energy -178176.038208 kJ/mol
# GULP energy per Si atom -5568.001194 kJ/mol
# Density = 1.908715 g / cm^3
# Si number density = 19.130697 Si / 1000 Ang^3
#
#
#
# Elastic Constant Matrix: (Units=GPa)
#
#
# Indices 1 2 3 4 5 6 
#
# 1 138.1619 23.5715 7.2616 0.0000 15.4109 0.0000
# 2 23.5715 37.8043 -6.7901 0.0000 2.0585 0.0000
# 3 7.2616 -6.7901 23.1064 0.0000 0.3950 0.0000
# 4 0.0000 0.0000 0.0000 14.0337 0.0000 4.6616
# 5 15.4109 2.0585 0.3950 0.0000 21.0440 0.0000
# 6 0.0000 0.0000 0.0000 4.6616 0.0000 13.6005
#
#
#
# Elastic Compliance Matrix: (Units=1/GPa)
#
#
# Indices 1 2 3 4 5 6 
#
# 1 0.009224 -0.006254 -0.004633 0.000000 -0.006056 0.000000
# 2 -0.006254 0.032342 0.011449 0.000000 0.001201 0.000000
# 3 -0.004633 0.011449 0.048075 0.000000 0.001370 0.000000
# 4 0.000000 0.000000 0.000000 0.080412 0.000000 -0.027562
# 5 -0.006056 0.001201 0.001370 0.000000 0.051811 0.000000
# 6 0.000000 0.000000 0.000000 -0.027562 0.000000 0.082974
#
#
# Mechanical properties :
#
#
# Convention : Reuss Voigt Hill
#
# Bulk Modulus (GPa) = 11.01737 27.46207 19.23972
# Shear Modulus (GPa) = 14.97148 21.40428 18.18788
#
# Velocity S-wave (km/s) = 2.80051 3.34854 3.08672
# Velocity P-wave (km/s) = 4.02848 5.41631 4.77311
#
# Compressibility (1/GPa) = 0.09076579
#
# Stress axis : x y z
#
# Youngs Moduli (GPa) = 108.41531 30.91945 20.80087
#
# Poissons Ratio (x) = 0.19335 0.09637
# Poissons Ratio (y) = 0.67798 -0.23815
# Poissons Ratio (z) = 0.50228 -0.35399
#
# Static dielectric constant tensor:
#      x y z
#    x 1.749650 0.000000 0.009500 
#    y 0.000000 1.683870 0.000000 
#    z 0.009500 0.000000 1.709270 
# 
# From -- ./inp_files/13752.got.cif
#   From: 2010.05.17/outbox.cif.g08.bks.cpg/sg14_7_cif.got.tgz:13752.got - 2010.06.03 17:49:19.
