data_PCOD9242721
_publ_section_title
;
Structure prediction by ZEFSAII (Michael W. Deem and Ramdas Pophale) SiO2 
 PCOD9242721
Probable space group: P 21/C
;
_chemical_formula_sum "Si O2"
_cell_formula_units_Z 32
_cell_length_a 14.969181
_cell_length_b 11.888168
_cell_length_c 15.260914
_cell_angle_alpha 90.000000
_cell_angle_beta 138.719613
_cell_angle_gamma 90.000000
_cell_volume 1791.716415
_symmetry_space_group_name_H-M "P 21/C"
_symmetry_group_IT_number 14
_symmetry_cell_setting 'monoclinic'
loop_
_space_group_symop_operation_xyz
x,y,z
-x,1/2+y,1/2-z
-x,-y,-z
x,1/2-y,1/2+z
loop_
_atom_site_type_symbol
_atom_site_label
_atom_site_fract_x
_atom_site_fract_y
_atom_site_fract_z
Si Si1 0.870562 0.894722 0.731122
Si Si2 0.678185 0.502983 0.714472
Si Si3 0.807225 0.789680 0.046997
Si Si4 0.374053 0.491785 0.528611
Si Si5 0.880566 0.154674 0.720430
Si Si6 0.175373 0.234258 0.642077
Si Si7 0.860416 0.293117 0.884358
Si Si8 0.185044 0.825905 0.974207
O O1 0.813132 0.826500 0.605463
O O2 0.818949 0.832647 0.781193
O O3 0.034405 0.879402 0.852118
O O4 0.837837 0.026149 0.702291
O O5 0.535126 0.490529 0.657813
O O6 0.654545 0.480610 0.594160
O O7 0.733417 0.628834 0.765050
O O8 0.785795 0.411821 0.826524
O O9 0.693785 0.872454 0.999891
O O10 0.956374 0.843165 0.172477
O O11 0.790608 0.773581 0.930973
O O12 0.297272 0.585019 0.529015
O O13 0.852054 0.229674 0.785295
O O14 0.814807 0.217747 0.589576
O O15 0.018979 0.194041 0.523745
O O16 0.799878 0.215085 0.915646
#
# Coordination Sequence:
#
# PCOD9242721 Si02
#       8
#     4   4   4   4   4   4   4   4
#     4  10  20  35  57  89 119 141 183 241 291 330
#     4  11  23  40  58  81 116 156 191 236 273 336
#     4  10  21  35  59  87 113 150 187 234 284 339
#     4  11  22  40  61  77 117 157 194 225 279 347
#     4  10  20  35  57  89 119 141 183 241 291 330
#     4  10  22  36  60  89 114 144 189 242 282 330
#     4  10  22  36  60  89 114 144 189 242 282 330
#     4  10  21  35  59  87 113 150 187 234 284 339
#
# _framework density 17.859969
#
# number of rings (size 3 to 8) (size 9 to 14) (size 15 to 20)
#    0.000    1.750    3.750    0.375    3.500    2.500 
#    0.000    0.000    0.000    1.500    0.000    0.000 
#    0.000    0.000    0.000    0.000    0.000    0.000 
#
# Total GULP energy -178664.064951 kJ/mol
# GULP energy per Si atom -5583.252030 kJ/mol
# Density = 1.781932 g / cm^3
# Si number density = 17.859969 Si / 1000 Ang^3
#
#
#
# Elastic Constant Matrix: (Units=GPa)
#
#
# Indices 1 2 3 4 5 6 
#
# 1 62.3721 -1.9964 12.1510 0.0000 4.8118 0.0000
# 2 -1.9964 66.4233 0.8852 0.0000 20.5287 0.0000
# 3 12.1510 0.8852 15.2489 0.0000 1.3722 0.0000
# 4 0.0000 0.0000 0.0000 7.7122 0.0000 -4.2843
# 5 4.8118 20.5287 1.3722 0.0000 18.2913 0.0000
# 6 0.0000 0.0000 0.0000 -4.2843 0.0000 23.8718
#
#
#
# Elastic Compliance Matrix: (Units=1/GPa)
#
#
# Indices 1 2 3 4 5 6 
#
# 1 0.019672 0.003125 -0.015178 0.000000 -0.007543 0.000000
# 2 0.003125 0.023562 -0.001414 0.000000 -0.027160 0.000000
# 3 -0.015178 -0.001414 0.077778 0.000000 -0.000255 0.000000
# 4 0.000000 0.000000 0.000000 0.144024 0.000000 0.025848
# 5 -0.007543 -0.027160 -0.000255 0.000000 0.087156 0.000000
# 6 0.000000 0.000000 0.000000 0.025848 0.000000 0.046529
#
#
# Mechanical properties :
#
#
# Convention : Reuss Voigt Hill
#
# Bulk Modulus (GPa) = 10.62950 18.45819 14.54385
# Shear Modulus (GPa) = 10.94058 18.84202 14.89130
#
# Velocity S-wave (km/s) = 2.47771 3.25158 2.89066
# Velocity P-wave (km/s) = 3.76164 4.94514 4.39342
#
# Compressibility (1/GPa) = 0.09407777
#
# Stress axis : x y z
#
# Youngs Moduli (GPa) = 50.83447 42.44177 12.85708
#
# Poissons Ratio (x) = -0.13263 0.19514
# Poissons Ratio (y) = -0.15885 0.01818
# Poissons Ratio (z) = 0.77156 0.06001
#
# Static dielectric constant tensor:
#      x y z
#    x 1.610020 0.000000 -0.007090 
#    y 0.000000 1.580920 0.000000 
#    z -0.007090 0.000000 1.597810 
# 
# From -- ./inp_files/47137.got.cif
#   From: 2010.05.17/outbox.cif.g08.bks.cpg/sg14_24_cif.got.tgz:47137.got - 2010.06.03 17:49:19.
