data_PCOD9242548
_publ_section_title
;
Structure prediction by ZEFSAII (Michael W. Deem and Ramdas Pophale) SiO2 
 PCOD9242548
Probable space group: P 21/C
;
_chemical_formula_sum "Si O2"
_cell_formula_units_Z 24
_cell_length_a 11.248462
_cell_length_b 11.617518
_cell_length_c 8.507034
_cell_angle_alpha 90.000000
_cell_angle_beta 120.136737
_cell_angle_gamma 90.000000
_cell_volume 961.424656
_symmetry_space_group_name_H-M "P 21/C"
_symmetry_group_IT_number 14
_symmetry_cell_setting 'monoclinic'
loop_
_space_group_symop_operation_xyz
x,y,z
-x,1/2+y,1/2-z
-x,-y,-z
x,1/2-y,1/2+z
loop_
_atom_site_type_symbol
_atom_site_label
_atom_site_fract_x
_atom_site_fract_y
_atom_site_fract_z
Si Si1 0.018796 0.905967 0.297402
Si Si2 0.964964 0.164183 0.336384
Si Si3 0.305373 0.604478 0.465086
Si Si4 0.303103 0.598984 0.823676
Si Si5 0.609243 0.867679 0.050313
Si Si6 0.580696 0.848277 0.668935
O O1 0.972073 0.789227 0.169543
O O2 0.994761 0.871445 0.461779
O O3 0.180410 0.904896 0.364068
O O4 0.987211 0.044203 0.250763
O O5 0.797953 0.176584 0.210725
O O6 0.268993 0.630800 0.620871
O O7 0.286282 0.472271 0.395151
O O8 0.471721 0.607688 0.560388
O O9 0.353567 0.467542 0.834414
O O10 0.435028 0.661739 0.984157
O O11 0.561149 0.843748 0.841442
O O12 0.672797 0.756301 0.171322
#
# Coordination Sequence:
#
# PCOD9242548 Si02
#       6
#     4   4   4   4   4   4
#     4  11  25  44  66  91 121 160 205 254 307 363
#     4  11  25  44  66  91 121 160 205 254 307 363
#     4  10  21  37  58  84 116 155 197 243 296 356
#     4  10  21  37  58  84 116 155 197 243 296 356
#     4  10  20  34  55  84 118 155 194 240 295 355
#     4  10  20  34  55  84 118 155 194 240 295 355
#
# _framework density 24.962954
#
# number of rings (size 3 to 8) (size 9 to 14) (size 15 to 20)
#    0.000    1.667    0.000    4.000    0.000    8.000 
#    0.000    6.667    0.000    0.000    0.000    0.000 
#    0.000    0.000    0.000    0.000    0.000    0.000 
#
# Total GULP energy -133981.902656 kJ/mol
# GULP energy per Si atom -5582.579277 kJ/mol
# Density = 2.490614 g / cm^3
# Si number density = 24.962954 Si / 1000 Ang^3
#
#
#
# Elastic Constant Matrix: (Units=GPa)
#
#
# Indices 1 2 3 4 5 6 
#
# 1 50.2444 29.0149 5.9485 0.0000 -7.5482 0.0000
# 2 29.0149 118.3602 11.3515 0.0000 -26.5376 0.0000
# 3 5.9485 11.3515 46.2352 0.0000 -3.5800 0.0000
# 4 0.0000 0.0000 0.0000 34.2600 0.0000 -15.6910
# 5 -7.5482 -26.5376 -3.5800 0.0000 22.6856 0.0000
# 6 0.0000 0.0000 0.0000 -15.6910 0.0000 31.0730
#
#
#
# Elastic Compliance Matrix: (Units=1/GPa)
#
#
# Indices 1 2 3 4 5 6 
#
# 1 0.023335 -0.005263 -0.001605 0.000000 0.001355 0.000000
# 2 -0.005263 0.012789 -0.001458 0.000000 0.012979 0.000000
# 3 -0.001605 -0.001458 0.022292 0.000000 0.001278 0.000000
# 4 0.000000 0.000000 0.000000 0.037970 0.000000 0.019174
# 5 0.001355 0.012979 0.001278 0.000000 0.059916 0.000000
# 6 0.000000 0.000000 0.000000 0.019174 0.000000 0.041865
#
#
# Mechanical properties :
#
#
# Convention : Reuss Voigt Hill
#
# Bulk Modulus (GPa) = 23.94381 34.16329 29.05355
# Shear Modulus (GPa) = 21.85884 28.83872 25.34878
#
# Velocity S-wave (km/s) = 2.96235 3.40260 3.19008
# Velocity P-wave (km/s) = 4.61663 5.39928 5.02322
#
# Compressibility (1/GPa) = 0.04176446
#
# Stress axis : x y z
#
# Youngs Moduli (GPa) = 42.85341 78.19363 44.85918
#
# Poissons Ratio (x) = 0.41151 0.07201
# Poissons Ratio (y) = 0.22553 0.06539
# Poissons Ratio (z) = 0.06879 0.11399
#
# Static dielectric constant tensor:
#      x y z
#    x 1.962890 0.000000 0.033860 
#    y 0.000000 2.267420 0.000000 
#    z 0.033860 0.000000 1.906080 
# 
# From -- ./inp_files/12512.got.cif
#   From: 2010.05.17/outbox.cif.g08.bks.cpg/sg14_7_cif.got.tgz:12512.got - 2010.06.03 17:49:19.
