data_PCOD9242635
_publ_section_title
;
Structure prediction by ZEFSAII (Michael W. Deem and Ramdas Pophale) SiO2 
 PCOD9242635
Probable space group: P 21/C
;
_chemical_formula_sum "Si O2"
_cell_formula_units_Z 32
_cell_length_a 12.081052
_cell_length_b 25.991680
_cell_length_c 5.893244
_cell_angle_alpha 90.000000
_cell_angle_beta 103.964114
_cell_angle_gamma 90.000000
_cell_volume 1795.830635
_symmetry_space_group_name_H-M "P 21/C"
_symmetry_group_IT_number 14
_symmetry_cell_setting 'monoclinic'
loop_
_space_group_symop_operation_xyz
x,y,z
-x,1/2+y,1/2-z
-x,-y,-z
x,1/2-y,1/2+z
loop_
_atom_site_type_symbol
_atom_site_label
_atom_site_fract_x
_atom_site_fract_y
_atom_site_fract_z
Si Si1 0.857804 0.728227 0.019583
Si Si2 0.055433 0.883616 0.095292
Si Si3 0.120086 0.735227 0.652185
Si Si4 0.631341 0.549525 0.145339
Si Si5 0.415314 0.979838 0.768342
Si Si6 0.829645 0.615977 0.171322
Si Si7 0.068941 0.045735 0.644980
Si Si8 0.778153 0.028414 0.006671
O O1 0.820014 0.753308 0.246506
O O2 0.824466 0.669121 0.034421
O O3 0.994970 0.737302 0.086806
O O4 0.101895 0.826286 0.144932
O O5 0.013862 0.909838 0.306748
O O6 0.146903 0.923734 0.038248
O O7 0.939562 0.880489 0.888564
O O8 0.171471 0.749332 0.426588
O O9 0.500784 0.555081 0.163604
O O10 0.711482 0.598467 0.227980
O O11 0.693647 0.499440 0.287762
O O12 0.619924 0.531033 0.882871
O O13 0.302292 0.956190 0.821589
O O14 0.500000 0.000000 0.000000
O O15 0.853261 0.570608 0.006294
O O16 0.138252 0.018026 0.878717
O O17 0.000000 0.000000 0.500000
#
# Coordination Sequence:
#
# PCOD9242635 Si02
#       8
#     4   4   4   4   4   4   4   4
#     4  10  20  35  52  76 112 146 186 235 277 332
#     4  12  23  32  52  80 115 151 183 221 283 337
#     4  10  20  37  53  74 111 152 192 234 271 331
#     4  10  20  36  54  76 105 142 182 232 270 329
#     4   9  20  38  53  70 105 139 184 225 268 316
#     4  12  21  32  55  79 108 151 184 221 281 337
#     4  12  22  31  46  79 120 150 177 218 267 343
#     4  11  21  33  50  78 111 147 179 221 265 333
#
# _framework density 17.819050000000001
#
# number of rings (size 3 to 8) (size 9 to 14) (size 15 to 20)
#    0.000    1.250    6.250    2.625    0.000    0.000 
#    0.000    0.000    0.000    0.000    0.000    1.750 
#    0.000    0.000    0.000    0.000    0.000    0.000 
#
# Total GULP energy -178165.254222 kJ/mol
# GULP energy per Si atom -5567.664194 kJ/mol
# Density = 1.777849 g / cm^3
# Si number density = 17.819050 Si / 1000 Ang^3
#
#
#
# Elastic Constant Matrix: (Units=GPa)
#
#
# Indices 1 2 3 4 5 6 
#
# 1 37.7073 -9.5861 -4.5470 0.0000 -5.9277 0.0000
# 2 -9.5861 44.4441 2.4572 0.0000 3.5220 0.0000
# 3 -4.5470 2.4572 80.2007 0.0000 -5.7451 0.0000
# 4 0.0000 0.0000 0.0000 25.9689 0.0000 -6.7230
# 5 -5.9277 3.5220 -5.7451 0.0000 20.0618 0.0000
# 6 0.0000 0.0000 0.0000 -6.7230 0.0000 10.8984
#
#
#
# Elastic Compliance Matrix: (Units=1/GPa)
#
#
# Indices 1 2 3 4 5 6 
#
# 1 0.029504 0.005587 0.002099 0.000000 0.008338 0.000000
# 2 0.005587 0.023955 -0.000613 0.000000 -0.002730 0.000000
# 3 0.002099 -0.000613 0.012924 0.000000 0.004429 0.000000
# 4 0.000000 0.000000 0.000000 0.045826 0.000000 0.028269
# 5 0.008338 -0.002730 0.004429 0.000000 0.054057 0.000000
# 6 0.000000 0.000000 0.000000 0.028269 0.000000 0.109195
#
#
# Mechanical properties :
#
#
# Convention : Reuss Voigt Hill
#
# Bulk Modulus (GPa) = 12.41779 15.44446 13.93113
# Shear Modulus (GPa) = 17.35157 22.98771 20.16964
#
# Velocity S-wave (km/s) = 3.12391 3.59564 3.36804
# Velocity P-wave (km/s) = 4.47165 5.09160 4.79166
#
# Compressibility (1/GPa) = 0.08052961
#
# Stress axis : x y z
#
# Youngs Moduli (GPa) = 33.89346 41.74409 77.37704
#
# Poissons Ratio (x) = -0.23322 -0.16240
# Poissons Ratio (y) = -0.18936 0.04741
# Poissons Ratio (z) = -0.07114 0.02558
#
# Static dielectric constant tensor:
#      x y z
#    x 1.682940 0.000000 -0.113230 
#    y 0.000000 1.590730 0.000000 
#    z -0.113230 0.000000 1.867540 
# 
# From -- ./inp_files/3136.got.cif
#   From: 2010.05.17/outbox.cif.g08.bks.cpg/sg14_2_cif.got.tgz:3136.got - 2010.06.03 17:49:19.
