data_PCOD9242126
_publ_section_title
;
Structure prediction by ZEFSAII (Michael W. Deem and Ramdas Pophale) SiO2 
 PCOD9242126
Probable space group: P 21/C
;
_chemical_formula_sum "Si O2"
_cell_formula_units_Z 24
_cell_length_a 7.341908
_cell_length_b 11.670065
_cell_length_c 12.812896
_cell_angle_alpha 90.000000
_cell_angle_beta 99.059831
_cell_angle_gamma 90.000000
_cell_volume 1084.120032
_symmetry_space_group_name_H-M "P 21/C"
_symmetry_group_IT_number 14
_symmetry_cell_setting 'monoclinic'
loop_
_space_group_symop_operation_xyz
x,y,z
-x,1/2+y,1/2-z
-x,-y,-z
x,1/2-y,1/2+z
loop_
_atom_site_type_symbol
_atom_site_label
_atom_site_fract_x
_atom_site_fract_y
_atom_site_fract_z
Si Si1 0.198133 0.370630 0.556598
Si Si2 0.776620 0.084000 0.084538
Si Si3 0.309464 0.290345 0.225443
Si Si4 0.027966 0.277043 0.869382
Si Si5 0.760587 0.460535 0.828522
Si Si6 0.638680 0.259293 0.404534
O O1 0.269064 0.475389 0.493483
O O2 0.334077 0.320235 0.655001
O O3 0.152676 0.266281 0.474499
O O4 0.999070 0.402307 0.589486
O O5 0.671264 0.191209 0.022284
O O6 0.735734 0.064502 0.202146
O O7 0.126172 0.261839 0.274133
O O8 0.275642 0.406894 0.160163
O O9 0.471383 0.307654 0.323291
O O10 0.965871 0.409321 0.868624
O O11 0.832306 0.211758 0.863957
O O12 0.634762 0.378173 0.889054
#
# Coordination Sequence:
#
# PCOD9242126 Si02
#       6
#     4   4   4   4   4   4
#     4  10  20  36  66  91 116 165 207 245 312 359
#     4  10  19  39  66  87 121 163 207 253 294 369
#     4  12  22  39  65  90 124 163 200 254 310 360
#     4   9  21  41  56  95 120 155 206 249 302 363
#     4  10  22  41  61  92 124 159 206 250 306 359
#     4   9  24  38  59  95 124 153 208 255 300 359
#
# _framework density 22.137771000000001
#
# number of rings (size 3 to 8) (size 9 to 14) (size 15 to 20)
#    1.000    1.000    3.333    0.000    2.333    2.667 
#    0.000    0.000    0.000    2.000    0.000    0.000 
#    0.000    0.000    0.000    0.000    0.000    0.000 
#
# Total GULP energy -133837.840898 kJ/mol
# GULP energy per Si atom -5576.576704 kJ/mol
# Density = 2.208738 g / cm^3
# Si number density = 22.137771 Si / 1000 Ang^3
#
#
#
# Elastic Constant Matrix: (Units=GPa)
#
#
# Indices 1 2 3 4 5 6 
#
# 1 52.8190 3.2567 9.0682 0.0000 0.9896 0.0000
# 2 3.2567 47.7560 19.5241 0.0000 -1.8742 0.0000
# 3 9.0682 19.5241 48.9069 0.0000 -4.1085 0.0000
# 4 0.0000 0.0000 0.0000 62.0009 0.0000 27.3875
# 5 0.9896 -1.8742 -4.1085 0.0000 19.5583 0.0000
# 6 0.0000 0.0000 0.0000 27.3875 0.0000 43.1257
#
#
#
# Elastic Compliance Matrix: (Units=1/GPa)
#
#
# Indices 1 2 3 4 5 6 
#
# 1 0.019617 0.000168 -0.003854 0.000000 -0.001786 0.000000
# 2 0.000168 0.025027 -0.009998 0.000000 0.000290 0.000000
# 3 -0.003854 -0.009998 0.025540 0.000000 0.004602 0.000000
# 4 0.000000 0.000000 0.000000 0.022417 0.000000 -0.014236
# 5 -0.001786 0.000290 0.004602 0.000000 0.052214 0.000000
# 6 0.000000 0.000000 0.000000 -0.014236 0.000000 0.032229
#
#
# Mechanical properties :
#
#
# Convention : Reuss Voigt Hill
#
# Bulk Modulus (GPa) = 23.35620 23.68667 23.52144
# Shear Modulus (GPa) = 22.86392 32.77918 27.82155
#
# Velocity S-wave (km/s) = 3.21721 3.85215 3.54891
# Velocity P-wave (km/s) = 4.93699 5.52343 5.23842
#
# Compressibility (1/GPa) = 0.04281518
#
# Stress axis : x y z
#
# Youngs Moduli (GPa) = 50.97506 39.95667 39.15498
#
# Poissons Ratio (x) = -0.00671 0.15092
# Poissons Ratio (y) = -0.00856 0.39147
# Poissons Ratio (z) = 0.19648 0.39948
#
# Static dielectric constant tensor:
#      x y z
#    x 1.828130 0.000000 0.000840 
#    y 0.000000 1.840490 0.000000 
#    z 0.000840 0.000000 1.829320 
# 
# From -- ./inp_files/39371.got.cif
#   From: 2010.05.17/outbox.cif.g08.bks.cpg/sg14_20_cif.got.tgz:39371.got - 2010.06.03 17:49:19.
