data_PCOD9242194
_publ_section_title
;
Structure prediction by ZEFSAII (Michael W. Deem and Ramdas Pophale) SiO2 
 PCOD9242194
Probable space group: P 21/C
;
_chemical_formula_sum "Si O2"
_cell_formula_units_Z 32
_cell_length_a 10.947561
_cell_length_b 14.373931
_cell_length_c 16.524918
_cell_angle_alpha 90.000000
_cell_angle_beta 33.258139
_cell_angle_gamma 90.000000
_cell_volume 1426.064628
_symmetry_space_group_name_H-M "P 21/C"
_symmetry_group_IT_number 14
_symmetry_cell_setting 'monoclinic'
loop_
_space_group_symop_operation_xyz
x,y,z
-x,1/2+y,1/2-z
-x,-y,-z
x,1/2-y,1/2+z
loop_
_atom_site_type_symbol
_atom_site_label
_atom_site_fract_x
_atom_site_fract_y
_atom_site_fract_z
Si Si1 0.110385 0.896406 0.850610
Si Si2 0.171379 0.914756 0.995271
Si Si3 0.719164 0.688315 0.492786
Si Si4 0.266675 0.179872 0.734974
Si Si5 0.874087 0.871026 0.729981
Si Si6 0.436666 0.385645 0.967908
Si Si7 0.343111 0.566288 0.913198
Si Si8 0.404382 0.981569 0.195469
O O1 0.295965 0.886160 0.680266
O O2 0.907646 0.825416 0.956142
O O3 0.233113 0.893353 0.868477
O O4 0.989156 0.995123 0.913710
O O5 0.998741 0.836933 0.116657
O O6 0.387476 0.946717 0.922484
O O7 0.840881 0.656725 0.341985
O O8 0.642321 0.793666 0.534729
O O9 0.510286 0.618465 0.615815
O O10 0.275111 0.291430 0.731558
O O11 0.347108 0.132697 0.606928
O O12 0.428652 0.127717 0.708579
O O13 0.776600 0.973154 0.763035
O O14 0.128605 0.874646 0.559065
O O15 0.362781 0.479554 0.964289
O O16 0.320585 0.528148 0.834284
#
# Coordination Sequence:
#
# PCOD9242194 Si02
#       8
#     4   4   4   4   4   4   4   4
#     4  10  19  40  63  93 124 164 221 266 316 390
#     4  10  20  38  66  92 122 168 213 272 318 380
#     4  10  24  42  64  97 133 178 217 269 336 391
#     4  11  24  41  66 100 131 172 223 272 328 395
#     4  11  27  43  63  99 136 175 215 271 339 392
#     4  11  23  40  65 100 131 169 225 276 325 391
#     4  12  24  43  69  98 130 174 223 275 332 381
#     4  11  24  44  67  93 136 173 223 264 332 394
#
# _framework density 22.439375999999999
#
# number of rings (size 3 to 8) (size 9 to 14) (size 15 to 20)
#    0.000    1.250    2.500    3.375    5.250    4.000 
#    2.250    0.000    0.000    0.000    0.000    0.000 
#    0.000    0.000    0.000    0.000    0.000    0.000 
#
# Total GULP energy -178754.207839 kJ/mol
# GULP energy per Si atom -5586.068995 kJ/mol
# Density = 2.238830 g / cm^3
# Si number density = 22.439376 Si / 1000 Ang^3
#
#
#
# Elastic Constant Matrix: (Units=GPa)
#
#
# Indices 1 2 3 4 5 6 
#
# 1 20.3602 24.8154 4.7696 0.0000 -13.7750 0.0000
# 2 24.8154 110.0630 23.3101 0.0000 -8.3534 0.0000
# 3 4.7696 23.3101 110.9127 0.0000 0.9852 0.0000
# 4 0.0000 0.0000 0.0000 -3.3550 0.0000 -6.9961
# 5 -13.7750 -8.3534 0.9852 0.0000 19.3792 0.0000
# 6 0.0000 0.0000 0.0000 -6.9961 0.0000 18.1249
#
#
#
# Elastic Compliance Matrix: (Units=1/GPa)
#
#
# Indices 1 2 3 4 5 6 
#
# 1 0.138766 -0.024236 -0.001658 0.000000 0.088274 0.000000
# 2 -0.024236 0.014097 -0.001822 0.000000 -0.011058 0.000000
# 3 -0.001658 -0.001822 0.009492 0.000000 -0.002446 0.000000
# 4 0.000000 0.000000 0.000000 -0.165140 0.000000 -0.063743
# 5 0.088274 -0.011058 -0.002446 0.000000 0.109706 0.000000
# 6 0.000000 0.000000 0.000000 -0.063743 0.000000 0.030569
#
#
# Mechanical properties :
#
#
# Convention : Reuss Voigt Hill
#
# Bulk Modulus (GPa) = 9.35255 38.56955 23.96105
# Shear Modulus (GPa) = 21.87578 19.39252 20.63415
#
# Velocity S-wave (km/s) = 3.12570 2.94295 3.03570
# Velocity P-wave (km/s) = 4.14773 5.36410 4.79464
#
# Compressibility (1/GPa) = 0.10692275
#
# Stress axis : x y z
#
# Youngs Moduli (GPa) = 7.20635 70.93822 105.35089
#
# Poissons Ratio (x) = 1.71927 0.17466
# Poissons Ratio (y) = 0.17465 0.19197
# Poissons Ratio (z) = 0.01195 0.12926
#
# Static dielectric constant tensor:
#      x y z
#    x 1.883330 0.000000 -0.026940 
#    y 0.000000 1.926290 0.000000 
#    z -0.026940 0.000000 1.873370 
# 
# From -- ./inp_files/57996.got.cif
#   From: 2010.05.17/outbox.cif.g08.bks.cpg/sg14_29_cif.got.tgz:57996.got - 2010.06.03 17:49:19.
