data_PCOD9242725
_publ_section_title
;
Structure prediction by ZEFSAII (Michael W. Deem and Ramdas Pophale) SiO2 
 PCOD9242725
Probable space group: P 21/C
;
_chemical_formula_sum "Si O2"
_cell_formula_units_Z 32
_cell_length_a 15.814460
_cell_length_b 7.050201
_cell_length_c 14.973392
_cell_angle_alpha 90.000000
_cell_angle_beta 93.346630
_cell_angle_gamma 90.000000
_cell_volume 1666.613129
_symmetry_space_group_name_H-M "P 21/C"
_symmetry_group_IT_number 14
_symmetry_cell_setting 'monoclinic'
loop_
_space_group_symop_operation_xyz
x,y,z
-x,1/2+y,1/2-z
-x,-y,-z
x,1/2-y,1/2+z
loop_
_atom_site_type_symbol
_atom_site_label
_atom_site_fract_x
_atom_site_fract_y
_atom_site_fract_z
Si Si1 0.096562 0.554966 0.490023
Si Si2 0.652183 0.144037 0.641722
Si Si3 0.794947 0.161659 0.389027
Si Si4 0.522072 0.058584 0.100188
Si Si5 0.322733 0.297161 0.386341
Si Si6 0.237335 0.226864 0.066558
Si Si7 0.804404 0.405762 0.678146
Si Si8 0.657207 0.445680 0.339983
O O1 0.131274 0.733437 0.550416
O O2 0.153071 0.379332 0.529371
O O3 0.117564 0.587518 0.386109
O O4 0.000000 0.500000 0.500000
O O5 0.567747 0.238357 0.598694
O O6 0.736663 0.263359 0.626661
O O7 0.644284 0.161202 0.747144
O O8 0.664317 0.924492 0.624498
O O9 0.815984 0.153186 0.282827
O O10 0.709342 0.287761 0.399795
O O11 0.777661 0.947891 0.419521
O O12 0.594823 0.914463 0.138179
O O13 0.434095 0.032138 0.144632
O O14 0.500000 0.000000 0.000000
O O15 0.303886 0.318798 0.490987
O O16 0.243188 0.391242 0.330946
O O17 0.276900 0.120799 0.154596
#
# Coordination Sequence:
#
# PCOD9242725 Si02
#       8
#     4   4   4   4   4   4   4   4
#     4  10  22  41  63  93 127 143 185 253 301 351
#     4  10  22  36  58  79 111 161 194 239 297 338
#     4  10  21  39  65  85 115 162 198 233 299 362
#     4  11  23  36  49  82 118 146 197 252 287 335
#     4  10  20  35  58  80 114 156 196 243 295 344
#     4  10  20  37  63  85 110 156 196 235 294 363
#     4   9  20  41  60  87 119 154 198 240 284 366
#     4  10  22  38  53  82 117 150 200 251 283 343
#
# _framework density 19.200614999999999
#
# number of rings (size 3 to 8) (size 9 to 14) (size 15 to 20)
#    0.000    2.000    1.250    1.500    5.250    2.000 
#    2.250    0.000    0.000    0.000    0.000    0.000 
#    0.000    0.000    0.000    0.000    0.000    0.000 
#
# Total GULP energy -178306.704508 kJ/mol
# GULP energy per Si atom -5572.084516 kJ/mol
# Density = 1.915691 g / cm^3
# Si number density = 19.200615 Si / 1000 Ang^3
#
#
#
# Elastic Constant Matrix: (Units=GPa)
#
#
# Indices 1 2 3 4 5 6 
#
# 1 115.8413 32.7828 16.1187 0.0000 -10.9548 0.0000
# 2 32.7828 136.3127 5.8710 0.0000 3.4021 0.0000
# 3 16.1187 5.8710 55.2284 0.0000 3.1058 0.0000
# 4 0.0000 0.0000 0.0000 16.9600 0.0000 14.3812
# 5 -10.9548 3.4021 3.1058 0.0000 20.2517 0.0000
# 6 0.0000 0.0000 0.0000 14.3812 0.0000 4.7572
#
#
#
# Elastic Compliance Matrix: (Units=1/GPa)
#
#
# Indices 1 2 3 4 5 6 
#
# 1 0.010402 -0.002530 -0.003134 0.000000 0.006533 0.000000
# 2 -0.002530 0.008011 0.000040 0.000000 -0.002720 0.000000
# 3 -0.003134 0.000040 0.019279 0.000000 -0.004659 0.000000
# 4 0.000000 0.000000 0.000000 -0.037714 0.000000 0.114012
# 5 0.006533 -0.002720 -0.004659 0.000000 0.054084 0.000000
# 6 0.000000 0.000000 0.000000 0.114012 0.000000 -0.134457
#
#
# Mechanical properties :
#
#
# Convention : Reuss Voigt Hill
#
# Bulk Modulus (GPa) = 37.81681 46.32528 42.07104
# Shear Modulus (GPa) = -82.87494 25.23444 -28.82025
#
# Velocity S-wave (km/s) = -6.57696 3.62919 -3.87849
# Velocity P-wave (km/s) = 6.15928 6.46071 1.37913
#
# Compressibility (1/GPa) = 0.02644326
#
# Stress axis : x y z
#
# Youngs Moduli (GPa) = 96.13230 124.83366 51.86944
#
# Poissons Ratio (x) = 0.31580 0.16258
# Poissons Ratio (y) = 0.24319 -0.00206
# Poissons Ratio (z) = 0.30132 -0.00496
#
# Static dielectric constant tensor:
#      x y z
#    x 1.722290 0.000000 -0.017570 
#    y 0.000000 1.755520 0.000000 
#    z -0.017570 0.000000 1.745810 
# 
# From -- ./inp_files/58464.got.cif
#   From: 2010.05.17/outbox.cif.g08.bks.cpg/sg14_30_cif.got.tgz:58464.got - 2010.06.03 17:49:19.
