data_PCOD9242832
_publ_section_title
;
Structure prediction by ZEFSAII (Michael W. Deem and Ramdas Pophale) SiO2 
 PCOD9242832
Probable space group: P 21/C
;
_chemical_formula_sum "Si O2"
_cell_formula_units_Z 32
_cell_length_a 9.836493
_cell_length_b 8.451337
_cell_length_c 19.633852
_cell_angle_alpha 90.000000
_cell_angle_beta 56.898108
_cell_angle_gamma 90.000000
_cell_volume 1367.288274
_symmetry_space_group_name_H-M "P 21/C"
_symmetry_group_IT_number 14
_symmetry_cell_setting 'monoclinic'
loop_
_space_group_symop_operation_xyz
x,y,z
-x,1/2+y,1/2-z
-x,-y,-z
x,1/2-y,1/2+z
loop_
_atom_site_type_symbol
_atom_site_label
_atom_site_fract_x
_atom_site_fract_y
_atom_site_fract_z
Si Si1 0.249579 0.578220 0.866769
Si Si2 0.775254 0.754235 0.303508
Si Si3 0.180265 0.762556 0.015520
Si Si4 0.607197 0.933364 0.229086
Si Si5 0.909945 0.082064 0.328585
Si Si6 0.176923 0.263717 0.438731
Si Si7 0.207119 0.414741 0.573011
Si Si8 0.853723 0.312775 0.704386
O O1 0.416419 0.545898 0.782189
O O2 0.183510 0.419299 0.917720
O O3 0.129877 0.655734 0.844440
O O4 0.270385 0.696620 0.924861
O O5 0.656182 0.826918 0.280913
O O6 0.703398 0.653102 0.385316
O O7 0.905045 0.644271 0.228499
O O8 0.866725 0.904968 0.314712
O O9 0.155430 0.628648 0.079741
O O10 0.002947 0.816892 0.035390
O O11 0.254523 0.914189 0.032587
O O12 0.686720 0.853305 0.141997
O O13 0.700171 0.097650 0.215173
O O14 0.827868 0.193750 0.292133
O O15 0.210056 0.298144 0.508120
O O16 0.016606 0.416230 0.648776
#
# Coordination Sequence:
#
# PCOD9242832 Si02
#       8
#     4   4   4   4   4   4   4   4
#     4  12  26  38  62  93 131 162 208 253 311 382
#     4  10  21  38  63  91 124 161 206 258 320 363
#     4  12  22  40  62  95 121 160 212 263 305 359
#     4  11  23  44  60  89 131 171 195 251 322 380
#     4  10  20  35  63  92 121 153 208 262 304 363
#     4  12  23  39  64  94 122 163 213 256 306 367
#     4  11  22  39  66  90 119 157 208 271 307 358
#     4  10  21  40  61  90 124 160 204 254 317 359
#
# _framework density 23.40399
#
# number of rings (size 3 to 8) (size 9 to 14) (size 15 to 20)
#    0.000    1.000    3.750    4.500    3.500    1.000 
#    0.000    7.500    0.000    0.000    0.000    0.000 
#    0.000    0.000    0.000    0.000    0.000    0.000 
#
# Total GULP energy -179101.889394 kJ/mol
# GULP energy per Si atom -5596.934044 kJ/mol
# Density = 2.335072 g / cm^3
# Si number density = 23.403990 Si / 1000 Ang^3
#
#
#
# Elastic Constant Matrix: (Units=GPa)
#
#
# Indices 1 2 3 4 5 6 
#
# 1 21.2567 -7.1700 16.1702 0.0000 6.5425 0.0000
# 2 -7.1700 74.8723 3.3355 0.0000 1.3334 0.0000
# 3 16.1702 3.3355 105.3270 0.0000 17.1129 0.0000
# 4 0.0000 0.0000 0.0000 42.3877 0.0000 13.3661
# 5 6.5425 1.3334 17.1129 0.0000 31.8804 0.0000
# 6 0.0000 0.0000 0.0000 13.3661 0.0000 22.8142
#
#
#
# Elastic Compliance Matrix: (Units=1/GPa)
#
#
# Indices 1 2 3 4 5 6 
#
# 1 0.057353 0.005976 -0.007714 0.000000 -0.007879 0.000000
# 2 0.005976 0.014002 -0.001168 0.000000 -0.001185 0.000000
# 3 -0.007714 -0.001168 0.011449 0.000000 -0.004514 0.000000
# 4 0.000000 0.000000 0.000000 0.028938 0.000000 -0.016954
# 5 -0.007879 -0.001185 -0.004514 0.000000 0.035457 0.000000
# 6 0.000000 0.000000 0.000000 -0.016954 0.000000 0.053765
#
#
# Mechanical properties :
#
#
# Convention : Reuss Voigt Hill
#
# Bulk Modulus (GPa) = 12.98851 25.12528 19.05690
# Shear Modulus (GPa) = 21.51097 32.02447 26.76772
#
# Velocity S-wave (km/s) = 3.03498 3.70311 3.38557
# Velocity P-wave (km/s) = 4.22412 5.38914 4.84180
#
# Compressibility (1/GPa) = 0.07699112
#
# Stress axis : x y z
#
# Youngs Moduli (GPa) = 17.43579 71.42075 87.34461
#
# Poissons Ratio (x) = -0.42683 0.67379
# Poissons Ratio (y) = -0.10420 0.10205
# Poissons Ratio (z) = 0.13450 0.08345
#
# Static dielectric constant tensor:
#      x y z
#    x 1.893510 0.000000 0.012090 
#    y 0.000000 1.929010 0.000000 
#    z 0.012090 0.000000 1.836070 
# 
# From -- ./inp_files/67024.got.cif
#   From: 2010.05.17/outbox.cif.g08.bks.cpg/sg14_34_cif.got.tgz:67024.got - 2010.06.03 17:49:19.
