data_PCOD9242069
_publ_section_title
;
Structure prediction by ZEFSAII (Michael W. Deem and Ramdas Pophale) SiO2 
 PCOD9242069
Probable space group: P 21/C
;
_chemical_formula_sum "Si O2"
_cell_formula_units_Z 24
_cell_length_a 14.430383
_cell_length_b 6.674833
_cell_length_c 20.397775
_cell_angle_alpha 90.000000
_cell_angle_beta 25.136162
_cell_angle_gamma 90.000000
_cell_volume 834.556607
_symmetry_space_group_name_H-M "P 21/C"
_symmetry_group_IT_number 14
_symmetry_cell_setting 'monoclinic'
loop_
_space_group_symop_operation_xyz
x,y,z
-x,1/2+y,1/2-z
-x,-y,-z
x,1/2-y,1/2+z
loop_
_atom_site_type_symbol
_atom_site_label
_atom_site_fract_x
_atom_site_fract_y
_atom_site_fract_z
Si Si1 0.764030 0.812948 0.111507
Si Si2 0.768891 0.198945 0.932569
Si Si3 0.582820 0.379859 0.321608
Si Si4 0.749195 0.271870 0.086027
Si Si5 0.909256 0.276662 0.209090
Si Si6 0.650847 0.939549 0.315983
O O1 0.511179 0.772760 0.260951
O O2 0.778752 0.803049 0.181135
O O3 0.807210 0.048293 0.070760
O O4 0.906685 0.709140 0.964363
O O5 0.842093 0.304064 0.953217
O O6 0.564153 0.315772 0.029752
O O7 0.645761 0.993896 0.033011
O O8 0.943345 0.178388 0.763200
O O9 0.742745 0.407947 0.155950
O O10 0.715384 0.415089 0.303766
O O11 0.553259 0.139370 0.343132
O O12 0.814628 0.046680 0.261338
#
# Coordination Sequence:
#
# PCOD9242069 Si02
#       6
#     4   4   4   4   4   4
#     4  10  19  39  61  85 119 166 208 251 302 369
#     4  11  19  38  61  91 123 163 202 254 317 366
#     4   9  20  36  62  89 121 166 202 250 306 371
#     4  10  20  37  64  81 121 174 207 242 314 375
#     4  10  21  36  62  91 125 154 207 265 303 360
#     4   8  20  34  61  86 117 164 197 244 307 368
#
# _framework density 28.757787
#
# number of rings (size 3 to 8) (size 9 to 14) (size 15 to 20)
#    1.000    1.333    1.667    1.500    0.000    0.000 
#    0.000   10.000    0.000    0.000    0.000    0.000 
#    0.000    0.000    0.000    0.000    0.000    0.000 
#
# Total GULP energy -134097.590387 kJ/mol
# GULP energy per Si atom -5587.399599 kJ/mol
# Density = 2.869233 g / cm^3
# Si number density = 28.757787 Si / 1000 Ang^3
#
#
#
# Elastic Constant Matrix: (Units=GPa)
#
#
# Indices 1 2 3 4 5 6 
#
# 1 98.5941 9.4639 42.3060 0.0000 40.5737 0.0000
# 2 9.4639 105.2929 40.0558 0.0000 16.8055 0.0000
# 3 42.3060 40.0558 179.3834 0.0000 67.3692 0.0000
# 4 0.0000 0.0000 0.0000 36.2466 0.0000 2.7983
# 5 40.5737 16.8055 67.3692 0.0000 64.1328 0.0000
# 6 0.0000 0.0000 0.0000 2.7983 0.0000 42.5612
#
#
#
# Elastic Compliance Matrix: (Units=1/GPa)
#
#
# Indices 1 2 3 4 5 6 
#
# 1 0.013715 0.000157 0.000007 0.000000 -0.008726 0.000000
# 2 0.000157 0.010389 -0.002142 0.000000 -0.000571 0.000000
# 3 0.000007 -0.002142 0.009649 0.000000 -0.009579 0.000000
# 4 0.000000 0.000000 0.000000 0.027730 0.000000 -0.001823
# 5 -0.008726 -0.000571 -0.009579 0.000000 0.031325 0.000000
# 6 0.000000 0.000000 0.000000 -0.001823 0.000000 0.023615
#
#
# Mechanical properties :
#
#
# Convention : Reuss Voigt Hill
#
# Bulk Modulus (GPa) = 33.55963 62.99130 48.27547
# Shear Modulus (GPa) = 38.36947 48.01776 43.19362
#
# Velocity S-wave (km/s) = 3.65667 4.09067 3.87974
# Velocity P-wave (km/s) = 5.43355 6.65305 6.07398
#
# Compressibility (1/GPa) = 0.02979770
#
# Stress axis : x y z
#
# Youngs Moduli (GPa) = 72.91161 96.25193 103.63995
#
# Poissons Ratio (x) = -0.01513 -0.00077
# Poissons Ratio (y) = -0.01146 0.22204
# Poissons Ratio (z) = -0.00054 0.20621
#
# Static dielectric constant tensor:
#      x y z
#    x 2.246450 0.000000 -0.020980 
#    y 0.000000 2.362600 0.000000 
#    z -0.020980 0.000000 2.238010 
# 
# From -- ./inp_files/74577.got.cif
#   From: 2010.05.17/outbox.cif.g08.bks.cpg/sg14_38_cif.got.tgz:74577.got - 2010.06.03 17:49:19.
