data_PCOD9242633
_publ_section_title
;
Structure prediction by ZEFSAII (Michael W. Deem and Ramdas Pophale) SiO2 
 PCOD9242633
Probable space group: P 21/C
;
_chemical_formula_sum "Si O2"
_cell_formula_units_Z 32
_cell_length_a 14.333732
_cell_length_b 5.651556
_cell_length_c 14.770076
_cell_angle_alpha 90.000000
_cell_angle_beta 90.975954
_cell_angle_gamma 90.000000
_cell_volume 1196.319105
_symmetry_space_group_name_H-M "P 21/C"
_symmetry_group_IT_number 14
_symmetry_cell_setting 'monoclinic'
loop_
_space_group_symop_operation_xyz
x,y,z
-x,1/2+y,1/2-z
-x,-y,-z
x,1/2-y,1/2+z
loop_
_atom_site_type_symbol
_atom_site_label
_atom_site_fract_x
_atom_site_fract_y
_atom_site_fract_z
Si Si1 0.633841 0.395486 0.199649
Si Si2 0.252453 0.675472 0.434342
Si Si3 0.043031 0.506640 0.337047
Si Si4 0.170219 0.016007 0.101986
Si Si5 0.412539 0.218680 0.951835
Si Si6 0.984073 0.995585 0.629202
Si Si7 0.454237 0.118777 0.140125
Si Si8 0.188176 0.522763 0.082879
O O1 0.724388 0.247537 0.168446
O O2 0.619223 0.584943 0.119066
O O3 0.541832 0.228139 0.195604
O O4 0.625315 0.538926 0.292325
O O5 0.178704 0.520573 0.493397
O O6 0.341624 0.504593 0.453940
O O7 0.241274 0.918443 0.491429
O O8 0.936721 0.518704 0.370376
O O9 0.074110 0.246335 0.368634
O O10 0.037372 0.503195 0.228322
O O11 0.077179 0.765462 0.369748
O O12 0.210996 0.270972 0.124660
O O13 0.207750 0.764408 0.137529
O O14 0.507309 0.111966 0.911291
O O15 0.426491 0.290719 0.056761
O O16 0.074664 0.987315 0.564836
#
# Coordination Sequence:
#
# PCOD9242633 Si02
#       8
#     4   4   4   4   4   4   4   4
#     4  11  19  35  52  73  97 130 167 209 261 303
#     4   9  19  28  47  66  95 130 163 205 242 319
#     4   8  12  18  30  49  77 111 158 192 230 283
#     4   8  14  24  37  58  85 122 160 197 237 292
#     4  10  20  35  50  74  98 127 172 199 266 293
#     4   8  12  18  30  49  75 115 155 193 230 284
#     4  10  21  34  54  73  98 127 162 219 246 314
#     4   8  14  24  37  56  87 121 162 195 239 291
#
# _framework density 26.748712999999999
#
# number of rings (size 3 to 8) (size 9 to 14) (size 15 to 20)
#    0.750    2.250    1.250    1.125    0.000    0.000 
#    0.000    0.000    0.000    0.000    0.000    0.000 
#    0.000    0.000    0.000    2.250    2.500    2.625 
#
# Total GULP energy -178371.916860 kJ/mol
# GULP energy per Si atom -5574.122402 kJ/mol
# Density = 2.668783 g / cm^3
# Si number density = 26.748713 Si / 1000 Ang^3
#
#
#
# Elastic Constant Matrix: (Units=GPa)
#
#
# Indices 1 2 3 4 5 6 
#
# 1 57.4001 16.2141 59.2679 0.0000 -14.0095 0.0000
# 2 16.2141 191.2090 20.3882 0.0000 0.9606 0.0000
# 3 59.2679 20.3882 129.8821 0.0000 -30.9743 0.0000
# 4 0.0000 0.0000 0.0000 39.0107 0.0000 -10.1205
# 5 -14.0095 0.9606 -30.9743 0.0000 36.3217 0.0000
# 6 0.0000 0.0000 0.0000 -10.1205 0.0000 26.4921
#
#
#
# Elastic Compliance Matrix: (Units=1/GPa)
#
#
# Indices 1 2 3 4 5 6 
#
# 1 0.033222 -0.001224 -0.014943 0.000000 0.000103 0.000000
# 2 -0.001224 0.005397 -0.000546 0.000000 -0.001081 0.000000
# 3 -0.014943 -0.000546 0.016611 0.000000 0.008416 0.000000
# 4 0.000000 0.000000 0.000000 0.028454 0.000000 0.010870
# 5 0.000103 -0.001081 0.008416 0.000000 0.034777 0.000000
# 6 0.000000 0.000000 0.000000 0.010870 0.000000 0.041900
#
#
# Mechanical properties :
#
#
# Convention : Reuss Voigt Hill
#
# Bulk Modulus (GPa) = 45.86553 63.35907 54.61230
# Shear Modulus (GPa) = 24.86862 39.20629 32.03745
#
# Velocity S-wave (km/s) = 3.05243 3.83263 3.46456
# Velocity P-wave (km/s) = 5.44124 6.58207 6.03866
#
# Compressibility (1/GPa) = 0.02180286
#
# Stress axis : x y z
#
# Youngs Moduli (GPa) = 30.10056 185.27493 60.20097
#
# Poissons Ratio (x) = 0.22684 0.89959
# Poissons Ratio (y) = 0.03685 0.03289
# Poissons Ratio (z) = 0.44980 0.10122
#
# Static dielectric constant tensor:
#      x y z
#    x 2.109370 0.000000 0.032350 
#    y 0.000000 2.167940 0.000000 
#    z 0.032350 0.000000 2.080420 
# 
# From -- ./inp_files/51631.got.cif
#   From: 2010.05.17/outbox.cif.g08.bks.cpg/sg14_26_cif.got.tgz:51631.got - 2010.06.03 17:49:19.
