data_PCOD9242416
_publ_section_title
;
Structure prediction by ZEFSAII (Michael W. Deem and Ramdas Pophale) SiO2 
 PCOD9242416
Probable space group: P 21/C
;
_chemical_formula_sum "Si O2"
_cell_formula_units_Z 32
_cell_length_a 5.251997
_cell_length_b 9.932171
_cell_length_c 29.562860
_cell_angle_alpha 90.000000
_cell_angle_beta 109.130127
_cell_angle_gamma 90.000000
_cell_volume 1456.948800
_symmetry_space_group_name_H-M "P 21/C"
_symmetry_group_IT_number 14
_symmetry_cell_setting 'monoclinic'
loop_
_space_group_symop_operation_xyz
x,y,z
-x,1/2+y,1/2-z
-x,-y,-z
x,1/2-y,1/2+z
loop_
_atom_site_type_symbol
_atom_site_label
_atom_site_fract_x
_atom_site_fract_y
_atom_site_fract_z
Si Si1 0.093468 0.919935 0.451265
Si Si2 0.072773 0.700691 0.290435
Si Si3 0.799764 0.624600 0.540367
Si Si4 0.299766 0.502026 0.140538
Si Si5 0.345655 0.990636 0.065417
Si Si6 0.096808 0.024878 0.302980
Si Si7 0.358668 0.358526 0.020994
Si Si8 0.323253 0.320879 0.651413
O O1 0.346733 0.855804 0.439487
O O2 0.908716 0.022658 0.412733
O O3 0.888820 0.815483 0.461456
O O4 0.257847 0.993919 0.500578
O O5 0.072284 0.865249 0.288175
O O6 0.383830 0.656023 0.309613
O O7 0.931670 0.625212 0.240651
O O8 0.917164 0.655945 0.327004
O O9 0.730189 0.549711 0.488671
O O10 0.649960 0.557138 0.573946
O O11 0.656998 0.766691 0.523738
O O12 0.120950 0.622846 0.562487
O O13 0.608908 0.546259 0.157048
O O14 0.307984 0.339092 0.141746
O O15 0.145285 0.550837 0.176071
O O16 0.317515 0.092438 0.105443
#
# Coordination Sequence:
#
# PCOD9242416 Si02
#       8
#     4   4   4   4   4   4   4   4
#     4  10  20  34  54  78 103 139 184 222 263 313
#     4  10  21  38  59  82 110 140 178 225 278 332
#     4  10  20  33  50  74 109 144 175 219 265 313
#     4  10  20  35  58  82 105 136 180 226 262 315
#     4  10  20  33  51  76 104 140 182 216 260 312
#     4  10  21  38  59  83 109 139 176 223 277 330
#     4  10  20  34  52  75 108 144 177 219 267 312
#     4  10  20  35  57  81 106 139 182 225 262 321
#
# _framework density 21.963711
#
# number of rings (size 3 to 8) (size 9 to 14) (size 15 to 20)
#    0.000    2.000    0.000    3.750    0.000    4.000 
#    0.000    3.750    0.000    0.000    0.000    0.000 
#    0.000    0.000    0.000    0.000    0.000    0.000 
#
# Total GULP energy -178372.794221 kJ/mol
# GULP energy per Si atom -5574.149819 kJ/mol
# Density = 2.191372 g / cm^3
# Si number density = 21.963711 Si / 1000 Ang^3
#
#
#
# Elastic Constant Matrix: (Units=GPa)
#
#
# Indices 1 2 3 4 5 6 
#
# 1 152.9444 18.2234 23.8132 0.0000 6.6991 0.0000
# 2 18.2234 24.7726 2.9032 0.0000 1.8567 0.0000
# 3 23.8132 2.9032 56.9353 0.0000 5.6261 0.0000
# 4 0.0000 0.0000 0.0000 27.0338 0.0000 4.1410
# 5 6.6991 1.8567 5.6261 0.0000 33.8371 0.0000
# 6 0.0000 0.0000 0.0000 4.1410 0.0000 12.0544
#
#
#
# Elastic Compliance Matrix: (Units=1/GPa)
#
#
# Indices 1 2 3 4 5 6 
#
# 1 0.007639 -0.005228 -0.002854 0.000000 -0.000751 0.000000
# 2 -0.005228 0.044311 0.000066 0.000000 -0.001407 0.000000
# 3 -0.002854 0.000066 0.019011 0.000000 -0.002600 0.000000
# 4 0.000000 0.000000 0.000000 0.039045 0.000000 -0.013413
# 5 -0.000751 -0.001407 -0.002600 0.000000 0.030212 0.000000
# 6 0.000000 0.000000 0.000000 -0.013413 0.000000 0.087565
#
#
# Mechanical properties :
#
#
# Convention : Reuss Voigt Hill
#
# Bulk Modulus (GPa) = 18.20551 36.05909 27.13230
# Shear Modulus (GPa) = 19.07495 27.23256 23.15376
#
# Velocity S-wave (km/s) = 2.95019 3.52503 3.25034
# Velocity P-wave (km/s) = 4.46225 5.74639 5.14454
#
# Compressibility (1/GPa) = 0.05492842
#
# Stress axis : x y z
#
# Youngs Moduli (GPa) = 130.91516 22.56778 52.60119
#
# Poissons Ratio (x) = 0.11799 0.15012
# Poissons Ratio (y) = 0.68447 -0.00349
# Poissons Ratio (z) = 0.37363 -0.00150
#
# Static dielectric constant tensor:
#      x y z
#    x 1.930430 0.000000 -0.035050 
#    y 0.000000 1.884800 0.000000 
#    z -0.035050 0.000000 1.849060 
# 
# From -- ./inp_files/75790.got.cif
#   From: 2010.05.17/outbox.cif.g08.bks.cpg/sg14_38_cif.got.tgz:75790.got - 2010.06.03 17:49:19.
