data_PCOD9242851
_publ_section_title
;
Structure prediction by ZEFSAII (Michael W. Deem and Ramdas Pophale) SiO2 
 PCOD9242851
Probable space group: P 21/C
;
_chemical_formula_sum "Si O2"
_cell_formula_units_Z 24
_cell_length_a 15.299601
_cell_length_b 12.944380
_cell_length_c 9.128372
_cell_angle_alpha 90.000000
_cell_angle_beta 144.534958
_cell_angle_gamma 90.000000
_cell_volume 1048.907043
_symmetry_space_group_name_H-M "P 21/C"
_symmetry_group_IT_number 14
_symmetry_cell_setting 'monoclinic'
loop_
_space_group_symop_operation_xyz
x,y,z
-x,1/2+y,1/2-z
-x,-y,-z
x,1/2-y,1/2+z
loop_
_atom_site_type_symbol
_atom_site_label
_atom_site_fract_x
_atom_site_fract_y
_atom_site_fract_z
Si Si1 0.736301 0.816132 0.996547
Si Si2 0.331941 0.692738 0.443713
Si Si3 0.531540 0.768461 0.470629
Si Si4 0.052290 0.587519 0.924732
Si Si5 0.885393 0.596230 0.171272
Si Si6 0.167585 0.604748 0.767536
O O1 0.805824 0.704047 0.050532
O O2 0.878497 0.889185 0.213016
O O3 0.629295 0.839303 0.712885
O O4 0.638414 0.795944 0.007267
O O5 0.438839 0.688975 0.447641
O O6 0.419677 0.667829 0.712144
O O7 0.295332 0.814735 0.407182
O O8 0.175555 0.634401 0.202176
O O9 0.082673 0.467291 0.932551
O O10 0.090195 0.637933 0.816116
O O11 0.791838 0.514007 0.143210
O O12 0.042776 0.608902 0.471188
#
# Coordination Sequence:
#
# PCOD9242851 Si02
#       6
#     4   4   4   4   4   4
#     4  11  21  40  63  89 121 161 194 266 297 352
#     4  11  19  41  59  89 117 172 198 242 291 381
#     4  10  24  35  60  87 128 160 199 237 319 351
#     4  10  20  35  70  84 115 156 216 237 306 344
#     4   9  19  36  62  96 116 153 207 259 297 352
#     4   9  18  35  64  88 117 150 208 249 296 350
#
# _framework density 22.880960999999999
#
# number of rings (size 3 to 8) (size 9 to 14) (size 15 to 20)
#    1.000    1.000    3.333    1.000    0.000    0.000 
#    0.000    9.167    3.667    0.000    0.000    0.000 
#    0.000    0.000    0.000    0.000    0.000    0.000 
#
# Total GULP energy -134014.885664 kJ/mol
# GULP energy per Si atom -5583.953569 kJ/mol
# Density = 2.282888 g / cm^3
# Si number density = 22.880961 Si / 1000 Ang^3
#
#
#
# Elastic Constant Matrix: (Units=GPa)
#
#
# Indices 1 2 3 4 5 6 
#
# 1 83.8234 14.3534 44.5407 0.0000 -7.1484 0.0000
# 2 14.3534 64.3252 22.3109 0.0000 0.7864 0.0000
# 3 44.5407 22.3109 151.0559 0.0000 -28.0685 0.0000
# 4 0.0000 0.0000 0.0000 3.4729 0.0000 -8.9465
# 5 -7.1484 0.7864 -28.0685 0.0000 31.4327 0.0000
# 6 0.0000 0.0000 0.0000 -8.9465 0.0000 13.7346
#
#
#
# Elastic Compliance Matrix: (Units=1/GPa)
#
#
# Indices 1 2 3 4 5 6 
#
# 1 0.014349 -0.001806 -0.004016 0.000000 -0.000278 0.000000
# 2 -0.001806 0.016866 -0.002534 0.000000 -0.003095 0.000000
# 3 -0.004016 -0.002534 0.009616 0.000000 0.007737 0.000000
# 4 0.000000 0.000000 0.000000 -0.424689 0.000000 -0.276636
# 5 -0.000278 -0.003095 0.007737 0.000000 0.038737 0.000000
# 6 0.000000 0.000000 0.000000 -0.276636 0.000000 -0.107387
#
#
# Mechanical properties :
#
#
# Convention : Reuss Voigt Hill
#
# Bulk Modulus (GPa) = 41.45878 51.29051 46.37465
# Shear Modulus (GPa) = -11.68885 24.26136 6.28625
#
# Velocity S-wave (km/s) = -2.26266 3.25980 1.65932
# Velocity P-wave (km/s) = 3.36638 6.05255 4.89723
#
# Compressibility (1/GPa) = 0.02412034
#
# Stress axis : x y z
#
# Youngs Moduli (GPa) = 69.68991 59.29245 103.99216
#
# Poissons Ratio (x) = 0.10706 0.41763
# Poissons Ratio (y) = 0.12583 0.26349
# Poissons Ratio (z) = 0.27987 0.15023
#
# Static dielectric constant tensor:
#      x y z
#    x 1.877260 0.000000 -0.014370 
#    y 0.000000 1.821550 0.000000 
#    z -0.014370 0.000000 1.877430 
# 
# From -- ./inp_files/16333.got.cif
#   From: 2010.05.17/outbox.cif.g08.bks.cpg/sg14_9_cif.got.tgz:16333.got - 2010.06.03 17:49:19.
