data_PCOD9242545
_publ_section_title
;
Structure prediction by ZEFSAII (Michael W. Deem and Ramdas Pophale) SiO2 
 PCOD9242545
Probable space group: P 21/C
;
_chemical_formula_sum "Si O2"
_cell_formula_units_Z 32
_cell_length_a 5.855425
_cell_length_b 19.995502
_cell_length_c 14.447352
_cell_angle_alpha 90.000000
_cell_angle_beta 76.869611
_cell_angle_gamma 90.000000
_cell_volume 1647.303277
_symmetry_space_group_name_H-M "P 21/C"
_symmetry_group_IT_number 14
_symmetry_cell_setting 'monoclinic'
loop_
_space_group_symop_operation_xyz
x,y,z
-x,1/2+y,1/2-z
-x,-y,-z
x,1/2-y,1/2+z
loop_
_atom_site_type_symbol
_atom_site_label
_atom_site_fract_x
_atom_site_fract_y
_atom_site_fract_z
Si Si1 0.870412 0.299611 0.334670
Si Si2 0.765466 0.932411 0.775439
Si Si3 0.638018 0.258764 0.176522
Si Si4 0.262901 0.313824 0.834393
Si Si5 0.702557 0.043302 0.064982
Si Si6 0.551782 0.751898 0.001971
Si Si7 0.967249 0.659902 0.411036
Si Si8 0.936518 0.049482 0.865768
O O1 0.726283 0.305789 0.251351
O O2 0.684871 0.279437 0.430478
O O3 0.973877 0.372900 0.342484
O O4 0.059324 0.239014 0.322253
O O5 0.769203 0.893183 0.678304
O O6 0.513424 0.937463 0.849665
O O7 0.910751 0.879391 0.823049
O O8 0.886034 0.004229 0.779584
O O9 0.476801 0.205880 0.246406
O O10 0.874592 0.223938 0.120533
O O11 0.499976 0.277980 0.095426
O O12 0.333182 0.296934 0.933045
O O13 0.878831 0.106867 0.049040
O O14 0.706742 0.034178 0.952999
O O15 0.843560 0.982948 0.100545
O O16 0.726150 0.814811 0.975882
#
# Coordination Sequence:
#
# PCOD9242545 Si02
#       8
#     4   4   4   4   4   4   4   4
#     4  11  23  38  56  86 121 154 198 235 300 345
#     4  11  20  35  57  80 116 154 192 236 289 346
#     4  11  20  36  57  82 115 151 191 247 289 338
#     4  11  22  36  58  84 114 155 197 246 287 347
#     4  10  20  34  55  82 120 154 191 227 296 352
#     4  11  22  33  58  85 117 151 195 245 292 341
#     4  11  18  35  57  81 116 151 189 237 287 348
#     4  10  22  33  53  84 118 157 186 236 285 365
#
# _framework density 19.425688999999998
#
# number of rings (size 3 to 8) (size 9 to 14) (size 15 to 20)
#    0.000    1.250    3.750    3.375    0.000    4.000 
#    0.000    0.000    0.000    0.750    0.000    7.000 
#    0.000    0.000    0.000    0.000    0.000    0.000 
#
# Total GULP energy -178330.173464 kJ/mol
# GULP energy per Si atom -5572.817921 kJ/mol
# Density = 1.938148 g / cm^3
# Si number density = 19.425689 Si / 1000 Ang^3
#
#
#
# Elastic Constant Matrix: (Units=GPa)
#
#
# Indices 1 2 3 4 5 6 
#
# 1 48.1302 7.4392 15.2211 0.0000 1.8245 0.0000
# 2 7.4392 49.1704 7.3142 0.0000 -5.0964 0.0000
# 3 15.2211 7.3142 67.8590 0.0000 24.3477 0.0000
# 4 0.0000 0.0000 0.0000 28.2595 0.0000 3.5076
# 5 1.8245 -5.0964 24.3477 0.0000 37.5237 0.0000
# 6 0.0000 0.0000 0.0000 3.5076 0.0000 20.5565
#
#
#
# Elastic Compliance Matrix: (Units=1/GPa)
#
#
# Indices 1 2 3 4 5 6 
#
# 1 0.022855 -0.002380 -0.005677 0.000000 0.002249 0.000000
# 2 -0.002380 0.021841 -0.003814 0.000000 0.005557 0.000000
# 3 -0.005677 -0.003814 0.021517 0.000000 -0.014204 0.000000
# 4 0.000000 0.000000 0.000000 0.036152 0.000000 -0.006169
# 5 0.002249 0.005557 -0.014204 0.000000 0.036511 0.000000
# 6 0.000000 0.000000 0.000000 -0.006169 0.000000 0.049699
#
#
# Mechanical properties :
#
#
# Convention : Reuss Voigt Hill
#
# Bulk Modulus (GPa) = 23.54566 25.01207 24.27886
# Shear Modulus (GPa) = 22.07757 26.28029 24.17893
#
# Velocity S-wave (km/s) = 3.37488 3.68212 3.53184
# Velocity P-wave (km/s) = 5.22816 5.56606 5.39975
#
# Compressibility (1/GPa) = 0.04247067
#
# Stress axis : x y z
#
# Youngs Moduli (GPa) = 43.75428 45.78578 46.47464
#
# Poissons Ratio (x) = 0.10898 0.26383
# Poissons Ratio (y) = 0.10415 0.17725
# Poissons Ratio (z) = 0.24838 0.17463
#
# Static dielectric constant tensor:
#      x y z
#    x 1.785350 0.000000 0.077630 
#    y 0.000000 1.707990 0.000000 
#    z 0.077630 0.000000 1.742030 
# 
# From -- ./inp_files/38077.got.cif
#   From: 2010.05.17/outbox.cif.g08.bks.cpg/sg14_20_cif.got.tgz:38077.got - 2010.06.03 17:49:19.
