data_PCOD9242189
_publ_section_title
;
Structure prediction by ZEFSAII (Michael W. Deem and Ramdas Pophale) SiO2 
 PCOD9242189
Probable space group: P 21/C
;
_chemical_formula_sum "Si O2"
_cell_formula_units_Z 20
_cell_length_a 12.178245
_cell_length_b 8.613191
_cell_length_c 10.177855
_cell_angle_alpha 90.000000
_cell_angle_beta 44.767940
_cell_angle_gamma 90.000000
_cell_volume 751.837387
_symmetry_space_group_name_H-M "P 21/C"
_symmetry_group_IT_number 14
_symmetry_cell_setting 'monoclinic'
loop_
_space_group_symop_operation_xyz
x,y,z
-x,1/2+y,1/2-z
-x,-y,-z
x,1/2-y,1/2+z
loop_
_atom_site_type_symbol
_atom_site_label
_atom_site_fract_x
_atom_site_fract_y
_atom_site_fract_z
Si Si1 0.147177 0.047976 0.781606
Si Si2 0.802553 0.273789 0.346556
Si Si3 0.867948 0.684362 0.044765
Si Si4 0.615518 0.423772 0.296642
Si Si5 0.662844 0.544226 0.646143
O O1 0.159998 0.909551 0.665050
O O2 0.116213 0.232634 0.825132
O O3 0.311531 0.035672 0.719807
O O4 0.000000 0.000000 0.000000
O O5 0.692060 0.284882 0.312326
O O6 0.727528 0.388114 0.519501
O O7 0.967291 0.346953 0.161627
O O8 0.754034 0.542476 0.155592
O O9 0.777592 0.808719 0.028612
O O10 0.500000 0.500000 0.500000
O O11 0.506403 0.407478 0.262237
#
# Coordination Sequence:
#
# PCOD9242189 Si02
#       5
#     4   4   4   4   4
#     4   8  18  37  60  84 122 153 198 248 298 351
#     4  10  19  40  63  90 115 163 205 248 298 368
#     4   9  20  40  57  85 122 159 196 253 300 355
#     4  10  21  38  60  87 121 156 204 252 304 358
#     4   9  21  37  60  90 125 154 204 242 312 355
#
# _framework density 26.601496000000001
#
# number of rings (size 3 to 8) (size 9 to 14) (size 15 to 20)
#    1.200    1.600    0.000    0.600    2.800    0.000 
#   18.000    4.000    0.000    0.000    0.000    0.000 
#    0.000    0.000    0.000    0.000    0.000    0.000 
#
# Total GULP energy -111396.616982 kJ/mol
# GULP energy per Si atom -5569.830849 kJ/mol
# Density = 2.654095 g / cm^3
# Si number density = 26.601496 Si / 1000 Ang^3
#
#
#
# Elastic Constant Matrix: (Units=GPa)
#
#
# Indices 1 2 3 4 5 6 
#
# 1 51.4416 -1.8518 9.1047 0.0000 -22.0575 0.0000
# 2 -1.8518 36.6065 23.9365 0.0000 19.3189 0.0000
# 3 9.1047 23.9365 89.6933 0.0000 -7.5332 0.0000
# 4 0.0000 0.0000 0.0000 28.4614 0.0000 -1.9500
# 5 -22.0575 19.3189 -7.5332 0.0000 40.0955 0.0000
# 6 0.0000 0.0000 0.0000 -1.9500 0.0000 43.6142
#
#
#
# Elastic Compliance Matrix: (Units=1/GPa)
#
#
# Indices 1 2 3 4 5 6 
#
# 1 0.027598 -0.010671 0.001782 0.000000 0.020659 0.000000
# 2 -0.010671 0.057630 -0.017396 0.000000 -0.036906 0.000000
# 3 0.001782 -0.017396 0.016660 0.000000 0.012492 0.000000
# 4 0.000000 0.000000 0.000000 0.035243 0.000000 0.001576
# 5 0.020659 -0.036906 0.012492 0.000000 0.056435 0.000000
# 6 0.000000 0.000000 0.000000 0.001576 0.000000 0.022999
#
#
# Mechanical properties :
#
#
# Convention : Reuss Voigt Hill
#
# Bulk Modulus (GPa) = 20.27737 26.68002 23.47870
# Shear Modulus (GPa) = 17.50847 32.20435 24.85641
#
# Velocity S-wave (km/s) = 2.56828 3.48317 3.06011
# Velocity P-wave (km/s) = 4.05388 5.12132 4.61854
#
# Compressibility (1/GPa) = 0.04931606
#
# Stress axis : x y z
#
# Youngs Moduli (GPa) = 36.23399 17.35208 60.02417
#
# Poissons Ratio (x) = 0.18517 -0.10693
# Poissons Ratio (y) = 0.38667 1.04419
# Poissons Ratio (z) = -0.06455 0.30186
#
# Static dielectric constant tensor:
#      x y z
#    x 2.436650 0.000000 0.204400 
#    y 0.000000 2.232050 0.000000 
#    z 0.204400 0.000000 2.103230 
# 
# From -- ./inp_files/46099.got.cif
#   From: 2010.05.17/outbox.cif.g08.bks.cpg/sg14_24_cif.got.tgz:46099.got - 2010.06.03 17:49:19.
