data_PCOD9242000
_publ_section_title
;
Structure prediction by ZEFSAII (Michael W. Deem and Ramdas Pophale) SiO2 
 PCOD9242000
Probable space group: P 21/C
;
_chemical_formula_sum "Si O2"
_cell_formula_units_Z 26
_cell_length_a 8.327251
_cell_length_b 18.511278
_cell_length_c 7.711570
_cell_angle_alpha 90.000000
_cell_angle_beta 51.933178
_cell_angle_gamma 90.000000
_cell_volume 935.872765
_symmetry_space_group_name_H-M "P 21/C"
_symmetry_group_IT_number 14
_symmetry_cell_setting 'monoclinic'
loop_
_space_group_symop_operation_xyz
x,y,z
-x,1/2+y,1/2-z
-x,-y,-z
x,1/2-y,1/2+z
loop_
_atom_site_type_symbol
_atom_site_label
_atom_site_fract_x
_atom_site_fract_y
_atom_site_fract_z
Si Si1 0.088100 0.081365 0.385587
Si Si2 0.725401 0.360572 0.976570
Si Si3 0.746668 0.717503 0.349810
Si Si4 0.261709 0.366521 0.278013
Si Si5 0.286869 0.791590 0.131366
Si Si6 0.500000 0.500000 0.500000
Si Si7 0.110723 0.930240 0.111585
O O1 0.119073 0.168630 0.364902
O O2 0.315084 0.050434 0.206464
O O3 0.903333 0.080425 0.365833
O O4 0.985209 0.056589 0.632189
O O5 0.497576 0.389057 0.088458
O O6 0.704526 0.329928 0.187546
O O7 0.790078 0.290399 0.822897
O O8 0.789046 0.802115 0.323353
O O9 0.746914 0.673802 0.530188
O O10 0.520723 0.716661 0.422256
O O11 0.087905 0.427145 0.377960
O O12 0.188624 0.847479 0.066151
O O13 0.674947 0.473132 0.528470
#
# Coordination Sequence:
#
# PCOD9242000 Si02
#       7
#     4   4   4   4   4   2   4
#     4  11  23  43  71  91 129 179 229 277 326 394
#     4   9  20  36  64  99 133 167 204 267 335 397
#     4  10  19  38  65 103 141 170 209 268 340 405
#     4  10  21  38  67 107 141 169 210 272 343 400
#     4   9  18  36  62  95 136 165 207 259 332 399
#     4  12  26  48  70  90 126 184 242 272 330 388
#     4  11  23  43  68  96 128 178 230 275 328 395
#
# _framework density 27.781554
#
# number of rings (size 3 to 8) (size 9 to 14) (size 15 to 20)
#    0.000    1.846    1.538    2.308    0.000    4.923 
#    2.769    1.538    0.000    0.000    0.000    0.000 
#    0.000    0.000    0.000    0.000    0.000    0.000 
#
# Total GULP energy -144755.514137 kJ/mol
# GULP energy per Si atom -5567.519774 kJ/mol
# Density = 2.771832 g / cm^3
# Si number density = 27.781554 Si / 1000 Ang^3
#
#
#
# Elastic Constant Matrix: (Units=GPa)
#
#
# Indices 1 2 3 4 5 6 
#
# 1 158.3251 53.1316 15.1204 0.0000 -50.8563 0.0000
# 2 53.1316 65.7475 12.9274 0.0000 -21.3070 0.0000
# 3 15.1204 12.9274 43.3501 0.0000 -19.8793 0.0000
# 4 0.0000 0.0000 0.0000 38.4012 0.0000 -14.1345
# 5 -50.8563 -21.3070 -19.8793 0.0000 58.3276 0.0000
# 6 0.0000 0.0000 0.0000 -14.1345 0.0000 50.4109
#
#
#
# Elastic Compliance Matrix: (Units=1/GPa)
#
#
# Indices 1 2 3 4 5 6 
#
# 1 0.010809 -0.006607 0.001677 0.000000 0.007582 0.000000
# 2 -0.006607 0.021556 -0.003739 0.000000 0.000839 0.000000
# 3 0.001677 -0.003739 0.028022 0.000000 0.009647 0.000000
# 4 0.000000 0.000000 0.000000 0.029038 0.000000 0.008142
# 5 0.007582 0.000839 0.009647 0.000000 0.027350 0.000000
# 6 0.000000 0.000000 0.000000 0.008142 0.000000 0.022120
#
#
# Mechanical properties :
#
#
# Convention : Reuss Voigt Hill
#
# Bulk Modulus (GPa) = 23.22912 47.75348 35.49130
# Shear Modulus (GPa) = 29.31140 41.84415 35.57777
#
# Velocity S-wave (km/s) = 3.25170 3.88517 3.58247
# Velocity P-wave (km/s) = 4.74105 6.11165 5.46946
#
# Compressibility (1/GPa) = 0.04304942
#
# Stress axis : x y z
#
# Youngs Moduli (GPa) = 92.51709 46.39006 35.68636
#
# Poissons Ratio (x) = 0.30652 -0.05986
# Poissons Ratio (y) = 0.61129 0.13343
# Poissons Ratio (z) = -0.15519 0.17344
#
# Static dielectric constant tensor:
#      x y z
#    x 2.195160 0.000000 0.057330 
#    y 0.000000 2.326760 0.000000 
#    z 0.057330 0.000000 2.183480 
# 
# From -- ./inp_files/10362.got.cif
#   From: 2010.05.17/outbox.cif.g08.bks.cpg/sg14_6_cif.got.tgz:10362.got - 2010.06.03 17:49:19.
