data_PCOD9242484
_publ_section_title
;
Structure prediction by ZEFSAII (Michael W. Deem and Ramdas Pophale) SiO2 
 PCOD9242484
Probable space group: P 21/C
;
_chemical_formula_sum "Si O2"
_cell_formula_units_Z 32
_cell_length_a 18.127253
_cell_length_b 6.993524
_cell_length_c 23.052230
_cell_angle_alpha 90.000000
_cell_angle_beta 27.741589
_cell_angle_gamma 90.000000
_cell_volume 1360.336424
_symmetry_space_group_name_H-M "P 21/C"
_symmetry_group_IT_number 14
_symmetry_cell_setting 'monoclinic'
loop_
_space_group_symop_operation_xyz
x,y,z
-x,1/2+y,1/2-z
-x,-y,-z
x,1/2-y,1/2+z
loop_
_atom_site_type_symbol
_atom_site_label
_atom_site_fract_x
_atom_site_fract_y
_atom_site_fract_z
Si Si1 0.122486 0.760519 0.494457
Si Si2 0.956872 0.713170 0.933095
Si Si3 0.720655 0.162070 0.732141
Si Si4 0.795452 0.265190 0.435061
Si Si5 0.598886 0.733440 0.981813
Si Si6 0.199228 0.286986 0.341307
Si Si7 0.502940 0.313826 0.069347
Si Si8 0.889851 0.825394 0.351581
O O1 0.239243 0.748142 0.358447
O O2 0.193675 0.685687 0.504751
O O3 0.952808 0.674553 0.593340
O O4 0.082898 0.986756 0.531323
O O5 0.918069 0.768703 0.894613
O O6 0.142269 0.733066 0.819288
O O7 0.854970 0.812593 0.054752
O O8 0.548303 0.198956 0.877220
O O9 0.754400 0.936511 0.699311
O O10 0.628700 0.302977 0.519795
O O11 0.944572 0.346461 0.296496
O O12 0.821074 0.035171 0.413344
O O13 0.593750 0.501218 0.983287
O O14 0.571147 0.793177 0.934619
O O15 0.764944 0.779185 0.896521
O O16 0.357671 0.387347 0.209681
#
# Coordination Sequence:
#
# PCOD9242484 Si02
#       8
#     4   4   4   4   4   4   4   4
#     4   8  16  32  52  73  96 123 157 199 240 273
#     4   8  16  32  52  73  96 123 157 199 240 273
#     4   9  17  32  54  74  93 122 161 199 234 279
#     4  10  20  34  51  70  96 128 160 196 237 281
#     4  10  21  34  47  69 102 131 154 191 242 285
#     4   9  17  32  54  74  93 122 161 199 234 279
#     4  10  21  34  47  69 102 131 154 191 242 285
#     4  10  20  34  51  70  96 128 160 196 237 281
#
# _framework density 23.523593999999999
#
# number of rings (size 3 to 8) (size 9 to 14) (size 15 to 20)
#    0.000    2.750    0.000    3.000    0.000    2.500 
#    0.000    3.750    0.000    0.000    0.000    0.000 
#    0.000    0.000    0.000    0.000    0.000    0.000 
#
# Total GULP energy -178983.852147 kJ/mol
# GULP energy per Si atom -5593.245380 kJ/mol
# Density = 2.347005 g / cm^3
# Si number density = 23.523594 Si / 1000 Ang^3
#
#
#
# Elastic Constant Matrix: (Units=GPa)
#
#
# Indices 1 2 3 4 5 6 
#
# 1 250.4745 12.4904 105.6113 0.0000 10.4582 0.0000
# 2 12.4904 69.8517 0.1423 0.0000 0.3186 0.0000
# 3 105.6113 0.1423 136.6649 0.0000 -9.1053 0.0000
# 4 0.0000 0.0000 0.0000 28.8465 0.0000 -2.5943
# 5 10.4582 0.3186 -9.1053 0.0000 25.1900 0.0000
# 6 0.0000 0.0000 0.0000 -2.5943 0.0000 -4.0347
#
#
#
# Elastic Compliance Matrix: (Units=1/GPa)
#
#
# Indices 1 2 3 4 5 6 
#
# 1 0.006481 -0.001127 -0.005313 0.000000 -0.004597 0.000000
# 2 -0.001127 0.014513 0.000896 0.000000 0.000608 0.000000
# 3 -0.005313 0.000896 0.011854 0.000000 0.006480 0.000000
# 4 0.000000 0.000000 0.000000 0.032771 0.000000 -0.021072
# 5 -0.004597 0.000608 0.006480 0.000000 0.043941 0.000000
# 6 0.000000 0.000000 0.000000 -0.021072 0.000000 -0.234303
#
#
# Mechanical properties :
#
#
# Convention : Reuss Voigt Hill
#
# Bulk Modulus (GPa) = 45.95643 77.05323 61.50483
# Shear Modulus (GPa) = -46.99222 32.58349 -7.20436
#
# Velocity S-wave (km/s) = -4.47437 3.72579 -1.75193
# Velocity P-wave (km/s) = 2.66732 7.16488 4.70217
#
# Compressibility (1/GPa) = 0.02175974
#
# Stress axis : x y z
#
# Youngs Moduli (GPa) = 154.29819 68.90383 84.35950
#
# Poissons Ratio (x) = 0.07766 0.44824
# Poissons Ratio (y) = 0.17391 -0.07562
# Poissons Ratio (z) = 0.81985 -0.06177
#
# Static dielectric constant tensor:
#      x y z
#    x 1.872790 0.000000 0.000490 
#    y 0.000000 1.989110 0.000000 
#    z 0.000490 0.000000 1.825240 
# 
# From -- ./inp_files/69133.got.cif
#   From: 2010.05.17/outbox.cif.g08.bks.cpg/sg14_35_cif.got.tgz:69133.got - 2010.06.03 17:49:19.
