data_PCOD9242694
_publ_section_title
;
Structure prediction by ZEFSAII (Michael W. Deem and Ramdas Pophale) SiO2 
 PCOD9242694
Probable space group: P 21/C
;
_chemical_formula_sum "Si O2"
_cell_formula_units_Z 28
_cell_length_a 5.457190
_cell_length_b 21.923553
_cell_length_c 9.305652
_cell_angle_alpha 90.000000
_cell_angle_beta 99.568341
_cell_angle_gamma 90.000000
_cell_volume 1097.848745
_symmetry_space_group_name_H-M "P 21/C"
_symmetry_group_IT_number 14
_symmetry_cell_setting 'monoclinic'
loop_
_space_group_symop_operation_xyz
x,y,z
-x,1/2+y,1/2-z
-x,-y,-z
x,1/2-y,1/2+z
loop_
_atom_site_type_symbol
_atom_site_label
_atom_site_fract_x
_atom_site_fract_y
_atom_site_fract_z
Si Si1 0.791259 0.103452 0.387100
Si Si2 0.751613 0.834057 0.687310
Si Si3 0.294026 0.218275 0.640039
Si Si4 0.135938 0.381567 0.362413
Si Si5 0.302625 0.638446 0.829992
Si Si6 0.732270 0.972724 0.932835
Si Si7 0.388694 0.474170 0.181942
O O1 0.525195 0.135932 0.329050
O O2 0.869900 0.129408 0.550154
O O3 0.012591 0.120360 0.300441
O O4 0.756027 0.030786 0.397474
O O5 0.783508 0.784252 0.815411
O O6 0.763665 0.798196 0.532144
O O7 0.225401 0.174328 0.771925
O O8 0.591005 0.205698 0.666834
O O9 0.249518 0.400946 0.525503
O O10 0.211339 0.442117 0.280373
O O11 0.838752 0.376432 0.330072
O O12 0.510866 0.586968 0.883987
O O13 0.637532 0.993230 0.767778
O O14 0.500000 0.000000 0.000000
O O15 0.000000 0.000000 0.000000
#
# Coordination Sequence:
#
# PCOD9242694 Si02
#       7
#     4   4   4   4   4   4   4
#     4  11  25  41  65 100 135 172 220 281 339 398
#     4  11  26  45  69  94 135 175 228 284 334 403
#     4  10  24  45  67  98 127 178 229 280 338 393
#     4  10  20  38  66  92 133 173 222 267 336 398
#     4  10  20  40  66  96 133 176 216 275 338 406
#     4  10  20  35  56  89 130 172 210 257 315 390
#     4  10  22  37  62  98 137 176 219 270 331 410
#
# _framework density 25.504425999999999
#
# number of rings (size 3 to 8) (size 9 to 14) (size 15 to 20)
#    0.000    1.714    2.857    0.429    4.000    1.714 
#    0.000    0.000    3.143    0.000    0.000    0.000 
#    0.000    0.000    0.000    0.000    0.000    0.000 
#
# Total GULP energy -155999.981900 kJ/mol
# GULP energy per Si atom -5571.427925 kJ/mol
# Density = 2.544638 g / cm^3
# Si number density = 25.504426 Si / 1000 Ang^3
#
#
#
# Elastic Constant Matrix: (Units=GPa)
#
#
# Indices 1 2 3 4 5 6 
#
# 1 115.1467 37.4460 21.4363 0.0000 4.6377 0.0000
# 2 37.4460 80.9858 2.2893 0.0000 -12.0079 0.0000
# 3 21.4363 2.2893 30.3923 0.0000 5.4484 0.0000
# 4 0.0000 0.0000 0.0000 40.0676 0.0000 -14.6857
# 5 4.6377 -12.0079 5.4484 0.0000 32.5993 0.0000
# 6 0.0000 0.0000 0.0000 -14.6857 0.0000 17.8548
#
#
#
# Elastic Compliance Matrix: (Units=1/GPa)
#
#
# Indices 1 2 3 4 5 6 
#
# 1 0.012077 -0.005748 -0.007626 0.000000 -0.002561 0.000000
# 2 -0.005748 0.015905 0.001711 0.000000 0.006390 0.000000
# 3 -0.007626 0.001711 0.039014 0.000000 -0.004806 0.000000
# 4 0.000000 0.000000 0.000000 0.035729 0.000000 0.029387
# 5 -0.002561 0.006390 -0.004806 0.000000 0.034197 0.000000
# 6 0.000000 0.000000 0.000000 0.029387 0.000000 0.080179
#
#
# Mechanical properties :
#
#
# Convention : Reuss Voigt Hill
#
# Bulk Modulus (GPa) = 22.89946 38.76312 30.83129
# Shear Modulus (GPa) = 19.60913 29.12789 24.36851
#
# Velocity S-wave (km/s) = 2.77583 3.38312 3.09441
# Velocity P-wave (km/s) = 4.38996 5.52198 4.98819
#
# Compressibility (1/GPa) = 0.04366915
#
# Stress axis : x y z
#
# Youngs Moduli (GPa) = 82.80414 62.87410 25.63158
#
# Poissons Ratio (x) = 0.36141 0.19546
# Poissons Ratio (y) = 0.47597 -0.04385
# Poissons Ratio (z) = 0.63145 -0.10755
#
# Static dielectric constant tensor:
#      x y z
#    x 2.102840 0.000000 -0.034550 
#    y 0.000000 2.029580 0.000000 
#    z -0.034550 0.000000 2.219490 
# 
# From -- ./inp_files/21825.got.cif
#   From: 2010.05.17/outbox.cif.g08.bks.cpg/sg14_11_cif.got.tgz:21825.got - 2010.06.03 17:49:19.
