data_PCOD9242133
_publ_section_title
;
Structure prediction by ZEFSAII (Michael W. Deem and Ramdas Pophale) SiO2 
 PCOD9242133
Probable space group: P 21/C
;
_chemical_formula_sum "Si O2"
_cell_formula_units_Z 28
_cell_length_a 19.753374
_cell_length_b 11.276774
_cell_length_c 11.494533
_cell_angle_alpha 90.000000
_cell_angle_beta 149.657030
_cell_angle_gamma 90.000000
_cell_volume 1293.478891
_symmetry_space_group_name_H-M "P 21/C"
_symmetry_group_IT_number 14
_symmetry_cell_setting 'monoclinic'
loop_
_space_group_symop_operation_xyz
x,y,z
-x,1/2+y,1/2-z
-x,-y,-z
x,1/2-y,1/2+z
loop_
_atom_site_type_symbol
_atom_site_label
_atom_site_fract_x
_atom_site_fract_y
_atom_site_fract_z
Si Si1 0.619948 0.378714 0.634561
Si Si2 0.107475 0.537040 0.932811
Si Si3 0.157494 0.111565 0.728968
Si Si4 0.705971 0.359532 0.142836
Si Si5 0.082004 0.731343 0.716850
Si Si6 0.457465 0.102419 0.109746
Si Si7 0.159370 0.955865 0.951777
O O1 0.692650 0.268064 0.685329
O O2 0.555688 0.463208 0.442824
O O3 0.515129 0.341012 0.576733
O O4 0.735730 0.459687 0.867211
O O5 0.055003 0.657027 0.794306
O O6 0.992815 0.445614 0.723662
O O7 0.119462 0.500999 0.087622
O O8 0.049637 0.212432 0.537631
O O9 0.159260 0.066241 0.863912
O O10 0.309433 0.145871 0.922297
O O11 0.831555 0.348851 0.242049
O O12 0.738399 0.453792 0.291475
O O13 0.567822 0.380784 0.871753
O O14 0.176238 0.840517 0.896260
#
# Coordination Sequence:
#
# PCOD9242133 Si02
#       7
#     4   4   4   4   4   4   4
#     4  10  20  41  66  88 129 173 214 255 333 384
#     4  10  19  39  66  93 121 166 222 261 317 379
#     4  10  23  42  63  94 135 166 211 275 327 376
#     4  12  22  40  68  97 125 174 222 258 320 401
#     4  11  21  40  68  93 126 172 215 266 323 381
#     4  10  22  41  63  91 130 175 208 269 318 384
#     4  11  23  37  67  96 126 167 216 273 316 383
#
# _framework density 21.647048000000002
#
# number of rings (size 3 to 8) (size 9 to 14) (size 15 to 20)
#    0.000    1.429    2.857    4.286    0.000    1.143 
#    5.143    1.429    0.000    0.000    0.000    0.000 
#    0.000    0.000    0.000    0.000    0.000    0.000 
#
# Total GULP energy -156055.934985 kJ/mol
# GULP energy per Si atom -5573.426249 kJ/mol
# Density = 2.159778 g / cm^3
# Si number density = 21.647048 Si / 1000 Ang^3
#
#
#
# Elastic Constant Matrix: (Units=GPa)
#
#
# Indices 1 2 3 4 5 6 
#
# 1 90.9572 19.0737 48.4224 0.0000 7.6210 0.0000
# 2 19.0737 31.1301 26.7015 0.0000 -12.7374 0.0000
# 3 48.4224 26.7015 153.4001 0.0000 -7.0726 0.0000
# 4 0.0000 0.0000 0.0000 33.4978 0.0000 -5.3612
# 5 7.6210 -12.7374 -7.0726 0.0000 27.5223 0.0000
# 6 0.0000 0.0000 0.0000 -5.3612 0.0000 13.5124
#
#
#
# Elastic Compliance Matrix: (Units=1/GPa)
#
#
# Indices 1 2 3 4 5 6 
#
# 1 0.016142 -0.011064 -0.003655 0.000000 -0.010530 0.000000
# 2 -0.011064 0.053849 -0.004646 0.000000 0.026791 0.000000
# 3 -0.003655 -0.004646 0.008530 0.000000 0.001054 0.000000
# 4 0.000000 0.000000 0.000000 0.031877 0.000000 0.012648
# 5 -0.010530 0.026791 0.001054 0.000000 0.051920 0.000000
# 6 0.000000 0.000000 0.000000 0.012648 0.000000 0.079024
#
#
# Mechanical properties :
#
#
# Convention : Reuss Voigt Hill
#
# Bulk Modulus (GPa) = 25.13049 51.54251 38.33650
# Shear Modulus (GPa) = 17.04534 26.99249 22.01891
#
# Velocity S-wave (km/s) = 2.80915 3.53503 3.19278
# Velocity P-wave (km/s) = 4.70703 6.36585 5.59822
#
# Compressibility (1/GPa) = 0.03979231
#
# Stress axis : x y z
#
# Youngs Moduli (GPa) = 61.94878 18.57045 117.23434
#
# Poissons Ratio (x) = 0.20546 0.42851
# Poissons Ratio (y) = 0.68539 0.54462
# Poissons Ratio (z) = 0.22643 0.08627
#
# Static dielectric constant tensor:
#      x y z
#    x 1.869330 0.000000 0.017120 
#    y 0.000000 1.796160 0.000000 
#    z 0.017120 0.000000 1.810120 
# 
# From -- ./inp_files/35203.got.cif
#   From: 2010.05.17/outbox.cif.g08.bks.cpg/sg14_18_cif.got.tgz:35203.got - 2010.06.03 17:49:19.
