data_PCOD9242337
_publ_section_title
;
Structure prediction by ZEFSAII (Michael W. Deem and Ramdas Pophale) SiO2 
 PCOD9242337
Probable space group: P 21/C
;
_chemical_formula_sum "Si O2"
_cell_formula_units_Z 32
_cell_length_a 7.601534
_cell_length_b 13.540378
_cell_length_c 18.240367
_cell_angle_alpha 90.000000
_cell_angle_beta 137.533546
_cell_angle_gamma 90.000000
_cell_volume 1267.568080
_symmetry_space_group_name_H-M "P 21/C"
_symmetry_group_IT_number 14
_symmetry_cell_setting 'monoclinic'
loop_
_space_group_symop_operation_xyz
x,y,z
-x,1/2+y,1/2-z
-x,-y,-z
x,1/2-y,1/2+z
loop_
_atom_site_type_symbol
_atom_site_label
_atom_site_fract_x
_atom_site_fract_y
_atom_site_fract_z
Si Si1 0.514725 0.484237 0.353716
Si Si2 0.352582 0.040048 0.565500
Si Si3 0.211797 0.349843 0.147089
Si Si4 0.920595 0.372057 0.733902
Si Si5 0.806118 0.297731 0.312179
Si Si6 0.769508 0.287601 0.473792
Si Si7 0.172224 0.479874 0.686250
Si Si8 0.469518 0.129996 0.462180
O O1 0.298780 0.419434 0.241431
O O2 0.345103 0.567133 0.339608
O O3 0.682702 0.402296 0.448332
O O4 0.720139 0.536717 0.362070
O O5 0.141106 0.086992 0.553014
O O6 0.560605 0.993744 0.685650
O O7 0.473336 0.126366 0.550940
O O8 0.317247 0.948326 0.500372
O O9 0.492914 0.304197 0.212804
O O10 0.002413 0.264610 0.090018
O O11 0.888819 0.270507 0.769792
O O12 0.007089 0.398675 0.677814
O O13 0.180131 0.409314 0.855571
O O14 0.837776 0.267713 0.408124
O O15 0.934218 0.407131 0.344847
O O16 0.523054 0.227904 0.432183
#
# Coordination Sequence:
#
# PCOD9242337 Si02
#       8
#     4   4   4   4   4   4   4   4
#     4   9  22  39  55  83 113 156 192 234 300 332
#     4   8  17  32  47  83 119 135 174 237 291 357
#     4   9  19  38  56  78 117 154 186 245 287 340
#     4  11  21  34  61  80 120 152 190 244 282 349
#     4   9  21  38  58  88 110 159 198 229 299 346
#     4  10  21  36  59  83 119 154 194 237 289 351
#     4   8  19  38  53  80 119 146 187 238 284 342
#     4  10  20  29  51  93 112 145 190 228 304 363
#
# _framework density 25.245191999999999
#
# number of rings (size 3 to 8) (size 9 to 14) (size 15 to 20)
#    0.000    3.250    0.000    0.750   12.250    0.500 
#    0.000    0.625    0.000    3.000    0.000    0.000 
#    0.000    0.000    0.000    0.000    0.000    0.000 
#
# Total GULP energy -178235.489863 kJ/mol
# GULP energy per Si atom -5569.859058 kJ/mol
# Density = 2.518773 g / cm^3
# Si number density = 25.245192 Si / 1000 Ang^3
#
#
#
# Elastic Constant Matrix: (Units=GPa)
#
#
# Indices 1 2 3 4 5 6 
#
# 1 86.9621 50.4292 15.2668 0.0000 7.5538 0.0000
# 2 50.4292 86.9544 4.5131 0.0000 -7.0328 0.0000
# 3 15.2668 4.5131 47.3518 0.0000 -6.9357 0.0000
# 4 0.0000 0.0000 0.0000 8.4260 0.0000 0.7263
# 5 7.5538 -7.0328 -6.9357 0.0000 24.8989 0.0000
# 6 0.0000 0.0000 0.0000 0.7263 0.0000 51.7104
#
#
#
# Elastic Compliance Matrix: (Units=1/GPa)
#
#
# Indices 1 2 3 4 5 6 
#
# 1 0.021434 -0.013035 -0.007465 0.000000 -0.012264 0.000000
# 2 -0.013035 0.019716 0.003877 0.000000 0.010603 0.000000
# 3 -0.007465 0.003877 0.024654 0.000000 0.010227 0.000000
# 4 0.000000 0.000000 0.000000 0.118825 0.000000 -0.001669
# 5 -0.012264 0.010603 0.010227 0.000000 0.049727 0.000000
# 6 0.000000 0.000000 0.000000 -0.001669 0.000000 0.019362
#
#
# Mechanical properties :
#
#
# Convention : Reuss Voigt Hill
#
# Bulk Modulus (GPa) = 30.71436 40.18738 35.45087
# Shear Modulus (GPa) = 16.78888 27.07765 21.93327
#
# Velocity S-wave (km/s) = 2.58162 3.27859 2.95076
# Velocity P-wave (km/s) = 4.59121 5.50323 5.06778
#
# Compressibility (1/GPa) = 0.03255806
#
# Stress axis : x y z
#
# Youngs Moduli (GPa) = 46.65480 50.71919 40.56191
#
# Poissons Ratio (x) = 0.66113 0.30278
# Poissons Ratio (y) = 0.60815 -0.15724
# Poissons Ratio (z) = 0.34826 -0.19662
#
# Static dielectric constant tensor:
#      x y z
#    x 2.009310 0.000000 -0.042310 
#    y 0.000000 2.167350 0.000000 
#    z -0.042310 0.000000 2.067360 
# 
# From -- ./inp_files/65858.got.cif
#   From: 2010.05.17/outbox.cif.g08.bks.cpg/sg14_33_cif.got.tgz:65858.got - 2010.06.03 17:49:19.
