data_PCOD9242632
_publ_section_title
;
Structure prediction by ZEFSAII (Michael W. Deem and Ramdas Pophale) SiO2 
 PCOD9242632
Probable space group: P 21/C
;
_chemical_formula_sum "Si O2"
_cell_formula_units_Z 28
_cell_length_a 10.265264
_cell_length_b 19.976828
_cell_length_c 8.852505
_cell_angle_alpha 90.000000
_cell_angle_beta 139.205213
_cell_angle_gamma 90.000000
_cell_volume 1186.068788
_symmetry_space_group_name_H-M "P 21/C"
_symmetry_group_IT_number 14
_symmetry_cell_setting 'monoclinic'
loop_
_space_group_symop_operation_xyz
x,y,z
-x,1/2+y,1/2-z
-x,-y,-z
x,1/2-y,1/2+z
loop_
_atom_site_type_symbol
_atom_site_label
_atom_site_fract_x
_atom_site_fract_y
_atom_site_fract_z
Si Si1 0.461226 0.997549 0.288854
Si Si2 0.765563 0.898276 0.420351
Si Si3 0.001596 0.187962 0.179427
Si Si4 0.264314 0.987868 0.833217
Si Si5 0.671326 0.376216 0.823610
Si Si6 0.377503 0.225043 0.902825
Si Si7 0.222498 0.790906 0.326653
O O1 0.568141 0.065066 0.326857
O O2 0.500000 0.000000 0.500000
O O3 0.573701 0.930986 0.330623
O O4 0.258134 0.996202 0.008904
O O5 0.707734 0.828259 0.292073
O O6 0.918151 0.881953 0.687582
O O7 0.830193 0.952754 0.350334
O O8 0.193930 0.234542 0.311761
O O9 0.875859 0.222302 0.202709
O O10 0.871172 0.185641 0.912805
O O11 0.500000 0.000000 0.000000
O O12 0.764584 0.085606 0.262276
O O13 0.509051 0.322011 0.628248
O O14 0.817859 0.340187 0.068507
O O15 0.541982 0.277185 0.985099
#
# Coordination Sequence:
#
# PCOD9242632 Si02
#       7
#     4   4   4   4   4   4   4
#     4  10  20  34  68 102 125 170 228 290 326 398
#     4  10  20  41  65  96 134 175 228 265 345 401
#     4  12  27  42  64 104 140 180 227 278 334 408
#     4   8  16  38  64  88 129 171 220 278 328 402
#     4  10  20  41  65  96 134 175 228 265 345 401
#     4  12  22  43  74  93 140 182 220 278 344 394
#     4  12  27  42  64 104 140 180 227 278 334 408
#
# _framework density 23.607399999999998
#
# number of rings (size 3 to 8) (size 9 to 14) (size 15 to 20)
#    0.000    1.714    7.143    0.857    2.000    0.000 
#    0.000    2.857    0.000   20.571    0.000    0.000 
#    0.000    0.000    0.000    0.000    0.000    0.000 
#
# Total GULP energy -156347.261882 kJ/mol
# GULP energy per Si atom -5583.830781 kJ/mol
# Density = 2.355367 g / cm^3
# Si number density = 23.607400 Si / 1000 Ang^3
#
#
#
# Elastic Constant Matrix: (Units=GPa)
#
#
# Indices 1 2 3 4 5 6 
#
# 1 68.7189 14.5550 38.5596 0.0000 -6.2967 0.0000
# 2 14.5550 94.3746 57.4758 0.0000 -12.7592 0.0000
# 3 38.5596 57.4758 144.3409 0.0000 -42.5734 0.0000
# 4 0.0000 0.0000 0.0000 56.9997 0.0000 -8.0375
# 5 -6.2967 -12.7592 -42.5734 0.0000 52.9741 0.0000
# 6 0.0000 0.0000 0.0000 -8.0375 0.0000 32.2952
#
#
#
# Elastic Compliance Matrix: (Units=1/GPa)
#
#
# Indices 1 2 3 4 5 6 
#
# 1 0.017314 0.000323 -0.005405 0.000000 -0.002208 0.000000
# 2 0.000323 0.014080 -0.006136 0.000000 -0.001501 0.000000
# 3 -0.005405 -0.006136 0.013356 0.000000 0.008613 0.000000
# 4 0.000000 0.000000 0.000000 0.018182 0.000000 0.004525
# 5 -0.002208 -0.001501 0.008613 0.000000 0.025175 0.000000
# 6 0.000000 0.000000 0.000000 0.004525 0.000000 0.032091
#
#
# Mechanical properties :
#
#
# Convention : Reuss Voigt Hill
#
# Bulk Modulus (GPa) = 44.81482 58.73505 51.77493
# Shear Modulus (GPa) = 33.31739 41.57673 37.44706
#
# Velocity S-wave (km/s) = 3.76082 4.20119 3.98709
# Velocity P-wave (km/s) = 6.15491 6.96184 6.57077
#
# Compressibility (1/GPa) = 0.02231405
#
# Stress axis : x y z
#
# Youngs Moduli (GPa) = 57.75567 71.02258 74.87432
#
# Poissons Ratio (x) = -0.02295 0.40472
# Poissons Ratio (y) = -0.01866 0.45941
# Poissons Ratio (z) = 0.31219 0.43578
#
# Static dielectric constant tensor:
#      x y z
#    x 1.950500 0.000000 -0.020910 
#    y 0.000000 1.908120 0.000000 
#    z -0.020910 0.000000 1.997710 
# 
# From -- ./inp_files/14367.got.cif
#   From: 2010.05.17/outbox.cif.g08.bks.cpg/sg14_8_cif.got.tgz:14367.got - 2010.06.03 17:49:19.
