data_PCOD9242539
_publ_section_title
;
Structure prediction by ZEFSAII (Michael W. Deem and Ramdas Pophale) SiO2 
 PCOD9242539
Probable space group: P 21/C
;
_chemical_formula_sum "Si O2"
_cell_formula_units_Z 24
_cell_length_a 9.471722
_cell_length_b 13.037383
_cell_length_c 14.055924
_cell_angle_alpha 90.000000
_cell_angle_beta 151.079135
_cell_angle_gamma 90.000000
_cell_volume 839.394470
_symmetry_space_group_name_H-M "P 21/C"
_symmetry_group_IT_number 14
_symmetry_cell_setting 'monoclinic'
loop_
_space_group_symop_operation_xyz
x,y,z
-x,1/2+y,1/2-z
-x,-y,-z
x,1/2-y,1/2+z
loop_
_atom_site_type_symbol
_atom_site_label
_atom_site_fract_x
_atom_site_fract_y
_atom_site_fract_z
Si Si1 0.477440 0.117129 0.757747
Si Si2 0.866111 0.796584 0.261520
Si Si3 0.002197 0.157292 0.863284
Si Si4 0.421779 0.661953 0.204105
Si Si5 0.025494 0.056595 0.180885
Si Si6 0.901142 0.106257 0.312256
O O1 0.327910 0.157271 0.767871
O O2 0.605054 0.218579 0.782652
O O3 0.227230 0.080555 0.540378
O O4 0.760029 0.054765 0.950340
O O5 0.801873 0.838418 0.118907
O O6 0.198124 0.834897 0.483462
O O7 0.840576 0.671654 0.244903
O O8 0.874001 0.271327 0.779113
O O9 0.816333 0.052309 0.745003
O O10 0.228519 0.152673 0.085270
O O11 0.292905 0.587921 0.209281
O O12 0.875598 0.053488 0.196719
#
# Coordination Sequence:
#
# PCOD9242539 Si02
#       6
#     4   4   4   4   4   4
#     4   9  18  34  53  73 102 138 169 207 256 303
#     4   9  19  35  53  75 107 136 167 214 260 299
#     4  10  20  34  55  79 102 135 175 211 253 306
#     4   9  18  34  53  73 102 138 169 207 256 303
#     4  10  20  34  55  79 102 135 175 211 253 306
#     4   9  19  35  53  75 107 136 167 214 260 299
#
# _framework density 28.592039
#
# number of rings (size 3 to 8) (size 9 to 14) (size 15 to 20)
#    0.000    2.667    0.000    1.000    0.000    4.000 
#    0.000   16.667    0.000   26.000    0.000    0.000 
#    0.000    0.000    0.000    0.000    0.000    0.000 
#
# Total GULP energy -134120.722845 kJ/mol
# GULP energy per Si atom -5588.363452 kJ/mol
# Density = 2.852696 g / cm^3
# Si number density = 28.592039 Si / 1000 Ang^3
#
#
#
# Elastic Constant Matrix: (Units=GPa)
#
#
# Indices 1 2 3 4 5 6 
#
# 1 87.6054 5.5295 6.3458 0.0000 -14.0813 0.0000
# 2 5.5295 177.7454 19.6986 0.0000 -11.0348 0.0000
# 3 6.3458 19.6986 106.4145 0.0000 -13.9851 0.0000
# 4 0.0000 0.0000 0.0000 18.5051 0.0000 3.3572
# 5 -14.0813 -11.0348 -13.9851 0.0000 36.4307 0.0000
# 6 0.0000 0.0000 0.0000 3.3572 0.0000 22.2280
#
#
#
# Elastic Compliance Matrix: (Units=1/GPa)
#
#
# Indices 1 2 3 4 5 6 
#
# 1 0.012173 -0.000079 -0.000101 0.000000 0.004642 0.000000
# 2 -0.000079 0.005813 -0.000889 0.000000 0.001389 0.000000
# 3 -0.000101 -0.000889 0.010033 0.000000 0.003543 0.000000
# 4 0.000000 0.000000 0.000000 0.055562 0.000000 -0.008392
# 5 0.004642 0.001389 0.003543 0.000000 0.031025 0.000000
# 6 0.000000 0.000000 0.000000 -0.008392 0.000000 0.046256
#
#
# Mechanical properties :
#
#
# Convention : Reuss Voigt Hill
#
# Bulk Modulus (GPa) = 38.63758 48.32368 43.48063
# Shear Modulus (GPa) = 29.13280 38.11217 33.62249
#
# Velocity S-wave (km/s) = 3.19550 3.65494 3.43292
# Velocity P-wave (km/s) = 5.21131 5.89485 5.56359
#
# Compressibility (1/GPa) = 0.02588154
#
# Stress axis : x y z
#
# Youngs Moduli (GPa) = 82.14658 172.02150 99.66658
#
# Poissons Ratio (x) = 0.01364 0.01008
# Poissons Ratio (y) = 0.00651 0.08859
# Poissons Ratio (z) = 0.00831 0.15290
#
# Static dielectric constant tensor:
#      x y z
#    x 2.307880 0.000000 0.048770 
#    y 0.000000 2.292430 0.000000 
#    z 0.048770 0.000000 2.091930 
# 
# From -- ./inp_files/24244.got.cif
#   From: 2010.05.17/outbox.cif.g08.bks.cpg/sg14_13_cif.got.tgz:24244.got - 2010.06.03 17:49:19.
