data_PCOD9242479
_publ_section_title
;
Structure prediction by ZEFSAII (Michael W. Deem and Ramdas Pophale) SiO2 
 PCOD9242479
Probable space group: P 21/C
;
_chemical_formula_sum "Si O2"
_cell_formula_units_Z 32
_cell_length_a 17.627463
_cell_length_b 13.615735
_cell_length_c 9.224301
_cell_angle_alpha 90.000000
_cell_angle_beta 30.553763
_cell_angle_gamma 90.000000
_cell_volume 1125.445132
_symmetry_space_group_name_H-M "P 21/C"
_symmetry_group_IT_number 14
_symmetry_cell_setting 'monoclinic'
loop_
_space_group_symop_operation_xyz
x,y,z
-x,1/2+y,1/2-z
-x,-y,-z
x,1/2-y,1/2+z
loop_
_atom_site_type_symbol
_atom_site_label
_atom_site_fract_x
_atom_site_fract_y
_atom_site_fract_z
Si Si1 0.202601 0.259725 0.763190
Si Si2 0.605932 0.461986 0.100119
Si Si3 0.752698 0.907968 0.123357
Si Si4 0.788218 0.333365 0.067369
Si Si5 0.258055 0.113071 0.432377
Si Si6 0.568304 0.314054 0.925182
Si Si7 0.282511 0.951453 0.055040
Si Si8 0.047886 0.691771 0.492051
O O1 0.276349 0.342499 0.741074
O O2 0.052928 0.277108 0.919338
O O3 0.151526 0.177181 0.964098
O O4 0.300639 0.196051 0.486552
O O5 0.722331 0.511352 0.795024
O O6 0.661567 0.512347 0.157877
O O7 0.588418 0.354727 0.056117
O O8 0.444819 0.509496 0.334244
O O9 0.593621 0.854386 0.355030
O O10 0.796629 0.963950 0.907194
O O11 0.614217 0.299630 0.342640
O O12 0.804290 0.416202 0.161841
O O13 0.861962 0.238627 0.025584
O O14 0.851959 0.349840 0.802972
O O15 0.077710 0.114000 0.750255
O O16 0.676858 0.364786 0.625650
#
# Coordination Sequence:
#
# PCOD9242479 Si02
#       8
#     4   4   4   4   4   4   4   4
#     4   9  17  32  56  73 101 135 172 217 252 298
#     4   8  16  33  55  80 103 130 177 217 257 306
#     4   8  16  33  55  80 103 130 177 217 257 306
#     4  12  20  34  54  76 110 140 170 206 270 312
#     4   9  17  32  56  73 101 135 172 217 252 298
#     4   9  18  32  55  81 104 134 172 217 257 318
#     4   9  18  32  55  81 104 134 172 217 257 318
#     4  10  20  34  48  75 108 139 170 212 246 305
#
# _framework density 28.433194
#
# number of rings (size 3 to 8) (size 9 to 14) (size 15 to 20)
#    0.750    2.000    2.500    1.500    1.750    0.000 
#    0.000    1.250    8.250    1.500    0.000    0.000 
#    0.000    0.000    0.000    0.000    0.000    0.000 
#
# Total GULP energy -178968.948980 kJ/mol
# GULP energy per Si atom -5592.779656 kJ/mol
# Density = 2.836848 g / cm^3
# Si number density = 28.433194 Si / 1000 Ang^3
#
#
#
# Elastic Constant Matrix: (Units=GPa)
#
#
# Indices 1 2 3 4 5 6 
#
# 1 140.8269 14.3824 22.8879 0.0000 27.8807 0.0000
# 2 14.3824 66.9971 35.0349 0.0000 13.7196 0.0000
# 3 22.8879 35.0349 115.3422 0.0000 33.3468 0.0000
# 4 0.0000 0.0000 0.0000 44.9632 0.0000 9.1549
# 5 27.8807 13.7196 33.3468 0.0000 46.9190 0.0000
# 6 0.0000 0.0000 0.0000 9.1549 0.0000 49.1339
#
#
#
# Elastic Compliance Matrix: (Units=1/GPa)
#
#
# Indices 1 2 3 4 5 6 
#
# 1 0.008088 -0.000777 -0.000057 0.000000 -0.004539 0.000000
# 2 -0.000777 0.017929 -0.004921 0.000000 -0.001284 0.000000
# 3 -0.000057 -0.004921 0.012272 0.000000 -0.007249 0.000000
# 4 0.000000 0.000000 0.000000 0.023117 0.000000 -0.004307
# 5 -0.004539 -0.001284 -0.007249 0.000000 0.029538 0.000000
# 6 0.000000 0.000000 0.000000 -0.004307 0.000000 0.021155
#
#
# Mechanical properties :
#
#
# Convention : Reuss Voigt Hill
#
# Bulk Modulus (GPa) = 37.34197 51.97518 44.65857
# Shear Modulus (GPa) = 37.72609 44.92729 41.32669
#
# Velocity S-wave (km/s) = 3.64652 3.97936 3.81657
# Velocity P-wave (km/s) = 5.55799 6.27958 5.92977
#
# Compressibility (1/GPa) = 0.02677952
#
# Stress axis : x y z
#
# Youngs Moduli (GPa) = 123.63919 55.77617 81.48929
#
# Poissons Ratio (x) = 0.04335 0.00462
# Poissons Ratio (y) = 0.09610 0.40097
# Poissons Ratio (z) = 0.00701 0.27445
#
# Static dielectric constant tensor:
#      x y z
#    x 2.231690 0.000000 -0.036340 
#    y 0.000000 2.295240 0.000000 
#    z -0.036340 0.000000 2.262050 
# 
# From -- ./inp_files/18121.got.cif
#   From: 2010.05.17/outbox.cif.g08.bks.cpg/sg14_10_cif.got.tgz:18121.got - 2010.06.03 17:49:19.
