data_PCOD9242276
_publ_section_title
;
Structure prediction by ZEFSAII (Michael W. Deem and Ramdas Pophale) SiO2 
 PCOD9242276
Probable space group: P 21/C
;
_chemical_formula_sum "Si O2"
_cell_formula_units_Z 32
_cell_length_a 21.772868
_cell_length_b 8.993122
_cell_length_c 13.811857
_cell_angle_alpha 90.000000
_cell_angle_beta 30.025180
_cell_angle_gamma 90.000000
_cell_volume 1353.251807
_symmetry_space_group_name_H-M "P 21/C"
_symmetry_group_IT_number 14
_symmetry_cell_setting 'monoclinic'
loop_
_space_group_symop_operation_xyz
x,y,z
-x,1/2+y,1/2-z
-x,-y,-z
x,1/2-y,1/2+z
loop_
_atom_site_type_symbol
_atom_site_label
_atom_site_fract_x
_atom_site_fract_y
_atom_site_fract_z
Si Si1 0.245066 0.345361 0.810918
Si Si2 0.196897 0.627308 0.344632
Si Si3 0.036589 0.188630 0.353034
Si Si4 0.747107 0.870924 0.361657
Si Si5 0.673833 0.096392 0.922878
Si Si6 0.283899 0.684562 0.424502
Si Si7 0.400163 0.495957 0.765390
Si Si8 0.976986 0.150335 0.661161
O O1 0.304136 0.226586 0.657444
O O2 0.229434 0.487701 0.760830
O O3 0.325236 0.398436 0.790334
O O4 0.106939 0.300199 0.028360
O O5 0.173700 0.493699 0.303120
O O6 0.267120 0.592493 0.348869
O O7 0.069104 0.706489 0.545687
O O8 0.286203 0.741901 0.166995
O O9 0.166563 0.270239 0.188421
O O10 0.992561 0.170559 0.524862
O O11 0.043967 0.026644 0.294345
O O12 0.646240 0.947959 0.565245
O O13 0.674393 0.094118 0.038068
O O14 0.542693 0.042537 0.063989
O O15 0.145330 0.736054 0.641361
O O16 0.365911 0.831144 0.296971
#
# Coordination Sequence:
#
# PCOD9242276 Si02
#       8
#     4   4   4   4   4   4   4   4
#     4  11  25  47  74 105 145 193 235 291 364 421
#     4  12  24  45  69 106 143 188 232 300 347 420
#     4  10  19  41  69  99 149 184 220 287 362 415
#     4  11  26  41  68 110 147 179 240 300 351 411
#     4  12  25  48  73  96 144 193 244 282 352 429
#     4  12  25  44  74 104 138 187 241 290 360 411
#     4  12  27  46  74 102 142 197 237 287 357 433
#     4  10  19  41  72 105 138 181 234 290 347 430
#
# _framework density 23.646744999999999
#
# number of rings (size 3 to 8) (size 9 to 14) (size 15 to 20)
#    0.000    0.750    5.000    2.250    3.500    3.000 
#    2.250    1.250    0.000    0.000    0.000    0.000 
#    0.000    0.000    0.000    0.000    0.000    0.000 
#
# Total GULP energy -179070.093610 kJ/mol
# GULP energy per Si atom -5595.940425 kJ/mol
# Density = 2.359292 g / cm^3
# Si number density = 23.646745 Si / 1000 Ang^3
#
#
#
# Elastic Constant Matrix: (Units=GPa)
#
#
# Indices 1 2 3 4 5 6 
#
# 1 110.9651 3.9023 19.7188 0.0000 -5.8136 0.0000
# 2 3.9023 42.7390 1.8755 0.0000 2.6811 0.0000
# 3 19.7188 1.8755 70.0314 0.0000 -14.2060 0.0000
# 4 0.0000 0.0000 0.0000 32.0510 0.0000 3.2431
# 5 -5.8136 2.6811 -14.2060 0.0000 39.7587 0.0000
# 6 0.0000 0.0000 0.0000 3.2431 0.0000 24.4766
#
#
#
# Elastic Compliance Matrix: (Units=1/GPa)
#
#
# Indices 1 2 3 4 5 6 
#
# 1 0.009521 -0.000791 -0.002551 0.000000 0.000534 0.000000
# 2 -0.000791 0.023631 -0.000816 0.000000 -0.002001 0.000000
# 3 -0.002551 -0.000816 0.016124 0.000000 0.005443 0.000000
# 4 0.000000 0.000000 0.000000 0.031624 0.000000 -0.004190
# 5 0.000534 -0.002001 0.005443 0.000000 0.027310 0.000000
# 6 0.000000 0.000000 0.000000 -0.004190 0.000000 0.041411
#
#
# Mechanical properties :
#
#
# Convention : Reuss Voigt Hill
#
# Bulk Modulus (GPa) = 24.41434 30.52541 27.46988
# Shear Modulus (GPa) = 29.13920 32.47317 30.80619
#
# Velocity S-wave (km/s) = 3.51418 3.70977 3.61330
# Velocity P-wave (km/s) = 5.17812 5.59347 5.38980
#
# Compressibility (1/GPa) = 0.04095953
#
# Stress axis : x y z
#
# Youngs Moduli (GPa) = 105.03088 42.31669 62.02051
#
# Poissons Ratio (x) = 0.03347 0.15824
# Poissons Ratio (y) = 0.08306 0.05061
# Poissons Ratio (z) = 0.26797 0.03453
#
# Static dielectric constant tensor:
#      x y z
#    x 1.914000 0.000000 0.017050 
#    y 0.000000 1.930830 0.000000 
#    z 0.017050 0.000000 1.902510 
# 
# From -- ./inp_files/51337.got.cif
#   From: 2010.05.17/outbox.cif.g08.bks.cpg/sg14_26_cif.got.tgz:51337.got - 2010.06.03 17:49:19.
