data_PCOD9242263
_publ_section_title
;
Structure prediction by ZEFSAII (Michael W. Deem and Ramdas Pophale) SiO2 
 PCOD9242263
Probable space group: P 21/C
;
_chemical_formula_sum "Si O2"
_cell_formula_units_Z 24
_cell_length_a 10.958422
_cell_length_b 13.604876
_cell_length_c 12.345944
_cell_angle_alpha 90.000000
_cell_angle_beta 32.434391
_cell_angle_gamma 90.000000
_cell_volume 987.192464
_symmetry_space_group_name_H-M "P 21/C"
_symmetry_group_IT_number 14
_symmetry_cell_setting 'monoclinic'
loop_
_space_group_symop_operation_xyz
x,y,z
-x,1/2+y,1/2-z
-x,-y,-z
x,1/2-y,1/2+z
loop_
_atom_site_type_symbol
_atom_site_label
_atom_site_fract_x
_atom_site_fract_y
_atom_site_fract_z
Si Si1 0.392371 0.858356 0.681402
Si Si2 0.524176 0.964094 0.213151
Si Si3 0.184645 0.086543 0.360966
Si Si4 0.018123 0.535520 0.360644
Si Si5 0.117450 0.159092 0.650815
Si Si6 0.150541 0.703236 0.018441
O O1 0.640816 0.814653 0.474481
O O2 0.242732 0.781777 0.861588
O O3 0.240331 0.897010 0.696958
O O4 0.448769 0.954869 0.712231
O O5 0.340624 0.881269 0.379141
O O6 0.425520 0.029924 0.187577
O O7 0.774656 0.918949 0.012257
O O8 0.159495 0.145726 0.492357
O O9 0.088408 0.155732 0.340337
O O10 0.000000 0.000000 0.500000
O O11 0.000000 0.500000 0.500000
O O12 0.050218 0.444344 0.256681
O O13 0.914432 0.232899 0.829078
#
# Coordination Sequence:
#
# PCOD9242263 Si02
#       6
#     4   4   4   4   4   4
#     4  10  22  43  64 106 138 173 244 284 338 418
#     4   9  20  42  70  92 146 181 216 302 341 402
#     4   9  22  46  65  97 143 178 231 290 343 421
#     4  10  19  41  67  98 133 177 228 286 341 403
#     4  11  22  44  70  97 133 189 229 282 362 408
#     4  11  22  45  67 103 141 182 237 289 341 419
#
# _framework density 24.311368999999999
#
# number of rings (size 3 to 8) (size 9 to 14) (size 15 to 20)
#    0.000    2.000    3.333    0.500    0.000    2.667 
#   27.000    1.667    0.000    0.000    0.000    0.000 
#    0.000    0.000    0.000    0.000    0.000    0.000 
#
# Total GULP energy -134090.085111 kJ/mol
# GULP energy per Si atom -5587.086880 kJ/mol
# Density = 2.425604 g / cm^3
# Si number density = 24.311369 Si / 1000 Ang^3
#
#
#
# Elastic Constant Matrix: (Units=GPa)
#
#
# Indices 1 2 3 4 5 6 
#
# 1 72.1689 38.2453 40.1770 0.0000 -31.4248 0.0000
# 2 38.2453 109.7998 22.2003 0.0000 -11.9047 0.0000
# 3 40.1770 22.2003 70.9626 0.0000 -33.3244 0.0000
# 4 0.0000 0.0000 0.0000 36.5434 0.0000 -0.9444
# 5 -31.4248 -11.9047 -33.3244 0.0000 50.3111 0.0000
# 6 0.0000 0.0000 0.0000 -0.9444 0.0000 33.6184
#
#
#
# Elastic Compliance Matrix: (Units=1/GPa)
#
#
# Indices 1 2 3 4 5 6 
#
# 1 0.025824 -0.006316 -0.008378 0.000000 0.009086 0.000000
# 2 -0.006316 0.011273 -0.000799 0.000000 -0.001807 0.000000
# 3 -0.008378 -0.000799 0.024006 0.000000 0.010479 0.000000
# 4 0.000000 0.000000 0.000000 0.027385 0.000000 0.000769
# 5 0.009086 -0.001807 0.010479 0.000000 0.032065 0.000000
# 6 0.000000 0.000000 0.000000 0.000769 0.000000 0.029767
#
#
# Mechanical properties :
#
#
# Convention : Reuss Voigt Hill
#
# Bulk Modulus (GPa) = 33.20418 50.46406 41.83412
# Shear Modulus (GPa) = 26.13071 34.24848 30.18960
#
# Velocity S-wave (km/s) = 3.28202 3.75740 3.52773
# Velocity P-wave (km/s) = 5.29620 6.29496 5.81705
#
# Compressibility (1/GPa) = 0.03011669
#
# Stress axis : x y z
#
# Youngs Moduli (GPa) = 38.72377 88.70632 41.65561
#
# Poissons Ratio (x) = 0.56026 0.34899
# Poissons Ratio (y) = 0.24458 0.03330
# Poissons Ratio (z) = 0.32443 0.07092
#
# Static dielectric constant tensor:
#      x y z
#    x 1.896680 0.000000 -0.087160 
#    y 0.000000 1.949520 0.000000 
#    z -0.087160 0.000000 1.889280 
# 
# From -- ./inp_files/45007.got.cif
#   From: 2010.05.17/outbox.cif.g08.bks.cpg/sg14_23_cif.got.tgz:45007.got - 2010.06.03 17:49:19.
