data_PCOD9242966
_publ_section_title
;
Structure prediction by ZEFSAII (Michael W. Deem and Ramdas Pophale) SiO2 
 PCOD9242966
Probable space group: P 21/C
;
_chemical_formula_sum "Si O2"
_cell_formula_units_Z 24
_cell_length_a 15.103058
_cell_length_b 7.808424
_cell_length_c 9.212917
_cell_angle_alpha 90.000000
_cell_angle_beta 98.117419
_cell_angle_gamma 90.000000
_cell_volume 1075.603477
_symmetry_space_group_name_H-M "P 21/C"
_symmetry_group_IT_number 14
_symmetry_cell_setting 'monoclinic'
loop_
_space_group_symop_operation_xyz
x,y,z
-x,1/2+y,1/2-z
-x,-y,-z
x,1/2-y,1/2+z
loop_
_atom_site_type_symbol
_atom_site_label
_atom_site_fract_x
_atom_site_fract_y
_atom_site_fract_z
Si Si1 0.078311 0.988485 0.812071
Si Si2 0.068813 0.767091 0.084851
Si Si3 0.456498 0.213814 0.953019
Si Si4 0.716316 0.006456 0.133201
Si Si5 0.552630 0.429829 0.214232
Si Si6 0.726062 0.281536 0.352410
O O1 0.059852 0.924616 0.644647
O O2 0.180450 0.053690 0.847864
O O3 0.068565 0.822067 0.916407
O O4 0.007965 0.122190 0.857252
O O5 0.170183 0.813284 0.157738
O O6 0.459441 0.389712 0.862515
O O7 0.515430 0.085162 0.868978
O O8 0.356767 0.134143 0.927979
O O9 0.502437 0.283403 0.109683
O O10 0.702175 0.090242 0.289967
O O11 0.712117 0.163403 0.016001
O O12 0.657800 0.398034 0.249189
#
# Coordination Sequence:
#
# PCOD9242966 Si02
#       6
#     4   4   4   4   4   4
#     4   9  19  36  58  83 115 150 190 236 284 338
#     4   9  19  35  55  83 113 149 189 233 287 339
#     4  11  24  40  59  86 117 151 193 238 288 344
#     4  10  21  39  60  84 116 154 196 241 288 342
#     4  11  23  39  61  86 115 153 192 235 287 343
#     4  10  20  36  59  82 112 152 194 241 290 341
#
# _framework density 22.313054000000001
#
# number of rings (size 3 to 8) (size 9 to 14) (size 15 to 20)
#    0.000    2.000    0.000    3.000    0.000    5.333 
#    0.000    1.667    0.000    0.000    0.000    0.000 
#    0.000    0.000    0.000    0.000    0.000    0.000 
#
# Total GULP energy -133891.778789 kJ/mol
# GULP energy per Si atom -5578.824116 kJ/mol
# Density = 2.226227 g / cm^3
# Si number density = 22.313054 Si / 1000 Ang^3
#
#
#
# Elastic Constant Matrix: (Units=GPa)
#
#
# Indices 1 2 3 4 5 6 
#
# 1 103.0592 29.1296 48.8864 0.0000 3.8798 0.0000
# 2 29.1296 54.4897 27.9668 0.0000 1.2145 0.0000
# 3 48.8864 27.9668 102.9859 0.0000 9.9139 0.0000
# 4 0.0000 0.0000 0.0000 31.0654 0.0000 0.4545
# 5 3.8798 1.2145 9.9139 0.0000 28.9269 0.0000
# 6 0.0000 0.0000 0.0000 0.4545 0.0000 36.2700
#
#
#
# Elastic Compliance Matrix: (Units=1/GPa)
#
#
# Indices 1 2 3 4 5 6 
#
# 1 0.013425 -0.004534 -0.005157 0.000000 0.000157 0.000000
# 2 -0.004534 0.022891 -0.004168 0.000000 0.001075 0.000000
# 3 -0.005157 -0.004168 0.013657 0.000000 -0.003814 0.000000
# 4 0.000000 0.000000 0.000000 0.032196 0.000000 -0.000403
# 5 0.000157 0.001075 -0.003814 0.000000 0.035811 0.000000
# 6 0.000000 0.000000 0.000000 -0.000403 0.000000 0.027576
#
#
# Mechanical properties :
#
#
# Convention : Reuss Voigt Hill
#
# Bulk Modulus (GPa) = 44.93052 52.50004 48.71528
# Shear Modulus (GPa) = 27.67177 29.55593 28.61385
#
# Velocity S-wave (km/s) = 3.52541 3.64346 3.58492
# Velocity P-wave (km/s) = 6.06230 6.42492 6.24624
#
# Compressibility (1/GPa) = 0.02225659
#
# Stress axis : x y z
#
# Youngs Moduli (GPa) = 74.48959 43.68574 73.22392
#
# Poissons Ratio (x) = 0.19805 0.37758
# Poissons Ratio (y) = 0.33771 0.30517
# Poissons Ratio (z) = 0.38411 0.18207
#
# Static dielectric constant tensor:
#      x y z
#    x 1.802650 0.000000 -0.014570 
#    y 0.000000 1.840150 0.000000 
#    z -0.014570 0.000000 1.873550 
# 
# From -- ./inp_files/15162.got.cif
#   From: 2010.05.17/outbox.cif.g08.bks.cpg/sg14_8_cif.got.tgz:15162.got - 2010.06.03 17:49:19.
