data_PCOD9242919
_publ_section_title
;
Structure prediction by ZEFSAII (Michael W. Deem and Ramdas Pophale) SiO2 
 PCOD9242919
Probable space group: P 21/C
;
_chemical_formula_sum "Si O2"
_cell_formula_units_Z 32
_cell_length_a 28.525733
_cell_length_b 8.538306
_cell_length_c 11.804922
_cell_angle_alpha 90.000000
_cell_angle_beta 149.896472
_cell_angle_gamma 90.000000
_cell_volume 1442.108758
_symmetry_space_group_name_H-M "P 21/C"
_symmetry_group_IT_number 14
_symmetry_cell_setting 'monoclinic'
loop_
_space_group_symop_operation_xyz
x,y,z
-x,1/2+y,1/2-z
-x,-y,-z
x,1/2-y,1/2+z
loop_
_atom_site_type_symbol
_atom_site_label
_atom_site_fract_x
_atom_site_fract_y
_atom_site_fract_z
Si Si1 0.979802 0.966701 0.084994
Si Si2 0.264019 0.006111 0.788195
Si Si3 0.216079 0.529367 0.793387
Si Si4 0.738977 0.252180 0.918347
Si Si5 0.610651 0.996192 0.737151
Si Si6 0.130889 0.998877 0.879356
Si Si7 0.926481 0.895798 0.525080
Si Si8 0.249464 0.263224 0.048336
O O1 0.950976 0.789324 0.061276
O O2 0.064696 0.041054 0.328051
O O3 0.000000 0.000000 0.000000
O O4 0.892141 0.077390 0.926445
O O5 0.181107 0.045833 0.706364
O O6 0.267487 0.145976 0.703496
O O7 0.257508 0.858068 0.687882
O O8 0.352515 0.988113 0.056276
O O9 0.210178 0.496135 0.647319
O O10 0.268966 0.657517 0.977831
O O11 0.232381 0.379003 0.906892
O O12 0.653643 0.132851 0.748395
O O13 0.835400 0.154231 0.116544
O O14 0.660978 0.840761 0.794816
O O15 0.500000 0.000000 0.500000
O O16 0.155282 0.159003 0.866924
O O17 0.019888 0.982827 0.670157
#
# Coordination Sequence:
#
# PCOD9242919 Si02
#       8
#     4   4   4   4   4   4   4   4
#     4  11  22  36  56  85 126 168 210 253 292 349
#     4  11  22  41  62  88 125 158 199 251 302 365
#     4  10  20  37  58  84 120 160 198 242 296 353
#     4  10  22  40  63  89 120 159 199 245 304 362
#     4  11  25  44  65  90 116 150 201 257 316 373
#     4  10  20  36  57  88 127 162 202 245 286 349
#     4  11  22  37  59  91 126 169 210 247 297 359
#     4  10  21  39  63  89 119 160 201 246 305 362
#
# _framework density 22.189727000000001
#
# number of rings (size 3 to 8) (size 9 to 14) (size 15 to 20)
#    0.000    1.500    0.000    6.750    0.000    2.000 
#    0.000   12.500    0.000    0.000    0.000    0.000 
#    0.000    0.000    0.000    0.000    0.000    0.000 
#
# Total GULP energy -178227.903717 kJ/mol
# GULP energy per Si atom -5569.621991 kJ/mol
# Density = 2.213922 g / cm^3
# Si number density = 22.189727 Si / 1000 Ang^3
#
#
#
# Elastic Constant Matrix: (Units=GPa)
#
#
# Indices 1 2 3 4 5 6 
#
# 1 86.3331 32.3245 39.0045 0.0000 -12.5697 0.0000
# 2 32.3245 90.6572 33.2761 0.0000 -9.3751 0.0000
# 3 39.0045 33.2761 112.4846 0.0000 5.3270 0.0000
# 4 0.0000 0.0000 0.0000 16.5272 0.0000 -9.0481
# 5 -12.5697 -9.3751 5.3270 0.0000 51.6671 0.0000
# 6 0.0000 0.0000 0.0000 -9.0481 0.0000 29.0701
#
#
#
# Elastic Compliance Matrix: (Units=1/GPa)
#
#
# Indices 1 2 3 4 5 6 
#
# 1 0.015440 -0.003485 -0.004493 0.000000 0.003587 0.000000
# 2 -0.003485 0.013529 -0.002884 0.000000 0.001904 0.000000
# 3 -0.004493 -0.002884 0.011433 0.000000 -0.002795 0.000000
# 4 0.000000 0.000000 0.000000 0.072934 0.000000 0.022701
# 5 0.003587 0.001904 -0.002795 0.000000 0.020861 0.000000
# 6 0.000000 0.000000 0.000000 0.022701 0.000000 0.041465
#
#
# Mechanical properties :
#
#
# Convention : Reuss Voigt Hill
#
# Bulk Modulus (GPa) = 53.53722 55.40944 54.47333
# Shear Modulus (GPa) = 24.55644 31.77752 28.16698
#
# Velocity S-wave (km/s) = 3.33026 3.78839 3.56669
# Velocity P-wave (km/s) = 6.24235 6.64536 6.44700
#
# Compressibility (1/GPa) = 0.01867859
#
# Stress axis : x y z
#
# Youngs Moduli (GPa) = 64.76681 73.91697 87.46247
#
# Poissons Ratio (x) = 0.25762 0.39295
# Poissons Ratio (y) = 0.22573 0.25223
# Poissons Ratio (z) = 0.29098 0.21316
#
# Static dielectric constant tensor:
#      x y z
#    x 1.835980 0.000000 -0.036470 
#    y 0.000000 1.896410 0.000000 
#    z -0.036470 0.000000 1.812560 
# 
# From -- ./inp_files/36482.got.cif
#   From: 2010.05.17/outbox.cif.g08.bks.cpg/sg14_19_cif.got.tgz:36482.got - 2010.06.03 17:49:19.
