data_PCOD9242423
_publ_section_title
;
Structure prediction by ZEFSAII (Michael W. Deem and Ramdas Pophale) SiO2 
 PCOD9242423
Probable space group: P 21/C
;
_chemical_formula_sum "Si O2"
_cell_formula_units_Z 24
_cell_length_a 12.132418
_cell_length_b 22.054679
_cell_length_c 13.859480
_cell_angle_alpha 90.000000
_cell_angle_beta 159.002413
_cell_angle_gamma 90.000000
_cell_volume 1328.851812
_symmetry_space_group_name_H-M "P 21/C"
_symmetry_group_IT_number 14
_symmetry_cell_setting 'monoclinic'
loop_
_space_group_symop_operation_xyz
x,y,z
-x,1/2+y,1/2-z
-x,-y,-z
x,1/2-y,1/2+z
loop_
_atom_site_type_symbol
_atom_site_label
_atom_site_fract_x
_atom_site_fract_y
_atom_site_fract_z
Si Si1 0.741533 0.168098 0.479517
Si Si2 0.378531 0.068925 0.295437
Si Si3 0.231061 0.331327 0.964810
Si Si4 0.684332 0.430207 0.252735
Si Si5 0.416072 0.202786 0.027114
Si Si6 0.557447 0.296891 0.417502
O O1 0.545748 0.111441 0.355688
O O2 0.627958 0.227250 0.446034
O O3 0.105068 0.165066 0.793720
O O4 0.675851 0.180787 0.313319
O O5 0.588565 0.068584 0.562264
O O6 0.334008 0.999477 0.225412
O O7 0.037239 0.091676 0.045839
O O8 0.346874 0.272489 0.999879
O O9 0.867997 0.334914 0.649875
O O10 0.439264 0.387550 0.104363
O O11 0.293147 0.317927 0.128396
O O12 0.487957 0.198904 0.973338
#
# Coordination Sequence:
#
# PCOD9242423 Si02
#       6
#     4   4   4   4   4   4
#     4  10  20  33  52  75 101 133 166 207 253 298
#     4  10  20  34  54  78 103 132 167 210 256 300
#     4  10  20  33  52  75 101 133 166 207 253 298
#     4  10  20  34  54  78 103 132 167 210 256 300
#     4  10  20  33  51  75 102 133 167 205 251 300
#     4  10  20  33  51  75 102 133 167 205 251 300
#
# _framework density 18.060706
#
# number of rings (size 3 to 8) (size 9 to 14) (size 15 to 20)
#    0.000    2.000    0.000    4.000    0.000    5.333 
#    0.000    0.000    0.000    6.000    0.000    0.000 
#    0.000    0.000    0.000    0.000    0.000    0.000 
#
# Total GULP energy -133956.539745 kJ/mol
# GULP energy per Si atom -5581.522489 kJ/mol
# Density = 1.801960 g / cm^3
# Si number density = 18.060706 Si / 1000 Ang^3
#
#
#
# Elastic Constant Matrix: (Units=GPa)
#
#
# Indices 1 2 3 4 5 6 
#
# 1 73.9567 28.9847 -12.7461 0.0000 5.2543 0.0000
# 2 28.9847 51.7232 12.6780 0.0000 15.5196 0.0000
# 3 -12.7461 12.6780 67.9827 0.0000 0.5386 0.0000
# 4 0.0000 0.0000 0.0000 19.3927 0.0000 4.9916
# 5 5.2543 15.5196 0.5386 0.0000 21.2445 0.0000
# 6 0.0000 0.0000 0.0000 4.9916 0.0000 12.4316
#
#
#
# Elastic Compliance Matrix: (Units=1/GPa)
#
#
# Indices 1 2 3 4 5 6 
#
# 1 0.019826 -0.014272 0.006336 0.000000 0.005362 0.000000
# 2 -0.014272 0.036476 -0.009297 0.000000 -0.022881 0.000000
# 3 0.006336 -0.009297 0.017594 0.000000 0.004778 0.000000
# 4 0.000000 0.000000 0.000000 0.057509 0.000000 -0.023091
# 5 0.005362 -0.022881 0.004778 0.000000 0.062338 0.000000
# 6 0.000000 0.000000 0.000000 -0.023091 0.000000 0.089712
#
#
# Mechanical properties :
#
#
# Convention : Reuss Voigt Hill
#
# Bulk Modulus (GPa) = 25.36155 27.94398 26.65276
# Shear Modulus (GPa) = 15.10286 21.59684 18.34985
#
# Velocity S-wave (km/s) = 2.89490 3.46177 3.19095
# Velocity P-wave (km/s) = 5.02462 5.61109 5.32593
#
# Compressibility (1/GPa) = 0.03942977
#
# Stress axis : x y z
#
# Youngs Moduli (GPa) = 50.43908 27.41558 56.83908
#
# Poissons Ratio (x) = 0.39128 -0.36015
# Poissons Ratio (y) = 0.71987 0.52843
# Poissons Ratio (z) = -0.31959 0.25488
#
# Static dielectric constant tensor:
#      x y z
#    x 1.596270 0.000000 -0.003530 
#    y 0.000000 1.607120 0.000000 
#    z -0.003530 0.000000 1.620110 
# 
# From -- ./inp_files/21157.got.cif
#   From: 2010.05.17/outbox.cif.g08.bks.cpg/sg14_11_cif.got.tgz:21157.got - 2010.06.03 17:49:19.
