data_PCOD9242873
_publ_section_title
;
Structure prediction by ZEFSAII (Michael W. Deem and Ramdas Pophale) SiO2 
 PCOD9242873
Probable space group: P 21/C
;
_chemical_formula_sum "Si O2"
_cell_formula_units_Z 24
_cell_length_a 12.257743
_cell_length_b 11.114076
_cell_length_c 24.675951
_cell_angle_alpha 90.000000
_cell_angle_beta 18.671799
_cell_angle_gamma 90.000000
_cell_volume 1076.234351
_symmetry_space_group_name_H-M "P 21/C"
_symmetry_group_IT_number 14
_symmetry_cell_setting 'monoclinic'
loop_
_space_group_symop_operation_xyz
x,y,z
-x,1/2+y,1/2-z
-x,-y,-z
x,1/2-y,1/2+z
loop_
_atom_site_type_symbol
_atom_site_label
_atom_site_fract_x
_atom_site_fract_y
_atom_site_fract_z
Si Si1 0.411560 0.139206 0.134313
Si Si2 0.281026 0.674944 0.089876
Si Si3 0.378113 0.103398 0.944248
Si Si4 0.593355 0.353375 0.669759
Si Si5 0.921829 0.674661 0.848562
Si Si6 0.647000 0.889846 0.170007
O O1 0.386816 0.154196 0.210731
O O2 0.055225 0.108027 0.272460
O O3 0.671345 0.027501 0.006096
O O4 0.548230 0.259729 0.041919
O O5 0.130370 0.782518 0.197857
O O6 0.572606 0.616502 0.990666
O O7 0.270510 0.114966 0.932891
O O8 0.790959 0.115493 0.749522
O O9 0.202029 0.206121 0.061700
O O10 0.565427 0.227080 0.713672
O O11 0.492691 0.475730 0.749637
O O12 0.992451 0.375695 0.469541
#
# Coordination Sequence:
#
# PCOD9242873 Si02
#       6
#     4   4   4   4   4   4
#     4  10  20  36  56  77 107 144 179 222 274 326
#     4   9  19  34  53  79 107 138 179 221 264 323
#     4  10  20  36  56  77 107 144 179 222 274 326
#     4  10  21  37  58  83 112 147 186 230 280 332
#     4   9  19  34  53  79 107 138 179 221 264 323
#     4  10  21  37  58  83 112 147 186 230 280 332
#
# _framework density 22.299977999999999
#
# number of rings (size 3 to 8) (size 9 to 14) (size 15 to 20)
#    0.000    2.333    0.000    2.000    0.000    7.333 
#    0.000    6.667    0.000    0.000    0.000    0.000 
#    0.000    0.000    0.000    0.000    0.000    0.000 
#
# Total GULP energy -133740.544708 kJ/mol
# GULP energy per Si atom -5572.522696 kJ/mol
# Density = 2.224922 g / cm^3
# Si number density = 22.299978 Si / 1000 Ang^3
#
#
#
# Elastic Constant Matrix: (Units=GPa)
#
#
# Indices 1 2 3 4 5 6 
#
# 1 84.7173 -6.4117 9.2729 0.0000 -20.1741 0.0000
# 2 -6.4117 68.6124 -8.1411 0.0000 11.6002 0.0000
# 3 9.2729 -8.1411 27.4022 0.0000 -10.1989 0.0000
# 4 0.0000 0.0000 0.0000 27.8217 0.0000 -2.8201
# 5 -20.1741 11.6002 -10.1989 0.0000 22.0286 0.0000
# 6 0.0000 0.0000 0.0000 -2.8201 0.0000 32.2500
#
#
#
# Elastic Compliance Matrix: (Units=1/GPa)
#
#
# Indices 1 2 3 4 5 6 
#
# 1 0.015161 -0.001025 -0.000080 0.000000 0.014388 0.000000
# 2 -0.001025 0.016155 0.001970 0.000000 -0.008534 0.000000
# 3 -0.000080 0.001970 0.044332 0.000000 0.019414 0.000000
# 4 0.000000 0.000000 0.000000 0.036265 0.000000 0.003171
# 5 0.014388 -0.008534 0.019414 0.000000 0.072054 0.000000
# 6 0.000000 0.000000 0.000000 0.003171 0.000000 0.031285
#
#
# Mechanical properties :
#
#
# Convention : Reuss Voigt Hill
#
# Bulk Modulus (GPa) = 12.92354 18.90802 15.91578
# Shear Modulus (GPa) = 20.89293 28.82085 24.85689
#
# Velocity S-wave (km/s) = 3.06421 3.59892 3.34227
# Velocity P-wave (km/s) = 4.28101 5.07612 4.69543
#
# Compressibility (1/GPa) = 0.07737820
#
# Stress axis : x y z
#
# Youngs Moduli (GPa) = 65.95713 61.89860 22.55725
#
# Poissons Ratio (x) = 0.06346 0.00181
# Poissons Ratio (y) = 0.06762 -0.04444
# Poissons Ratio (z) = 0.00529 -0.12196
#
# Static dielectric constant tensor:
#      x y z
#    x 1.801490 0.000000 -0.045620 
#    y 0.000000 1.914770 0.000000 
#    z -0.045620 0.000000 1.807330 
# 
# From -- ./inp_files/18903.got.cif
#   From: 2010.05.17/outbox.cif.g08.bks.cpg/sg14_10_cif.got.tgz:18903.got - 2010.06.03 17:49:19.
