data_PCOD9242901
_publ_section_title
;
Structure prediction by ZEFSAII (Michael W. Deem and Ramdas Pophale) SiO2 
 PCOD9242901
Probable space group: P 21/C
;
_chemical_formula_sum "Si O2"
_cell_formula_units_Z 20
_cell_length_a 7.210828
_cell_length_b 4.856549
_cell_length_c 21.123904
_cell_angle_alpha 90.000000
_cell_angle_beta 86.740338
_cell_angle_gamma 90.000000
_cell_volume 738.556765
_symmetry_space_group_name_H-M "P 21/C"
_symmetry_group_IT_number 14
_symmetry_cell_setting 'monoclinic'
loop_
_space_group_symop_operation_xyz
x,y,z
-x,1/2+y,1/2-z
-x,-y,-z
x,1/2-y,1/2+z
loop_
_atom_site_type_symbol
_atom_site_label
_atom_site_fract_x
_atom_site_fract_y
_atom_site_fract_z
Si Si1 0.195860 0.277656 0.115108
Si Si2 0.575389 0.295593 0.554549
Si Si3 0.319360 0.501532 0.315092
Si Si4 0.746608 0.982027 0.758740
Si Si5 0.886721 0.236343 0.962486
O O1 0.408531 0.365742 0.093062
O O2 0.161060 0.205899 0.188579
O O3 0.065110 0.494715 0.081087
O O4 0.193854 0.969267 0.088009
O O5 0.500000 0.500000 0.500000
O O6 0.681599 0.438472 0.610750
O O7 0.733970 0.135418 0.513440
O O8 0.242302 0.201925 0.303858
O O9 0.535208 0.503863 0.289687
O O10 0.222039 0.713476 0.268396
O O11 0.000000 0.000000 0.000000
#
# Coordination Sequence:
#
# PCOD9242901 Si02
#       5
#     4   4   4   4   4
#     4  10  20  36  57  80 110 145 189 234 283 346
#     4   9  20  35  56  84 114 149 189 236 290 348
#     4   9  17  29  49  78 109 136 177 229 279 332
#     4   9  17  30  50  77 105 138 176 227 281 328
#     4  11  22  36  55  81 112 148 185 232 287 344
#
# _framework density 27.079840999999998
#
# number of rings (size 3 to 8) (size 9 to 14) (size 15 to 20)
#    0.000    2.400    0.000    2.400    0.000   12.800 
#    0.000    0.000    0.000    4.800    0.000    0.000 
#    0.000    0.000    0.000    0.000    0.000    0.000 
#
# Total GULP energy -111429.886891 kJ/mol
# GULP energy per Si atom -5571.494345 kJ/mol
# Density = 2.701821 g / cm^3
# Si number density = 27.079841 Si / 1000 Ang^3
#
#
#
# Elastic Constant Matrix: (Units=GPa)
#
#
# Indices 1 2 3 4 5 6 
#
# 1 86.0103 8.5705 23.4368 0.0000 -7.2991 0.0000
# 2 8.5705 118.7691 17.9341 0.0000 0.2810 0.0000
# 3 23.4368 17.9341 137.4789 0.0000 -4.5846 0.0000
# 4 0.0000 0.0000 0.0000 49.4730 0.0000 17.7351
# 5 -7.2991 0.2810 -4.5846 0.0000 18.2502 0.0000
# 6 0.0000 0.0000 0.0000 17.7351 0.0000 5.4534
#
#
#
# Elastic Compliance Matrix: (Units=1/GPa)
#
#
# Indices 1 2 3 4 5 6 
#
# 1 0.012598 -0.000631 -0.001913 0.000000 0.004568 0.000000
# 2 -0.000631 0.008624 -0.001039 0.000000 -0.000646 0.000000
# 3 -0.001913 -0.001039 0.007776 0.000000 0.001204 0.000000
# 4 0.000000 0.000000 0.000000 -0.121901 0.000000 0.396437
# 5 0.004568 -0.000646 0.001204 0.000000 0.056933 0.000000
# 6 0.000000 0.000000 0.000000 0.396437 0.000000 -1.105885
#
#
# Mechanical properties :
#
#
# Convention : Reuss Voigt Hill
#
# Bulk Modulus (GPa) = 45.80521 49.12678 47.46599
# Shear Modulus (GPa) = -4.43494 34.12312 14.84409
#
# Velocity S-wave (km/s) = -1.28113 3.55363 2.34382
# Velocity P-wave (km/s) = 3.84229 5.91765 4.98908
#
# Compressibility (1/GPa) = 0.02183158
#
# Stress axis : x y z
#
# Youngs Moduli (GPa) = 79.37565 115.96031 128.60645
#
# Poissons Ratio (x) = 0.07318 0.24603
# Poissons Ratio (y) = 0.05009 0.13361
# Poissons Ratio (z) = 0.15185 0.12047
#
# Static dielectric constant tensor:
#      x y z
#    x 2.352310 0.000000 0.051470 
#    y 0.000000 2.023680 0.000000 
#    z 0.051470 0.000000 2.168730 
# 
# From -- ./inp_files/54024.got.cif
#   From: 2010.05.17/outbox.cif.g08.bks.cpg/sg14_28_cif.got.tgz:54024.got - 2010.06.03 17:49:19.
