data_PCOD9242257
_publ_section_title
;
Structure prediction by ZEFSAII (Michael W. Deem and Ramdas Pophale) SiO2 
 PCOD9242257
Probable space group: P 21/C
;
_chemical_formula_sum "Si O2"
_cell_formula_units_Z 32
_cell_length_a 10.781493
_cell_length_b 13.794308
_cell_length_c 17.046368
_cell_angle_alpha 90.000000
_cell_angle_beta 149.877958
_cell_angle_gamma 90.000000
_cell_volume 1272.269195
_symmetry_space_group_name_H-M "P 21/C"
_symmetry_group_IT_number 14
_symmetry_cell_setting 'monoclinic'
loop_
_space_group_symop_operation_xyz
x,y,z
-x,1/2+y,1/2-z
-x,-y,-z
x,1/2-y,1/2+z
loop_
_atom_site_type_symbol
_atom_site_label
_atom_site_fract_x
_atom_site_fract_y
_atom_site_fract_z
Si Si1 0.847288 0.635147 0.465671
Si Si2 0.947280 0.684541 0.769531
Si Si3 0.122430 0.910210 0.679998
Si Si4 0.965105 0.915849 0.766008
Si Si5 0.177836 0.327487 0.127824
Si Si6 0.720203 0.089913 0.683983
Si Si7 0.459905 0.271830 0.560827
Si Si8 0.582091 0.037391 0.873626
O O1 0.855501 0.712150 0.401098
O O2 0.698552 0.695293 0.451442
O O3 0.698500 0.535218 0.372722
O O4 0.110266 0.610229 0.646969
O O5 0.954736 0.649579 0.862448
O O6 0.669168 0.674271 0.582581
O O7 0.973705 0.800773 0.780658
O O8 0.136066 0.635273 0.812892
O O9 0.001399 0.941894 0.694739
O O10 0.264912 0.810214 0.777725
O O11 0.945655 0.886322 0.510912
O O12 0.343925 0.980650 0.776186
O O13 0.204779 0.954014 0.945157
O O14 0.734140 0.975045 0.676396
O O15 0.465171 0.359894 0.286213
O O16 0.479151 0.156337 0.562183
#
# Coordination Sequence:
#
# PCOD9242257 Si02
#       8
#     4   4   4   4   4   4   4   4
#     4   9  21  41  62  91 125 173 213 252 320 386
#     4  11  24  39  63  99 127 161 210 266 323 374
#     4  11  20  40  67  91 123 167 218 260 308 380
#     4  11  22  41  64  93 125 163 215 265 313 382
#     4  12  23  41  62  97 134 165 210 269 324 377
#     4  10  20  42  66  88 122 166 215 262 309 382
#     4  10  19  41  66  84 120 169 213 249 312 372
#     4  10  23  39  64  94 124 168 221 262 316 369
#
# _framework density 25.151910999999998
#
# number of rings (size 3 to 8) (size 9 to 14) (size 15 to 20)
#    0.000    1.500    2.500    3.750    0.000    2.500 
#    4.500    1.250    0.000    0.000    0.000    0.000 
#    0.000    0.000    0.000    0.000    0.000    0.000 
#
# Total GULP energy -179136.121853 kJ/mol
# GULP energy per Si atom -5598.003808 kJ/mol
# Density = 2.509466 g / cm^3
# Si number density = 25.151911 Si / 1000 Ang^3
#
#
#
# Elastic Constant Matrix: (Units=GPa)
#
#
# Indices 1 2 3 4 5 6 
#
# 1 76.2465 17.1180 39.1177 0.0000 -15.7771 0.0000
# 2 17.1180 103.0348 1.9884 0.0000 -7.0663 0.0000
# 3 39.1177 1.9884 85.2516 0.0000 -13.4712 0.0000
# 4 0.0000 0.0000 0.0000 34.1325 0.0000 -3.1122
# 5 -15.7771 -7.0663 -13.4712 0.0000 26.1033 0.0000
# 6 0.0000 0.0000 0.0000 -3.1122 0.0000 47.1454
#
#
#
# Elastic Compliance Matrix: (Units=1/GPa)
#
#
# Indices 1 2 3 4 5 6 
#
# 1 0.018992 -0.002537 -0.007567 0.000000 0.006887 0.000000
# 2 -0.002537 0.010231 0.001220 0.000000 0.001866 0.000000
# 3 -0.007567 0.001220 0.015791 0.000000 0.003906 0.000000
# 4 0.000000 0.000000 0.000000 0.029475 0.000000 0.001946
# 5 0.006887 0.001866 0.003906 0.000000 0.044993 0.000000
# 6 0.000000 0.000000 0.000000 0.001946 0.000000 0.021339
#
#
# Mechanical properties :
#
#
# Convention : Reuss Voigt Hill
#
# Bulk Modulus (GPa) = 36.70129 42.33124 39.51626
# Shear Modulus (GPa) = 29.82013 35.23016 32.52515
#
# Velocity S-wave (km/s) = 3.44699 3.74665 3.59994
# Velocity P-wave (km/s) = 5.51959 5.96517 5.74670
#
# Compressibility (1/GPa) = 0.02724700
#
# Stress axis : x y z
#
# Youngs Moduli (GPa) = 52.65290 97.73860 63.32749
#
# Poissons Ratio (x) = 0.24796 0.47921
# Poissons Ratio (y) = 0.13358 -0.07728
# Poissons Ratio (z) = 0.39843 -0.11927
#
# Static dielectric constant tensor:
#      x y z
#    x 1.960440 0.000000 -0.019080 
#    y 0.000000 2.108490 0.000000 
#    z -0.019080 0.000000 1.978590 
# 
# From -- ./inp_files/58035.got.cif
#   From: 2010.05.17/outbox.cif.g08.bks.cpg/sg14_30_cif.got.tgz:58035.got - 2010.06.03 17:49:19.
