data_PCOD9242711
_publ_section_title
;
Structure prediction by ZEFSAII (Michael W. Deem and Ramdas Pophale) SiO2 
 PCOD9242711
Probable space group: P 21/C
;
_chemical_formula_sum "Si O2"
_cell_formula_units_Z 20
_cell_length_a 14.951867
_cell_length_b 7.754287
_cell_length_c 21.554587
_cell_angle_alpha 90.000000
_cell_angle_beta 18.878272
_cell_angle_gamma 90.000000
_cell_volume 808.592988
_symmetry_space_group_name_H-M "P 21/C"
_symmetry_group_IT_number 14
_symmetry_cell_setting 'monoclinic'
loop_
_space_group_symop_operation_xyz
x,y,z
-x,1/2+y,1/2-z
-x,-y,-z
x,1/2-y,1/2+z
loop_
_atom_site_type_symbol
_atom_site_label
_atom_site_fract_x
_atom_site_fract_y
_atom_site_fract_z
Si Si1 0.019692 0.555971 0.729053
Si Si2 0.433534 0.442397 0.279189
Si Si3 0.615480 0.974556 0.335724
Si Si4 0.923509 0.249450 0.927283
Si Si5 0.041225 0.226916 0.121169
O O1 0.151584 0.394182 0.606139
O O2 0.095250 0.717311 0.634194
O O3 0.068911 0.607972 0.768142
O O4 0.692655 0.514960 0.940490
O O5 0.369947 0.461906 0.248014
O O6 0.264425 0.593295 0.422970
O O7 0.289442 0.277776 0.408708
O O8 0.763858 0.409466 0.062090
O O9 0.763030 0.797653 0.261277
O O10 0.797754 0.129573 0.244517
#
# Coordination Sequence:
#
# PCOD9242711 Si02
#       5
#     4   4   4   4   4
#     4  10  20  35  58  84 114 150 190 232 281 336
#     4  10  20  35  58  84 114 150 190 232 281 336
#     4  10  20  38  60  82 114 152 188 234 286 334
#     4  10  20  35  57  85 113 151 191 231 280 335
#     4  10  20  35  57  85 113 151 191 231 280 335
#
# _framework density 24.734323
#
# number of rings (size 3 to 8) (size 9 to 14) (size 15 to 20)
#    0.000    2.400    0.000    7.200    0.000    0.000 
#    0.000    2.000    0.000   16.800    0.000    2.800 
#    0.000    0.000    0.000    0.000    0.000    0.000 
#
# Total GULP energy -111426.719631 kJ/mol
# GULP energy per Si atom -5571.335982 kJ/mol
# Density = 2.467803 g / cm^3
# Si number density = 24.734323 Si / 1000 Ang^3
#
#
#
# Elastic Constant Matrix: (Units=GPa)
#
#
# Indices 1 2 3 4 5 6 
#
# 1 93.7389 6.5332 41.8091 0.0000 28.3604 0.0000
# 2 6.5332 54.8801 21.8418 0.0000 5.5236 0.0000
# 3 41.8091 21.8418 115.3412 0.0000 22.2300 0.0000
# 4 0.0000 0.0000 0.0000 46.6740 0.0000 11.2103
# 5 28.3604 5.5236 22.2300 0.0000 50.6740 0.0000
# 6 0.0000 0.0000 0.0000 11.2103 0.0000 42.1817
#
#
#
# Elastic Compliance Matrix: (Units=1/GPa)
#
#
# Indices 1 2 3 4 5 6 
#
# 1 0.014363 0.000555 -0.004097 0.000000 -0.006302 0.000000
# 2 0.000555 0.019743 -0.003785 0.000000 -0.000802 0.000000
# 3 -0.004097 -0.003785 0.011306 0.000000 -0.002254 0.000000
# 4 0.000000 0.000000 0.000000 0.022886 0.000000 -0.006082
# 5 -0.006302 -0.000802 -0.002254 0.000000 0.024337 0.000000
# 6 0.000000 0.000000 0.000000 -0.006082 0.000000 0.025323
#
#
# Mechanical properties :
#
#
# Convention : Reuss Voigt Hill
#
# Bulk Modulus (GPa) = 32.51211 44.92536 38.71873
# Shear Modulus (GPa) = 34.99792 40.82435 37.91113
#
# Velocity S-wave (km/s) = 3.76567 4.06706 3.91926
# Velocity P-wave (km/s) = 5.66393 6.34486 6.01404
#
# Compressibility (1/GPa) = 0.03075777
#
# Stress axis : x y z
#
# Youngs Moduli (GPa) = 69.62278 50.65174 88.44649
#
# Poissons Ratio (x) = -0.02811 0.36236
# Poissons Ratio (y) = -0.03864 0.33479
# Poissons Ratio (z) = 0.28524 0.19173
#
# Static dielectric constant tensor:
#      x y z
#    x 1.959650 0.000000 0.014610 
#    y 0.000000 2.271140 0.000000 
#    z 0.014610 0.000000 1.939540 
# 
# From -- ./inp_files/68140.got.cif
#   From: 2010.05.17/outbox.cif.g08.bks.cpg/sg14_35_cif.got.tgz:68140.got - 2010.06.03 17:49:19.
