data_PCOD9242346
_publ_section_title
;
Structure prediction by ZEFSAII (Michael W. Deem and Ramdas Pophale) SiO2 
 PCOD9242346
Probable space group: P 21/C
;
_chemical_formula_sum "Si O2"
_cell_formula_units_Z 32
_cell_length_a 5.117944
_cell_length_b 21.403589
_cell_length_c 13.075496
_cell_angle_alpha 90.000000
_cell_angle_beta 74.694816
_cell_angle_gamma 90.000000
_cell_volume 1381.521470
_symmetry_space_group_name_H-M "P 21/C"
_symmetry_group_IT_number 14
_symmetry_cell_setting 'monoclinic'
loop_
_space_group_symop_operation_xyz
x,y,z
-x,1/2+y,1/2-z
-x,-y,-z
x,1/2-y,1/2+z
loop_
_atom_site_type_symbol
_atom_site_label
_atom_site_fract_x
_atom_site_fract_y
_atom_site_fract_z
Si Si1 0.585736 0.301564 0.430862
Si Si2 0.306903 0.647243 0.374426
Si Si3 0.302109 0.516669 0.858151
Si Si4 0.960300 0.186712 0.404525
Si Si5 0.207710 0.291756 0.070664
Si Si6 0.438826 0.260602 0.255050
Si Si7 0.256707 0.426920 0.061653
Si Si8 0.111611 0.088268 0.233920
O O1 0.732820 0.344191 0.499268
O O2 0.325169 0.274050 0.517924
O O3 0.517307 0.318165 0.321529
O O4 0.755054 0.238978 0.390526
O O5 0.328431 0.716669 0.320133
O O6 0.607726 0.621030 0.325692
O O7 0.093707 0.602865 0.338235
O O8 0.591238 0.547123 0.853465
O O9 0.217891 0.477637 0.766550
O O10 0.064675 0.567484 0.890204
O O11 0.295203 0.468095 0.955337
O O12 0.949932 0.192262 0.527845
O O13 0.254023 0.213979 0.341711
O O14 0.956077 0.121499 0.346240
O O15 0.238008 0.285043 0.187698
O O16 0.365205 0.357083 0.031239
#
# Coordination Sequence:
#
# PCOD9242346 Si02
#       8
#     4   4   4   4   4   4   4   4
#     4  10  21  34  52  79 114 148 179 229 256 329
#     4  10  22  33  55  80 108 144 191 212 269 324
#     4  10  21  35  55  76 114 134 188 223 276 319
#     4  10  20  31  53  74 114 143 179 213 271 316
#     4  10  21  34  53  77 114 149 183 213 280 325
#     4   9  20  35  48  79 109 149 179 222 259 332
#     4  10  21  35  52  83 105 146 174 229 269 331
#     4  11  20  37  54  80 106 152 176 225 268 326
#
# _framework density 23.162870999999999
#
# number of rings (size 3 to 8) (size 9 to 14) (size 15 to 20)
#    0.000    2.000    2.500    0.750    8.750    1.000 
#    0.000    0.000    0.000    0.000    0.000    5.250 
#    0.000    0.000    0.000    0.000    0.000    0.000 
#
# Total GULP energy -178136.175581 kJ/mol
# GULP energy per Si atom -5566.755487 kJ/mol
# Density = 2.311015 g / cm^3
# Si number density = 23.162871 Si / 1000 Ang^3
#
#
#
# Elastic Constant Matrix: (Units=GPa)
#
#
# Indices 1 2 3 4 5 6 
#
# 1 83.8052 -6.6592 6.6565 0.0000 19.2272 0.0000
# 2 -6.6592 16.1566 -18.2578 0.0000 -4.5925 0.0000
# 3 6.6565 -18.2578 84.9554 0.0000 34.1522 0.0000
# 4 0.0000 0.0000 0.0000 15.5540 0.0000 7.7701
# 5 19.2272 -4.5925 34.1522 0.0000 33.6210 0.0000
# 6 0.0000 0.0000 0.0000 7.7701 0.0000 23.0266
#
#
#
# Elastic Compliance Matrix: (Units=1/GPa)
#
#
# Indices 1 2 3 4 5 6 
#
# 1 0.015444 0.009791 0.006604 0.000000 -0.014203 0.000000
# 2 0.009791 0.090571 0.027001 0.000000 -0.020655 0.000000
# 3 0.006604 0.027001 0.028889 0.000000 -0.029433 0.000000
# 4 0.000000 0.000000 0.000000 0.077327 0.000000 -0.026093
# 5 -0.014203 -0.020655 -0.029433 0.000000 0.064943 0.000000
# 6 0.000000 0.000000 0.000000 -0.026093 0.000000 0.052233
#
#
# Mechanical properties :
#
#
# Convention : Reuss Voigt Hill
#
# Bulk Modulus (GPa) = 4.51070 16.48848 10.49959
# Shear Modulus (GPa) = 15.79709 27.98547 21.89128
#
# Velocity S-wave (km/s) = 2.61435 3.47969 3.07759
# Velocity P-wave (km/s) = 3.32636 4.82476 4.14385
#
# Compressibility (1/GPa) = 0.22169524
#
# Stress axis : x y z
#
# Youngs Moduli (GPa) = 64.74801 11.04109 34.61583
#
# Poissons Ratio (x) = -0.10810 -0.22859
# Poissons Ratio (y) = -0.63395 -0.93466
# Poissons Ratio (z) = -0.42758 -0.29812
#
# Static dielectric constant tensor:
#      x y z
#    x 1.943660 0.000000 0.010390 
#    y 0.000000 1.946360 0.000000 
#    z 0.010390 0.000000 1.968460 
# 
# From -- ./inp_files/22100.got.cif
#   From: 2010.05.17/outbox.cif.g08.bks.cpg/sg14_12_cif.got.tgz:22100.got - 2010.06.03 17:49:19.
