data_PCOD9242494
_publ_section_title
;
Structure prediction by ZEFSAII (Michael W. Deem and Ramdas Pophale) SiO2 
 PCOD9242494
Probable space group: P 21/C
;
_chemical_formula_sum "Si O2"
_cell_formula_units_Z 30
_cell_length_a 19.344081
_cell_length_b 5.124327
_cell_length_c 13.428752
_cell_angle_alpha 90.000000
_cell_angle_beta 63.553731
_cell_angle_gamma 90.000000
_cell_volume 1191.830775
_symmetry_space_group_name_H-M "P 21/C"
_symmetry_group_IT_number 14
_symmetry_cell_setting 'monoclinic'
loop_
_space_group_symop_operation_xyz
x,y,z
-x,1/2+y,1/2-z
-x,-y,-z
x,1/2-y,1/2+z
loop_
_atom_site_type_symbol
_atom_site_label
_atom_site_fract_x
_atom_site_fract_y
_atom_site_fract_z
Si Si1 0.000000 0.500000 0.500000
Si Si2 0.542882 0.892882 0.112325
Si Si3 0.866152 0.338659 0.639117
Si Si4 0.330721 0.583372 0.334554
Si Si5 0.522656 0.899151 0.353623
Si Si6 0.974083 0.985059 0.669738
Si Si7 0.866123 0.862050 0.334368
Si Si8 0.767310 0.913278 0.593359
O O1 0.901946 0.517195 0.530825
O O2 0.984635 0.739558 0.593145
O O3 0.505229 0.842736 0.246622
O O4 0.537946 0.609380 0.067739
O O5 0.627010 0.995124 0.089751
O O6 0.491032 0.114100 0.096724
O O7 0.836497 0.486561 0.754837
O O8 0.955553 0.244080 0.615756
O O9 0.823695 0.081427 0.629183
O O10 0.392793 0.976084 0.707671
O O11 0.261788 0.376827 0.359855
O O12 0.304949 0.881984 0.359393
O O13 0.896103 0.925390 0.782170
O O14 0.051694 0.021235 0.681166
O O15 0.805078 0.892503 0.460691
#
# Coordination Sequence:
#
# PCOD9242494 Si02
#       8
#     2   4   4   4   4   4   4   4
#     4  10  22  38  64  84 104 136 208 262 308 352
#     4   8  13  26  51  78 117 151 191 245 277 316
#     4  11  25  40  61  83 113 152 197 260 307 362
#     4  10  20  34  52  87 126 162 189 238 296 363
#     4   8  13  26  51  78 117 151 191 245 277 316
#     4  11  22  40  62  80 108 146 211 260 305 342
#     4  11  25  39  61  84 110 156 202 260 302 362
#     4  12  26  37  59  87 129 157 195 237 314 378
#
# _framework density 25.171357
#
# number of rings (size 3 to 8) (size 9 to 14) (size 15 to 20)
#    0.800    1.067    2.667    2.000    5.600    0.000 
#    0.000    0.000    0.000    0.000    0.000    0.000 
#    0.000   85.333    0.000    0.000    0.000    0.000 
#
# Total GULP energy -167120.273995 kJ/mol
# GULP energy per Si atom -5570.675800 kJ/mol
# Density = 2.511407 g / cm^3
# Si number density = 25.171357 Si / 1000 Ang^3
#
#
#
# Elastic Constant Matrix: (Units=GPa)
#
#
# Indices 1 2 3 4 5 6 
#
# 1 31.9558 -23.5281 38.4115 0.0000 -24.3677 0.0000
# 2 -23.5281 96.5288 19.7955 0.0000 5.5648 0.0000
# 3 38.4115 19.7955 65.5200 0.0000 26.8090 0.0000
# 4 0.0000 0.0000 0.0000 40.5882 0.0000 -1.8092
# 5 -24.3677 5.5648 26.8090 0.0000 13.4538 0.0000
# 6 0.0000 0.0000 0.0000 -1.8092 0.0000 50.9359
#
#
#
# Elastic Compliance Matrix: (Units=1/GPa)
#
#
# Indices 1 2 3 4 5 6 
#
# 1 -0.001422 -0.001230 0.011109 0.000000 -0.024204 0.000000
# 2 -0.001230 0.010306 0.001422 0.000000 -0.009322 0.000000
# 3 0.011109 0.001422 0.001776 0.000000 0.015995 0.000000
# 4 0.000000 0.000000 0.000000 0.024677 0.000000 0.000877
# 5 -0.024204 -0.009322 0.015995 0.000000 0.002472 0.000000
# 6 0.000000 0.000000 0.000000 0.000877 0.000000 0.019664
#
#
# Mechanical properties :
#
#
# Convention : Reuss Voigt Hill
#
# Bulk Modulus (GPa) = 30.06488 29.26248 29.66368
# Shear Modulus (GPa) = 108.79782 31.61728 70.20755
#
# Velocity S-wave (km/s) = 6.58154 3.54797 5.28700
# Velocity P-wave (km/s) = 8.35019 5.33242 7.00572
#
# Compressibility (1/GPa) = 0.03326140
#
# Stress axis : x y z
#
# Youngs Moduli (GPa) = -703.07428 97.03254 563.19513
#
# Poissons Ratio (x) = 0.11930 -6.25660
# Poissons Ratio (y) = -0.86443 -0.80061
# Poissons Ratio (z) = 7.81054 -0.13794
#
# Static dielectric constant tensor:
#      x y z
#    x 2.202470 0.000000 0.005190 
#    y 0.000000 2.109690 0.000000 
#    z 0.005190 0.000000 2.101540 
# 
# From -- ./inp_files/49676.got.cif
#   From: 2010.05.17/outbox.cif.g08.bks.cpg/sg14_25_cif.got.tgz:49676.got - 2010.06.03 17:49:19.
