data_PCOD9242935
_publ_section_title
;
Structure prediction by ZEFSAII (Michael W. Deem and Ramdas Pophale) SiO2 
 PCOD9242935
Probable space group: P 21/C
;
_chemical_formula_sum "Si O2"
_cell_formula_units_Z 20
_cell_length_a 10.645604
_cell_length_b 8.962059
_cell_length_c 9.283203
_cell_angle_alpha 90.000000
_cell_angle_beta 76.376496
_cell_angle_gamma 90.000000
_cell_volume 860.759160
_symmetry_space_group_name_H-M "P 21/C"
_symmetry_group_IT_number 14
_symmetry_cell_setting 'monoclinic'
loop_
_space_group_symop_operation_xyz
x,y,z
-x,1/2+y,1/2-z
-x,-y,-z
x,1/2-y,1/2+z
loop_
_atom_site_type_symbol
_atom_site_label
_atom_site_fract_x
_atom_site_fract_y
_atom_site_fract_z
Si Si1 0.179491 0.011958 0.425477
Si Si2 0.125545 0.665020 0.482633
Si Si3 0.464629 0.929277 0.358922
Si Si4 0.596407 0.420038 0.582398
Si Si5 0.039958 0.486379 0.238796
O O1 0.151493 0.838973 0.470119
O O2 0.330817 0.011965 0.348802
O O3 0.133876 0.084078 0.590376
O O4 0.083340 0.044806 0.320080
O O5 0.255750 0.587306 0.505181
O O6 0.012178 0.624010 0.622869
O O7 0.103381 0.611675 0.324097
O O8 0.443188 0.751603 0.373380
O O9 0.500000 0.000000 0.500000
O O10 0.581018 0.977396 0.225787
O O11 0.500000 0.500000 0.500000
#
# Coordination Sequence:
#
# PCOD9242935 Si02
#       5
#     4   4   4   4   4
#     4  10  21  39  60  83 119 160 196 247 311 361
#     4  10  21  39  60  83 119 160 196 247 311 361
#     4  11  23  42  65  91 125 164 206 252 307 366
#     4  11  23  42  65  91 125 164 206 252 307 366
#     4  10  20  36  58  84 108 148 202 236 288 364
#
# _framework density 23.235305
#
# number of rings (size 3 to 8) (size 9 to 14) (size 15 to 20)
#    0.000    1.600    0.000    4.800    0.000    6.400 
#    0.000   40.000    0.000    0.000    0.000    0.000 
#    0.000    0.000    0.000    0.000    0.000    0.000 
#
# Total GULP energy -111745.877490 kJ/mol
# GULP energy per Si atom -5587.293875 kJ/mol
# Density = 2.318242 g / cm^3
# Si number density = 23.235305 Si / 1000 Ang^3
#
#
#
# Elastic Constant Matrix: (Units=GPa)
#
#
# Indices 1 2 3 4 5 6 
#
# 1 79.1905 15.6847 -10.0002 0.0000 8.1248 0.0000
# 2 15.6847 45.3876 13.0464 0.0000 -7.8605 0.0000
# 3 -10.0002 13.0464 90.7663 0.0000 10.2163 0.0000
# 4 0.0000 0.0000 0.0000 25.9653 0.0000 -1.3770
# 5 8.1248 -7.8605 10.2163 0.0000 44.9751 0.0000
# 6 0.0000 0.0000 0.0000 -1.3770 0.0000 28.0240
#
#
#
# Elastic Compliance Matrix: (Units=1/GPa)
#
#
# Indices 1 2 3 4 5 6 
#
# 1 0.014846 -0.006825 0.003133 0.000000 -0.004586 0.000000
# 2 -0.006825 0.027219 -0.005479 0.000000 0.007235 0.000000
# 3 0.003133 -0.005479 0.012645 0.000000 -0.004396 0.000000
# 4 0.000000 0.000000 0.000000 0.038614 0.000000 0.001897
# 5 -0.004586 0.007235 -0.004396 0.000000 0.025326 0.000000
# 6 0.000000 0.000000 0.000000 0.001897 0.000000 0.035777
#
#
# Mechanical properties :
#
#
# Convention : Reuss Voigt Hill
#
# Bulk Modulus (GPa) = 27.49702 28.08959 27.79331
# Shear Modulus (GPa) = 27.04312 32.90043 29.97178
#
# Velocity S-wave (km/s) = 3.41527 3.76702 3.59545
# Velocity P-wave (km/s) = 5.23564 5.57099 5.40592
#
# Compressibility (1/GPa) = 0.03636757
#
# Stress axis : x y z
#
# Youngs Moduli (GPa) = 67.35931 36.73941 79.08444
#
# Poissons Ratio (x) = 0.25075 -0.24776
# Poissons Ratio (y) = 0.45973 0.43327
# Poissons Ratio (z) = -0.21103 0.20128
#
# Static dielectric constant tensor:
#      x y z
#    x 1.903400 0.000000 -0.032910 
#    y 0.000000 1.832710 0.000000 
#    z -0.032910 0.000000 1.833040 
# 
# From -- ./inp_files/11759.got.cif
#   From: 2010.05.17/outbox.cif.g08.bks.cpg/sg14_6_cif.got.tgz:11759.got - 2010.06.03 17:49:19.
