data_PCOD9242813
_publ_section_title
;
Structure prediction by ZEFSAII (Michael W. Deem and Ramdas Pophale) SiO2 
 PCOD9242813
Probable space group: P 21/C
;
_chemical_formula_sum "Si O2"
_cell_formula_units_Z 24
_cell_length_a 12.809310
_cell_length_b 7.749824
_cell_length_c 22.453045
_cell_angle_alpha 90.000000
_cell_angle_beta 143.771386
_cell_angle_gamma 90.000000
_cell_volume 1317.305851
_symmetry_space_group_name_H-M "P 21/C"
_symmetry_group_IT_number 14
_symmetry_cell_setting 'monoclinic'
loop_
_space_group_symop_operation_xyz
x,y,z
-x,1/2+y,1/2-z
-x,-y,-z
x,1/2-y,1/2+z
loop_
_atom_site_type_symbol
_atom_site_label
_atom_site_fract_x
_atom_site_fract_y
_atom_site_fract_z
Si Si1 0.915925 0.648037 0.340267
Si Si2 0.917682 0.477431 0.141581
Si Si3 0.132115 0.673437 0.756923
Si Si4 0.768469 0.919069 0.450243
Si Si5 0.362372 0.911506 0.260557
Si Si6 0.913568 0.264299 0.458585
O O1 0.968664 0.485968 0.322748
O O2 0.709039 0.605712 0.257974
O O3 0.953697 0.829541 0.326313
O O4 0.022935 0.647172 0.451285
O O5 0.830019 0.394419 0.159569
O O6 0.023118 0.650480 0.207201
O O7 0.787740 0.528860 0.028222
O O8 0.300532 0.693015 0.791049
O O9 0.566024 0.884185 0.342479
O O10 0.911666 0.772802 0.500310
O O11 0.831510 0.081749 0.440454
O O12 0.236629 0.855246 0.148764
#
# Coordination Sequence:
#
# PCOD9242813 Si02
#       6
#     4   4   4   4   4   4
#     4   9  21  35  60  87 117 154 203 240 296 350
#     4  11  19  40  62  83 123 157 199 248 299 348
#     4  10  20  35  62  88 111 163 198 240 300 351
#     4  10  22  36  62  89 121 160 196 248 299 352
#     4  10  21  36  59  92 114 158 199 238 301 354
#     4  10  20  39  58  88 124 157 196 245 300 358
#
# _framework density 18.219003000000001
#
# number of rings (size 3 to 8) (size 9 to 14) (size 15 to 20)
#    1.000    1.000    3.333    0.500    2.333    0.667 
#    0.000    0.000    7.333    2.000    0.000    0.000 
#    0.000    0.000    0.000    0.000    0.000    0.000 
#
# Total GULP energy -133603.963658 kJ/mol
# GULP energy per Si atom -5566.831819 kJ/mol
# Density = 1.817754 g / cm^3
# Si number density = 18.219003 Si / 1000 Ang^3
#
#
#
# Elastic Constant Matrix: (Units=GPa)
#
#
# Indices 1 2 3 4 5 6 
#
# 1 67.0818 10.5146 49.1688 0.0000 -10.5689 0.0000
# 2 10.5146 77.4583 27.2044 0.0000 -4.8622 0.0000
# 3 49.1688 27.2044 86.2620 0.0000 3.0675 0.0000
# 4 0.0000 0.0000 0.0000 17.2744 0.0000 -7.5434
# 5 -10.5689 -4.8622 3.0675 0.0000 36.4240 0.0000
# 6 0.0000 0.0000 0.0000 -7.5434 0.0000 17.1924
#
#
#
# Elastic Compliance Matrix: (Units=1/GPa)
#
#
# Indices 1 2 3 4 5 6 
#
# 1 0.029271 0.003002 -0.018001 0.000000 0.010410 0.000000
# 2 0.003002 0.015026 -0.006572 0.000000 0.003431 0.000000
# 3 -0.018001 -0.006572 0.024215 0.000000 -0.008140 0.000000
# 4 0.000000 0.000000 0.000000 0.071609 0.000000 0.031420
# 5 0.010410 0.003431 -0.008140 0.000000 0.031619 0.000000
# 6 0.000000 0.000000 0.000000 0.031420 0.000000 0.071951
#
#
# Mechanical properties :
#
#
# Convention : Reuss Voigt Hill
#
# Bulk Modulus (GPa) = 39.41600 44.95307 42.18453
# Shear Modulus (GPa) = 16.93244 23.77243 20.35243
#
# Velocity S-wave (km/s) = 3.05189 3.61614 3.34593
# Velocity P-wave (km/s) = 5.83954 6.49327 6.17506
#
# Compressibility (1/GPa) = 0.02537041
#
# Stress axis : x y z
#
# Youngs Moduli (GPa) = 34.16322 66.55055 41.29598
#
# Poissons Ratio (x) = -0.19981 0.74339
# Poissons Ratio (y) = -0.10257 0.27140
# Poissons Ratio (z) = 0.61499 0.43738
#
# Static dielectric constant tensor:
#      x y z
#    x 1.657940 0.000000 -0.024620 
#    y 0.000000 1.670070 0.000000 
#    z -0.024620 0.000000 1.594010 
# 
# From -- ./inp_files/66933.got.cif
#   From: 2010.05.17/outbox.cif.g08.bks.cpg/sg14_34_cif.got.tgz:66933.got - 2010.06.03 17:49:19.
