data_PCOD9242301
_publ_section_title
;
Structure prediction by ZEFSAII (Michael W. Deem and Ramdas Pophale) SiO2 
 PCOD9242301
Probable space group: P 21/C
;
_chemical_formula_sum "Si O2"
_cell_formula_units_Z 20
_cell_length_a 7.213168
_cell_length_b 7.998757
_cell_length_c 14.694203
_cell_angle_alpha 90.000000
_cell_angle_beta 58.601506
_cell_angle_gamma 90.000000
_cell_volume 723.653932
_symmetry_space_group_name_H-M "P 21/C"
_symmetry_group_IT_number 14
_symmetry_cell_setting 'monoclinic'
loop_
_space_group_symop_operation_xyz
x,y,z
-x,1/2+y,1/2-z
-x,-y,-z
x,1/2-y,1/2+z
loop_
_atom_site_type_symbol
_atom_site_label
_atom_site_fract_x
_atom_site_fract_y
_atom_site_fract_z
Si Si1 0.273015 0.178201 0.092716
Si Si2 0.384751 0.859322 0.593231
Si Si3 0.578494 0.627349 0.772718
Si Si4 0.089870 0.644062 0.908165
Si Si5 0.042287 0.655171 0.589992
O O1 0.387467 0.229752 0.157635
O O2 0.086404 0.316388 0.122525
O O3 0.149504 0.006075 0.108513
O O4 0.455551 0.204346 0.967901
O O5 0.148224 0.805790 0.621132
O O6 0.500000 0.000000 0.500000
O O7 0.383717 0.946141 0.690077
O O8 0.328762 0.616032 0.807996
O O9 0.783166 0.656541 0.657002
O O10 0.108730 0.805496 0.969782
O O11 0.000000 0.500000 0.000000
#
# Coordination Sequence:
#
# PCOD9242301 Si02
#       5
#     4   4   4   4   4
#     4  11  23  43  70  96 136 179 226 281 338 395
#     4  10  19  42  68  88 131 180 208 268 344 389
#     4  11  24  45  68 101 136 178 230 275 339 404
#     4  12  24  45  69  95 140 184 216 280 349 400
#     4  12  24  42  70 103 135 176 234 280 329 406
#
# _framework density 27.637519999999999
#
# number of rings (size 3 to 8) (size 9 to 14) (size 15 to 20)
#    0.000    0.800    6.000    3.600    0.000    1.600 
#    3.600    0.000    0.000    0.000    0.000    0.000 
#    0.000    0.000    0.000    0.000    0.000    0.000 
#
# Total GULP energy -112149.454687 kJ/mol
# GULP energy per Si atom -5607.472734 kJ/mol
# Density = 2.757462 g / cm^3
# Si number density = 27.637520 Si / 1000 Ang^3
#
#
#
# Elastic Constant Matrix: (Units=GPa)
#
#
# Indices 1 2 3 4 5 6 
#
# 1 117.0379 9.2339 41.0048 0.0000 -48.8511 0.0000
# 2 9.2339 114.4320 21.2309 0.0000 -7.5269 0.0000
# 3 41.0048 21.2309 123.6709 0.0000 -48.4673 0.0000
# 4 0.0000 0.0000 0.0000 35.2951 0.0000 1.2217
# 5 -48.8511 -7.5269 -48.4673 0.0000 58.3094 0.0000
# 6 0.0000 0.0000 0.0000 1.2217 0.0000 39.8406
#
#
#
# Elastic Compliance Matrix: (Units=1/GPa)
#
#
# Indices 1 2 3 4 5 6 
#
# 1 0.013152 -0.000339 -0.000002 0.000000 0.010973 0.000000
# 2 -0.000339 0.009036 -0.001621 0.000000 -0.000465 0.000000
# 3 -0.000002 -0.001621 0.012284 0.000000 0.009999 0.000000
# 4 0.000000 0.000000 0.000000 0.028363 0.000000 -0.000870
# 5 0.010973 -0.000465 0.009999 0.000000 0.034594 0.000000
# 6 0.000000 0.000000 0.000000 -0.000870 0.000000 0.025127
#
#
# Mechanical properties :
#
#
# Convention : Reuss Voigt Hill
#
# Bulk Modulus (GPa) = 32.73623 55.34223 44.03923
# Shear Modulus (GPa) = 36.58641 45.60045 41.09343
#
# Velocity S-wave (km/s) = 3.64235 4.06636 3.86018
# Velocity P-wave (km/s) = 5.43686 6.48959 5.98641
#
# Compressibility (1/GPa) = 0.03054720
#
# Stress axis : x y z
#
# Youngs Moduli (GPa) = 76.03530 110.66407 81.40819
#
# Poissons Ratio (x) = 0.03753 0.00017
# Poissons Ratio (y) = 0.02578 0.13197
# Poissons Ratio (z) = 0.00016 0.17940
#
# Static dielectric constant tensor:
#      x y z
#    x 2.127050 0.000000 0.027720 
#    y 0.000000 2.288960 0.000000 
#    z 0.027720 0.000000 2.134000 
# 
# From -- ./inp_files/64455.got.cif
#   From: 2010.05.17/outbox.cif.g08.bks.cpg/sg14_33_cif.got.tgz:64455.got - 2010.06.03 17:49:19.
