data_PCOD9242593
_publ_section_title
;
Structure prediction by ZEFSAII (Michael W. Deem and Ramdas Pophale) SiO2 
 PCOD9242593
Probable space group: P 21/C
;
_chemical_formula_sum "Si O2"
_cell_formula_units_Z 28
_cell_length_a 14.981444
_cell_length_b 15.129991
_cell_length_c 8.542974
_cell_angle_alpha 90.000000
_cell_angle_beta 138.278035
_cell_angle_gamma 90.000000
_cell_volume 1288.725084
_symmetry_space_group_name_H-M "P 21/C"
_symmetry_group_IT_number 14
_symmetry_cell_setting 'monoclinic'
loop_
_space_group_symop_operation_xyz
x,y,z
-x,1/2+y,1/2-z
-x,-y,-z
x,1/2-y,1/2+z
loop_
_atom_site_type_symbol
_atom_site_label
_atom_site_fract_x
_atom_site_fract_y
_atom_site_fract_z
Si Si1 0.355133 0.724321 0.605490
Si Si2 0.411244 0.621663 0.995563
Si Si3 0.219162 0.038389 0.273517
Si Si4 0.379255 0.048147 0.034189
Si Si5 0.987568 0.466381 0.246088
Si Si6 0.419576 0.384540 0.256708
Si Si7 0.136388 0.909753 0.727737
O O1 0.353982 0.828618 0.575301
O O2 0.475964 0.690024 0.653560
O O3 0.217879 0.678318 0.371544
O O4 0.387936 0.684484 0.817248
O O5 0.564620 0.598931 0.240352
O O6 0.325186 0.533996 0.849671
O O7 0.127579 0.986453 0.280148
O O8 0.299219 0.111475 0.475697
O O9 0.116900 0.069925 0.007004
O O10 0.497308 0.975916 0.160398
O O11 0.373413 0.111742 0.875703
O O12 0.245517 0.990047 0.867477
O O13 0.033344 0.559115 0.225899
O O14 0.934912 0.408281 0.033406
#
# Coordination Sequence:
#
# PCOD9242593 Si02
#       7
#     4   4   4   4   4   4   4
#     4  11  23  36  57  83 114 147 182 234 291 337
#     4  11  23  36  57  83 114 147 182 234 291 337
#     4  10  20  36  59  87 113 143 194 232 273 324
#     4   9  18  33  56  82 109 139 178 229 278 322
#     4  10  20  34  58  86 110 146 184 234 270 324
#     4   9  18  33  56  82 109 139 178 229 278 322
#     4  10  20  36  59  87 113 143 194 232 273 324
#
# _framework density 21.726900000000001
#
# number of rings (size 3 to 8) (size 9 to 14) (size 15 to 20)
#    0.000    2.000    2.857    0.857    6.000    1.714 
#    0.000    0.000    0.000   10.286    0.000    0.000 
#    0.000    0.000    0.000    0.000    0.000    0.000 
#
# Total GULP energy -156397.409756 kJ/mol
# GULP energy per Si atom -5585.621777 kJ/mol
# Density = 2.167745 g / cm^3
# Si number density = 21.726900 Si / 1000 Ang^3
#
#
#
# Elastic Constant Matrix: (Units=GPa)
#
#
# Indices 1 2 3 4 5 6 
#
# 1 51.7652 3.3800 20.2522 0.0000 -12.2089 0.0000
# 2 3.3800 36.3002 35.7670 0.0000 -2.0800 0.0000
# 3 20.2522 35.7670 166.2751 0.0000 -23.7789 0.0000
# 4 0.0000 0.0000 0.0000 18.7799 0.0000 -4.1128
# 5 -12.2089 -2.0800 -23.7789 0.0000 24.0838 0.0000
# 6 0.0000 0.0000 0.0000 -4.1128 0.0000 22.6940
#
#
#
# Elastic Compliance Matrix: (Units=1/GPa)
#
#
# Indices 1 2 3 4 5 6 
#
# 1 0.022173 -0.000307 -0.001200 0.000000 0.010029 0.000000
# 2 -0.000307 0.035514 -0.008367 0.000000 -0.005350 0.000000
# 3 -0.001200 -0.008367 0.009047 0.000000 0.007602 0.000000
# 4 0.000000 0.000000 0.000000 0.055449 0.000000 0.010049
# 5 0.010029 -0.005350 0.007602 0.000000 0.053649 0.000000
# 6 0.000000 0.000000 0.000000 0.010049 0.000000 0.045886
#
#
# Mechanical properties :
#
#
# Convention : Reuss Voigt Hill
#
# Bulk Modulus (GPa) = 21.28330 41.45988 31.37159
# Shear Modulus (GPa) = 19.44549 26.10763 22.77656
#
# Velocity S-wave (km/s) = 2.99489 3.47021 3.24128
# Velocity P-wave (km/s) = 4.66651 5.93129 5.33650
#
# Compressibility (1/GPa) = 0.04698520
#
# Stress axis : x y z
#
# Youngs Moduli (GPa) = 45.10002 28.15773 110.53098
#
# Poissons Ratio (x) = 0.00865 0.13268
# Poissons Ratio (y) = 0.01385 0.92481
# Poissons Ratio (z) = 0.05414 0.23560
#
# Static dielectric constant tensor:
#      x y z
#    x 1.846770 0.000000 -0.028160 
#    y 0.000000 1.774100 0.000000 
#    z -0.028160 0.000000 1.831620 
# 
# From -- ./inp_files/16681.got.cif
#   From: 2010.05.17/outbox.cif.g08.bks.cpg/sg14_9_cif.got.tgz:16681.got - 2010.06.03 17:49:19.
