data_PCOD9242811
_publ_section_title
;
Structure prediction by ZEFSAII (Michael W. Deem and Ramdas Pophale) SiO2 
 PCOD9242811
Probable space group: P 21/C
;
_chemical_formula_sum "Si O2"
_cell_formula_units_Z 32
_cell_length_a 17.802836
_cell_length_b 17.706093
_cell_length_c 12.464224
_cell_angle_alpha 90.000000
_cell_angle_beta 27.286372
_cell_angle_gamma 90.000000
_cell_volume 1801.183492
_symmetry_space_group_name_H-M "P 21/C"
_symmetry_group_IT_number 14
_symmetry_cell_setting 'monoclinic'
loop_
_space_group_symop_operation_xyz
x,y,z
-x,1/2+y,1/2-z
-x,-y,-z
x,1/2-y,1/2+z
loop_
_atom_site_type_symbol
_atom_site_label
_atom_site_fract_x
_atom_site_fract_y
_atom_site_fract_z
Si Si1 0.969430 0.196662 0.864681
Si Si2 0.456601 0.015032 0.431148
Si Si3 0.314466 0.642904 0.426329
Si Si4 0.095442 0.419666 0.381193
Si Si5 0.309873 0.779035 0.152436
Si Si6 0.471696 0.145476 0.724055
Si Si7 0.177587 0.191742 0.950690
Si Si8 0.551250 0.772869 0.029889
O O1 0.053624 0.134353 0.833671
O O2 0.084615 0.250701 0.647421
O O3 0.847159 0.153964 0.938774
O O4 0.856031 0.250266 0.082735
O O5 0.603422 0.062486 0.193836
O O6 0.287492 0.059995 0.637638
O O7 0.500000 0.000000 0.500000
O O8 0.444006 0.935116 0.389012
O O9 0.283939 0.663922 0.588135
O O10 0.446182 0.702628 0.210312
O O11 0.068493 0.367751 0.521918
O O12 0.000000 0.500000 0.500000
O O13 0.436053 0.807351 0.083163
O O14 0.402057 0.706406 0.984735
O O15 0.312452 0.147584 0.850212
O O16 0.423223 0.171098 0.904198
O O17 0.282814 0.240853 0.731861
#
# Coordination Sequence:
#
# PCOD9242811 Si02
#       8
#     4   4   4   4   4   4   4   4
#     4  11  23  36  61  91 120 158 201 254 304 364
#     4  12  21  38  60  86 117 159 196 245 310 361
#     4  10  20  37  60  83 118 155 197 242 300 355
#     4  12  24  37  60  95 127 154 207 263 311 361
#     4   9  19  37  59  85 115 153 202 248 293 357
#     4  10  20  35  62  86 116 153 200 244 299 364
#     4  11  21  37  62  87 124 156 200 253 309 358
#     4   9  18  36  61  88 111 154 204 244 289 363
#
# _framework density 17.766096999999998
#
# number of rings (size 3 to 8) (size 9 to 14) (size 15 to 20)
#    0.000    1.500    2.500    4.500    3.500    2.000 
#    0.000    0.625    2.750    1.500    0.000    0.000 
#    0.000    0.000    0.000    0.000    0.000    0.000 
#
# Total GULP energy -178671.393790 kJ/mol
# GULP energy per Si atom -5583.481056 kJ/mol
# Density = 1.772566 g / cm^3
# Si number density = 17.766097 Si / 1000 Ang^3
#
#
#
# Elastic Constant Matrix: (Units=GPa)
#
#
# Indices 1 2 3 4 5 6 
#
# 1 108.5846 55.5118 41.1886 0.0000 22.4207 0.0000
# 2 55.5118 77.5596 24.3095 0.0000 8.1130 0.0000
# 3 41.1886 24.3095 80.9411 0.0000 9.8731 0.0000
# 4 0.0000 0.0000 0.0000 19.6611 0.0000 -2.8991
# 5 22.4207 8.1130 9.8731 0.0000 27.8652 0.0000
# 6 0.0000 0.0000 0.0000 -2.8991 0.0000 27.0740
#
#
#
# Elastic Compliance Matrix: (Units=1/GPa)
#
#
# Indices 1 2 3 4 5 6 
#
# 1 0.018718 -0.010751 -0.005060 0.000000 -0.010138 0.000000
# 2 -0.010751 0.020612 -0.001090 0.000000 0.003035 0.000000
# 3 -0.005060 -0.001090 0.015386 0.000000 -0.001063 0.000000
# 4 0.000000 0.000000 0.000000 0.051678 0.000000 0.005534
# 5 -0.010138 0.003035 -0.001063 0.000000 0.043537 0.000000
# 6 0.000000 0.000000 0.000000 0.005534 0.000000 0.037528
#
#
# Mechanical properties :
#
#
# Convention : Reuss Voigt Hill
#
# Bulk Modulus (GPa) = 47.81081 56.56724 52.18903
# Shear Modulus (GPa) = 21.90743 24.65842 23.28292
#
# Velocity S-wave (km/s) = 3.51537 3.72956 3.62405
# Velocity P-wave (km/s) = 6.59142 7.10319 6.85208
#
# Compressibility (1/GPa) = 0.02091577
#
# Stress axis : x y z
#
# Youngs Moduli (GPa) = 53.42415 48.51502 64.99235
#
# Poissons Ratio (x) = 0.52158 0.32884
# Poissons Ratio (y) = 0.57435 0.07084
# Poissons Ratio (z) = 0.27031 0.05288
#
# Static dielectric constant tensor:
#      x y z
#    x 1.630480 0.000000 -0.020990 
#    y 0.000000 1.595570 0.000000 
#    z -0.020990 0.000000 1.678310 
# 
# From -- ./inp_files/34346.got.cif
#   From: 2010.05.17/outbox.cif.g08.bks.cpg/sg14_18_cif.got.tgz:34346.got - 2010.06.03 17:49:19.
