data_PCOD9242001
_publ_section_title
;
Structure prediction by ZEFSAII (Michael W. Deem and Ramdas Pophale) SiO2 
 PCOD9242001
Probable space group: P 21/C
;
_chemical_formula_sum "Si O2"
_cell_formula_units_Z 24
_cell_length_a 17.624244
_cell_length_b 6.644971
_cell_length_c 14.723267
_cell_angle_alpha 90.000000
_cell_angle_beta 33.178172
_cell_angle_gamma 90.000000
_cell_volume 943.602541
_symmetry_space_group_name_H-M "P 21/C"
_symmetry_group_IT_number 14
_symmetry_cell_setting 'monoclinic'
loop_
_space_group_symop_operation_xyz
x,y,z
-x,1/2+y,1/2-z
-x,-y,-z
x,1/2-y,1/2+z
loop_
_atom_site_type_symbol
_atom_site_label
_atom_site_fract_x
_atom_site_fract_y
_atom_site_fract_z
Si Si1 0.712370 0.207861 0.523845
Si Si2 0.495364 0.248244 0.102635
Si Si3 0.001416 0.684152 0.345100
Si Si4 0.340982 0.642059 0.227403
Si Si5 0.212017 0.259995 0.804830
Si Si6 0.167915 0.193327 0.655040
O O1 0.579466 0.304466 0.607987
O O2 0.854548 0.278251 0.333284
O O3 0.714568 0.252957 0.627612
O O4 0.721072 0.968862 0.493384
O O5 0.462299 0.488564 0.137970
O O6 0.344267 0.163821 0.229757
O O7 0.595600 0.224670 0.915790
O O8 0.043907 0.451994 0.316410
O O9 0.930483 0.796559 0.499945
O O10 0.892267 0.694893 0.371735
O O11 0.233294 0.484390 0.290906
O O12 0.218460 0.310948 0.692715
#
# Coordination Sequence:
#
# PCOD9242001 Si02
#       6
#     4   4   4   4   4   4
#     4  10  20  34  63  87 124 149 202 263 291 361
#     4   9  19  35  60  89 107 162 203 240 307 360
#     4  10  22  35  62  91 119 162 202 249 306 354
#     4   9  17  36  59  88 113 158 202 248 295 365
#     4  10  19  38  65  83 119 160 208 240 300 380
#     4  10  21  38  60  89 117 162 200 249 296 369
#
# _framework density 25.434436999999999
#
# number of rings (size 3 to 8) (size 9 to 14) (size 15 to 20)
#    2.000    0.333    1.667    1.500    0.000    4.000 
#    0.000    0.833    3.667    2.000    0.000    0.000 
#    0.000    0.000    0.000    0.000    0.000    0.000 
#
# Total GULP energy -133961.481141 kJ/mol
# GULP energy per Si atom -5581.728381 kJ/mol
# Density = 2.537655 g / cm^3
# Si number density = 25.434437 Si / 1000 Ang^3
#
#
#
# Elastic Constant Matrix: (Units=GPa)
#
#
# Indices 1 2 3 4 5 6 
#
# 1 124.1824 18.1132 23.5453 0.0000 9.4077 0.0000
# 2 18.1132 50.7668 15.9471 0.0000 -0.1492 0.0000
# 3 23.5453 15.9471 117.4232 0.0000 12.9026 0.0000
# 4 0.0000 0.0000 0.0000 13.5179 0.0000 7.9110
# 5 9.4077 -0.1492 12.9026 0.0000 33.9850 0.0000
# 6 0.0000 0.0000 0.0000 7.9110 0.0000 22.9622
#
#
#
# Elastic Compliance Matrix: (Units=1/GPa)
#
#
# Indices 1 2 3 4 5 6 
#
# 1 0.008834 -0.002790 -0.001171 0.000000 -0.002013 0.000000
# 2 -0.002790 0.021504 -0.002563 0.000000 0.001840 0.000000
# 3 -0.001171 -0.002563 0.009459 0.000000 -0.003278 0.000000
# 4 0.000000 0.000000 0.000000 0.092658 0.000000 -0.031923
# 5 -0.002013 0.001840 -0.003278 0.000000 0.031235 0.000000
# 6 0.000000 0.000000 0.000000 -0.031923 0.000000 0.054548
#
#
# Mechanical properties :
#
#
# Convention : Reuss Voigt Hill
#
# Bulk Modulus (GPa) = 37.38502 45.28707 41.33604
# Shear Modulus (GPa) = 20.81571 29.74414 25.27993
#
# Velocity S-wave (km/s) = 2.86388 3.42342 3.15608
# Velocity P-wave (km/s) = 5.06619 5.78537 5.43768
#
# Compressibility (1/GPa) = 0.02674868
#
# Stress axis : x y z
#
# Youngs Moduli (GPa) = 113.19650 46.50314 105.71504
#
# Poissons Ratio (x) = 0.12974 0.12382
# Poissons Ratio (y) = 0.31581 0.27096
# Poissons Ratio (z) = 0.13259 0.11919
#
# Static dielectric constant tensor:
#      x y z
#    x 1.944850 0.000000 -0.034840 
#    y 0.000000 2.059470 0.000000 
#    z -0.034840 0.000000 1.988240 
# 
# From -- ./inp_files/48276.got.cif
#   From: 2010.05.17/outbox.cif.g08.bks.cpg/sg14_25_cif.got.tgz:48276.got - 2010.06.03 17:49:19.
