data_PCOD9242968
_publ_section_title
;
Structure prediction by ZEFSAII (Michael W. Deem and Ramdas Pophale) SiO2 
 PCOD9242968
Probable space group: P 21/C
;
_chemical_formula_sum "Si O2"
_cell_formula_units_Z 24
_cell_length_a 15.312970
_cell_length_b 7.095997
_cell_length_c 18.186626
_cell_angle_alpha 90.000000
_cell_angle_beta 149.877015
_cell_angle_gamma 90.000000
_cell_volume 991.757831
_symmetry_space_group_name_H-M "P 21/C"
_symmetry_group_IT_number 14
_symmetry_cell_setting 'monoclinic'
loop_
_space_group_symop_operation_xyz
x,y,z
-x,1/2+y,1/2-z
-x,-y,-z
x,1/2-y,1/2+z
loop_
_atom_site_type_symbol
_atom_site_label
_atom_site_fract_x
_atom_site_fract_y
_atom_site_fract_z
Si Si1 0.476424 0.853331 0.078887
Si Si2 0.787832 0.616300 0.068448
Si Si3 0.208933 0.324259 0.095792
Si Si4 0.438094 0.767193 0.395574
Si Si5 0.142178 0.680159 0.412048
Si Si6 0.870513 0.229779 0.931406
O O1 0.598834 0.780193 0.233557
O O2 0.574558 0.039185 0.121353
O O3 0.453502 0.709971 0.994440
O O4 0.290211 0.923540 0.972838
O O5 0.797863 0.395100 0.057576
O O6 0.951735 0.658950 0.239659
O O7 0.805942 0.712140 0.001691
O O8 0.608644 0.667493 0.977097
O O9 0.170040 0.548263 0.080368
O O10 0.061887 0.221901 0.036501
O O11 0.267919 0.839538 0.229780
O O12 0.145590 0.636115 0.500641
#
# Coordination Sequence:
#
# PCOD9242968 Si02
#       6
#     4   4   4   4   4   4
#     4  10  20  36  59  83 109 143 181 222 271 325
#     4  11  22  36  56  81 111 145 182 225 270 319
#     4   9  18  34  56  81 108 141 181 222 267 321
#     4  10  20  36  59  83 109 143 181 222 271 325
#     4  11  22  36  56  81 111 145 182 225 270 319
#     4   9  18  34  56  81 108 141 181 222 267 321
#
# _framework density 24.199458
#
# number of rings (size 3 to 8) (size 9 to 14) (size 15 to 20)
#    0.000    2.000    0.000    4.000    0.000    6.000 
#    0.000    1.667    0.000    7.000    0.000    0.000 
#    0.000    0.000    0.000    0.000    0.000    0.000 
#
# Total GULP energy -134350.304491 kJ/mol
# GULP energy per Si atom -5597.929354 kJ/mol
# Density = 2.414438 g / cm^3
# Si number density = 24.199458 Si / 1000 Ang^3
#
#
#
# Elastic Constant Matrix: (Units=GPa)
#
#
# Indices 1 2 3 4 5 6 
#
# 1 121.0678 3.5879 43.6758 0.0000 -15.3234 0.0000
# 2 3.5879 69.0845 -10.2364 0.0000 -6.4986 0.0000
# 3 43.6758 -10.2364 167.9609 0.0000 -9.8641 0.0000
# 4 0.0000 0.0000 0.0000 22.2728 0.0000 5.4800
# 5 -15.3234 -6.4986 -9.8641 0.0000 46.2386 0.0000
# 6 0.0000 0.0000 0.0000 5.4800 0.0000 27.8338
#
#
#
# Elastic Compliance Matrix: (Units=1/GPa)
#
#
# Indices 1 2 3 4 5 6 
#
# 1 0.009445 -0.000598 -0.002343 0.000000 0.002546 0.000000
# 2 -0.000598 0.014884 0.001189 0.000000 0.002147 0.000000
# 3 -0.002343 0.001189 0.006683 0.000000 0.000816 0.000000
# 4 0.000000 0.000000 0.000000 0.047183 0.000000 -0.009290
# 5 0.002546 0.002147 0.000816 0.000000 0.022947 0.000000
# 6 0.000000 0.000000 0.000000 -0.009290 0.000000 0.037756
#
#
# Mechanical properties :
#
#
# Convention : Reuss Voigt Hill
#
# Bulk Modulus (GPa) = 36.35314 48.01867 42.18590
# Shear Modulus (GPa) = 32.98733 40.67478 36.83106
#
# Velocity S-wave (km/s) = 3.69608 4.10422 3.90549
# Velocity P-wave (km/s) = 5.76798 6.50734 6.14878
#
# Compressibility (1/GPa) = 0.02750794
#
# Stress axis : x y z
#
# Youngs Moduli (GPa) = 105.87534 67.18522 149.62401
#
# Poissons Ratio (x) = 0.04019 0.35057
# Poissons Ratio (y) = 0.06333 -0.17787
# Poissons Ratio (z) = 0.24806 -0.07987
#
# Static dielectric constant tensor:
#      x y z
#    x 1.881020 0.000000 -0.012490 
#    y 0.000000 2.092140 0.000000 
#    z -0.012490 0.000000 1.868800 
# 
# From -- ./inp_files/58990.got.cif
#   From: 2010.05.17/outbox.cif.g08.bks.cpg/sg14_30_cif.got.tgz:58990.got - 2010.06.03 17:49:19.
