data_PCOD9242156
_publ_section_title
;
Structure prediction by ZEFSAII (Michael W. Deem and Ramdas Pophale) SiO2 
 PCOD9242156
Probable space group: P 21/C
;
_chemical_formula_sum "Si O2"
_cell_formula_units_Z 28
_cell_length_a 5.521449
_cell_length_b 13.434642
_cell_length_c 19.261174
_cell_angle_alpha 90.000000
_cell_angle_beta 111.173131
_cell_angle_gamma 90.000000
_cell_volume 1332.317186
_symmetry_space_group_name_H-M "P 21/C"
_symmetry_group_IT_number 14
_symmetry_cell_setting 'monoclinic'
loop_
_space_group_symop_operation_xyz
x,y,z
-x,1/2+y,1/2-z
-x,-y,-z
x,1/2-y,1/2+z
loop_
_atom_site_type_symbol
_atom_site_label
_atom_site_fract_x
_atom_site_fract_y
_atom_site_fract_z
Si Si1 0.473258 0.990278 0.141437
Si Si2 0.938187 0.514021 0.776301
Si Si3 0.472112 0.847767 0.953587
Si Si4 0.242585 0.820785 0.673125
Si Si5 0.812345 0.215367 0.681291
Si Si6 0.242398 0.357010 0.721056
Si Si7 0.912738 0.333020 0.454866
O O1 0.687947 0.937587 0.212039
O O2 0.585023 0.041922 0.083870
O O3 0.394905 0.087093 0.177126
O O4 0.224852 0.923251 0.101178
O O5 0.854599 0.434435 0.826232
O O6 0.145632 0.597871 0.815786
O O7 0.054048 0.440391 0.731114
O O8 0.406351 0.761597 0.890457
O O9 0.274843 0.828429 0.996944
O O10 0.781248 0.847968 0.000511
O O11 0.203651 0.757314 0.741054
O O12 0.553719 0.826395 0.698923
O O13 0.118390 0.763875 0.596536
O O14 0.077683 0.264185 0.679758
#
# Coordination Sequence:
#
# PCOD9242156 Si02
#       7
#     4   4   4   4   4   4   4
#     4  11  22  42  65 106 132 180 220 289 349 412
#     4  10  22  38  73 100 126 178 242 287 333 395
#     4  12  26  44  65 102 147 177 221 280 354 415
#     4  10  23  43  65  97 132 178 241 279 330 419
#     4  11  22  42  69  94 136 181 227 286 336 408
#     4  10  19  39  69  95 135 164 239 285 333 394
#     4  12  28  42  70 100 144 184 216 283 355 411
#
# _framework density 21.016014999999999
#
# number of rings (size 3 to 8) (size 9 to 14) (size 15 to 20)
#    0.000    1.143    4.286    3.429    8.000    1.143 
#    0.000    1.429    0.000    0.000    0.000    0.000 
#    0.000    0.000    0.000    0.000    0.000    0.000 
#
# Total GULP energy -156266.175424 kJ/mol
# GULP energy per Si atom -5580.934837 kJ/mol
# Density = 2.096818 g / cm^3
# Si number density = 21.016015 Si / 1000 Ang^3
#
#
#
# Elastic Constant Matrix: (Units=GPa)
#
#
# Indices 1 2 3 4 5 6 
#
# 1 81.9866 8.7328 23.0685 0.0000 13.6160 0.0000
# 2 8.7328 94.2587 24.5811 0.0000 17.3350 0.0000
# 3 23.0685 24.5811 57.4205 0.0000 18.6611 0.0000
# 4 0.0000 0.0000 0.0000 32.1075 0.0000 14.3980
# 5 13.6160 17.3350 18.6611 0.0000 37.7865 0.0000
# 6 0.0000 0.0000 0.0000 14.3980 0.0000 20.5146
#
#
#
# Elastic Compliance Matrix: (Units=1/GPa)
#
#
# Indices 1 2 3 4 5 6 
#
# 1 0.013999 0.000509 -0.004916 0.000000 -0.002850 0.000000
# 2 0.000509 0.012367 -0.004283 0.000000 -0.003742 0.000000
# 3 -0.004916 -0.004283 0.023835 0.000000 -0.008035 0.000000
# 4 0.000000 0.000000 0.000000 0.045450 0.000000 -0.031899
# 5 -0.002850 -0.003742 -0.008035 0.000000 0.033176 0.000000
# 6 0.000000 0.000000 0.000000 -0.031899 0.000000 0.071134
#
#
# Mechanical properties :
#
#
# Convention : Reuss Voigt Hill
#
# Bulk Modulus (GPa) = 30.46668 38.49229 34.47949
# Shear Modulus (GPa) = 21.90287 29.90060 25.90173
#
# Velocity S-wave (km/s) = 3.23181 3.77603 3.51447
# Velocity P-wave (km/s) = 5.33428 6.11283 5.73678
#
# Compressibility (1/GPa) = 0.03282274
#
# Stress axis : x y z
#
# Youngs Moduli (GPa) = 71.43152 80.86076 41.95523
#
# Poissons Ratio (x) = -0.04117 0.20625
# Poissons Ratio (y) = -0.03637 0.17968
# Poissons Ratio (z) = 0.35115 0.34630
#
# Static dielectric constant tensor:
#      x y z
#    x 1.842530 0.000000 -0.026540 
#    y 0.000000 1.732700 0.000000 
#    z -0.026540 0.000000 1.829990 
# 
# From -- ./inp_files/53517.got.cif
#   From: 2010.05.17/outbox.cif.g08.bks.cpg/sg14_27_cif.got.tgz:53517.got - 2010.06.03 17:49:19.
