data_PCOD9242977
_publ_section_title
;
Structure prediction by ZEFSAII (Michael W. Deem and Ramdas Pophale) SiO2 
 PCOD9242977
Probable space group: P 21/C
;
_chemical_formula_sum "Si O2"
_cell_formula_units_Z 20
_cell_length_a 7.166901
_cell_length_b 13.348113
_cell_length_c 16.411429
_cell_angle_alpha 90.000000
_cell_angle_beta 31.999134
_cell_angle_gamma 90.000000
_cell_volume 831.949339
_symmetry_space_group_name_H-M "P 21/C"
_symmetry_group_IT_number 14
_symmetry_cell_setting 'monoclinic'
loop_
_space_group_symop_operation_xyz
x,y,z
-x,1/2+y,1/2-z
-x,-y,-z
x,1/2-y,1/2+z
loop_
_atom_site_type_symbol
_atom_site_label
_atom_site_fract_x
_atom_site_fract_y
_atom_site_fract_z
Si Si1 0.480480 0.232913 0.159653
Si Si2 0.041357 0.135439 0.455090
Si Si3 0.126770 0.561677 0.822598
Si Si4 0.911454 0.896137 0.989558
Si Si5 0.178871 0.433189 0.654014
O O1 0.211132 0.216522 0.331883
O O2 0.331262 0.166941 0.140772
O O3 0.826903 0.180881 0.067178
O O4 0.619563 0.345720 0.096336
O O5 0.093217 0.132170 0.534156
O O6 0.185981 0.032640 0.361758
O O7 0.490876 0.615292 0.660572
O O8 0.995170 0.504147 0.789862
O O9 0.012908 0.901942 0.856920
O O10 0.000000 0.000000 0.000000
O O11 0.500000 0.500000 0.500000
#
# Coordination Sequence:
#
# PCOD9242977 Si02
#       5
#     4   4   4   4   4
#     4  11  21  37  61  85 123 156 201 251 299 358
#     4  10  20  36  59  84 117 161 194 247 300 345
#     4   9  19  37  59  84 121 154 200 243 293 364
#     4  11  18  36  66  88 114 159 194 244 307 361
#     4   9  18  35  59  88 115 151 198 241 296 359
#
# _framework density 24.039923999999999
#
# number of rings (size 3 to 8) (size 9 to 14) (size 15 to 20)
#    0.000    2.000    6.000    1.200    0.000    0.000 
#    0.000   13.000    0.000    0.000    0.000    0.000 
#    0.000    0.000    0.000    0.000    0.000    0.000 
#
# Total GULP energy -111366.587193 kJ/mol
# GULP energy per Si atom -5568.329360 kJ/mol
# Density = 2.398521 g / cm^3
# Si number density = 24.039924 Si / 1000 Ang^3
#
#
#
# Elastic Constant Matrix: (Units=GPa)
#
#
# Indices 1 2 3 4 5 6 
#
# 1 120.2696 38.2163 39.9689 0.0000 42.2235 0.0000
# 2 38.2163 32.3407 6.5607 0.0000 17.5887 0.0000
# 3 39.9689 6.5607 123.3740 0.0000 47.0191 0.0000
# 4 0.0000 0.0000 0.0000 31.0670 0.0000 -2.9772
# 5 42.2235 17.5887 47.0191 0.0000 36.2726 0.0000
# 6 0.0000 0.0000 0.0000 -2.9772 0.0000 25.9182
#
#
#
# Elastic Compliance Matrix: (Units=1/GPa)
#
#
# Indices 1 2 3 4 5 6 
#
# 1 0.017313 -0.012287 0.000898 0.000000 -0.015360 0.000000
# 2 -0.012287 0.059773 0.012643 0.000000 -0.031071 0.000000
# 3 0.000898 0.012643 0.019521 0.000000 -0.032481 0.000000
# 4 0.000000 0.000000 0.000000 0.032547 0.000000 0.003739
# 5 -0.015360 -0.031071 -0.032481 0.000000 0.102619 0.000000
# 6 0.000000 0.000000 0.000000 0.003739 0.000000 0.039012
#
#
# Mechanical properties :
#
#
# Convention : Reuss Voigt Hill
#
# Bulk Modulus (GPa) = 10.08916 49.49735 29.79326
# Shear Modulus (GPa) = 16.59402 31.40077 23.99740
#
# Velocity S-wave (km/s) = 2.63015 3.61805 3.16291
# Velocity P-wave (km/s) = 3.66463 6.17155 5.07531
#
# Compressibility (1/GPa) = 0.09911626
#
# Stress axis : x y z
#
# Youngs Moduli (GPa) = 57.76131 16.72997 51.22731
#
# Poissons Ratio (x) = 0.20556 -0.04602
# Poissons Ratio (y) = 0.70970 -0.64768
# Poissons Ratio (z) = -0.05189 -0.21152
#
# Static dielectric constant tensor:
#      x y z
#    x 1.999190 0.000000 0.027390 
#    y 0.000000 2.157600 0.000000 
#    z 0.027390 0.000000 1.987040 
# 
# From -- ./inp_files/55838.got.cif
#   From: 2010.05.17/outbox.cif.g08.bks.cpg/sg14_28_cif.got.tgz:55838.got - 2010.06.03 17:49:19.
