data_PCOD9242091
_publ_section_title
;
Structure prediction by ZEFSAII (Michael W. Deem and Ramdas Pophale) SiO2 
 PCOD9242091
Probable space group: P 21/C
;
_chemical_formula_sum "Si O2"
_cell_formula_units_Z 32
_cell_length_a 11.214112
_cell_length_b 9.318150
_cell_length_c 14.915773
_cell_angle_alpha 90.000000
_cell_angle_beta 62.617304
_cell_angle_gamma 90.000000
_cell_volume 1383.983720
_symmetry_space_group_name_H-M "P 21/C"
_symmetry_group_IT_number 14
_symmetry_cell_setting 'monoclinic'
loop_
_space_group_symop_operation_xyz
x,y,z
-x,1/2+y,1/2-z
-x,-y,-z
x,1/2-y,1/2+z
loop_
_atom_site_type_symbol
_atom_site_label
_atom_site_fract_x
_atom_site_fract_y
_atom_site_fract_z
Si Si1 0.409892 0.523000 0.782282
Si Si2 0.791921 0.318698 0.436798
Si Si3 0.876346 0.561888 0.101317
Si Si4 0.000040 0.170346 0.008170
Si Si5 0.903659 0.205126 0.713929
Si Si6 0.632678 0.934553 0.909358
Si Si7 0.488950 0.671363 0.008782
Si Si8 0.387983 0.685761 0.235240
O O1 0.275876 0.468520 0.878661
O O2 0.374236 0.482968 0.691545
O O3 0.556690 0.462082 0.749321
O O4 0.420510 0.691036 0.793824
O O5 0.856886 0.294856 0.510558
O O6 0.903072 0.282529 0.321237
O O7 0.748034 0.481208 0.424302
O O8 0.657048 0.224600 0.475219
O O9 0.894384 0.461357 0.183957
O O10 0.897209 0.733072 0.085587
O O11 0.000000 0.500000 0.000000
O O12 0.006319 0.221067 0.109448
O O13 0.000000 0.000000 0.000000
O O14 0.764315 0.288203 0.739024
O O15 0.610462 0.763789 0.924943
O O16 0.500000 0.000000 0.000000
O O17 0.479670 0.712334 0.116537
O O18 0.500000 0.500000 0.000000
#
# Coordination Sequence:
#
# PCOD9242091 Si02
#       8
#     4   4   4   4   4   4   4   4
#     4  11  21  38  63  94 128 168 211 261 331 395
#     4  10  21  43  65  85 133 172 204 274 326 377
#     4   9  20  42  61  82 125 168 222 260 310 387
#     4  11  25  40  66  97 121 167 228 272 318 387
#     4   9  20  43  62  89 126 168 213 259 336 394
#     4  10  19  39  63  89 128 170 199 252 338 399
#     4  10  22  38  58  94 130 161 212 253 325 405
#     4  10  22  36  60  95 124 164 205 264 334 395
#
# _framework density 23.121659999999999
#
# number of rings (size 3 to 8) (size 9 to 14) (size 15 to 20)
#    0.000    2.000    5.000    0.000    5.250    5.000 
#    2.250    1.250    0.000    0.000    0.000    0.000 
#    0.000    0.000    0.000    0.000    0.000    0.000 
#
# Total GULP energy -178239.088062 kJ/mol
# GULP energy per Si atom -5569.971502 kJ/mol
# Density = 2.306903 g / cm^3
# Si number density = 23.121660 Si / 1000 Ang^3
#
#
#
# Elastic Constant Matrix: (Units=GPa)
#
#
# Indices 1 2 3 4 5 6 
#
# 1 37.5191 5.4762 3.0185 0.0000 -3.9570 0.0000
# 2 5.4762 115.5548 10.1490 0.0000 -9.1885 0.0000
# 3 3.0185 10.1490 102.5050 0.0000 4.4361 0.0000
# 4 0.0000 0.0000 0.0000 24.6575 0.0000 -12.6140
# 5 -3.9570 -9.1885 4.4361 0.0000 18.5416 0.0000
# 6 0.0000 0.0000 0.0000 -12.6140 0.0000 28.7907
#
#
#
# Elastic Compliance Matrix: (Units=1/GPa)
#
#
# Indices 1 2 3 4 5 6 
#
# 1 0.027446 -0.000760 -0.000980 0.000000 0.005715 0.000000
# 2 -0.000760 0.009154 -0.001084 0.000000 0.004633 0.000000
# 3 -0.000980 -0.001084 0.010028 0.000000 -0.003146 0.000000
# 4 0.000000 0.000000 0.000000 0.052271 0.000000 0.022902
# 5 0.005715 0.004633 -0.003146 0.000000 0.058201 0.000000
# 6 0.000000 0.000000 0.000000 0.022902 0.000000 0.044767
#
#
# Mechanical properties :
#
#
# Convention : Reuss Voigt Hill
#
# Bulk Modulus (GPa) = 24.40356 32.54069 28.47213
# Shear Modulus (GPa) = 22.60641 30.19363 26.40002
#
# Velocity S-wave (km/s) = 3.13024 3.61759 3.38270
# Velocity P-wave (km/s) = 4.86229 5.61725 5.25335
#
# Compressibility (1/GPa) = 0.04097762
#
# Stress axis : x y z
#
# Youngs Moduli (GPa) = 36.43561 109.24662 99.72078
#
# Poissons Ratio (x) = 0.08304 0.09775
# Poissons Ratio (y) = 0.02770 0.10814
# Poissons Ratio (z) = 0.03572 0.11847
#
# Static dielectric constant tensor:
#      x y z
#    x 1.880590 0.000000 0.019810 
#    y 0.000000 2.011600 0.000000 
#    z 0.019810 0.000000 1.920530 
# 
# From -- ./inp_files/57269.got.cif
#   From: 2010.05.17/outbox.cif.g08.bks.cpg/sg14_29_cif.got.tgz:57269.got - 2010.06.03 17:49:19.
