data_PCOD9242821
_publ_section_title
;
Structure prediction by ZEFSAII (Michael W. Deem and Ramdas Pophale) SiO2 
 PCOD9242821
Probable space group: P 21/C
;
_chemical_formula_sum "Si O2"
_cell_formula_units_Z 32
_cell_length_a 7.882843
_cell_length_b 13.428486
_cell_length_c 13.695042
_cell_angle_alpha 90.000000
_cell_angle_beta 102.606378
_cell_angle_gamma 90.000000
_cell_volume 1414.735542
_symmetry_space_group_name_H-M "P 21/C"
_symmetry_group_IT_number 14
_symmetry_cell_setting 'monoclinic'
loop_
_space_group_symop_operation_xyz
x,y,z
-x,1/2+y,1/2-z
-x,-y,-z
x,1/2-y,1/2+z
loop_
_atom_site_type_symbol
_atom_site_label
_atom_site_fract_x
_atom_site_fract_y
_atom_site_fract_z
Si Si1 0.982086 0.336673 0.337583
Si Si2 0.732653 0.361593 0.453053
Si Si3 0.236372 0.221947 0.488739
Si Si4 0.700617 0.069655 0.252201
Si Si5 0.502311 0.303576 0.878201
Si Si6 0.359553 0.417913 0.592191
Si Si7 0.995795 0.428683 0.644966
Si Si8 0.254206 0.163910 0.714626
O O1 0.057226 0.247674 0.413339
O O2 0.033218 0.451842 0.370669
O O3 0.066970 0.320289 0.243367
O O4 0.782973 0.341921 0.344943
O O5 0.617905 0.267529 0.461039
O O6 0.646435 0.469450 0.446454
O O7 0.897938 0.372973 0.544484
O O8 0.353604 0.155759 0.431717
O O9 0.311793 0.334836 0.507734
O O10 0.236259 0.183463 0.598101
O O11 0.631086 0.120849 0.341441
O O12 0.550139 0.100537 0.157387
O O13 0.888885 0.096994 0.229941
O O14 0.695177 0.950668 0.262526
O O15 0.393439 0.234782 0.787245
O O16 0.202126 0.411535 0.654142
#
# Coordination Sequence:
#
# PCOD9242821 Si02
#       8
#     4   4   4   4   4   4   4   4
#     4   9  19  36  58  89 114 143 193 245 291 346
#     4  11  19  35  57  90 119 140 186 255 302 334
#     4  11  20  37  58  84 115 153 198 228 289 352
#     4  11  23  40  56  85 124 153 194 240 281 351
#     4  11  24  35  57  89 113 154 200 235 291 348
#     4  11  19  35  63  88 117 148 185 248 300 338
#     4  10  20  35  62  93 114 147 190 247 312 328
#     4  10  22  38  59  82 114 158 194 235 291 345
#
# _framework density 22.619067999999999
#
# number of rings (size 3 to 8) (size 9 to 14) (size 15 to 20)
#    0.000    1.500    5.000    1.500    0.000    2.500 
#    0.000    0.000    0.000    0.750    0.000    0.000 
#    0.000    0.000    0.000    0.000    0.000    0.000 
#
# Total GULP energy -178519.029673 kJ/mol
# GULP energy per Si atom -5578.719677 kJ/mol
# Density = 2.256759 g / cm^3
# Si number density = 22.619068 Si / 1000 Ang^3
#
#
#
# Elastic Constant Matrix: (Units=GPa)
#
#
# Indices 1 2 3 4 5 6 
#
# 1 82.3127 11.4706 25.4543 0.0000 -29.3880 0.0000
# 2 11.4706 34.6840 10.1646 0.0000 -2.8731 0.0000
# 3 25.4543 10.1646 91.7109 0.0000 -29.7662 0.0000
# 4 0.0000 0.0000 0.0000 28.9541 0.0000 -3.7936
# 5 -29.3880 -2.8731 -29.7662 0.0000 43.0785 0.0000
# 6 0.0000 0.0000 0.0000 -3.7936 0.0000 22.2878
#
#
#
# Elastic Compliance Matrix: (Units=1/GPa)
#
#
# Indices 1 2 3 4 5 6 
#
# 1 0.016801 -0.004466 -0.000702 0.000000 0.010678 0.000000
# 2 -0.004466 0.030992 -0.003240 0.000000 -0.003218 0.000000
# 3 -0.000702 -0.003240 0.014479 0.000000 0.009310 0.000000
# 4 0.000000 0.000000 0.000000 0.035325 0.000000 0.006013
# 5 0.010678 -0.003218 0.009310 0.000000 0.036716 0.000000
# 6 0.000000 0.000000 0.000000 0.006013 0.000000 0.045891
#
#
# Mechanical properties :
#
#
# Convention : Reuss Voigt Hill
#
# Bulk Modulus (GPa) = 21.99949 33.65407 27.82678
# Shear Modulus (GPa) = 23.56571 29.63861 26.60216
#
# Velocity S-wave (km/s) = 3.23127 3.62379 3.43314
# Velocity P-wave (km/s) = 4.86505 5.69386 5.29569
#
# Compressibility (1/GPa) = 0.04545561
#
# Stress axis : x y z
#
# Youngs Moduli (GPa) = 59.52096 32.26679 69.06322
#
# Poissons Ratio (x) = 0.14410 0.04850
# Poissons Ratio (y) = 0.26582 0.22376
# Poissons Ratio (z) = 0.04180 0.10454
#
# Static dielectric constant tensor:
#      x y z
#    x 1.916490 0.000000 -0.055530 
#    y 0.000000 1.838060 0.000000 
#    z -0.055530 0.000000 1.894380 
# 
# From -- ./inp_files/25521.got.cif
#   From: 2010.05.17/outbox.cif.g08.bks.cpg/sg14_13_cif.got.tgz:25521.got - 2010.06.03 17:49:19.
