data_PCOD9242551
_publ_section_title
;
Structure prediction by ZEFSAII (Michael W. Deem and Ramdas Pophale) SiO2 
 PCOD9242551
Probable space group: P 21/C
;
_chemical_formula_sum "Si O2"
_cell_formula_units_Z 28
_cell_length_a 18.363482
_cell_length_b 8.248926
_cell_length_c 8.919226
_cell_angle_alpha 90.000000
_cell_angle_beta 74.301232
_cell_angle_gamma 90.000000
_cell_volume 1300.677067
_symmetry_space_group_name_H-M "P 21/C"
_symmetry_group_IT_number 14
_symmetry_cell_setting 'monoclinic'
loop_
_space_group_symop_operation_xyz
x,y,z
-x,1/2+y,1/2-z
-x,-y,-z
x,1/2-y,1/2+z
loop_
_atom_site_type_symbol
_atom_site_label
_atom_site_fract_x
_atom_site_fract_y
_atom_site_fract_z
Si Si1 0.466855 0.139039 0.411237
Si Si2 0.580129 0.560784 0.390425
Si Si3 0.734589 0.318514 0.000741
Si Si4 0.829511 0.099537 0.716408
Si Si5 0.364552 0.772920 0.685935
Si Si6 0.022019 0.742305 0.022585
Si Si7 0.061121 0.423254 0.670586
O O1 0.426857 0.086738 0.282437
O O2 0.414920 0.267200 0.528920
O O3 0.548712 0.211668 0.314204
O O4 0.500000 0.000000 0.500000
O O5 0.500000 0.500000 0.500000
O O6 0.638474 0.413030 0.375026
O O7 0.780562 0.429155 0.092702
O O8 0.689690 0.205751 0.143363
O O9 0.789502 0.222816 0.856157
O O10 0.668039 0.384118 0.929177
O O11 0.905403 0.184618 0.610457
O O12 0.857602 0.945702 0.796463
O O13 0.996171 0.614773 0.161588
O O14 0.042932 0.907673 0.098364
O O15 0.954427 0.786495 0.945169
#
# Coordination Sequence:
#
# PCOD9242551 Si02
#       7
#     4   4   4   4   4   4   4
#     4  11  20  34  60  92 118 155 187 253 318 357
#     4  10  20  34  55  87 125 145 194 253 300 355
#     4  10  21  35  60  79 117 164 202 246 275 378
#     4  11  20  38  58  92 115 157 211 248 302 366
#     4  10  20  37  56  88 113 151 206 242 296 348
#     4  11  22  37  62  95 124 157 194 267 323 368
#     4  11  22  37  60  93 127 153 199 254 326 362
#
# _framework density 21.527251
#
# number of rings (size 3 to 8) (size 9 to 14) (size 15 to 20)
#    0.000    1.429    2.857    4.714    0.000    0.000 
#    0.000    0.000    0.000   13.714    0.000    0.000 
#    0.000    0.000    0.000    0.000    0.000    0.000 
#
# Total GULP energy -156028.779785 kJ/mol
# GULP energy per Si atom -5572.456421 kJ/mol
# Density = 2.147825 g / cm^3
# Si number density = 21.527251 Si / 1000 Ang^3
#
#
#
# Elastic Constant Matrix: (Units=GPa)
#
#
# Indices 1 2 3 4 5 6 
#
# 1 72.0325 3.8179 16.9596 0.0000 26.2113 0.0000
# 2 3.8179 61.5789 26.9259 0.0000 2.4322 0.0000
# 3 16.9596 26.9259 128.6101 0.0000 13.9671 0.0000
# 4 0.0000 0.0000 0.0000 35.3997 0.0000 9.0218
# 5 26.2113 2.4322 13.9671 0.0000 47.1646 0.0000
# 6 0.0000 0.0000 0.0000 9.0218 0.0000 23.8878
#
#
#
# Elastic Compliance Matrix: (Units=1/GPa)
#
#
# Indices 1 2 3 4 5 6 
#
# 1 0.017611 -0.000167 -0.001266 0.000000 -0.009404 0.000000
# 2 -0.000167 0.017879 -0.003752 0.000000 0.000282 0.000000
# 3 -0.001266 -0.003752 0.008917 0.000000 -0.001744 0.000000
# 4 0.000000 0.000000 0.000000 0.031257 0.000000 -0.011805
# 5 -0.009404 0.000282 -0.001744 0.000000 0.026930 0.000000
# 6 0.000000 0.000000 0.000000 -0.011805 0.000000 0.046321
#
#
# Mechanical properties :
#
#
# Convention : Reuss Voigt Hill
#
# Bulk Modulus (GPa) = 29.37883 39.73650 34.55766
# Shear Modulus (GPa) = 29.30282 35.59161 32.44721
#
# Velocity S-wave (km/s) = 3.69344 4.07053 3.88656
# Velocity P-wave (km/s) = 5.64496 6.37111 6.01899
#
# Compressibility (1/GPa) = 0.03403812
#
# Stress axis : x y z
#
# Youngs Moduli (GPa) = 56.78121 55.93143 112.14237
#
# Poissons Ratio (x) = 0.00933 0.14200
# Poissons Ratio (y) = 0.00947 0.42073
# Poissons Ratio (z) = 0.07190 0.20984
#
# Static dielectric constant tensor:
#      x y z
#    x 1.847690 0.000000 0.019220 
#    y 0.000000 1.924520 0.000000 
#    z 0.019220 0.000000 1.779030 
# 
# From -- ./inp_files/18501.got.cif
#   From: 2010.05.17/outbox.cif.g08.bks.cpg/sg14_10_cif.got.tgz:18501.got - 2010.06.03 17:49:19.
