data_PCOD9242454
_publ_section_title
;
Structure prediction by ZEFSAII (Michael W. Deem and Ramdas Pophale) SiO2 
 PCOD9242454
Probable space group: P 21/C
;
_chemical_formula_sum "Si O2"
_cell_formula_units_Z 32
_cell_length_a 5.510337
_cell_length_b 32.436097
_cell_length_c 8.132426
_cell_angle_alpha 90.000000
_cell_angle_beta 103.265791
_cell_angle_gamma 90.000000
_cell_volume 1414.753435
_symmetry_space_group_name_H-M "P 21/C"
_symmetry_group_IT_number 14
_symmetry_cell_setting 'monoclinic'
loop_
_space_group_symop_operation_xyz
x,y,z
-x,1/2+y,1/2-z
-x,-y,-z
x,1/2-y,1/2+z
loop_
_atom_site_type_symbol
_atom_site_label
_atom_site_fract_x
_atom_site_fract_y
_atom_site_fract_z
Si Si1 0.218135 0.449442 0.525407
Si Si2 0.567754 0.636897 0.496213
Si Si3 0.750665 0.233684 0.501616
Si Si4 0.057816 0.173899 0.744540
Si Si5 0.348601 0.530865 0.671570
Si Si6 0.340322 0.325028 0.945747
Si Si7 0.648162 0.388944 0.175669
Si Si8 0.116436 0.813505 0.808466
O O1 0.298165 0.402433 0.561074
O O2 0.299630 0.482091 0.678349
O O3 0.399394 0.463267 0.399416
O O4 0.918811 0.454037 0.451133
O O5 0.467109 0.623341 0.663300
O O6 0.330980 0.652880 0.359950
O O7 0.759671 0.673600 0.572779
O O8 0.848407 0.207972 0.676364
O O9 0.464519 0.219926 0.442721
O O10 0.827625 0.280335 0.541331
O O11 0.853462 0.212939 0.353438
O O12 0.926244 0.129260 0.726764
O O13 0.213363 0.177087 0.603050
O O14 0.371405 0.561797 0.829286
O O15 0.153630 0.332341 0.767018
O O16 0.526253 0.363336 0.007094
#
# Coordination Sequence:
#
# PCOD9242454 Si02
#       8
#     4   4   4   4   4   4   4   4
#     4   9  17  30  50  87 127 154 199 241 302 345
#     4  10  20  33  55  84 117 151 191 244 294 353
#     4  10  24  39  56  78 107 148 190 242 295 355
#     4   9  18  35  56  78 107 142 191 234 289 349
#     4   9  16  29  53  87 123 159 192 249 291 354
#     4   9  21  39  53  77 108 147 189 238 290 361
#     4   9  17  33  59  84 113 150 193 238 296 348
#     4  11  25  38  57  81 111 149 192 245 300 353
#
# _framework density 22.618784999999999
#
# number of rings (size 3 to 8) (size 9 to 14) (size 15 to 20)
#    0.000    2.500    1.250    0.000    7.000    2.000 
#    0.000    0.000    0.000    0.750    0.000    7.875 
#    0.000    0.000    0.000    0.000    0.000    0.000 
#
# Total GULP energy -178273.944461 kJ/mol
# GULP energy per Si atom -5571.060764 kJ/mol
# Density = 2.256730 g / cm^3
# Si number density = 22.618785 Si / 1000 Ang^3
#
#
#
# Elastic Constant Matrix: (Units=GPa)
#
#
# Indices 1 2 3 4 5 6 
#
# 1 80.4215 8.9913 22.0566 0.0000 22.2193 0.0000
# 2 8.9913 75.1485 21.7381 0.0000 10.3525 0.0000
# 3 22.0566 21.7381 91.3287 0.0000 17.7334 0.0000
# 4 0.0000 0.0000 0.0000 13.1803 0.0000 -4.0760
# 5 22.2193 10.3525 17.7334 0.0000 43.2436 0.0000
# 6 0.0000 0.0000 0.0000 -4.0760 0.0000 21.2634
#
#
#
# Elastic Compliance Matrix: (Units=1/GPa)
#
#
# Indices 1 2 3 4 5 6 
#
# 1 0.014926 -0.000211 -0.002255 0.000000 -0.006694 0.000000
# 2 -0.000211 0.014490 -0.002983 0.000000 -0.002137 0.000000
# 3 -0.002255 -0.002983 0.012865 0.000000 -0.003403 0.000000
# 4 0.000000 0.000000 0.000000 0.080652 0.000000 0.015460
# 5 -0.006694 -0.002137 -0.003403 0.000000 0.028471 0.000000
# 6 0.000000 0.000000 0.000000 0.015460 0.000000 0.049993
#
#
# Mechanical properties :
#
#
# Convention : Reuss Voigt Hill
#
# Bulk Modulus (GPa) = 31.86501 39.16340 35.51420
# Shear Modulus (GPa) = 22.44624 28.47832 25.46228
#
# Velocity S-wave (km/s) = 3.15361 3.55217 3.35881
# Velocity P-wave (km/s) = 5.23247 5.84602 5.54774
#
# Compressibility (1/GPa) = 0.03138238
#
# Stress axis : x y z
#
# Youngs Moduli (GPa) = 66.99748 69.01545 77.73202
#
# Poissons Ratio (x) = 0.01460 0.17526
# Poissons Ratio (y) = 0.01417 0.23186
# Poissons Ratio (z) = 0.15105 0.20586
#
# Static dielectric constant tensor:
#      x y z
#    x 1.967060 0.000000 0.017930 
#    y 0.000000 1.875000 0.000000 
#    z 0.017930 0.000000 1.847800 
# 
# From -- ./inp_files/6995.got.cif
#   From: 2010.05.17/outbox.cif.g08.bks.cpg/sg14_4_cif.got.tgz:6995.got - 2010.06.03 17:49:19.
