data_PCOD9242313
_publ_section_title
;
Structure prediction by ZEFSAII (Michael W. Deem and Ramdas Pophale) SiO2 
 PCOD9242313
Probable space group: P 21/C
;
_chemical_formula_sum "Si O2"
_cell_formula_units_Z 20
_cell_length_a 7.574623
_cell_length_b 17.044979
_cell_length_c 7.344079
_cell_angle_alpha 90.000000
_cell_angle_beta 56.088510
_cell_angle_gamma 90.000000
_cell_volume 786.902303
_symmetry_space_group_name_H-M "P 21/C"
_symmetry_group_IT_number 14
_symmetry_cell_setting 'monoclinic'
loop_
_space_group_symop_operation_xyz
x,y,z
-x,1/2+y,1/2-z
-x,-y,-z
x,1/2-y,1/2+z
loop_
_atom_site_type_symbol
_atom_site_label
_atom_site_fract_x
_atom_site_fract_y
_atom_site_fract_z
Si Si1 0.892431 0.585548 0.847709
Si Si2 0.531097 0.639339 0.610809
Si Si3 0.158711 0.914069 0.556075
Si Si4 0.021368 0.329197 0.528919
Si Si5 0.368053 0.197583 0.332695
O O1 0.045549 0.632425 0.622586
O O2 0.974216 0.587385 0.009031
O O3 0.855949 0.495361 0.825964
O O4 0.679113 0.638367 0.976780
O O5 0.365301 0.586213 0.809121
O O6 0.771825 0.619299 0.529608
O O7 0.546026 0.649811 0.386496
O O8 0.485334 0.728975 0.703167
O O9 0.137718 0.843539 0.713423
O O10 0.139789 0.245252 0.436158
#
# Coordination Sequence:
#
# PCOD9242313 Si02
#       5
#     4   4   4   4   4
#     4  11  22  44  67  95 133 170 205 274 326 366
#     4  10  22  42  64  93 125 170 218 259 317 389
#     4  11  25  41  66  99 130 166 220 258 325 393
#     4  10  21  44  66  89 132 169 210 271 308 381
#     4  10  19  43  64  87 129 170 207 267 315 366
#
# _framework density 25.416117
#
# number of rings (size 3 to 8) (size 9 to 14) (size 15 to 20)
#    1.200    0.400    4.000    0.600    0.000    3.200 
#    7.200    0.000    0.000    0.000    0.000    0.000 
#    0.000    0.000    0.000    0.000    0.000    0.000 
#
# Total GULP energy -111606.841549 kJ/mol
# GULP energy per Si atom -5580.342077 kJ/mol
# Density = 2.535827 g / cm^3
# Si number density = 25.416117 Si / 1000 Ang^3
#
#
#
# Elastic Constant Matrix: (Units=GPa)
#
#
# Indices 1 2 3 4 5 6 
#
# 1 20.2407 7.8972 15.6419 0.0000 -3.5869 0.0000
# 2 7.8972 87.1461 12.1668 0.0000 -6.7538 0.0000
# 3 15.6419 12.1668 141.0902 0.0000 11.8991 0.0000
# 4 0.0000 0.0000 0.0000 172.2872 0.0000 -0.5994
# 5 -3.5869 -6.7538 11.8991 0.0000 34.3876 0.0000
# 6 0.0000 0.0000 0.0000 -0.5994 0.0000 17.1268
#
#
#
# Elastic Compliance Matrix: (Units=1/GPa)
#
#
# Indices 1 2 3 4 5 6 
#
# 1 0.057343 -0.003677 -0.006679 0.000000 0.007570 0.000000
# 2 -0.003677 0.012100 -0.000828 0.000000 0.002280 0.000000
# 3 -0.006679 -0.000828 0.008212 0.000000 -0.003701 0.000000
# 4 0.000000 0.000000 0.000000 0.005805 0.000000 0.000203
# 5 0.007570 0.002280 -0.003701 0.000000 0.031598 0.000000
# 6 0.000000 0.000000 0.000000 0.000203 0.000000 0.058395
#
#
# Mechanical properties :
#
#
# Convention : Reuss Voigt Hill
#
# Bulk Modulus (GPa) = 18.08740 35.54320 26.81530
# Shear Modulus (GPa) = 23.33719 58.94505 41.14112
#
# Velocity S-wave (km/s) = 3.03348 4.82103 4.02767
# Velocity P-wave (km/s) = 4.40469 6.70855 5.67477
#
# Compressibility (1/GPa) = 0.05528712
#
# Stress axis : x y z
#
# Youngs Moduli (GPa) = 17.43892 82.64131 121.77883
#
# Poissons Ratio (x) = 0.30390 0.81332
# Poissons Ratio (y) = 0.06413 0.10084
# Poissons Ratio (z) = 0.11647 0.06843
#
# Static dielectric constant tensor:
#      x y z
#    x 2.105550 0.000000 0.014390 
#    y 0.000000 2.028050 0.000000 
#    z 0.014390 0.000000 1.992230 
# 
# From -- ./inp_files/13652.got.cif
#   From: 2010.05.17/outbox.cif.g08.bks.cpg/sg14_7_cif.got.tgz:13652.got - 2010.06.03 17:49:19.
