data_PCOD9242796
_publ_section_title
;
Structure prediction by ZEFSAII (Michael W. Deem and Ramdas Pophale) SiO2 
 PCOD9242796
Probable space group: P 21/C
;
_chemical_formula_sum "Si O2"
_cell_formula_units_Z 32
_cell_length_a 11.245849
_cell_length_b 17.982928
_cell_length_c 13.992592
_cell_angle_alpha 90.000000
_cell_angle_beta 30.192946
_cell_angle_gamma 90.000000
_cell_volume 1423.128612
_symmetry_space_group_name_H-M "P 21/C"
_symmetry_group_IT_number 14
_symmetry_cell_setting 'monoclinic'
loop_
_space_group_symop_operation_xyz
x,y,z
-x,1/2+y,1/2-z
-x,-y,-z
x,1/2-y,1/2+z
loop_
_atom_site_type_symbol
_atom_site_label
_atom_site_fract_x
_atom_site_fract_y
_atom_site_fract_z
Si Si1 0.885425 0.961347 0.773188
Si Si2 0.381628 0.238383 0.538868
Si Si3 0.979680 0.172428 0.207212
Si Si4 0.623658 0.839359 0.640631
Si Si5 0.687516 0.413965 0.144439
Si Si6 0.519092 0.806068 0.336244
Si Si7 0.128456 0.702478 0.843418
Si Si8 0.492941 0.048837 0.117890
O O1 0.943008 0.911562 0.826095
O O2 0.128200 0.961922 0.545486
O O3 0.696045 0.924805 0.830041
O O4 0.754208 0.036493 0.895287
O O5 0.172991 0.280405 0.630706
O O6 0.442616 0.170702 0.423861
O O7 0.312693 0.210357 0.691101
O O8 0.609916 0.292773 0.384349
O O9 0.956108 0.211930 0.120025
O O10 0.733074 0.184612 0.434378
O O11 0.908809 0.842409 0.451823
O O12 0.516356 0.903721 0.779847
O O13 0.537426 0.763954 0.753611
O O14 0.597193 0.466277 0.290887
O O15 0.821386 0.340635 0.092732
O O16 0.473046 0.380571 0.231522
#
# Coordination Sequence:
#
# PCOD9242796 Si02
#       8
#     4   4   4   4   4   4   4   4
#     4  10  21  36  56  85 123 157 199 254 307 369
#     4  10  20  37  58  89 119 155 207 259 310 363
#     4   9  20  37  59  88 118 155 203 258 306 364
#     4  11  22  37  59  93 121 159 204 257 320 374
#     4  11  21  40  61  89 121 167 207 257 315 372
#     4  10  22  37  61  88 120 162 210 261 310 370
#     4  10  20  35  61  88 118 156 201 258 305 364
#     4  11  23  37  59  89 129 163 205 257 320 373
#
# _framework density 22.485671
#
# number of rings (size 3 to 8) (size 9 to 14) (size 15 to 20)
#    0.000    1.750    2.500    1.875    3.500    3.000 
#    2.250    0.625    0.000    6.750    0.000    0.000 
#    0.000    0.000    0.000    0.000    0.000    0.000 
#
# Total GULP energy -178371.682327 kJ/mol
# GULP energy per Si atom -5574.115073 kJ/mol
# Density = 2.243449 g / cm^3
# Si number density = 22.485671 Si / 1000 Ang^3
#
#
#
# Elastic Constant Matrix: (Units=GPa)
#
#
# Indices 1 2 3 4 5 6 
#
# 1 56.6203 18.7276 10.0241 0.0000 12.8425 0.0000
# 2 18.7276 46.7883 14.1191 0.0000 11.6925 0.0000
# 3 10.0241 14.1191 65.5000 0.0000 12.1014 0.0000
# 4 0.0000 0.0000 0.0000 32.5048 0.0000 5.5142
# 5 12.8425 11.6925 12.1014 0.0000 36.3281 0.0000
# 6 0.0000 0.0000 0.0000 5.5142 0.0000 28.1497
#
#
#
# Elastic Compliance Matrix: (Units=1/GPa)
#
#
# Indices 1 2 3 4 5 6 
#
# 1 0.021258 -0.007016 -0.000820 0.000000 -0.004984 0.000000
# 2 -0.007016 0.026514 -0.003754 0.000000 -0.004803 0.000000
# 3 -0.000820 -0.003754 0.016970 0.000000 -0.004154 0.000000
# 4 0.000000 0.000000 0.000000 0.031822 0.000000 -0.006234
# 5 -0.004984 -0.004803 -0.004154 0.000000 0.032218 0.000000
# 6 0.000000 0.000000 0.000000 -0.006234 0.000000 0.036745
#
#
# Mechanical properties :
#
#
# Convention : Reuss Voigt Hill
#
# Bulk Modulus (GPa) = 24.06108 28.29445 26.17777
# Shear Modulus (GPa) = 24.68388 27.79905 26.24147
#
# Velocity S-wave (km/s) = 3.31684 3.51992 3.41989
# Velocity P-wave (km/s) = 5.03909 5.39726 5.22125
#
# Compressibility (1/GPa) = 0.04156089
#
# Stress axis : x y z
#
# Youngs Moduli (GPa) = 47.04200 37.71569 58.92914
#
# Poissons Ratio (x) = 0.26460 0.04833
# Poissons Ratio (y) = 0.33003 0.22124
# Poissons Ratio (z) = 0.03858 0.14160
#
# Static dielectric constant tensor:
#      x y z
#    x 1.880580 0.000000 0.005480 
#    y 0.000000 1.883530 0.000000 
#    z 0.005480 0.000000 1.877610 
# 
# From -- ./inp_files/45373.got.cif
#   From: 2010.05.17/outbox.cif.g08.bks.cpg/sg14_23_cif.got.tgz:45373.got - 2010.06.03 17:49:19.
