data_PCOD9242382
_publ_section_title
;
Structure prediction by ZEFSAII (Michael W. Deem and Ramdas Pophale) SiO2 
 PCOD9242382
Probable space group: P 21/C
;
_chemical_formula_sum "Si O2"
_cell_formula_units_Z 30
_cell_length_a 15.024897
_cell_length_b 5.449408
_cell_length_c 19.003109
_cell_angle_alpha 90.000000
_cell_angle_beta 127.172655
_cell_angle_gamma 90.000000
_cell_volume 1239.780583
_symmetry_space_group_name_H-M "P 21/C"
_symmetry_group_IT_number 14
_symmetry_cell_setting 'monoclinic'
loop_
_space_group_symop_operation_xyz
x,y,z
-x,1/2+y,1/2-z
-x,-y,-z
x,1/2-y,1/2+z
loop_
_atom_site_type_symbol
_atom_site_label
_atom_site_fract_x
_atom_site_fract_y
_atom_site_fract_z
Si Si1 0.960354 0.004159 0.562267
Si Si2 0.235867 0.543406 0.358947
Si Si3 0.245900 0.486696 0.621112
Si Si4 0.930381 0.996254 0.089799
Si Si5 0.246971 0.451507 0.779219
Si Si6 0.495078 0.574049 0.914320
Si Si7 0.500000 0.500000 0.500000
Si Si8 0.696552 0.485181 0.910777
O O1 0.994546 0.760146 0.619476
O O2 0.824261 0.011263 0.500255
O O3 0.997406 0.252346 0.617158
O O4 0.000000 0.000000 0.500000
O O5 0.153047 0.514115 0.384902
O O6 0.218231 0.307980 0.300380
O O7 0.363758 0.516839 0.446169
O O8 0.223154 0.811376 0.316950
O O9 0.141484 0.488160 0.517265
O O10 0.204773 0.487900 0.680536
O O11 0.312249 0.236305 0.637303
O O12 0.313004 0.735711 0.637729
O O13 0.382494 0.454162 0.834029
O O14 0.605236 0.490521 0.928012
O O15 0.500000 0.500000 0.000000
O O16 0.485833 0.865340 0.915562
#
# Coordination Sequence:
#
# PCOD9242382 Si02
#       8
#     4   4   4   4   4   4   2   4
#     4  10  20  35  59  92 117 144 191 245 295 339
#     4  11  22  36  58  84 115 152 198 238 284 331
#     4  10  22  39  56  84 118 162 190 233 289 346
#     4  10  21  36  62  85 119 149 190 243 294 335
#     4  11  24  36  57  86 120 159 197 232 278 350
#     4  11  23  34  56  83 121 149 197 235 289 326
#     4  10  20  32  52  78 116 148 188 230 292 322
#     4  10  23  37  60  80 120 155 190 240 292 340
#
# _framework density 24.197828999999999
#
# number of rings (size 3 to 8) (size 9 to 14) (size 15 to 20)
#    0.000    1.600    1.333    3.600    9.333    1.067 
#    0.000    0.000    0.000    0.000    0.000   74.667 
#    0.000    0.000    0.000    0.000    0.000    0.000 
#
# Total GULP energy -167391.622915 kJ/mol
# GULP energy per Si atom -5579.720764 kJ/mol
# Density = 2.414275 g / cm^3
# Si number density = 24.197829 Si / 1000 Ang^3
#
#
#
# Elastic Constant Matrix: (Units=GPa)
#
#
# Indices 1 2 3 4 5 6 
#
# 1 179.5597 57.7008 44.5545 0.0000 -8.4936 0.0000
# 2 57.7008 217.0760 19.0139 0.0000 -17.1499 0.0000
# 3 44.5545 19.0139 56.8492 0.0000 -13.0597 0.0000
# 4 0.0000 0.0000 0.0000 11.0280 0.0000 -24.3278
# 5 -8.4936 -17.1499 -13.0597 0.0000 14.7004 0.0000
# 6 0.0000 0.0000 0.0000 -24.3278 0.0000 23.1381
#
#
#
# Elastic Compliance Matrix: (Units=1/GPa)
#
#
# Indices 1 2 3 4 5 6 
#
# 1 0.007450 -0.001693 -0.005952 0.000000 -0.002958 0.000000
# 2 -0.001693 0.005467 0.000928 0.000000 0.006224 0.000000
# 3 -0.005952 0.000928 0.026892 0.000000 0.021534 0.000000
# 4 0.000000 0.000000 0.000000 -0.068725 0.000000 -0.072259
# 5 -0.002958 0.006224 0.021534 0.000000 0.092709 0.000000
# 6 0.000000 0.000000 0.000000 -0.072259 0.000000 -0.032756
#
#
# Mechanical properties :
#
#
# Convention : Reuss Voigt Hill
#
# Bulk Modulus (GPa) = 37.91450 77.33594 57.62522
# Shear Modulus (GPa) = 93.87371 31.92100 62.89736
#
# Velocity S-wave (km/s) = 6.23526 3.63598 5.10386
# Velocity P-wave (km/s) = 8.21831 7.04673 7.65496
#
# Compressibility (1/GPa) = 0.02637514
#
# Stress axis : x y z
#
# Youngs Moduli (GPa) = 134.22564 182.91291 37.18586
#
# Poissons Ratio (x) = 0.30961 0.22134
# Poissons Ratio (y) = 0.22720 -0.03451
# Poissons Ratio (z) = 0.79896 -0.16974
#
# Static dielectric constant tensor:
#      x y z
#    x 1.889620 0.000000 0.056510 
#    y 0.000000 2.087170 0.000000 
#    z 0.056510 0.000000 1.922880 
# 
# From -- ./inp_files/58638.got.cif
#   From: 2010.05.17/outbox.cif.g08.bks.cpg/sg14_30_cif.got.tgz:58638.got - 2010.06.03 17:49:19.
