data_PCOD9242173
_publ_section_title
;
Structure prediction by ZEFSAII (Michael W. Deem and Ramdas Pophale) SiO2 
 PCOD9242173
Probable space group: P 21/C
;
_chemical_formula_sum "Si O2"
_cell_formula_units_Z 32
_cell_length_a 21.554483
_cell_length_b 9.996061
_cell_length_c 14.098373
_cell_angle_alpha 90.000000
_cell_angle_beta 147.290318
_cell_angle_gamma 90.000000
_cell_volume 1641.484521
_symmetry_space_group_name_H-M "P 21/C"
_symmetry_group_IT_number 14
_symmetry_cell_setting 'monoclinic'
loop_
_space_group_symop_operation_xyz
x,y,z
-x,1/2+y,1/2-z
-x,-y,-z
x,1/2-y,1/2+z
loop_
_atom_site_type_symbol
_atom_site_label
_atom_site_fract_x
_atom_site_fract_y
_atom_site_fract_z
Si Si1 0.066793 0.179181 0.716381
Si Si2 0.393855 0.673193 0.911031
Si Si3 0.279329 0.222049 0.854160
Si Si4 0.894556 0.124865 0.239658
Si Si5 0.134040 0.877535 0.023694
Si Si6 0.509942 0.586327 0.866388
Si Si7 0.099166 0.181297 0.982036
Si Si8 0.345736 0.919976 0.973047
O O1 0.175079 0.225012 0.794752
O O2 0.097719 0.195734 0.866847
O O3 0.953214 0.264720 0.553865
O O4 0.050398 0.021970 0.676098
O O5 0.260334 0.636717 0.727585
O O6 0.449996 0.656759 0.879826
O O7 0.397384 0.819514 0.961828
O O8 0.454541 0.562874 0.055588
O O9 0.218076 0.264920 0.677729
O O10 0.328233 0.071624 0.915028
O O11 0.377064 0.326527 0.007896
O O12 0.779846 0.131537 0.154372
O O13 0.991602 0.234725 0.382249
O O14 0.860098 0.133234 0.083790
O O15 0.087766 0.024597 0.988778
O O16 0.426365 0.580302 0.669343
#
# Coordination Sequence:
#
# PCOD9242173 Si02
#       8
#     4   4   4   4   4   4   4   4
#     4   9  22  37  63  91 126 161 197 256 308 369
#     4  11  24  40  70  88 118 173 204 255 304 367
#     4  11  24  40  65  92 123 165 201 255 313 364
#     4   9  20  39  62  91 127 162 196 257 310 363
#     4  10  19  40  61  92 124 162 209 243 308 368
#     4  11  24  46  63  89 124 163 215 254 304 361
#     4  10  21  38  60  92 127 160 201 252 306 370
#     4  11  24  41  64  94 124 159 210 258 304 367
#
# _framework density 19.494548999999999
#
# number of rings (size 3 to 8) (size 9 to 14) (size 15 to 20)
#    0.000    1.750    2.500    0.750    3.500    4.000 
#    0.000    1.250    0.000    0.000    0.000    0.000 
#    0.000    0.000    0.000    0.000    0.000    0.000 
#
# Total GULP energy -178870.598309 kJ/mol
# GULP energy per Si atom -5589.706197 kJ/mol
# Density = 1.945018 g / cm^3
# Si number density = 19.494549 Si / 1000 Ang^3
#
#
#
# Elastic Constant Matrix: (Units=GPa)
#
#
# Indices 1 2 3 4 5 6 
#
# 1 12.9714 -38.7121 1.7949 0.0000 -11.6539 0.0000
# 2 -38.7121 -70.5829 10.4031 0.0000 -23.1448 0.0000
# 3 1.7949 10.4031 100.2368 0.0000 -6.8590 0.0000
# 4 0.0000 0.0000 0.0000 29.7056 0.0000 10.6289
# 5 -11.6539 -23.1448 -6.8590 0.0000 20.8478 0.0000
# 6 0.0000 0.0000 0.0000 10.6289 0.0000 28.8342
#
#
#
# Elastic Compliance Matrix: (Units=1/GPa)
#
#
# Indices 1 2 3 4 5 6 
#
# 1 0.029379 -0.015730 0.001059 0.000000 -0.000692 0.000000
# 2 -0.015730 -0.001956 -0.000272 0.000000 -0.011054 0.000000
# 3 0.001059 -0.000272 0.010236 0.000000 0.003658 0.000000
# 4 0.000000 0.000000 0.000000 0.038778 0.000000 -0.014295
# 5 -0.000692 -0.011054 0.003658 0.000000 0.036512 0.000000
# 6 0.000000 0.000000 0.000000 -0.014295 0.000000 0.039950
#
#
# Mechanical properties :
#
#
# Convention : Reuss Voigt Hill
#
# Bulk Modulus (GPa) = 128.64218 -1.15585 63.74316
# Shear Modulus (GPa) = 26.97221 20.48682 23.72952
#
# Velocity S-wave (km/s) = 3.72368 3.24528 3.49268
# Velocity P-wave (km/s) = 9.19890 3.66718 7.00243
#
# Compressibility (1/GPa) = 0.00777350
#
# Stress axis : x y z
#
# Youngs Moduli (GPa) = 34.03807 -511.31011 97.69514
#
# Poissons Ratio (x) = -8.04298 -0.10347
# Poissons Ratio (y) = 0.53542 0.02655
# Poissons Ratio (z) = -0.03605 -0.13894
#
# Static dielectric constant tensor:
#      x y z
#    x 1.681980 0.000000 -0.027790 
#    y 0.000000 1.663410 0.000000 
#    z -0.027790 0.000000 1.662550 
# 
# From -- ./inp_files/43771.got.cif
#   From: 2010.05.17/outbox.cif.g08.bks.cpg/sg14_22_cif.got.tgz:43771.got - 2010.06.03 17:49:19.
