data_PCOD9242951
_publ_section_title
;
Structure prediction by ZEFSAII (Michael W. Deem and Ramdas Pophale) SiO2 
 PCOD9242951
Probable space group: P 21/C
;
_chemical_formula_sum "Si O2"
_cell_formula_units_Z 30
_cell_length_a 6.463223
_cell_length_b 22.748477
_cell_length_c 10.172584
_cell_angle_alpha 90.000000
_cell_angle_beta 62.431890
_cell_angle_gamma 90.000000
_cell_volume 1325.844327
_symmetry_space_group_name_H-M "P 21/C"
_symmetry_group_IT_number 14
_symmetry_cell_setting 'monoclinic'
loop_
_space_group_symop_operation_xyz
x,y,z
-x,1/2+y,1/2-z
-x,-y,-z
x,1/2-y,1/2+z
loop_
_atom_site_type_symbol
_atom_site_label
_atom_site_fract_x
_atom_site_fract_y
_atom_site_fract_z
Si Si1 0.654681 0.710632 0.025504
Si Si2 0.874094 0.357016 0.093327
Si Si3 0.884765 0.961971 0.861799
Si Si4 0.722403 0.120434 0.344452
Si Si5 0.391307 0.306317 0.257577
Si Si6 0.245303 0.439195 0.322629
Si Si7 0.500000 0.500000 0.000000
Si Si8 0.260001 0.513480 0.854424
O O1 0.434441 0.675547 0.152673
O O2 0.712408 0.766073 0.098672
O O3 0.608530 0.723705 0.885699
O O4 0.875671 0.668172 0.954760
O O5 0.661801 0.318750 0.211752
O O6 0.824185 0.422354 0.158531
O O7 0.840267 0.360112 0.946232
O O8 0.079358 0.910279 0.801890
O O9 0.015827 0.023648 0.856301
O O10 0.759115 0.968746 0.758425
O O11 0.715744 0.948180 0.033120
O O12 0.543556 0.068912 0.434786
O O13 0.268206 0.370624 0.285019
O O14 0.458277 0.473639 0.186250
O O15 0.792346 0.501893 0.979874
#
# Coordination Sequence:
#
# PCOD9242951 Si02
#       8
#     4   4   4   4   4   4   2   4
#     4  11  24  44  67  92 127 169 218 276 315 386
#     4   9  22  39  63  92 124 167 208 260 331 373
#     4  11  22  36  64  94 132 171 209 261 335 391
#     4  10  23  37  59  99 126 160 216 264 315 391
#     4  10  24  45  64  89 126 167 222 266 318 382
#     4  10  22  42  58  91 134 170 212 267 322 394
#     4  10  20  36  58  88 136 154 202 274 312 380
#     4  10  20  37  60  92 128 167 208 255 326 389
#
# _framework density 22.627089000000002
#
# number of rings (size 3 to 8) (size 9 to 14) (size 15 to 20)
#    0.000    1.867    1.333    2.000    3.733    5.333 
#    0.000    2.667    0.000    0.000    0.000    0.000 
#    0.000    0.000    0.000    0.000    0.000    0.000 
#
# Total GULP energy -167259.996826 kJ/mol
# GULP energy per Si atom -5575.333228 kJ/mol
# Density = 2.257559 g / cm^3
# Si number density = 22.627089 Si / 1000 Ang^3
#
#
#
# Elastic Constant Matrix: (Units=GPa)
#
#
# Indices 1 2 3 4 5 6 
#
# 1 43.4567 29.7661 20.1049 0.0000 12.9750 0.0000
# 2 29.7661 81.6764 37.2843 0.0000 12.5441 0.0000
# 3 20.1049 37.2843 107.3079 0.0000 10.4184 0.0000
# 4 0.0000 0.0000 0.0000 33.1796 0.0000 3.1717
# 5 12.9750 12.5441 10.4184 0.0000 30.4890 0.0000
# 6 0.0000 0.0000 0.0000 3.1717 0.0000 25.3691
#
#
#
# Elastic Compliance Matrix: (Units=1/GPa)
#
#
# Indices 1 2 3 4 5 6 
#
# 1 0.033510 -0.009869 -0.001923 0.000000 -0.009543 0.000000
# 2 -0.009869 0.018053 -0.004251 0.000000 -0.001775 0.000000
# 3 -0.001923 -0.004251 0.011281 0.000000 -0.001288 0.000000
# 4 0.000000 0.000000 0.000000 0.030504 0.000000 -0.003814
# 5 -0.009543 -0.001775 -0.001288 0.000000 0.038030 0.000000
# 6 0.000000 0.000000 0.000000 -0.003814 0.000000 0.039895
#
#
# Mechanical properties :
#
#
# Convention : Reuss Voigt Hill
#
# Bulk Modulus (GPa) = 32.51118 45.19463 38.85290
# Shear Modulus (GPa) = 23.40683 27.49325 25.45004
#
# Velocity S-wave (km/s) = 3.21979 3.48955 3.35738
# Velocity P-wave (km/s) = 5.31246 6.02105 5.67782
#
# Compressibility (1/GPa) = 0.03075865
#
# Stress axis : x y z
#
# Youngs Moduli (GPa) = 29.84165 55.39124 88.64174
#
# Poissons Ratio (x) = 0.54666 0.17044
# Poissons Ratio (y) = 0.29451 0.37684
# Poissons Ratio (z) = 0.05738 0.23549
#
# Static dielectric constant tensor:
#      x y z
#    x 2.165020 0.000000 -0.064620 
#    y 0.000000 1.840030 0.000000 
#    z -0.064620 0.000000 1.893590 
# 
# From -- ./inp_files/22077.got.cif
#   From: 2010.05.17/outbox.cif.g08.bks.cpg/sg14_12_cif.got.tgz:22077.got - 2010.06.03 17:49:19.
