data_PCOD9242507
_publ_section_title
;
Structure prediction by ZEFSAII (Michael W. Deem and Ramdas Pophale) SiO2 
 PCOD9242507
Probable space group: P 21/C
;
_chemical_formula_sum "Si O2"
_cell_formula_units_Z 12
_cell_length_a 9.766892
_cell_length_b 8.973904
_cell_length_c 8.108979
_cell_angle_alpha 90.000000
_cell_angle_beta 59.764396
_cell_angle_gamma 90.000000
_cell_volume 614.042808
_symmetry_space_group_name_H-M "P 21/C"
_symmetry_group_IT_number 14
_symmetry_cell_setting 'monoclinic'
loop_
_space_group_symop_operation_xyz
x,y,z
-x,1/2+y,1/2-z
-x,-y,-z
x,1/2-y,1/2+z
loop_
_atom_site_type_symbol
_atom_site_label
_atom_site_fract_x
_atom_site_fract_y
_atom_site_fract_z
Si Si1 0.822217 0.960562 0.061860
Si Si2 0.319154 0.172177 0.164068
Si Si3 0.477949 0.618197 0.157714
O O1 0.766327 0.817254 0.204798
O O2 0.700492 0.095646 0.173177
O O3 0.797090 0.915938 0.886002
O O4 0.000000 0.000000 0.000000
O O5 0.400881 0.088519 0.266157
O O6 0.463284 0.228390 0.958955
O O7 0.500000 0.500000 0.000000
#
# Coordination Sequence:
#
# PCOD9242507 Si02
#       3
#     4   4   4
#     4  10  20  34  53  79 104 132 170 216 256 292
#     4   9  19  36  53  74 105 137 172 205 249 313
#     4   9  18  34  54  73 100 139 171 203 251 307
#
# _framework density 19.542611999999998
#
# number of rings (size 3 to 8) (size 9 to 14) (size 15 to 20)
#    0.000    2.667    0.000    1.000    0.000    2.667 
#    0.000   15.000    0.000    0.000    0.000    0.000 
#    0.000    0.000    0.000    0.000    0.000    0.000 
#
# Total GULP energy -66890.872144 kJ/mol
# GULP energy per Si atom -5574.239345 kJ/mol
# Density = 1.949813 g / cm^3
# Si number density = 19.542612 Si / 1000 Ang^3
#
#
#
# Elastic Constant Matrix: (Units=GPa)
#
#
# Indices 1 2 3 4 5 6 
#
# 1 216.0487 53.6151 84.7577 0.0000 10.8800 0.0000
# 2 53.6151 42.4953 26.3195 0.0000 3.6534 0.0000
# 3 84.7577 26.3195 78.3167 0.0000 16.5389 0.0000
# 4 0.0000 0.0000 0.0000 27.0560 0.0000 3.0136
# 5 10.8800 3.6534 16.5389 0.0000 45.5999 0.0000
# 6 0.0000 0.0000 0.0000 3.0136 0.0000 36.1685
#
#
#
# Elastic Compliance Matrix: (Units=1/GPa)
#
#
# Indices 1 2 3 4 5 6 
#
# 1 0.009541 -0.007054 -0.008224 0.000000 0.001271 0.000000
# 2 -0.007054 0.035009 -0.004217 0.000000 0.000408 0.000000
# 3 -0.008224 -0.004217 0.024475 0.000000 -0.006577 0.000000
# 4 0.000000 0.000000 0.000000 0.037307 0.000000 -0.003108
# 5 0.001271 0.000408 -0.006577 0.000000 0.023979 0.000000
# 6 0.000000 0.000000 0.000000 -0.003108 0.000000 0.027907
#
#
# Mechanical properties :
#
#
# Convention : Reuss Voigt Hill
#
# Bulk Modulus (GPa) = 33.29461 74.02724 53.66092
# Shear Modulus (GPa) = 24.12887 33.24279 28.68583
#
# Velocity S-wave (km/s) = 3.51761 4.12884 3.83542
# Velocity P-wave (km/s) = 5.79414 7.79050 6.86527
#
# Compressibility (1/GPa) = 0.03003489
#
# Stress axis : x y z
#
# Youngs Moduli (GPa) = 104.80586 28.56444 40.85743
#
# Poissons Ratio (x) = 0.20149 0.33602
# Poissons Ratio (y) = 0.73929 0.17231
# Poissons Ratio (z) = 0.86194 0.12046
#
# Static dielectric constant tensor:
#      x y z
#    x 1.661810 0.000000 0.016510 
#    y 0.000000 1.749670 0.000000 
#    z 0.016510 0.000000 1.717770 
# 
# From -- ./inp_files/4741.got.cif
#   From: 2010.05.17/outbox.cif.g08.bks.cpg/sg14_3_cif.got.tgz:4741.got - 2010.06.03 17:49:19.
