data_PCOD9242422
_publ_section_title
;
Structure prediction by ZEFSAII (Michael W. Deem and Ramdas Pophale) SiO2 
 PCOD9242422
Probable space group: P 21/C
;
_chemical_formula_sum "Si O2"
_cell_formula_units_Z 32
_cell_length_a 12.483650
_cell_length_b 13.422022
_cell_length_c 8.408700
_cell_angle_alpha 90.000000
_cell_angle_beta 99.776068
_cell_angle_gamma 90.000000
_cell_volume 1388.467511
_symmetry_space_group_name_H-M "P 21/C"
_symmetry_group_IT_number 14
_symmetry_cell_setting 'monoclinic'
loop_
_space_group_symop_operation_xyz
x,y,z
-x,1/2+y,1/2-z
-x,-y,-z
x,1/2-y,1/2+z
loop_
_atom_site_type_symbol
_atom_site_label
_atom_site_fract_x
_atom_site_fract_y
_atom_site_fract_z
Si Si1 0.412164 0.350785 0.044242
Si Si2 0.866412 0.158975 0.167817
Si Si3 0.397839 0.363324 0.414574
Si Si4 0.912804 0.869777 0.364342
Si Si5 0.990701 0.688968 0.582865
Si Si6 0.629927 0.423420 0.986157
Si Si7 0.364459 0.914109 0.896789
Si Si8 0.857178 0.049235 0.491162
O O1 0.388656 0.355785 0.223650
O O2 0.383807 0.460418 0.964932
O O3 0.365630 0.245923 0.970736
O O4 0.542818 0.353850 0.047897
O O5 0.926143 0.250719 0.276842
O O6 0.738560 0.156742 0.093515
O O7 0.869000 0.079759 0.310350
O O8 0.934686 0.132847 0.027222
O O9 0.524109 0.379382 0.495103
O O10 0.343682 0.470359 0.444923
O O11 0.927936 0.766024 0.455044
O O12 0.900333 0.859537 0.173698
O O13 0.837263 0.932710 0.462150
O O14 0.030781 0.924231 0.400540
O O15 0.616546 0.416405 0.790534
O O16 0.755831 0.397841 0.044917
#
# Coordination Sequence:
#
# PCOD9242422 Si02
#       8
#     4   4   4   4   4   4   4   4
#     4  10  20  34  53  74 102 135 171 212 253 305
#     4   9  18  32  51  75 103 133 172 217 255 303
#     4  10  20  33  51  74 103 137 168 210 261 304
#     4   9  18  33  52  74 102 132 165 209 254 304
#     4   9  18  32  52  77 101 131 173 213 254 301
#     4   9  19  36  54  74  99 134 174 211 255 307
#     4   9  19  34  50  72 103 134 171 212 256 303
#     4   9  18  34  53  72 101 134 164 207 262 305
#
# _framework density 23.046991999999999
#
# number of rings (size 3 to 8) (size 9 to 14) (size 15 to 20)
#    0.000    2.750    0.000    0.750    0.000    7.500 
#    0.000    3.750    0.000    0.000    0.000    0.000 
#    0.000    0.000    0.000    0.000    0.000    0.000 
#
# Total GULP energy -178234.092516 kJ/mol
# GULP energy per Si atom -5569.815391 kJ/mol
# Density = 2.299454 g / cm^3
# Si number density = 23.046992 Si / 1000 Ang^3
#
#
#
# Elastic Constant Matrix: (Units=GPa)
#
#
# Indices 1 2 3 4 5 6 
#
# 1 35.8638 -14.1107 -12.7358 0.0000 4.6827 0.0000
# 2 -14.1107 70.6745 0.2402 0.0000 -6.2489 0.0000
# 3 -12.7358 0.2402 26.7965 0.0000 -5.5800 0.0000
# 4 0.0000 0.0000 0.0000 31.5461 0.0000 -4.7924
# 5 4.6827 -6.2489 -5.5800 0.0000 25.4361 0.0000
# 6 0.0000 0.0000 0.0000 -4.7924 0.0000 20.9743
#
#
#
# Elastic Compliance Matrix: (Units=1/GPa)
#
#
# Indices 1 2 3 4 5 6 
#
# 1 0.037021 0.007222 0.017270 0.000000 -0.001253 0.000000
# 2 0.007222 0.015883 0.004009 0.000000 0.003452 0.000000
# 3 0.017270 0.004009 0.047189 0.000000 0.008158 0.000000
# 4 0.000000 0.000000 0.000000 0.032840 0.000000 0.007503
# 5 -0.001253 0.003452 0.008158 0.000000 0.042182 0.000000
# 6 0.000000 0.000000 0.000000 0.007503 0.000000 0.049392
#
#
# Mechanical properties :
#
#
# Convention : Reuss Voigt Hill
#
# Bulk Modulus (GPa) = 6.36557 8.90245 7.63401
# Shear Modulus (GPa) = 22.74070 26.25406 24.49738
#
# Velocity S-wave (km/s) = 3.14460 3.37880 3.26380
# Velocity P-wave (km/s) = 3.99408 4.36953 4.18602
#
# Compressibility (1/GPa) = 0.15709517
#
# Stress axis : x y z
#
# Youngs Moduli (GPa) = 27.01153 62.96078 21.19135
#
# Poissons Ratio (x) = -0.45471 -0.36597
# Poissons Ratio (y) = -0.19508 -0.08496
# Poissons Ratio (z) = -0.46649 -0.25241
#
# Static dielectric constant tensor:
#      x y z
#    x 1.939880 0.000000 0.011880 
#    y 0.000000 2.044020 0.000000 
#    z 0.011880 0.000000 1.827900 
# 
# From -- ./inp_files/16089.got.cif
#   From: 2010.05.17/outbox.cif.g08.bks.cpg/sg14_9_cif.got.tgz:16089.got - 2010.06.03 17:49:19.
