data_PCOD9242550
_publ_section_title
;
Structure prediction by ZEFSAII (Michael W. Deem and Ramdas Pophale) SiO2 
 PCOD9242550
Probable space group: P 21/C
;
_chemical_formula_sum "Si O2"
_cell_formula_units_Z 28
_cell_length_a 16.286913
_cell_length_b 8.759148
_cell_length_c 8.481437
_cell_angle_alpha 90.000000
_cell_angle_beta 98.552211
_cell_angle_gamma 90.000000
_cell_volume 1196.503598
_symmetry_space_group_name_H-M "P 21/C"
_symmetry_group_IT_number 14
_symmetry_cell_setting 'monoclinic'
loop_
_space_group_symop_operation_xyz
x,y,z
-x,1/2+y,1/2-z
-x,-y,-z
x,1/2-y,1/2+z
loop_
_atom_site_type_symbol
_atom_site_label
_atom_site_fract_x
_atom_site_fract_y
_atom_site_fract_z
Si Si1 0.245737 0.651890 0.553398
Si Si2 0.410897 0.057628 0.414027
Si Si3 0.034384 0.118292 0.882971
Si Si4 0.086995 0.417923 0.063804
Si Si5 0.461148 0.139247 0.089835
Si Si6 0.356270 0.765973 0.846718
Si Si7 0.143829 0.623228 0.815470
O O1 0.295544 0.766473 0.682269
O O2 0.321215 0.607145 0.458093
O O3 0.191409 0.566926 0.670678
O O4 0.183184 0.731568 0.414168
O O5 0.413081 0.082627 0.228235
O O6 0.407736 0.227226 0.489753
O O7 0.500000 0.000000 0.500000
O O8 0.352705 0.908075 0.417154
O O9 0.094684 0.071958 0.754869
O O10 0.949179 0.167573 0.767777
O O11 0.076909 0.247416 0.999060
O O12 0.000000 0.000000 0.000000
O O13 0.146640 0.500354 0.956777
O O14 0.000000 0.500000 0.000000
O O15 0.548715 0.212856 0.175190
O O16 0.500000 0.000000 0.000000
#
# Coordination Sequence:
#
# PCOD9242550 Si02
#       7
#     4   4   4   4   4   4   4
#     4  10  21  36  58  78 118 164 206 247 288 385
#     4  10  20  34  55  87 124 154 201 259 310 368
#     4  11  22  38  62  92 127 160 195 261 327 367
#     4  10  20  35  58  90 123 151 199 258 305 360
#     4  11  20  34  60  91 121 155 197 262 326 369
#     4  10  20  37  57  86 116 158 207 253 311 369
#     4  10  21  36  57  90 118 160 211 252 310 370
#
# _framework density 23.401516999999998
#
# number of rings (size 3 to 8) (size 9 to 14) (size 15 to 20)
#    0.000    1.714    0.000    7.714    0.000    3.429 
#    0.000    0.000    0.000   27.429    0.000    0.000 
#    0.000    0.000    0.000    0.000    0.000    0.000 
#
# Total GULP energy -155918.405850 kJ/mol
# GULP energy per Si atom -5568.514495 kJ/mol
# Density = 2.334825 g / cm^3
# Si number density = 23.401517 Si / 1000 Ang^3
#
#
#
# Elastic Constant Matrix: (Units=GPa)
#
#
# Indices 1 2 3 4 5 6 
#
# 1 54.0604 1.4911 14.0887 0.0000 -3.0266 0.0000
# 2 1.4911 101.8972 43.3828 0.0000 -6.0282 0.0000
# 3 14.0887 43.3828 133.4999 0.0000 -14.9339 0.0000
# 4 0.0000 0.0000 0.0000 46.5068 0.0000 -9.3886
# 5 -3.0266 -6.0282 -14.9339 0.0000 50.7193 0.0000
# 6 0.0000 0.0000 0.0000 -9.3886 0.0000 15.4665
#
#
#
# Elastic Compliance Matrix: (Units=1/GPa)
#
#
# Indices 1 2 3 4 5 6 
#
# 1 0.019077 0.000679 -0.002169 0.000000 0.000580 0.000000
# 2 0.000679 0.011417 -0.003749 0.000000 0.000294 0.000000
# 3 -0.002169 -0.003749 0.009176 0.000000 0.002127 0.000000
# 4 0.000000 0.000000 0.000000 0.024505 0.000000 0.014875
# 5 0.000580 0.000294 0.002127 0.000000 0.020412 0.000000
# 6 0.000000 0.000000 0.000000 0.014875 0.000000 0.073685
#
#
# Mechanical properties :
#
#
# Convention : Reuss Voigt Hill
#
# Bulk Modulus (GPa) = 34.25669 45.26474 39.76072
# Shear Modulus (GPa) = 28.01408 37.90486 32.95947
#
# Velocity S-wave (km/s) = 3.46367 4.02899 3.75698
# Velocity P-wave (km/s) = 5.53773 6.40534 5.98727
#
# Compressibility (1/GPa) = 0.02919138
#
# Stress axis : x y z
#
# Youngs Moduli (GPa) = 52.41965 87.58564 108.98317
#
# Poissons Ratio (x) = -0.05943 0.23637
# Poissons Ratio (y) = -0.03557 0.40858
# Poissons Ratio (z) = 0.11369 0.32836
#
# Static dielectric constant tensor:
#      x y z
#    x 1.962220 0.000000 -0.051120 
#    y 0.000000 1.978820 0.000000 
#    z -0.051120 0.000000 1.916220 
# 
# From -- ./inp_files/17575.got.cif
#   From: 2010.05.17/outbox.cif.g08.bks.cpg/sg14_9_cif.got.tgz:17575.got - 2010.06.03 17:49:19.
