data_PCOD9242197
_publ_section_title
;
Structure prediction by ZEFSAII (Michael W. Deem and Ramdas Pophale) SiO2 
 PCOD9242197
Probable space group: P 21/C
;
_chemical_formula_sum "Si O2"
_cell_formula_units_Z 32
_cell_length_a 13.047020
_cell_length_b 12.149482
_cell_length_c 11.850479
_cell_angle_alpha 90.000000
_cell_angle_beta 118.148813
_cell_angle_gamma 90.000000
_cell_volume 1656.297255
_symmetry_space_group_name_H-M "P 21/C"
_symmetry_group_IT_number 14
_symmetry_cell_setting 'monoclinic'
loop_
_space_group_symop_operation_xyz
x,y,z
-x,1/2+y,1/2-z
-x,-y,-z
x,1/2-y,1/2+z
loop_
_atom_site_type_symbol
_atom_site_label
_atom_site_fract_x
_atom_site_fract_y
_atom_site_fract_z
Si Si1 0.415129 0.669980 0.976597
Si Si2 0.763078 0.916158 0.803611
Si Si3 0.994160 0.892089 0.423341
Si Si4 0.937467 0.810523 0.053512
Si Si5 0.786318 0.806538 0.182418
Si Si6 0.839428 0.111635 0.691572
Si Si7 0.457048 0.397803 0.405930
Si Si8 0.491640 0.983731 0.314224
O O1 0.279862 0.679591 0.873303
O O2 0.478022 0.612492 0.901463
O O3 0.467209 0.787226 0.037718
O O4 0.434492 0.581429 0.088040
O O5 0.754775 0.793630 0.749272
O O6 0.637900 0.964711 0.775001
O O7 0.804703 0.993503 0.723321
O O8 0.863046 0.905192 0.950794
O O9 0.976873 0.783301 0.488138
O O10 0.881290 0.888448 0.284839
O O11 0.107499 0.888783 0.404966
O O12 0.000000 0.000000 0.500000
O O13 0.847653 0.764452 0.100533
O O14 0.055405 0.847743 0.175200
O O15 0.667962 0.870035 0.107366
O O16 0.500000 0.500000 0.500000
O O17 0.457273 0.434333 0.274523
#
# Coordination Sequence:
#
# PCOD9242197 Si02
#       8
#     4   4   4   4   4   4   4   4
#     4  10  24  43  63  94 131 174 210 267 335 394
#     4  10  19  40  64  86 119 170 210 262 318 383
#     4  10  22  37  59  89 117 165 203 259 315 371
#     4  10  21  38  62  89 126 162 209 265 318 374
#     4  10  22  39  59  90 123 160 217 260 303 392
#     4  10  22  38  61  92 124 161 210 256 326 383
#     4  12  26  40  67 100 129 169 222 276 321 388
#     4  10  23  43  66  92 128 173 216 269 334 384
#
# _framework density 19.320205000000001
#
# number of rings (size 3 to 8) (size 9 to 14) (size 15 to 20)
#    0.000    1.750    1.250    1.875    3.500    5.000 
#    0.000    3.750    0.000    0.000    0.000    0.000 
#    0.000    0.000    0.000    0.000    0.000    0.000 
#
# Total GULP energy -178546.354363 kJ/mol
# GULP energy per Si atom -5579.573574 kJ/mol
# Density = 1.927623 g / cm^3
# Si number density = 19.320205 Si / 1000 Ang^3
#
#
#
# Elastic Constant Matrix: (Units=GPa)
#
#
# Indices 1 2 3 4 5 6 
#
# 1 61.1714 3.7641 11.9244 0.0000 19.6245 0.0000
# 2 3.7641 54.6711 14.2976 0.0000 11.5036 0.0000
# 3 11.9244 14.2976 70.0791 0.0000 3.9439 0.0000
# 4 0.0000 0.0000 0.0000 31.8584 0.0000 -3.8435
# 5 19.6245 11.5036 3.9439 0.0000 25.8429 0.0000
# 6 0.0000 0.0000 0.0000 -3.8435 0.0000 15.8108
#
#
#
# Elastic Compliance Matrix: (Units=1/GPa)
#
#
# Indices 1 2 3 4 5 6 
#
# 1 0.022622 0.003150 -0.003476 0.000000 -0.018050 0.000000
# 2 0.003150 0.021586 -0.004302 0.000000 -0.011344 0.000000
# 3 -0.003476 -0.004302 0.015616 0.000000 0.002171 0.000000
# 4 0.000000 0.000000 0.000000 0.032337 0.000000 0.007861
# 5 -0.018050 -0.011344 0.002171 0.000000 0.057120 0.000000
# 6 0.000000 0.000000 0.000000 0.007861 0.000000 0.065159
#
#
# Mechanical properties :
#
#
# Convention : Reuss Voigt Hill
#
# Bulk Modulus (GPa) = 19.77513 27.32154 23.54834
# Shear Modulus (GPa) = 20.78542 25.09814 22.94178
#
# Velocity S-wave (km/s) = 3.28356 3.60816 3.44968
# Velocity P-wave (km/s) = 4.96320 5.61521 5.29924
#
# Compressibility (1/GPa) = 0.05056858
#
# Stress axis : x y z
#
# Youngs Moduli (GPa) = 44.20485 46.32587 64.03496
#
# Poissons Ratio (x) = -0.14590 0.22259
# Poissons Ratio (y) = -0.13922 0.27545
# Poissons Ratio (z) = 0.15366 0.19927
#
# Static dielectric constant tensor:
#      x y z
#    x 1.703340 0.000000 -0.008780 
#    y 0.000000 1.625300 0.000000 
#    z -0.008780 0.000000 1.718910 
# 
# From -- ./inp_files/29381.got.cif
#   From: 2010.05.17/outbox.cif.g08.bks.cpg/sg14_15_cif.got.tgz:29381.got - 2010.06.03 17:49:19.
