data_PCOD9242703
_publ_section_title
;
Structure prediction by ZEFSAII (Michael W. Deem and Ramdas Pophale) SiO2 
 PCOD9242703
Probable space group: P 21/C
;
_chemical_formula_sum "Si O2"
_cell_formula_units_Z 32
_cell_length_a 8.623007
_cell_length_b 22.699084
_cell_length_c 13.378941
_cell_angle_alpha 90.000000
_cell_angle_beta 146.788050
_cell_angle_gamma 90.000000
_cell_volume 1434.370911
_symmetry_space_group_name_H-M "P 21/C"
_symmetry_group_IT_number 14
_symmetry_cell_setting 'monoclinic'
loop_
_space_group_symop_operation_xyz
x,y,z
-x,1/2+y,1/2-z
-x,-y,-z
x,1/2-y,1/2+z
loop_
_atom_site_type_symbol
_atom_site_label
_atom_site_fract_x
_atom_site_fract_y
_atom_site_fract_z
Si Si1 0.107375 0.886709 0.597829
Si Si2 0.108484 0.323249 0.830027
Si Si3 0.996676 0.866903 0.048319
Si Si4 0.354802 0.041552 0.042347
Si Si5 0.299222 0.784260 0.340993
Si Si6 0.740138 0.935038 0.232326
Si Si7 0.523877 0.218155 0.267844
Si Si8 0.354971 0.661593 0.566822
O O1 0.899173 0.858605 0.569072
O O2 0.973746 0.931393 0.445326
O O3 0.365426 0.916461 0.798408
O O4 0.237453 0.832096 0.605960
O O5 0.921434 0.264094 0.740845
O O6 0.914439 0.355456 0.645093
O O7 0.418106 0.309054 0.956095
O O8 0.850007 0.929011 0.987059
O O9 0.773651 0.816818 0.889141
O O10 0.269412 0.866275 0.126090
O O11 0.107900 0.840223 0.211667
O O12 0.482465 0.977269 0.127769
O O13 0.210007 0.044219 0.854580
O O14 0.438585 0.751676 0.318515
O O15 0.625512 0.868547 0.165357
O O16 0.580956 0.269954 0.377289
#
# Coordination Sequence:
#
# PCOD9242703 Si02
#       8
#     4   4   4   4   4   4   4   4
#     4  10  20  40  66  92 124 165 209 269 318 377
#     4  11  22  36  58  93 131 163 215 258 320 386
#     4  10  21  41  59  86 131 160 212 263 319 374
#     4  10  23  44  65  94 122 167 225 268 314 381
#     4  10  20  35  57  83 125 173 198 255 319 374
#     4  11  23  41  70  92 122 169 220 269 319 374
#     4   9  20  36  57  89 124 162 205 254 313 391
#     4  11  24  35  59  92 126 166 208 259 322 385
#
# _framework density 22.309429999999999
#
# number of rings (size 3 to 8) (size 9 to 14) (size 15 to 20)
#    0.000    1.750    2.500    1.875    5.250    1.500 
#    2.250    0.000    0.000    1.500    0.000    0.000 
#    0.000    0.000    0.000    0.000    0.000    0.000 
#
# Total GULP energy -178468.583662 kJ/mol
# GULP energy per Si atom -5577.143239 kJ/mol
# Density = 2.225865 g / cm^3
# Si number density = 22.309430 Si / 1000 Ang^3
#
#
#
# Elastic Constant Matrix: (Units=GPa)
#
#
# Indices 1 2 3 4 5 6 
#
# 1 16.4376 8.6468 4.3139 0.0000 5.6157 0.0000
# 2 8.6468 67.4901 1.1304 0.0000 -1.8117 0.0000
# 3 4.3139 1.1304 91.3817 0.0000 -5.5880 0.0000
# 4 0.0000 0.0000 0.0000 28.4085 0.0000 -0.0048
# 5 5.6157 -1.8117 -5.5880 0.0000 18.2189 0.0000
# 6 0.0000 0.0000 0.0000 -0.0048 0.0000 24.8712
#
#
#
# Elastic Compliance Matrix: (Units=1/GPa)
#
#
# Indices 1 2 3 4 5 6 
#
# 1 0.076617 -0.010435 -0.005091 0.000000 -0.026215 0.000000
# 2 -0.010435 0.016279 0.000598 0.000000 0.005018 0.000000
# 3 -0.005091 0.000598 0.011491 0.000000 0.005153 0.000000
# 4 0.000000 0.000000 0.000000 0.035201 0.000000 0.000007
# 5 -0.026215 0.005018 0.005153 0.000000 0.065048 0.000000
# 6 0.000000 0.000000 0.000000 0.000007 0.000000 0.040207
#
#
# Mechanical properties :
#
#
# Convention : Reuss Voigt Hill
#
# Bulk Modulus (GPa) = 13.41704 22.61019 18.01362
# Shear Modulus (GPa) = 16.69219 25.04761 20.86990
#
# Velocity S-wave (km/s) = 2.73831 3.35436 3.06187
# Velocity P-wave (km/s) = 4.00312 5.01589 4.53785
#
# Compressibility (1/GPa) = 0.07453206
#
# Stress axis : x y z
#
# Youngs Moduli (GPa) = 13.05192 61.43053 87.02348
#
# Poissons Ratio (x) = 0.64100 0.44303
# Poissons Ratio (y) = 0.13619 -0.05205
# Poissons Ratio (z) = 0.06645 -0.03674
#
# Static dielectric constant tensor:
#      x y z
#    x 1.830860 0.000000 -0.043850 
#    y 0.000000 1.838720 0.000000 
#    z -0.043850 0.000000 1.868870 
# 
# From -- ./inp_files/42252.got.cif
#   From: 2010.05.17/outbox.cif.g08.bks.cpg/sg14_22_cif.got.tgz:42252.got - 2010.06.03 17:49:19.
