data_PCOD9242715
_publ_section_title
;
Structure prediction by ZEFSAII (Michael W. Deem and Ramdas Pophale) SiO2 
 PCOD9242715
Probable space group: P 21/C
;
_chemical_formula_sum "Si O2"
_cell_formula_units_Z 24
_cell_length_a 7.090731
_cell_length_b 13.802829
_cell_length_c 11.865511
_cell_angle_alpha 90.000000
_cell_angle_beta 53.198240
_cell_angle_gamma 90.000000
_cell_volume 929.870408
_symmetry_space_group_name_H-M "P 21/C"
_symmetry_group_IT_number 14
_symmetry_cell_setting 'monoclinic'
loop_
_space_group_symop_operation_xyz
x,y,z
-x,1/2+y,1/2-z
-x,-y,-z
x,1/2-y,1/2+z
loop_
_atom_site_type_symbol
_atom_site_label
_atom_site_fract_x
_atom_site_fract_y
_atom_site_fract_z
Si Si1 0.202699 0.369262 0.679173
Si Si2 0.545351 0.351863 0.363189
Si Si3 0.053724 0.956866 0.361782
Si Si4 0.608325 0.275257 0.640420
Si Si5 0.377557 0.404426 0.100874
Si Si6 0.008132 0.823896 0.137409
O O1 0.309352 0.372471 0.515576
O O2 0.047656 0.459398 0.769964
O O3 0.440647 0.364429 0.669572
O O4 0.075596 0.273456 0.769779
O O5 0.676865 0.421875 0.228155
O O6 0.543209 0.255136 0.290055
O O7 0.759507 0.355511 0.377282
O O8 0.000000 0.000000 0.500000
O O9 0.839397 0.884504 0.408995
O O10 0.544307 0.187863 0.571852
O O11 0.881419 0.298675 0.523080
O O12 0.208892 0.398768 0.275008
O O13 0.500000 0.500000 0.000000
#
# Coordination Sequence:
#
# PCOD9242715 Si02
#       6
#     4   4   4   4   4   4
#     4  10  21  37  58  85 117 151 196 249 295 357
#     4  10  21  37  57  83 114 151 194 245 303 356
#     4  11  22  37  59  84 116 158 198 244 302 360
#     4  10  21  39  60  85 118 158 201 246 301 361
#     4  10  20  35  57  85 117 151 194 247 298 354
#     4   9  20  35  55  82 110 147 193 237 287 352
#
# _framework density 25.810047999999998
#
# number of rings (size 3 to 8) (size 9 to 14) (size 15 to 20)
#    0.000    2.000    0.000    3.500    0.000    8.000 
#    0.000    2.500    0.000    0.000    0.000    0.000 
#    0.000    0.000    0.000    0.000    0.000    0.000 
#
# Total GULP energy -133622.223113 kJ/mol
# GULP energy per Si atom -5567.592630 kJ/mol
# Density = 2.575130 g / cm^3
# Si number density = 25.810048 Si / 1000 Ang^3
#
#
#
# Elastic Constant Matrix: (Units=GPa)
#
#
# Indices 1 2 3 4 5 6 
#
# 1 71.6577 12.5060 20.2483 0.0000 -14.3309 0.0000
# 2 12.5060 55.7170 22.4907 0.0000 -18.5013 0.0000
# 3 20.2483 22.4907 193.8195 0.0000 -9.7881 0.0000
# 4 0.0000 0.0000 0.0000 47.3902 0.0000 -9.6415
# 5 -14.3309 -18.5013 -9.7881 0.0000 32.6097 0.0000
# 6 0.0000 0.0000 0.0000 -9.6415 0.0000 34.8102
#
#
#
# Elastic Compliance Matrix: (Units=1/GPa)
#
#
# Indices 1 2 3 4 5 6 
#
# 1 0.015667 -0.001061 -0.001215 0.000000 0.005919 0.000000
# 2 -0.001061 0.022946 -0.001947 0.000000 0.011968 0.000000
# 3 -0.001215 -0.001947 0.005513 0.000000 0.000016 0.000000
# 4 0.000000 0.000000 0.000000 0.022361 0.000000 0.006194
# 5 0.005919 0.011968 0.000016 0.000000 0.040062 0.000000
# 6 0.000000 0.000000 0.000000 0.006194 0.000000 0.030443
#
#
# Mechanical properties :
#
#
# Convention : Reuss Voigt Hill
#
# Bulk Modulus (GPa) = 28.02660 47.96491 37.99576
# Shear Modulus (GPa) = 31.77993 40.69197 36.23595
#
# Velocity S-wave (km/s) = 3.51280 3.97494 3.75099
# Velocity P-wave (km/s) = 5.22832 6.30008 5.78906
#
# Compressibility (1/GPa) = 0.03568039
#
# Stress axis : x y z
#
# Youngs Moduli (GPa) = 63.82696 43.58044 181.38505
#
# Poissons Ratio (x) = 0.04624 0.22034
# Poissons Ratio (y) = 0.06771 0.35323
# Poissons Ratio (z) = 0.07753 0.08487
#
# Static dielectric constant tensor:
#      x y z
#    x 2.180600 0.000000 0.028460 
#    y 0.000000 2.146440 0.000000 
#    z 0.028460 0.000000 2.225970 
# 
# From -- ./inp_files/41080.got.cif
#   From: 2010.05.17/outbox.cif.g08.bks.cpg/sg14_21_cif.got.tgz:41080.got - 2010.06.03 17:49:19.
