data_PCOD9242963
_publ_section_title
;
Structure prediction by ZEFSAII (Michael W. Deem and Ramdas Pophale) SiO2 
 PCOD9242963
Probable space group: P 21/C
;
_chemical_formula_sum "Si O2"
_cell_formula_units_Z 32
_cell_length_a 12.692167
_cell_length_b 12.423871
_cell_length_c 9.175782
_cell_angle_alpha 90.000000
_cell_angle_beta 123.697986
_cell_angle_gamma 90.000000
_cell_volume 1203.775103
_symmetry_space_group_name_H-M "P 21/C"
_symmetry_group_IT_number 14
_symmetry_cell_setting 'monoclinic'
loop_
_space_group_symop_operation_xyz
x,y,z
-x,1/2+y,1/2-z
-x,-y,-z
x,1/2-y,1/2+z
loop_
_atom_site_type_symbol
_atom_site_label
_atom_site_fract_x
_atom_site_fract_y
_atom_site_fract_z
Si Si1 0.235246 0.269704 0.337110
Si Si2 0.717603 0.143907 0.549133
Si Si3 0.085335 0.134264 0.468807
Si Si4 0.869796 0.217091 0.930235
Si Si5 0.546074 0.500355 0.773523
Si Si6 0.698032 0.890657 0.860850
Si Si7 0.880220 0.039848 0.155609
Si Si8 0.398310 0.857582 0.964975
O O1 0.336449 0.325169 0.518922
O O2 0.155799 0.200638 0.395332
O O3 0.284320 0.185171 0.260112
O O4 0.172408 0.362975 0.183029
O O5 0.809213 0.145417 0.756623
O O6 0.778934 0.205002 0.456420
O O7 0.664659 0.027215 0.465826
O O8 0.613727 0.229776 0.528351
O O9 0.970584 0.208785 0.431982
O O10 0.007192 0.029144 0.352205
O O11 0.927564 0.133896 0.085890
O O12 0.415386 0.472078 0.753772
O O13 0.570799 0.415616 0.661807
O O14 0.507994 0.608767 0.663340
O O15 0.830614 0.942911 0.017035
O O16 0.743589 0.090600 0.107931
#
# Coordination Sequence:
#
# PCOD9242963 Si02
#       8
#     4   4   4   4   4   4   4   4
#     4  10  23  39  57  84 111 156 203 235 288 357
#     4  11  19  33  58  90 114 151 188 232 292 356
#     4  11  18  37  63  83 115 146 187 252 299 338
#     4  11  19  34  61  91 117 140 188 241 304 347
#     4  10  20  36  59  80 120 160 187 232 286 341
#     4  10  24  41  58  79 121 158 198 238 282 347
#     4  10  20  37  63  88 118 147 188 248 301 340
#     4   9  19  35  56  89 114 146 194 232 284 352
#
# _framework density 26.583038999999999
#
# number of rings (size 3 to 8) (size 9 to 14) (size 15 to 20)
#    0.000    1.750    5.000    0.000    1.750    1.000 
#    0.000    6.875   11.000    0.000    0.000    0.000 
#    0.000    0.000    0.000    0.000    0.000    0.000 
#
# Total GULP energy -178770.168090 kJ/mol
# GULP energy per Si atom -5586.567753 kJ/mol
# Density = 2.652254 g / cm^3
# Si number density = 26.583039 Si / 1000 Ang^3
#
#
#
# Elastic Constant Matrix: (Units=GPa)
#
#
# Indices 1 2 3 4 5 6 
#
# 1 57.7795 -0.0739 27.4722 0.0000 -6.1120 0.0000
# 2 -0.0739 39.2094 -4.2210 0.0000 -2.9497 0.0000
# 3 27.4722 -4.2210 109.0891 0.0000 -7.3350 0.0000
# 4 0.0000 0.0000 0.0000 40.0204 0.0000 6.9578
# 5 -6.1120 -2.9497 -7.3350 0.0000 32.9018 0.0000
# 6 0.0000 0.0000 0.0000 6.9578 0.0000 23.5217
#
#
#
# Elastic Compliance Matrix: (Units=1/GPa)
#
#
# Indices 1 2 3 4 5 6 
#
# 1 0.019884 -0.000289 -0.004845 0.000000 0.002588 0.000000
# 2 -0.000289 0.025828 0.001243 0.000000 0.002539 0.000000
# 3 -0.004845 0.001243 0.010540 0.000000 0.001561 0.000000
# 4 0.000000 0.000000 0.000000 0.026342 0.000000 -0.007792
# 5 0.002588 0.002539 0.001561 0.000000 0.031450 0.000000
# 6 0.000000 0.000000 0.000000 -0.007792 0.000000 0.044819
#
#
# Mechanical properties :
#
#
# Convention : Reuss Voigt Hill
#
# Bulk Modulus (GPa) = 20.63124 28.04807 24.33966
# Shear Modulus (GPa) = 27.35202 31.48216 29.41709
#
# Velocity S-wave (km/s) = 3.21117 3.44509 3.33019
# Velocity P-wave (km/s) = 4.63969 5.13799 4.89518
#
# Compressibility (1/GPa) = 0.04847018
#
# Stress axis : x y z
#
# Youngs Moduli (GPa) = 50.29167 38.71711 94.87728
#
# Poissons Ratio (x) = 0.01120 0.45965
# Poissons Ratio (y) = 0.01455 -0.11793
# Poissons Ratio (z) = 0.24365 -0.04812
#
# Static dielectric constant tensor:
#      x y z
#    x 2.073550 0.000000 0.027440 
#    y 0.000000 2.093000 0.000000 
#    z 0.027440 0.000000 2.182820 
# 
# From -- ./inp_files/16242.got.cif
#   From: 2010.05.17/outbox.cif.g08.bks.cpg/sg14_9_cif.got.tgz:16242.got - 2010.06.03 17:49:19.
