data_PCOD9242182
_publ_section_title
;
Structure prediction by ZEFSAII (Michael W. Deem and Ramdas Pophale) SiO2 
 PCOD9242182
Probable space group: P 21/C
;
_chemical_formula_sum "Si O2"
_cell_formula_units_Z 26
_cell_length_a 10.051795
_cell_length_b 8.216794
_cell_length_c 13.793375
_cell_angle_alpha 90.000000
_cell_angle_beta 108.606034
_cell_angle_gamma 90.000000
_cell_volume 1079.700742
_symmetry_space_group_name_H-M "P 21/C"
_symmetry_group_IT_number 14
_symmetry_cell_setting 'monoclinic'
loop_
_space_group_symop_operation_xyz
x,y,z
-x,1/2+y,1/2-z
-x,-y,-z
x,1/2-y,1/2+z
loop_
_atom_site_type_symbol
_atom_site_label
_atom_site_fract_x
_atom_site_fract_y
_atom_site_fract_z
Si Si1 0.283445 0.967844 0.686308
Si Si2 0.638370 0.558938 0.472074
Si Si3 0.122007 0.950352 0.315213
Si Si4 0.131543 0.565466 0.343239
Si Si5 0.000000 0.000000 0.500000
Si Si6 0.601671 0.872358 0.574146
Si Si7 0.543226 0.158617 0.792352
O O1 0.215481 0.017876 0.773754
O O2 0.343972 0.785939 0.721298
O O3 0.166566 0.970559 0.575874
O O4 0.414599 0.088954 0.700394
O O5 0.500000 0.500000 0.500000
O O6 0.778359 0.470072 0.541320
O O7 0.656064 0.744772 0.506542
O O8 0.610876 0.502000 0.356871
O O9 0.273106 0.031223 0.346077
O O10 0.024920 0.997305 0.201535
O O11 0.125075 0.757347 0.326808
O O12 0.050597 0.014979 0.397975
O O13 0.520281 0.765613 0.634383
O O14 0.500000 0.000000 0.500000
#
# Coordination Sequence:
#
# PCOD9242182 Si02
#       7
#     4   4   4   4   2   4   4
#     4  11  24  43  67 100 140 181 226 287 352 409
#     4  10  19  40  62  91 127 166 215 283 325 396
#     4  11  24  40  68  93 130 180 226 282 345 418
#     4  11  22  41  66  95 133 175 231 276 343 410
#     4  10  24  46  62  92 138 180 224 288 348 410
#     4  11  22  38  68  99 126 177 230 271 345 405
#     4  11  25  41  67 100 137 178 225 293 341 415
#
# _framework density 24.080746000000001
#
# number of rings (size 3 to 8) (size 9 to 14) (size 15 to 20)
#    0.000    1.231    3.077    4.615    4.308    1.231 
#    0.000    1.538    0.000    6.462    0.000    0.000 
#    0.000    0.000    0.000    0.000    0.000    0.000 
#
# Total GULP energy -145004.083374 kJ/mol
# GULP energy per Si atom -5577.080130 kJ/mol
# Density = 2.402594 g / cm^3
# Si number density = 24.080746 Si / 1000 Ang^3
#
#
#
# Elastic Constant Matrix: (Units=GPa)
#
#
# Indices 1 2 3 4 5 6 
#
# 1 49.4497 7.2595 34.0550 0.0000 28.2415 0.0000
# 2 7.2595 128.2734 34.3240 0.0000 36.2879 0.0000
# 3 34.0550 34.3240 146.6296 0.0000 53.5686 0.0000
# 4 0.0000 0.0000 0.0000 41.0844 0.0000 2.2836
# 5 28.2415 36.2879 53.5686 0.0000 55.9977 0.0000
# 6 0.0000 0.0000 0.0000 2.2836 0.0000 19.6345
#
#
#
# Elastic Compliance Matrix: (Units=1/GPa)
#
#
# Indices 1 2 3 4 5 6 
#
# 1 0.029825 0.003135 -0.002188 0.000000 -0.014980 0.000000
# 2 0.003135 0.009876 -0.000191 0.000000 -0.007798 0.000000
# 3 -0.002188 -0.000191 0.010645 0.000000 -0.008956 0.000000
# 4 0.000000 0.000000 0.000000 0.024499 0.000000 -0.002849
# 5 -0.014980 -0.007798 -0.008956 0.000000 0.039033 0.000000
# 6 0.000000 0.000000 0.000000 -0.002849 0.000000 0.051262
#
#
# Mechanical properties :
#
#
# Convention : Reuss Voigt Hill
#
# Bulk Modulus (GPa) = 19.28366 52.84777 36.06571
# Shear Modulus (GPa) = 27.63779 39.92425 33.78102
#
# Velocity S-wave (km/s) = 3.39147 4.07619 3.74949
# Velocity P-wave (km/s) = 4.83336 6.64436 5.80985
#
# Compressibility (1/GPa) = 0.05185739
#
# Stress axis : x y z
#
# Youngs Moduli (GPa) = 33.52948 101.25988 93.94499
#
# Poissons Ratio (x) = -0.31749 0.20555
# Poissons Ratio (y) = -0.10513 0.01795
# Poissons Ratio (z) = 0.07336 0.01934
#
# Static dielectric constant tensor:
#      x y z
#    x 2.000420 0.000000 0.076940 
#    y 0.000000 1.947870 0.000000 
#    z 0.076940 0.000000 1.927490 
# 
# From -- ./inp_files/57145.got.cif
#   From: 2010.05.17/outbox.cif.g08.bks.cpg/sg14_29_cif.got.tgz:57145.got - 2010.06.03 17:49:19.
