data_PCOD9242434
_publ_section_title
;
Structure prediction by ZEFSAII (Michael W. Deem and Ramdas Pophale) SiO2 
 PCOD9242434
Probable space group: P 21/C
;
_chemical_formula_sum "Si O2"
_cell_formula_units_Z 28
_cell_length_a 19.030235
_cell_length_b 8.619252
_cell_length_c 14.288670
_cell_angle_alpha 90.000000
_cell_angle_beta 154.362581
_cell_angle_gamma 90.000000
_cell_volume 1014.067739
_symmetry_space_group_name_H-M "P 21/C"
_symmetry_group_IT_number 14
_symmetry_cell_setting 'monoclinic'
loop_
_space_group_symop_operation_xyz
x,y,z
-x,1/2+y,1/2-z
-x,-y,-z
x,1/2-y,1/2+z
loop_
_atom_site_type_symbol
_atom_site_label
_atom_site_fract_x
_atom_site_fract_y
_atom_site_fract_z
Si Si1 0.707336 0.958809 0.494184
Si Si2 0.017601 0.265293 0.739848
Si Si3 0.571531 0.852278 0.139021
Si Si4 0.905044 0.155579 0.412699
Si Si5 0.193374 0.340864 0.693252
Si Si6 0.276318 0.811443 0.977035
Si Si7 0.680675 0.941565 0.826065
O O1 0.893388 0.924830 0.683733
O O2 0.601995 0.899566 0.281928
O O3 0.710082 0.870105 0.595710
O O4 0.663810 0.137393 0.449172
O O5 0.908975 0.184751 0.528277
O O6 0.902875 0.300808 0.689314
O O7 0.175351 0.156021 0.948003
O O8 0.734503 0.810421 0.273701
O O9 0.534627 0.667176 0.111271
O O10 0.500000 0.000000 0.000000
O O11 0.009954 0.301757 0.499636
O O12 0.745006 0.143406 0.157156
O O13 0.000000 0.000000 0.500000
O O14 0.227595 0.479388 0.661275
O O15 0.364214 0.926766 0.154729
#
# Coordination Sequence:
#
# PCOD9242434 Si02
#       7
#     4   4   4   4   4   4   4
#     4  10  22  36  61  93 124 168 213 266 318 379
#     4  10  20  33  52  84 133 175 219 242 303 375
#     4   9  20  43  72  84 113 164 211 272 340 375
#     4  11  21  30  54  86 126 176 208 247 306 371
#     4   9  21  39  60  90 129 166 218 257 315 386
#     4  12  21  33  54  90 132 170 212 257 311 379
#     4   9  19  36  57  85 126 165 210 266 304 376
#
# _framework density 27.611566
#
# number of rings (size 3 to 8) (size 9 to 14) (size 15 to 20)
#    0.857    1.143    2.857    0.857    4.000    1.143 
#    0.000    0.714    6.286    0.000    0.000    0.000 
#    0.000    0.000    0.000    0.000    0.000    0.000 
#
# Total GULP energy -156386.232375 kJ/mol
# GULP energy per Si atom -5585.222585 kJ/mol
# Density = 2.754872 g / cm^3
# Si number density = 27.611566 Si / 1000 Ang^3
#
#
#
# Elastic Constant Matrix: (Units=GPa)
#
#
# Indices 1 2 3 4 5 6 
#
# 1 107.1063 22.4841 47.2916 0.0000 -30.4812 0.0000
# 2 22.4841 95.5409 35.9567 0.0000 -11.7915 0.0000
# 3 47.2916 35.9567 150.5590 0.0000 -35.9315 0.0000
# 4 0.0000 0.0000 0.0000 68.6744 0.0000 -6.0994
# 5 -30.4812 -11.7915 -35.9315 0.0000 60.4005 0.0000
# 6 0.0000 0.0000 0.0000 -6.0994 0.0000 44.2445
#
#
#
# Elastic Compliance Matrix: (Units=1/GPa)
#
#
# Indices 1 2 3 4 5 6 
#
# 1 0.011906 -0.001373 -0.002380 0.000000 0.004325 0.000000
# 2 -0.001373 0.011685 -0.002308 0.000000 0.000215 0.000000
# 3 -0.002380 -0.002308 0.008795 0.000000 0.003581 0.000000
# 4 0.000000 0.000000 0.000000 0.014742 0.000000 0.002032
# 5 0.004325 0.000215 0.003581 0.000000 0.020911 0.000000
# 6 0.000000 0.000000 0.000000 0.002032 0.000000 0.022882
#
#
# Mechanical properties :
#
#
# Convention : Reuss Voigt Hill
#
# Bulk Modulus (GPa) = 49.34529 62.74124 56.04327
# Shear Modulus (GPa) = 45.53856 51.16214 48.35035
#
# Velocity S-wave (km/s) = 4.06551 4.30923 4.18914
# Velocity P-wave (km/s) = 6.32043 6.89430 6.61360
#
# Compressibility (1/GPa) = 0.02026536
#
# Stress axis : x y z
#
# Youngs Moduli (GPa) = 83.98953 85.58016 113.69853
#
# Poissons Ratio (x) = 0.11746 0.27059
# Poissons Ratio (y) = 0.11528 0.26242
# Poissons Ratio (z) = 0.19989 0.19753
#
# Static dielectric constant tensor:
#      x y z
#    x 2.225970 0.000000 0.091660 
#    y 0.000000 2.253990 0.000000 
#    z 0.091660 0.000000 2.229900 
# 
# From -- ./inp_files/51167.got.cif
#   From: 2010.05.17/outbox.cif.g08.bks.cpg/sg14_26_cif.got.tgz:51167.got - 2010.06.03 17:49:19.
