data_PCOD9242388
_publ_section_title
;
Structure prediction by ZEFSAII (Michael W. Deem and Ramdas Pophale) SiO2 
 PCOD9242388
Probable space group: P 21/C
;
_chemical_formula_sum "Si O2"
_cell_formula_units_Z 32
_cell_length_a 12.923473
_cell_length_b 5.465901
_cell_length_c 25.391574
_cell_angle_alpha 90.000000
_cell_angle_beta 122.414240
_cell_angle_gamma 90.000000
_cell_volume 1514.165198
_symmetry_space_group_name_H-M "P 21/C"
_symmetry_group_IT_number 14
_symmetry_cell_setting 'monoclinic'
loop_
_space_group_symop_operation_xyz
x,y,z
-x,1/2+y,1/2-z
-x,-y,-z
x,1/2-y,1/2+z
loop_
_atom_site_type_symbol
_atom_site_label
_atom_site_fract_x
_atom_site_fract_y
_atom_site_fract_z
Si Si1 0.224086 0.307092 0.194369
Si Si2 0.500720 0.617975 0.685596
Si Si3 0.352848 0.201269 0.470291
Si Si4 0.259642 0.686329 0.683634
Si Si5 0.233645 0.817012 0.900569
Si Si6 0.506617 0.107195 0.416711
Si Si7 0.660883 0.230888 0.680549
Si Si8 0.985107 0.733940 0.779337
O O1 0.367418 0.301604 0.253052
O O2 0.209586 0.550067 0.155759
O O3 0.139524 0.309340 0.222759
O O4 0.195584 0.066086 0.153121
O O5 0.398440 0.655211 0.701525
O O6 0.441318 0.746118 0.617816
O O7 0.541213 0.357266 0.673019
O O8 0.272718 0.446670 0.445359
O O9 0.464079 0.240139 0.458451
O O10 0.284816 0.945183 0.435354
O O11 0.416326 0.124968 0.542319
O O12 0.253943 0.697459 0.746109
O O13 0.286021 0.869038 0.855472
O O14 0.090284 0.786285 0.851135
O O15 0.379600 0.022302 0.355521
O O16 0.018616 0.480521 0.757706
#
# Coordination Sequence:
#
# PCOD9242388 Si02
#       8
#     4   4   4   4   4   4   4   4
#     4  11  22  38  52  83 119 150 184 234 275 350
#     4  11  21  34  56  83 122 152 186 229 292 342
#     4  10  23  37  56  82 116 152 194 234 282 341
#     4  11  23  35  55  83 121 153 184 230 288 351
#     4  11  22  39  57  83 116 154 187 237 283 334
#     4  10  21  34  56  81 116 155 190 230 289 341
#     4  10  20  32  54  78 121 147 183 228 286 339
#     4  12  24  37  62  87 114 155 198 229 291 349
#
# _framework density 21.133756999999999
#
# number of rings (size 3 to 8) (size 9 to 14) (size 15 to 20)
#    0.000    1.250    2.500    5.250    5.250    1.500 
#    0.000    0.000    0.000    0.000    0.000    5.250 
#    0.000    0.000    0.000    0.000    0.000    0.000 
#
# Total GULP energy -178247.620160 kJ/mol
# GULP energy per Si atom -5570.238130 kJ/mol
# Density = 2.108566 g / cm^3
# Si number density = 21.133757 Si / 1000 Ang^3
#
#
#
# Elastic Constant Matrix: (Units=GPa)
#
#
# Indices 1 2 3 4 5 6 
#
# 1 93.2707 34.7258 -8.3594 0.0000 -1.0679 0.0000
# 2 34.7258 145.8087 10.6380 0.0000 2.2338 0.0000
# 3 -8.3594 10.6380 51.9731 0.0000 1.0415 0.0000
# 4 0.0000 0.0000 0.0000 27.2432 0.0000 3.7262
# 5 -1.0679 2.2338 1.0415 0.0000 20.8291 0.0000
# 6 0.0000 0.0000 0.0000 3.7262 0.0000 20.8271
#
#
#
# Elastic Compliance Matrix: (Units=1/GPa)
#
#
# Indices 1 2 3 4 5 6 
#
# 1 0.012108 -0.003083 0.002562 0.000000 0.000823 0.000000
# 2 -0.003083 0.007757 -0.002066 0.000000 -0.000887 0.000000
# 3 0.002562 -0.002066 0.020089 0.000000 -0.000652 0.000000
# 4 0.000000 0.000000 0.000000 0.037627 0.000000 -0.006732
# 5 0.000823 -0.000887 -0.000652 0.000000 0.048180 0.000000
# 6 0.000000 0.000000 0.000000 -0.006732 0.000000 0.049219
#
#
# Mechanical properties :
#
#
# Convention : Reuss Voigt Hill
#
# Bulk Modulus (GPa) = 28.75210 40.56237 34.65724
# Shear Modulus (GPa) = 26.07599 30.71641 28.39620
#
# Velocity S-wave (km/s) = 3.51644 3.81652 3.66955
# Velocity P-wave (km/s) = 5.48830 6.21739 5.86419
#
# Compressibility (1/GPa) = 0.03478007
#
# Stress axis : x y z
#
# Youngs Moduli (GPa) = 82.58674 128.91706 49.77921
#
# Poissons Ratio (x) = 0.39749 -0.12754
# Poissons Ratio (y) = 0.25464 0.10284
# Poissons Ratio (z) = -0.21160 0.26632
#
# Static dielectric constant tensor:
#      x y z
#    x 1.791420 0.000000 -0.006810 
#    y 0.000000 1.945560 0.000000 
#    z -0.006810 0.000000 1.801490 
# 
# From -- ./inp_files/76914.got.cif
#   From: 2010.05.17/outbox.cif.g08.bks.cpg/sg14_39_cif.got.tgz:76914.got - 2010.06.03 17:49:19.
