data_PCOD9242857
_publ_section_title
;
Structure prediction by ZEFSAII (Michael W. Deem and Ramdas Pophale) SiO2 
 PCOD9242857
Probable space group: P 21/C
;
_chemical_formula_sum "Si O2"
_cell_formula_units_Z 28
_cell_length_a 19.130980
_cell_length_b 14.121577
_cell_length_c 8.817671
_cell_angle_alpha 90.000000
_cell_angle_beta 40.086599
_cell_angle_gamma 90.000000
_cell_volume 1533.991249
_symmetry_space_group_name_H-M "P 21/C"
_symmetry_group_IT_number 14
_symmetry_cell_setting 'monoclinic'
loop_
_space_group_symop_operation_xyz
x,y,z
-x,1/2+y,1/2-z
-x,-y,-z
x,1/2-y,1/2+z
loop_
_atom_site_type_symbol
_atom_site_label
_atom_site_fract_x
_atom_site_fract_y
_atom_site_fract_z
Si Si1 0.678805 0.979568 0.482154
Si Si2 0.485077 0.426868 0.161193
Si Si3 0.347430 0.301636 0.197073
Si Si4 0.075140 0.017086 0.020332
Si Si5 0.688787 0.917366 0.809601
Si Si6 0.100207 0.194042 0.177857
Si Si7 0.063301 0.381760 0.062256
O O1 0.652692 0.880212 0.437034
O O2 0.670652 0.960914 0.674077
O O3 0.596326 0.061927 0.568448
O O4 0.801353 0.003500 0.230442
O O5 0.444455 0.330047 0.149527
O O6 0.388252 0.458941 0.433265
O O7 0.500000 0.500000 0.000000
O O8 0.344404 0.194084 0.145665
O O9 0.231286 0.312391 0.475175
O O10 0.070575 0.123807 0.090247
O O11 0.029258 0.953151 0.232581
O O12 0.000000 0.000000 0.000000
O O13 0.816162 0.926899 0.635346
O O14 0.070044 0.298810 0.176238
O O15 0.048164 0.162136 0.421426
#
# Coordination Sequence:
#
# PCOD9242857 Si02
#       7
#     4   4   4   4   4   4   4
#     4  10  21  34  55  83 114 151 185 229 284 347
#     4  10  20  36  54  80 115 143 179 232 286 340
#     4   9  19  33  58  85 111 137 187 243 282 327
#     4  11  21  37  57  85 120 153 190 237 288 345
#     4  11  19  33  59  86 109 145 191 235 289 325
#     4  10  21  35  58  90 113 148 193 240 290 332
#     4  11  21  35  60  86 118 148 192 244 288 339
#
# _framework density 18.253038
#
# number of rings (size 3 to 8) (size 9 to 14) (size 15 to 20)
#    0.000    1.714    2.857    2.571    8.000    0.000 
#    0.000    0.000    6.286    0.000    0.000    0.000 
#    0.000    0.000    0.000    0.000    0.000    0.000 
#
# Total GULP energy -156239.048312 kJ/mol
# GULP energy per Si atom -5579.966011 kJ/mol
# Density = 1.821149 g / cm^3
# Si number density = 18.253038 Si / 1000 Ang^3
#
#
#
# Elastic Constant Matrix: (Units=GPa)
#
#
# Indices 1 2 3 4 5 6 
#
# 1 72.7374 8.5590 32.7079 0.0000 -5.2015 0.0000
# 2 8.5590 40.1996 28.2918 0.0000 -12.3830 0.0000
# 3 32.7079 28.2918 122.3465 0.0000 10.2860 0.0000
# 4 0.0000 0.0000 0.0000 21.7659 0.0000 2.3933
# 5 -5.2015 -12.3830 10.2860 0.0000 31.4461 0.0000
# 6 0.0000 0.0000 0.0000 2.3933 0.0000 20.8516
#
#
#
# Elastic Compliance Matrix: (Units=1/GPa)
#
#
# Indices 1 2 3 4 5 6 
#
# 1 0.016228 0.001739 -0.005166 0.000000 0.005059 0.000000
# 2 0.001739 0.037877 -0.010799 0.000000 0.018735 0.000000
# 3 -0.005166 -0.010799 0.012834 0.000000 -0.009305 0.000000
# 4 0.000000 0.000000 0.000000 0.046531 0.000000 -0.005341
# 5 0.005059 0.018735 -0.009305 0.000000 0.043058 0.000000
# 6 0.000000 0.000000 0.000000 -0.005341 0.000000 0.048571
#
#
# Mechanical properties :
#
#
# Convention : Reuss Voigt Hill
#
# Bulk Modulus (GPa) = 25.98259 41.60011 33.79135
# Shear Modulus (GPa) = 20.29389 25.86104 23.07747
#
# Velocity S-wave (km/s) = 3.33800 3.76813 3.55957
# Velocity P-wave (km/s) = 5.39647 6.46313 5.95373
#
# Compressibility (1/GPa) = 0.03848731
#
# Stress axis : x y z
#
# Youngs Moduli (GPa) = 61.62132 26.40135 77.91845
#
# Poissons Ratio (x) = -0.04590 0.40251
# Poissons Ratio (y) = -0.10714 0.84142
# Poissons Ratio (z) = 0.31832 0.28510
#
# Static dielectric constant tensor:
#      x y z
#    x 1.663550 0.000000 0.018900 
#    y 0.000000 1.636870 0.000000 
#    z 0.018900 0.000000 1.621190 
# 
# From -- ./inp_files/12807.got.cif
#   From: 2010.05.17/outbox.cif.g08.bks.cpg/sg14_7_cif.got.tgz:12807.got - 2010.06.03 17:49:19.
