data_PCOD9242296
_publ_section_title
;
Structure prediction by ZEFSAII (Michael W. Deem and Ramdas Pophale) SiO2 
 PCOD9242296
Probable space group: P 21/C
;
_chemical_formula_sum "Si O2"
_cell_formula_units_Z 20
_cell_length_a 12.896728
_cell_length_b 5.011559
_cell_length_c 23.149176
_cell_angle_alpha 90.000000
_cell_angle_beta 148.626034
_cell_angle_gamma 90.000000
_cell_volume 778.951156
_symmetry_space_group_name_H-M "P 21/C"
_symmetry_group_IT_number 14
_symmetry_cell_setting 'monoclinic'
loop_
_space_group_symop_operation_xyz
x,y,z
-x,1/2+y,1/2-z
-x,-y,-z
x,1/2-y,1/2+z
loop_
_atom_site_type_symbol
_atom_site_label
_atom_site_fract_x
_atom_site_fract_y
_atom_site_fract_z
Si Si1 0.334834 0.202810 0.396560
Si Si2 0.380357 0.114332 0.034581
Si Si3 0.927181 0.667258 0.519864
Si Si4 0.725416 0.485891 0.243299
Si Si5 0.368482 0.111071 0.699028
O O1 0.460169 0.417281 0.418796
O O2 0.248847 0.305913 0.415982
O O3 0.500000 0.000000 0.500000
O O4 0.195127 0.076596 0.281723
O O5 0.515723 0.349712 0.126375
O O6 0.233412 0.020164 0.015115
O O7 0.807844 0.903841 0.431916
O O8 0.000000 0.500000 0.500000
O O9 0.118606 0.709490 0.650980
O O10 0.695125 0.736989 0.272328
O O11 0.526272 0.327205 0.748766
#
# Coordination Sequence:
#
# PCOD9242296 Si02
#       5
#     4   4   4   4   4
#     4   9  20  39  66  90 125 181 216 274 345 404
#     4  10  19  42  66  91 136 173 220 282 344 410
#     4  10  22  41  64 103 129 173 232 281 344 416
#     4  10  21  39  61  97 132 172 232 272 350 406
#     4  11  22  41  69  94 136 186 222 285 351 407
#
# _framework density 25.675550999999999
#
# number of rings (size 3 to 8) (size 9 to 14) (size 15 to 20)
#    0.000    2.000    2.000    1.200    0.000    0.000 
#   14.400    3.000    0.000    0.000    0.000    0.000 
#    0.000    0.000    0.000    0.000    0.000    0.000 
#
# Total GULP energy -111699.059076 kJ/mol
# GULP energy per Si atom -5584.952954 kJ/mol
# Density = 2.561711 g / cm^3
# Si number density = 25.675551 Si / 1000 Ang^3
#
#
#
# Elastic Constant Matrix: (Units=GPa)
#
#
# Indices 1 2 3 4 5 6 
#
# 1 157.0175 25.1236 73.4602 0.0000 -31.6244 0.0000
# 2 25.1236 72.3076 19.2378 0.0000 -0.1675 0.0000
# 3 73.4602 19.2378 171.0228 0.0000 -41.7100 0.0000
# 4 0.0000 0.0000 0.0000 27.7016 0.0000 -0.6550
# 5 -31.6244 -0.1675 -41.7100 0.0000 56.4357 0.0000
# 6 0.0000 0.0000 0.0000 -0.6550 0.0000 29.9994
#
#
#
# Elastic Compliance Matrix: (Units=1/GPa)
#
#
# Indices 1 2 3 4 5 6 
#
# 1 0.008573 -0.002239 -0.002758 0.000000 0.002759 0.000000
# 2 -0.002239 0.014932 -0.001236 0.000000 -0.002124 0.000000
# 3 -0.002758 -0.001236 0.008287 0.000000 0.004575 0.000000
# 4 0.000000 0.000000 0.000000 0.036118 0.000000 0.000789
# 5 0.002759 -0.002124 0.004575 0.000000 0.022641 0.000000
# 6 0.000000 0.000000 0.000000 0.000789 0.000000 0.033351
#
#
# Mechanical properties :
#
#
# Convention : Reuss Voigt Hill
#
# Bulk Modulus (GPa) = 51.74210 70.66569 61.20390
# Shear Modulus (GPa) = 35.01238 41.66244 38.33741
#
# Velocity S-wave (km/s) = 3.69676 4.03258 3.86832
# Velocity P-wave (km/s) = 6.19818 7.01888 6.62126
#
# Compressibility (1/GPa) = 0.01932662
#
# Stress axis : x y z
#
# Youngs Moduli (GPa) = 116.64899 66.97246 120.67744
#
# Poissons Ratio (x) = 0.14992 0.33277
# Poissons Ratio (y) = 0.26113 0.14915
# Poissons Ratio (z) = 0.32167 0.08278
#
# Static dielectric constant tensor:
#      x y z
#    x 2.117100 0.000000 -0.004570 
#    y 0.000000 2.110420 0.000000 
#    z -0.004570 0.000000 2.063560 
# 
# From -- ./inp_files/50921.got.cif
#   From: 2010.05.17/outbox.cif.g08.bks.cpg/sg14_26_cif.got.tgz:50921.got - 2010.06.03 17:49:19.
