data_PCOD9242050
_publ_section_title
;
Structure prediction by ZEFSAII (Michael W. Deem and Ramdas Pophale) SiO2 
 PCOD9242050
Probable space group: P 21/C
;
_chemical_formula_sum "Si O2"
_cell_formula_units_Z 24
_cell_length_a 6.247980
_cell_length_b 12.128771
_cell_length_c 14.654471
_cell_angle_alpha 90.000000
_cell_angle_beta 62.495070
_cell_angle_gamma 90.000000
_cell_volume 984.999572
_symmetry_space_group_name_H-M "P 21/C"
_symmetry_group_IT_number 14
_symmetry_cell_setting 'monoclinic'
loop_
_space_group_symop_operation_xyz
x,y,z
-x,1/2+y,1/2-z
-x,-y,-z
x,1/2-y,1/2+z
loop_
_atom_site_type_symbol
_atom_site_label
_atom_site_fract_x
_atom_site_fract_y
_atom_site_fract_z
Si Si1 0.659062 0.830061 0.004799
Si Si2 0.961992 0.003185 0.127895
Si Si3 0.056223 0.074269 0.320325
Si Si4 0.850621 0.289534 0.344457
Si Si5 0.054849 0.832262 0.378967
Si Si6 0.539224 0.337097 0.661421
O O1 0.540755 0.836819 0.927450
O O2 0.832045 0.723625 0.975546
O O3 0.834116 0.935181 0.971460
O O4 0.424865 0.829409 0.114152
O O5 0.005405 0.873072 0.119080
O O6 0.014046 0.034036 0.224197
O O7 0.712943 0.061226 0.153022
O O8 0.304839 0.142881 0.269547
O O9 0.854915 0.165591 0.381140
O O10 0.060833 0.963947 0.378655
O O11 0.975110 0.293978 0.221025
O O12 0.304181 0.773105 0.356297
#
# Coordination Sequence:
#
# PCOD9242050 Si02
#       6
#     4   4   4   4   4   4
#     4  10  21  39  58  87 120 145 190 241 283 340
#     4   9  20  38  59  86 117 148 189 241 286 331
#     4  10  21  36  60  87 111 157 194 228 289 342
#     4  11  20  39  62  84 114 156 192 229 290 347
#     4  10  22  41  58  82 121 152 188 240 287 338
#     4  10  19  39  58  83 121 149 186 244 281 332
#
# _framework density 24.365490999999999
#
# number of rings (size 3 to 8) (size 9 to 14) (size 15 to 20)
#    0.000    2.000    5.000    0.500    2.333    1.333 
#    6.000    0.833    0.000    0.000    0.000    0.000 
#    0.000    0.000    0.000    0.000    0.000    0.000 
#
# Total GULP energy -134337.136267 kJ/mol
# GULP energy per Si atom -5597.380678 kJ/mol
# Density = 2.431003 g / cm^3
# Si number density = 24.365491 Si / 1000 Ang^3
#
#
#
# Elastic Constant Matrix: (Units=GPa)
#
#
# Indices 1 2 3 4 5 6 
#
# 1 76.8094 18.0529 8.9014 0.0000 -6.1054 0.0000
# 2 18.0529 147.8189 7.7867 0.0000 -5.5247 0.0000
# 3 8.9014 7.7867 63.6746 0.0000 -6.2202 0.0000
# 4 0.0000 0.0000 0.0000 20.8712 0.0000 -1.0969
# 5 -6.1054 -5.5247 -6.2202 0.0000 31.2698 0.0000
# 6 0.0000 0.0000 0.0000 -1.0969 0.0000 21.3988
#
#
#
# Elastic Compliance Matrix: (Units=1/GPa)
#
#
# Indices 1 2 3 4 5 6 
#
# 1 0.013720 -0.001516 -0.001527 0.000000 0.002107 0.000000
# 2 -0.001516 0.007011 -0.000564 0.000000 0.000830 0.000000
# 3 -0.001527 -0.000564 0.016264 0.000000 0.002838 0.000000
# 4 0.000000 0.000000 0.000000 0.048042 0.000000 0.002463
# 5 0.002107 0.000830 0.002838 0.000000 0.033102 0.000000
# 6 0.000000 0.000000 0.000000 0.002463 0.000000 0.046858
#
#
# Mechanical properties :
#
#
# Convention : Reuss Voigt Hill
#
# Bulk Modulus (GPa) = 33.57874 39.75387 36.66631
# Shear Modulus (GPa) = 27.45144 31.61208 29.53176
#
# Velocity S-wave (km/s) = 3.36021 3.60587 3.48520
# Velocity P-wave (km/s) = 5.37269 5.80409 5.59255
#
# Compressibility (1/GPa) = 0.02978074
#
# Stress axis : x y z
#
# Youngs Moduli (GPa) = 72.88582 142.63312 61.48366
#
# Poissons Ratio (x) = 0.21629 0.09387
# Poissons Ratio (y) = 0.11053 0.03469
# Poissons Ratio (z) = 0.11128 0.08048
#
# Static dielectric constant tensor:
#      x y z
#    x 1.961310 0.000000 0.053310 
#    y 0.000000 1.960660 0.000000 
#    z 0.053310 0.000000 1.951930 
# 
# From -- ./inp_files/60499.got.cif
#   From: 2010.05.17/outbox.cif.g08.bks.cpg/sg14_31_cif.got.tgz:60499.got - 2010.06.03 17:49:19.
