data_PCOD9242092
_publ_section_title
;
Structure prediction by ZEFSAII (Michael W. Deem and Ramdas Pophale) SiO2 
 PCOD9242092
Probable space group: P 21/C
;
_chemical_formula_sum "Si O2"
_cell_formula_units_Z 32
_cell_length_a 23.306190
_cell_length_b 7.384321
_cell_length_c 15.110815
_cell_angle_alpha 90.000000
_cell_angle_beta 150.961137
_cell_angle_gamma 90.000000
_cell_volume 1262.327295
_symmetry_space_group_name_H-M "P 21/C"
_symmetry_group_IT_number 14
_symmetry_cell_setting 'monoclinic'
loop_
_space_group_symop_operation_xyz
x,y,z
-x,1/2+y,1/2-z
-x,-y,-z
x,1/2-y,1/2+z
loop_
_atom_site_type_symbol
_atom_site_label
_atom_site_fract_x
_atom_site_fract_y
_atom_site_fract_z
Si Si1 0.627431 0.776899 0.671398
Si Si2 0.803209 0.705026 0.250986
Si Si3 0.632278 0.199092 0.731430
Si Si4 0.979312 0.726397 0.620997
Si Si5 0.652975 0.834736 0.396332
Si Si6 0.122209 0.891909 0.480335
Si Si7 0.397772 0.922298 0.113994
Si Si8 0.154633 0.618287 0.217380
O O1 0.690819 0.750763 0.662821
O O2 0.488349 0.733187 0.476113
O O3 0.673469 0.671187 0.819665
O O4 0.644472 0.990944 0.714959
O O5 0.898863 0.611771 0.444385
O O6 0.857225 0.898889 0.294832
O O7 0.757191 0.600526 0.102260
O O8 0.607822 0.190351 0.803052
O O9 0.751213 0.309048 0.874460
O O10 0.026745 0.651528 0.776557
O O11 0.089890 0.798823 0.713905
O O12 0.893781 0.893687 0.529046
O O13 0.527640 0.922425 0.249407
O O14 0.636210 0.624890 0.402579
O O15 0.102891 0.820340 0.554055
O O16 0.295493 0.848786 0.911924
#
# Coordination Sequence:
#
# PCOD9242092 Si02
#       8
#     4   4   4   4   4   4   4   4
#     4  10  21  37  65  95 124 164 205 258 323 377
#     4  10  21  38  63  89 120 163 215 246 308 383
#     4  10  20  38  65  90 129 162 202 266 323 367
#     4  11  25  43  68  90 128 172 215 259 319 371
#     4  10  21  37  59  92 125 164 202 255 314 380
#     4  11  23  42  68  93 122 170 214 262 310 379
#     4  10  19  39  63  90 124 166 203 252 323 377
#     4  10  22  44  66  85 126 178 204 256 327 379
#
# _framework density 25.350002
#
# number of rings (size 3 to 8) (size 9 to 14) (size 15 to 20)
#    0.000    1.750    2.500    2.250    1.750    1.000 
#    4.500    4.375    2.750    0.000    0.000    0.000 
#    0.000    0.000    0.000    0.000    0.000    0.000 
#
# Total GULP energy -179128.676113 kJ/mol
# GULP energy per Si atom -5597.771129 kJ/mol
# Density = 2.529230 g / cm^3
# Si number density = 25.350002 Si / 1000 Ang^3
#
#
#
# Elastic Constant Matrix: (Units=GPa)
#
#
# Indices 1 2 3 4 5 6 
#
# 1 95.2142 33.2318 25.4788 0.0000 -14.6047 0.0000
# 2 33.2318 40.4834 29.3958 0.0000 8.3239 0.0000
# 3 25.4788 29.3958 182.7449 0.0000 -28.8453 0.0000
# 4 0.0000 0.0000 0.0000 21.4465 0.0000 6.0405
# 5 -14.6047 8.3239 -28.8453 0.0000 51.7746 0.0000
# 6 0.0000 0.0000 0.0000 6.0405 0.0000 22.1678
#
#
#
# Elastic Compliance Matrix: (Units=1/GPa)
#
#
# Indices 1 2 3 4 5 6 
#
# 1 0.017419 -0.017334 0.001727 0.000000 0.008663 0.000000
# 2 -0.017334 0.048310 -0.008061 0.000000 -0.017147 0.000000
# 3 0.001727 -0.008061 0.007466 0.000000 0.005943 0.000000
# 4 0.000000 0.000000 0.000000 0.050504 0.000000 -0.013762
# 5 0.008663 -0.017147 0.005943 0.000000 0.027826 0.000000
# 6 0.000000 0.000000 0.000000 -0.013762 0.000000 0.048861
#
#
# Mechanical properties :
#
#
# Convention : Reuss Voigt Hill
#
# Bulk Modulus (GPa) = 38.67148 54.96170 46.81659
# Shear Modulus (GPa) = 19.50532 34.43350 26.96941
#
# Velocity S-wave (km/s) = 2.77689 3.68954 3.26526
# Velocity P-wave (km/s) = 5.05664 6.31494 5.72049
#
# Compressibility (1/GPa) = 0.02585885
#
# Stress axis : x y z
#
# Youngs Moduli (GPa) = 57.40773 20.69984 133.94123
#
# Poissons Ratio (x) = 0.35882 -0.23132
# Poissons Ratio (y) = 0.99512 1.07967
# Poissons Ratio (z) = -0.09915 0.16686
#
# Static dielectric constant tensor:
#      x y z
#    x 1.942710 0.000000 -0.032580 
#    y 0.000000 2.008420 0.000000 
#    z -0.032580 0.000000 2.086100 
# 
# From -- ./inp_files/51245.got.cif
#   From: 2010.05.17/outbox.cif.g08.bks.cpg/sg14_26_cif.got.tgz:51245.got - 2010.06.03 17:49:19.
