data_PCOD9242181
_publ_section_title
;
Structure prediction by ZEFSAII (Michael W. Deem and Ramdas Pophale) SiO2 
 PCOD9242181
Probable space group: P 21/C
;
_chemical_formula_sum "Si O2"
_cell_formula_units_Z 32
_cell_length_a 15.359840
_cell_length_b 10.695002
_cell_length_c 18.667677
_cell_angle_alpha 90.000000
_cell_angle_beta 151.618170
_cell_angle_gamma 90.000000
_cell_volume 1457.696046
_symmetry_space_group_name_H-M "P 21/C"
_symmetry_group_IT_number 14
_symmetry_cell_setting 'monoclinic'
loop_
_space_group_symop_operation_xyz
x,y,z
-x,1/2+y,1/2-z
-x,-y,-z
x,1/2-y,1/2+z
loop_
_atom_site_type_symbol
_atom_site_label
_atom_site_fract_x
_atom_site_fract_y
_atom_site_fract_z
Si Si1 0.825185 0.349257 0.720427
Si Si2 0.545972 0.740558 0.870930
Si Si3 0.682963 0.562849 0.718740
Si Si4 0.530197 0.707348 0.024450
Si Si5 0.794096 0.812844 0.432317
Si Si6 0.178690 0.642129 0.566058
Si Si7 0.774245 0.899975 0.808863
Si Si8 0.287295 0.986871 0.996327
O O1 0.733751 0.438332 0.714146
O O2 0.677882 0.239025 0.604197
O O3 0.841771 0.435864 0.661534
O O4 0.015097 0.299757 0.888610
O O5 0.642870 0.653018 0.882094
O O6 0.331252 0.748509 0.692054
O O7 0.670664 0.866138 0.962221
O O8 0.548165 0.691628 0.953205
O O9 0.651917 0.671289 0.637378
O O10 0.813930 0.592771 0.880090
O O11 0.486037 0.557689 0.613799
O O12 0.618864 0.601499 0.136891
O O13 0.727412 0.687892 0.342804
O O14 0.201789 0.538676 0.644987
O O15 0.224523 0.578314 0.523608
O O16 0.961056 0.662033 0.412908
#
# Coordination Sequence:
#
# PCOD9242181 Si02
#       8
#     4   4   4   4   4   4   4   4
#     4  11  21  38  64  92 125 164 200 261 316 360
#     4  12  22  40  64  90 126 161 207 260 309 369
#     4  10  19  40  62  91 121 160 205 256 308 368
#     4  10  21  39  64  89 122 160 205 251 311 368
#     4  11  23  37  63  97 124 159 214 251 311 379
#     4  11  24  43  64  86 127 170 206 254 317 371
#     4  10  24  43  63  89 124 169 208 250 310 393
#     4  11  21  39  61  91 123 162 204 260 313 359
#
# _framework density 21.952451
#
# number of rings (size 3 to 8) (size 9 to 14) (size 15 to 20)
#    0.000    1.250    5.000    1.875    1.750    0.500 
#    0.000    1.250    0.000    0.000    0.000    0.000 
#    0.000    0.000    0.000    0.000    0.000    0.000 
#
# Total GULP energy -178609.916469 kJ/mol
# GULP energy per Si atom -5581.559890 kJ/mol
# Density = 2.190249 g / cm^3
# Si number density = 21.952451 Si / 1000 Ang^3
#
#
#
# Elastic Constant Matrix: (Units=GPa)
#
#
# Indices 1 2 3 4 5 6 
#
# 1 112.2827 10.9700 41.4405 0.0000 -13.5020 0.0000
# 2 10.9700 20.2441 7.9621 0.0000 -10.9795 0.0000
# 3 41.4405 7.9621 130.0467 0.0000 -22.2473 0.0000
# 4 0.0000 0.0000 0.0000 24.3092 0.0000 2.1082
# 5 -13.5020 -10.9795 -22.2473 0.0000 30.1348 0.0000
# 6 0.0000 0.0000 0.0000 2.1082 0.0000 17.5251
#
#
#
# Elastic Compliance Matrix: (Units=1/GPa)
#
#
# Indices 1 2 3 4 5 6 
#
# 1 0.010501 -0.003937 -0.002914 0.000000 0.001119 0.000000
# 2 -0.003937 0.063039 0.001170 0.000000 0.022068 0.000000
# 3 -0.002914 0.001170 0.009610 0.000000 0.006215 0.000000
# 4 0.000000 0.000000 0.000000 0.041570 0.000000 -0.005001
# 5 0.001119 0.022068 0.006215 0.000000 0.046315 0.000000
# 6 0.000000 0.000000 0.000000 -0.005001 0.000000 0.057663
#
#
# Mechanical properties :
#
#
# Convention : Reuss Voigt Hill
#
# Bulk Modulus (GPa) = 13.92983 42.59098 28.26040
# Shear Modulus (GPa) = 18.94030 27.87389 23.40709
#
# Velocity S-wave (km/s) = 2.94051 3.56721 3.26891
# Velocity P-wave (km/s) = 4.22943 6.03409 5.21048
#
# Compressibility (1/GPa) = 0.07178836
#
# Stress axis : x y z
#
# Youngs Moduli (GPa) = 95.23197 15.86318 104.06263
#
# Poissons Ratio (x) = 0.06246 0.30320
# Poissons Ratio (y) = 0.37494 -0.12178
# Poissons Ratio (z) = 0.27747 -0.01856
#
# Static dielectric constant tensor:
#      x y z
#    x 1.792710 0.000000 0.002650 
#    y 0.000000 1.869610 0.000000 
#    z 0.002650 0.000000 1.848370 
# 
# From -- ./inp_files/59395.got.cif
#   From: 2010.05.17/outbox.cif.g08.bks.cpg/sg14_30_cif.got.tgz:59395.got - 2010.06.03 17:49:19.
