data_PCOD9242972
_publ_section_title
;
Structure prediction by ZEFSAII (Michael W. Deem and Ramdas Pophale) SiO2 
 PCOD9242972
Probable space group: P 21/C
;
_chemical_formula_sum "Si O2"
_cell_formula_units_Z 24
_cell_length_a 12.733667
_cell_length_b 9.589942
_cell_length_c 14.422909
_cell_angle_alpha 90.000000
_cell_angle_beta 32.590252
_cell_angle_gamma 90.000000
_cell_volume 948.660488
_symmetry_space_group_name_H-M "P 21/C"
_symmetry_group_IT_number 14
_symmetry_cell_setting 'monoclinic'
loop_
_space_group_symop_operation_xyz
x,y,z
-x,1/2+y,1/2-z
-x,-y,-z
x,1/2-y,1/2+z
loop_
_atom_site_type_symbol
_atom_site_label
_atom_site_fract_x
_atom_site_fract_y
_atom_site_fract_z
Si Si1 0.298110 0.160531 0.657270
Si Si2 0.292094 0.557628 0.325518
Si Si3 0.709973 0.291079 0.307637
Si Si4 0.712896 0.911539 0.551840
Si Si5 0.083371 0.138314 0.099883
Si Si6 0.906716 0.926992 0.694448
O O1 0.321147 0.036485 0.712368
O O2 0.497769 0.249966 0.502163
O O3 0.260697 0.100385 0.580928
O O4 0.139001 0.273733 0.808664
O O5 0.274396 0.714273 0.302816
O O6 0.111370 0.495460 0.515098
O O7 0.491714 0.546730 0.235063
O O8 0.762344 0.452871 0.266431
O O9 0.877330 0.216295 0.245170
O O10 0.760528 0.754503 0.548053
O O11 0.875764 0.011874 0.473042
O O12 0.128245 0.092736 0.169938
#
# Coordination Sequence:
#
# PCOD9242972 Si02
#       6
#     4   4   4   4   4   4
#     4  10  20  36  59  83 111 153 190 229 283 342
#     4  11  21  37  58  86 116 147 186 239 288 329
#     4  10  20  37  59  83 114 151 192 230 279 345
#     4   9  20  38  57  82 117 153 192 230 281 347
#     4  10  21  36  58  88 116 148 192 240 282 328
#     4  10  20  38  60  82 110 152 195 230 276 343
#
# _framework density 25.298829999999999
#
# number of rings (size 3 to 8) (size 9 to 14) (size 15 to 20)
#    0.000    2.000    0.000    5.000    0.000    1.333 
#    0.000   10.000    0.000    2.000    0.000    0.000 
#    0.000    0.000    0.000    0.000    0.000    0.000 
#
# Total GULP energy -134508.018406 kJ/mol
# GULP energy per Si atom -5604.500767 kJ/mol
# Density = 2.524125 g / cm^3
# Si number density = 25.298830 Si / 1000 Ang^3
#
#
#
# Elastic Constant Matrix: (Units=GPa)
#
#
# Indices 1 2 3 4 5 6 
#
# 1 45.2361 13.1251 22.3224 0.0000 -11.3162 0.0000
# 2 13.1251 134.6551 32.8159 0.0000 -18.7023 0.0000
# 3 22.3224 32.8159 77.5887 0.0000 -21.3494 0.0000
# 4 0.0000 0.0000 0.0000 31.3539 0.0000 -6.5723
# 5 -11.3162 -18.7023 -21.3494 0.0000 43.2278 0.0000
# 6 0.0000 0.0000 0.0000 -6.5723 0.0000 33.6815
#
#
#
# Elastic Compliance Matrix: (Units=1/GPa)
#
#
# Indices 1 2 3 4 5 6 
#
# 1 0.026281 -0.000521 -0.006376 0.000000 0.003505 0.000000
# 2 -0.000521 0.008465 -0.002847 0.000000 0.002120 0.000000
# 3 -0.006376 -0.002847 0.017508 0.000000 0.005746 0.000000
# 4 0.000000 0.000000 0.000000 0.033254 0.000000 0.006489
# 5 0.003505 0.002120 0.005746 0.000000 0.027806 0.000000
# 6 0.000000 0.000000 0.000000 0.006489 0.000000 0.030956
#
#
# Mechanical properties :
#
#
# Convention : Reuss Voigt Hill
#
# Bulk Modulus (GPa) = 30.51968 43.77855 37.14911
# Shear Modulus (GPa) = 28.62362 34.26709 31.44535
#
# Velocity S-wave (km/s) = 3.36731 3.68434 3.52938
# Velocity P-wave (km/s) = 5.21615 5.95326 5.59685
#
# Compressibility (1/GPa) = 0.03276575
#
# Stress axis : x y z
#
# Youngs Moduli (GPa) = 38.05080 118.12673 57.11609
#
# Poissons Ratio (x) = 0.06153 0.36418
# Poissons Ratio (y) = 0.01982 0.16262
# Poissons Ratio (z) = 0.24262 0.33634
#
# Static dielectric constant tensor:
#      x y z
#    x 1.982290 0.000000 -0.026110 
#    y 0.000000 1.953830 0.000000 
#    z -0.026110 0.000000 1.983510 
# 
# From -- ./inp_files/58988.got.cif
#   From: 2010.05.17/outbox.cif.g08.bks.cpg/sg14_30_cif.got.tgz:58988.got - 2010.06.03 17:49:19.
