data_PCOD9242967
_publ_section_title
;
Structure prediction by ZEFSAII (Michael W. Deem and Ramdas Pophale) SiO2 
 PCOD9242967
Probable space group: P 21/C
;
_chemical_formula_sum "Si O2"
_cell_formula_units_Z 32
_cell_length_a 17.297089
_cell_length_b 5.099585
_cell_length_c 22.126234
_cell_angle_alpha 90.000000
_cell_angle_beta 63.108569
_cell_angle_gamma 90.000000
_cell_volume 1740.662475
_symmetry_space_group_name_H-M "P 21/C"
_symmetry_group_IT_number 14
_symmetry_cell_setting 'monoclinic'
loop_
_space_group_symop_operation_xyz
x,y,z
-x,1/2+y,1/2-z
-x,-y,-z
x,1/2-y,1/2+z
loop_
_atom_site_type_symbol
_atom_site_label
_atom_site_fract_x
_atom_site_fract_y
_atom_site_fract_z
Si Si1 0.011594 0.249948 0.038499
Si Si2 0.337030 0.324526 0.627242
Si Si3 0.824214 0.256329 0.130350
Si Si4 0.307959 0.841564 0.716001
Si Si5 0.352346 0.257408 0.988561
Si Si6 0.800591 0.744725 0.552703
Si Si7 0.484829 0.015238 0.718162
Si Si8 0.539918 0.254054 0.075403
O O1 0.926962 0.247922 0.110543
O O2 0.000000 0.500000 0.000000
O O3 0.112530 0.251756 0.020007
O O4 0.000000 0.000000 0.000000
O O5 0.325700 0.597731 0.665717
O O6 0.310421 0.326432 0.566953
O O7 0.439959 0.256243 0.591000
O O8 0.290234 0.097764 0.681965
O O9 0.765797 0.226695 0.209883
O O10 0.805610 0.521961 0.099898
O O11 0.802615 0.021928 0.091000
O O12 0.394863 0.909584 0.722983
O O13 0.282046 0.273383 0.960561
O O14 0.401904 0.533046 0.979643
O O15 0.420881 0.033244 0.946024
O O16 0.529450 0.761395 0.732101
O O17 0.539375 0.141655 0.644390
#
# Coordination Sequence:
#
# PCOD9242967 Si02
#       8
#     4   4   4   4   4   4   4   4
#     4   8  16  33  54  79 112 140 165 214 273 332
#     4  11  23  42  54  76 109 150 195 227 266 308
#     4  10  20  36  59  82 113 140 177 215 272 353
#     4  11  23  38  57  78 107 150 187 220 269 334
#     4  12  23  37  60  79 109 143 191 239 260 321
#     4  10  21  34  55  90 110 135 175 227 285 311
#     4  11  23  36  52  76 115 143 172 231 282 322
#     4  11  23  38  54  80 102 151 193 220 275 314
#
# _framework density 18.383806
#
# number of rings (size 3 to 8) (size 9 to 14) (size 15 to 20)
#    0.000    1.500    0.000    6.750    5.250    0.000 
#    0.000    0.000    0.000    1.500    0.000    0.000 
#    0.000    0.000    0.000    0.000    0.000    0.000 
#
# Total GULP energy -178675.416823 kJ/mol
# GULP energy per Si atom -5583.606776 kJ/mol
# Density = 1.834196 g / cm^3
# Si number density = 18.383806 Si / 1000 Ang^3
#
#
#
# Elastic Constant Matrix: (Units=GPa)
#
#
# Indices 1 2 3 4 5 6 
#
# 1 28.1649 -5.5779 15.6632 0.0000 -10.2403 0.0000
# 2 -5.5779 78.8038 -18.2897 0.0000 2.0978 0.0000
# 3 15.6632 -18.2897 62.6576 0.0000 -4.1807 0.0000
# 4 0.0000 0.0000 0.0000 34.7798 0.0000 0.5242
# 5 -10.2403 2.0978 -4.1807 0.0000 19.4634 0.0000
# 6 0.0000 0.0000 0.0000 0.5242 0.0000 12.9017
#
#
#
# Elastic Compliance Matrix: (Units=1/GPa)
#
#
# Indices 1 2 3 4 5 6 
#
# 1 0.050410 0.000402 -0.010873 0.000000 0.024143 0.000000
# 2 0.000402 0.013623 0.003847 0.000000 -0.000430 0.000000
# 3 -0.010873 0.003847 0.019673 0.000000 -0.001910 0.000000
# 4 0.000000 0.000000 0.000000 0.028770 0.000000 -0.001169
# 5 0.024143 -0.000430 -0.001910 0.000000 0.063717 0.000000
# 6 0.000000 0.000000 0.000000 -0.001169 0.000000 0.077557
#
#
# Mechanical properties :
#
#
# Convention : Reuss Voigt Hill
#
# Bulk Modulus (GPa) = 14.19299 17.02419 15.60859
# Shear Modulus (GPa) = 17.21263 25.28434 21.24849
#
# Velocity S-wave (km/s) = 3.06321 3.71261 3.40343
# Velocity P-wave (km/s) = 4.49979 5.25913 4.89421
#
# Compressibility (1/GPa) = 0.07045734
#
# Stress axis : x y z
#
# Youngs Moduli (GPa) = 19.83737 73.40764 50.82988
#
# Poissons Ratio (x) = -0.02949 0.55269
# Poissons Ratio (y) = -0.00797 -0.19556
# Poissons Ratio (z) = 0.21570 -0.28242
#
# Static dielectric constant tensor:
#      x y z
#    x 1.632240 0.000000 -0.020410 
#    y 0.000000 1.634680 0.000000 
#    z -0.020410 0.000000 1.664040 
# 
# From -- ./inp_files/68963.got.cif
#   From: 2010.05.17/outbox.cif.g08.bks.cpg/sg14_35_cif.got.tgz:68963.got - 2010.06.03 17:49:19.
