data_PCOD9242864
_publ_section_title
;
Structure prediction by ZEFSAII (Michael W. Deem and Ramdas Pophale) SiO2 
 PCOD9242864
Probable space group: P 21/C
;
_chemical_formula_sum "Si O2"
_cell_formula_units_Z 24
_cell_length_a 9.190660
_cell_length_b 5.260481
_cell_length_c 26.010191
_cell_angle_alpha 90.000000
_cell_angle_beta 48.743673
_cell_angle_gamma 90.000000
_cell_volume 945.363764
_symmetry_space_group_name_H-M "P 21/C"
_symmetry_group_IT_number 14
_symmetry_cell_setting 'monoclinic'
loop_
_space_group_symop_operation_xyz
x,y,z
-x,1/2+y,1/2-z
-x,-y,-z
x,1/2-y,1/2+z
loop_
_atom_site_type_symbol
_atom_site_label
_atom_site_fract_x
_atom_site_fract_y
_atom_site_fract_z
Si Si1 0.998841 0.252987 0.311823
Si Si2 0.627656 0.601013 0.423534
Si Si3 0.036483 0.428652 0.432293
Si Si4 0.423857 0.331582 0.389246
Si Si5 0.827286 0.236533 0.241770
Si Si6 0.196477 0.085360 0.537855
O O1 0.909460 0.182833 0.445865
O O2 0.151652 0.469355 0.291208
O O3 0.798741 0.396774 0.373753
O O4 0.974555 0.213269 0.256144
O O5 0.500000 0.500000 0.500000
O O6 0.494395 0.585153 0.404081
O O7 0.699936 0.868784 0.430534
O O8 0.262241 0.369763 0.383603
O O9 0.000000 0.500000 0.500000
O O10 0.956258 0.683654 0.425842
O O11 0.616636 0.246885 0.315525
O O12 0.335083 0.153776 0.456187
O O13 0.903782 0.486280 0.194938
#
# Coordination Sequence:
#
# PCOD9242864 Si02
#       6
#     4   4   4   4   4   4
#     4   9  18  33  50  77 111 142 178 231 292 338
#     4   9  19  37  58  86 116 149 192 244 301 363
#     4  10  20  36  55  80 116 154 190 236 292 350
#     4   9  18  35  58  85 111 148 199 241 285 354
#     4   9  18  31  52  77 107 143 183 231 279 340
#     4  10  21  36  55  83 118 152 186 241 306 351
#
# _framework density 25.387053999999999
#
# number of rings (size 3 to 8) (size 9 to 14) (size 15 to 20)
#    0.000    2.667    0.000    2.000    0.000    5.333 
#    0.000   34.167    0.000    4.000    0.000    0.000 
#    0.000    0.000    0.000    0.000    0.000    0.000 
#
# Total GULP energy -133908.566181 kJ/mol
# GULP energy per Si atom -5579.523591 kJ/mol
# Density = 2.532927 g / cm^3
# Si number density = 25.387054 Si / 1000 Ang^3
#
#
#
# Elastic Constant Matrix: (Units=GPa)
#
#
# Indices 1 2 3 4 5 6 
#
# 1 117.3859 81.7454 35.8304 0.0000 -6.3784 0.0000
# 2 81.7454 217.0014 56.9746 0.0000 -20.1559 0.0000
# 3 35.8304 56.9746 108.3660 0.0000 -26.4677 0.0000
# 4 0.0000 0.0000 0.0000 30.5351 0.0000 7.5948
# 5 -6.3784 -20.1559 -26.4677 0.0000 46.0159 0.0000
# 6 0.0000 0.0000 0.0000 7.5948 0.0000 33.6124
#
#
#
# Elastic Compliance Matrix: (Units=1/GPa)
#
#
# Indices 1 2 3 4 5 6 
#
# 1 0.011923 -0.004055 -0.002141 0.000000 -0.001355 0.000000
# 2 -0.004055 0.006754 -0.001890 0.000000 0.001309 0.000000
# 3 -0.002141 -0.001890 0.012397 0.000000 0.006006 0.000000
# 4 0.000000 0.000000 0.000000 0.034699 0.000000 -0.007840
# 5 -0.001355 0.001309 0.006006 0.000000 0.025571 0.000000
# 6 0.000000 0.000000 0.000000 -0.007840 0.000000 0.031522
#
#
# Mechanical properties :
#
#
# Convention : Reuss Voigt Hill
#
# Bulk Modulus (GPa) = 67.11447 87.98380 77.54914
# Shear Modulus (GPa) = 34.72077 39.91286 37.31682
#
# Velocity S-wave (km/s) = 3.70220 3.96937 3.83811
# Velocity P-wave (km/s) = 6.69096 7.46592 7.08904
#
# Compressibility (1/GPa) = 0.01489992
#
# Stress axis : x y z
#
# Youngs Moduli (GPa) = 83.87373 148.06670 80.66691
#
# Poissons Ratio (x) = 0.60041 0.17272
# Poissons Ratio (y) = 0.34011 0.15249
# Poissons Ratio (z) = 0.17959 0.27990
#
# Static dielectric constant tensor:
#      x y z
#    x 2.139400 0.000000 0.022650 
#    y 0.000000 2.076970 0.000000 
#    z 0.022650 0.000000 2.111000 
# 
# From -- ./inp_files/65178.got.cif
#   From: 2010.05.17/outbox.cif.g08.bks.cpg/sg14_33_cif.got.tgz:65178.got - 2010.06.03 17:49:19.
