data_PCOD9242120
_publ_section_title
;
Structure prediction by ZEFSAII (Michael W. Deem and Ramdas Pophale) SiO2 
 PCOD9242120
Probable space group: P 21/C
;
_chemical_formula_sum "Si O2"
_cell_formula_units_Z 28
_cell_length_a 5.553021
_cell_length_b 26.496757
_cell_length_c 8.793251
_cell_angle_alpha 90.000000
_cell_angle_beta 80.578395
_cell_angle_gamma 90.000000
_cell_volume 1276.360111
_symmetry_space_group_name_H-M "P 21/C"
_symmetry_group_IT_number 14
_symmetry_cell_setting 'monoclinic'
loop_
_space_group_symop_operation_xyz
x,y,z
-x,1/2+y,1/2-z
-x,-y,-z
x,1/2-y,1/2+z
loop_
_atom_site_type_symbol
_atom_site_label
_atom_site_fract_x
_atom_site_fract_y
_atom_site_fract_z
Si Si1 0.783689 0.534099 0.826537
Si Si2 0.029568 0.336976 0.681822
Si Si3 0.030505 0.633246 0.659844
Si Si4 0.649217 0.810054 0.376873
Si Si5 0.378464 0.592645 0.827183
Si Si6 0.035204 0.065152 0.389671
Si Si7 0.494764 0.216483 0.274162
O O1 0.513517 0.539901 0.788526
O O2 0.926602 0.481917 0.807455
O O3 0.911815 0.579068 0.717603
O O4 0.761069 0.546317 0.011059
O O5 0.011020 0.352022 0.507762
O O6 0.069861 0.387000 0.779751
O O7 0.765332 0.309548 0.744692
O O8 0.277870 0.305717 0.688562
O O9 0.305164 0.620840 0.680273
O O10 0.913853 0.677228 0.778005
O O11 0.537856 0.865770 0.396240
O O12 0.495125 0.774058 0.282278
O O13 0.624434 0.787821 0.546850
O O14 0.159945 0.582220 0.963398
#
# Coordination Sequence:
#
# PCOD9242120 Si02
#       7
#     4   4   4   4   4   4   4
#     4   9  20  38  68  98 132 181 231 277 341 412
#     4  12  27  45  67 102 141 180 224 288 340 410
#     4  10  24  41  65  96 137 176 223 280 343 402
#     4  11  25  44  68  95 133 177 227 283 337 413
#     4  10  19  39  65  94 130 177 223 280 333 407
#     4  10  20  40  65  98 137 178 232 280 340 407
#     4  12  28  45  71  99 133 179 231 280 345 405
#
# _framework density 21.937383000000001
#
# number of rings (size 3 to 8) (size 9 to 14) (size 15 to 20)
#    0.000    1.429    1.429    3.857    8.000    0.571 
#    0.000    0.714    0.000    0.000    0.000    0.000 
#    0.000    0.000    0.000    0.000    0.000    0.000 
#
# Total GULP energy -155980.216557 kJ/mol
# GULP energy per Si atom -5570.722020 kJ/mol
# Density = 2.188745 g / cm^3
# Si number density = 21.937383 Si / 1000 Ang^3
#
#
#
# Elastic Constant Matrix: (Units=GPa)
#
#
# Indices 1 2 3 4 5 6 
#
# 1 60.9232 15.9726 4.4633 0.0000 4.6987 0.0000
# 2 15.9726 87.4022 -10.6057 0.0000 -7.4226 0.0000
# 3 4.4633 -10.6057 16.4793 0.0000 -6.9660 0.0000
# 4 0.0000 0.0000 0.0000 27.5524 0.0000 9.0594
# 5 4.6987 -7.4226 -6.9660 0.0000 15.4657 0.0000
# 6 0.0000 0.0000 0.0000 9.0594 0.0000 35.3957
#
#
#
# Elastic Compliance Matrix: (Units=1/GPa)
#
#
# Indices 1 2 3 4 5 6 
#
# 1 0.021209 -0.007689 -0.018499 0.000000 -0.018466 0.000000
# 2 -0.007689 0.017227 0.021803 0.000000 0.020424 0.000000
# 3 -0.018499 0.021803 0.106871 0.000000 0.064220 0.000000
# 4 0.000000 0.000000 0.000000 0.039630 0.000000 -0.010143
# 5 -0.018466 0.020424 0.064220 0.000000 0.108998 0.000000
# 6 0.000000 0.000000 0.000000 -0.010143 0.000000 0.030848
#
#
# Mechanical properties :
#
#
# Convention : Reuss Voigt Hill
#
# Bulk Modulus (GPa) = 7.32404 20.49614 13.91009
# Shear Modulus (GPa) = 13.19036 26.01437 19.60237
#
# Velocity S-wave (km/s) = 2.45475 3.44735 2.99249
# Velocity P-wave (km/s) = 3.37346 5.02085 4.27722
#
# Compressibility (1/GPa) = 0.13653672
#
# Stress axis : x y z
#
# Youngs Moduli (GPa) = 47.14890 58.04986 9.35709
#
# Poissons Ratio (x) = 0.44634 0.17309
# Poissons Ratio (y) = 0.36252 -0.20401
# Poissons Ratio (z) = 0.87219 -1.26563
#
# Static dielectric constant tensor:
#      x y z
#    x 2.104300 0.000000 0.025420 
#    y 0.000000 1.812350 0.000000 
#    z 0.025420 0.000000 1.770750 
# 
# From -- ./inp_files/6519.got.cif
#   From: 2010.05.17/outbox.cif.g08.bks.cpg/sg14_4_cif.got.tgz:6519.got - 2010.06.03 17:49:19.
