data_PCOD9242670
_publ_section_title
;
Structure prediction by ZEFSAII (Michael W. Deem and Ramdas Pophale) SiO2 
 PCOD9242670
Probable space group: P 21/C
;
_chemical_formula_sum "Si O2"
_cell_formula_units_Z 24
_cell_length_a 15.412174
_cell_length_b 7.121782
_cell_length_c 15.455240
_cell_angle_alpha 90.000000
_cell_angle_beta 141.412466
_cell_angle_gamma 90.000000
_cell_volume 1058.061039
_symmetry_space_group_name_H-M "P 21/C"
_symmetry_group_IT_number 14
_symmetry_cell_setting 'monoclinic'
loop_
_space_group_symop_operation_xyz
x,y,z
-x,1/2+y,1/2-z
-x,-y,-z
x,1/2-y,1/2+z
loop_
_atom_site_type_symbol
_atom_site_label
_atom_site_fract_x
_atom_site_fract_y
_atom_site_fract_z
Si Si1 0.615319 0.240444 0.063533
Si Si2 0.114905 0.249147 0.036950
Si Si3 0.193812 0.761587 0.942162
Si Si4 0.179832 0.685462 0.123218
Si Si5 0.880266 0.827694 0.649257
Si Si6 0.309271 0.327933 0.842891
O O1 0.686152 0.173295 0.029659
O O2 0.700002 0.170887 0.212565
O O3 0.643278 0.465372 0.090630
O O4 0.450662 0.211906 0.941268
O O5 0.136397 0.473088 0.066252
O O6 0.223651 0.158280 0.187337
O O7 0.137343 0.212551 0.953160
O O8 0.955379 0.215029 0.940245
O O9 0.173817 0.537508 0.911084
O O10 0.043093 0.840312 0.798208
O O11 0.220982 0.783229 0.065257
O O12 0.795686 0.751715 0.665670
#
# Coordination Sequence:
#
# PCOD9242670 Si02
#       6
#     4   4   4   4   4   4
#     4  10  22  38  55  80 113 144 177 221 271 321
#     4  10  20  35  56  82 109 140 181 224 266 317
#     4  10  20  35  56  80 108 141 180 222 265 317
#     4  10  20  35  56  82 109 140 181 224 266 317
#     4  10  20  35  56  80 108 141 180 222 265 317
#     4  10  22  38  55  80 113 144 177 221 271 321
#
# _framework density 22.682998999999999
#
# number of rings (size 3 to 8) (size 9 to 14) (size 15 to 20)
#    0.000    2.000    3.333    0.000    0.000    4.000 
#    0.000    0.000    0.000    0.000    0.000    0.000 
#    0.000    0.000    0.000    0.000    0.000    0.000 
#
# Total GULP energy -134254.889465 kJ/mol
# GULP energy per Si atom -5593.953728 kJ/mol
# Density = 2.263137 g / cm^3
# Si number density = 22.682999 Si / 1000 Ang^3
#
#
#
# Elastic Constant Matrix: (Units=GPa)
#
#
# Indices 1 2 3 4 5 6 
#
# 1 205.8341 7.7614 108.9896 0.0000 -17.0434 0.0000
# 2 7.7614 44.1536 4.9797 0.0000 -1.3185 0.0000
# 3 108.9896 4.9797 148.1624 0.0000 -1.6135 0.0000
# 4 0.0000 0.0000 0.0000 24.0992 0.0000 0.7524
# 5 -17.0434 -1.3185 -1.6135 0.0000 41.6383 0.0000
# 6 0.0000 0.0000 0.0000 0.7524 0.0000 9.4105
#
#
#
# Elastic Compliance Matrix: (Units=1/GPa)
#
#
# Indices 1 2 3 4 5 6 
#
# 1 0.008381 -0.000690 -0.006107 0.000000 0.003172 0.000000
# 2 -0.000690 0.022811 -0.000255 0.000000 0.000430 0.000000
# 3 -0.006107 -0.000255 0.011228 0.000000 -0.002073 0.000000
# 4 0.000000 0.000000 0.000000 0.041599 0.000000 -0.003326
# 5 0.003172 0.000430 -0.002073 0.000000 0.025248 0.000000
# 6 0.000000 0.000000 0.000000 -0.003326 0.000000 0.106530
#
#
# Mechanical properties :
#
#
# Convention : Reuss Voigt Hill
#
# Bulk Modulus (GPa) = 35.31507 71.29016 53.30261
# Shear Modulus (GPa) = 20.89093 33.45757 27.17425
#
# Velocity S-wave (km/s) = 3.03808 3.84475 3.46497
# Velocity P-wave (km/s) = 5.28293 7.15588 6.28951
#
# Compressibility (1/GPa) = 0.02831652
#
# Stress axis : x y z
#
# Youngs Moduli (GPa) = 119.32181 43.83844 89.06432
#
# Poissons Ratio (x) = 0.03023 0.54393
# Poissons Ratio (y) = 0.08230 0.02268
# Poissons Ratio (z) = 0.72872 0.01116
#
# Static dielectric constant tensor:
#      x y z
#    x 1.823310 0.000000 -0.003300 
#    y 0.000000 1.950650 0.000000 
#    z -0.003300 0.000000 1.757890 
# 
# From -- ./inp_files/39063.got.cif
#   From: 2010.05.17/outbox.cif.g08.bks.cpg/sg14_20_cif.got.tgz:39063.got - 2010.06.03 17:49:19.
