data_PCOD9242778
_publ_section_title
;
Structure prediction by ZEFSAII (Michael W. Deem and Ramdas Pophale) SiO2 
 PCOD9242778
Probable space group: P 21/C
;
_chemical_formula_sum "Si O2"
_cell_formula_units_Z 28
_cell_length_a 9.054552
_cell_length_b 17.056706
_cell_length_c 9.361251
_cell_angle_alpha 90.000000
_cell_angle_beta 111.668828
_cell_angle_gamma 90.000000
_cell_volume 1343.592771
_symmetry_space_group_name_H-M "P 21/C"
_symmetry_group_IT_number 14
_symmetry_cell_setting 'monoclinic'
loop_
_space_group_symop_operation_xyz
x,y,z
-x,1/2+y,1/2-z
-x,-y,-z
x,1/2-y,1/2+z
loop_
_atom_site_type_symbol
_atom_site_label
_atom_site_fract_x
_atom_site_fract_y
_atom_site_fract_z
Si Si1 0.000208 0.518208 0.831104
Si Si2 0.248387 0.861969 0.470967
Si Si3 0.436728 0.581139 0.782452
Si Si4 0.843286 0.535134 0.374497
Si Si5 0.328736 0.963611 0.760098
Si Si6 0.602282 0.650365 0.401408
Si Si7 0.528259 0.237404 0.886542
O O1 0.818875 0.505161 0.715516
O O2 0.084178 0.603930 0.847036
O O3 0.109656 0.459720 0.776872
O O4 0.000000 0.500000 0.000000
O O5 0.388734 0.902239 0.428065
O O6 0.255619 0.896215 0.632812
O O7 0.303744 0.771910 0.494552
O O8 0.294734 0.529345 0.668616
O O9 0.592884 0.530418 0.810555
O O10 0.445471 0.663015 0.704507
O O11 0.769864 0.611262 0.422787
O O12 0.000000 0.500000 0.500000
O O13 0.471902 0.918394 0.890440
O O14 0.585484 0.710473 0.525541
O O15 0.546763 0.694896 0.238263
#
# Coordination Sequence:
#
# PCOD9242778 Si02
#       7
#     4   4   4   4   4   4   4
#     4   9  19  37  61  89 119 154 199 248 297 348
#     4   9  18  37  57  87 121 158 193 248 297 359
#     4  10  20  35  60  87 116 161 200 249 295 356
#     4  10  23  40  62  87 121 155 211 256 299 344
#     4   9  19  34  65  90 114 152 210 248 290 352
#     4  10  23  40  63  89 122 163 200 253 300 364
#     4  11  21  38  61  88 123 157 203 238 310 367
#
# _framework density 20.839646999999999
#
# number of rings (size 3 to 8) (size 9 to 14) (size 15 to 20)
#    0.000    2.286    1.429    0.429    4.000    4.571 
#    0.000    1.429    6.286    0.000    0.000    0.000 
#    0.000    0.000    0.000    0.000    0.000    0.000 
#
# Total GULP energy -156015.542990 kJ/mol
# GULP energy per Si atom -5571.983678 kJ/mol
# Density = 2.079221 g / cm^3
# Si number density = 20.839647 Si / 1000 Ang^3
#
#
#
# Elastic Constant Matrix: (Units=GPa)
#
#
# Indices 1 2 3 4 5 6 
#
# 1 124.4714 37.1396 32.4531 0.0000 -11.9896 0.0000
# 2 37.1396 74.0432 22.5545 0.0000 -10.5714 0.0000
# 3 32.4531 22.5545 59.0335 0.0000 -22.3398 0.0000
# 4 0.0000 0.0000 0.0000 31.4341 0.0000 -9.7674
# 5 -11.9896 -10.5714 -22.3398 0.0000 19.3217 0.0000
# 6 0.0000 0.0000 0.0000 -9.7674 0.0000 30.4824
#
#
#
# Elastic Compliance Matrix: (Units=1/GPa)
#
#
# Indices 1 2 3 4 5 6 
#
# 1 0.010291 -0.003923 -0.004541 0.000000 -0.001011 0.000000
# 2 -0.003923 0.016870 -0.003053 0.000000 0.003266 0.000000
# 3 -0.004541 -0.003053 0.033609 0.000000 0.034371 0.000000
# 4 0.000000 0.000000 0.000000 0.035330 0.000000 0.011321
# 5 -0.001011 0.003266 0.034371 0.000000 0.092654 0.000000
# 6 0.000000 0.000000 0.000000 0.011321 0.000000 0.036433
#
#
# Mechanical properties :
#
#
# Convention : Reuss Voigt Hill
#
# Bulk Modulus (GPa) = 26.49990 49.09362 37.79676
# Shear Modulus (GPa) = 19.17178 27.27437 23.22307
#
# Velocity S-wave (km/s) = 3.03639 3.62162 3.34184
# Velocity P-wave (km/s) = 5.00365 6.41070 5.75038
#
# Compressibility (1/GPa) = 0.03773599
#
# Stress axis : x y z
#
# Youngs Moduli (GPa) = 97.17089 59.27834 29.75384
#
# Poissons Ratio (x) = 0.23255 0.13512
# Poissons Ratio (y) = 0.38120 0.09083
# Poissons Ratio (z) = 0.44128 0.18096
#
# Static dielectric constant tensor:
#      x y z
#    x 1.774700 0.000000 0.014430 
#    y 0.000000 1.763570 0.000000 
#    z 0.014430 0.000000 1.834810 
# 
# From -- ./inp_files/9526.got.cif
#   From: 2010.05.17/outbox.cif.g08.bks.cpg/sg14_5_cif.got.tgz:9526.got - 2010.06.03 17:49:19.
