data_PCOD9242928
_publ_section_title
;
Structure prediction by ZEFSAII (Michael W. Deem and Ramdas Pophale) SiO2 
 PCOD9242928
Probable space group: P 21/C
;
_chemical_formula_sum "Si O2"
_cell_formula_units_Z 28
_cell_length_a 8.454453
_cell_length_b 12.315312
_cell_length_c 15.759227
_cell_angle_alpha 90.000000
_cell_angle_beta 133.547202
_cell_angle_gamma 90.000000
_cell_volume 1189.291311
_symmetry_space_group_name_H-M "P 21/C"
_symmetry_group_IT_number 14
_symmetry_cell_setting 'monoclinic'
loop_
_space_group_symop_operation_xyz
x,y,z
-x,1/2+y,1/2-z
-x,-y,-z
x,1/2-y,1/2+z
loop_
_atom_site_type_symbol
_atom_site_label
_atom_site_fract_x
_atom_site_fract_y
_atom_site_fract_z
Si Si1 0.634170 0.690495 0.758530
Si Si2 0.975566 0.755190 0.594489
Si Si3 0.711891 0.072860 0.756277
Si Si4 0.911778 0.392519 0.013897
Si Si5 0.848688 0.972144 0.642945
Si Si6 0.358472 0.481102 0.364364
Si Si7 0.672972 0.894359 0.864437
O O1 0.507150 0.625855 0.786361
O O2 0.887450 0.665647 0.865287
O O3 0.582163 0.638591 0.649068
O O4 0.606434 0.816204 0.763127
O O5 0.129387 0.810044 0.578592
O O6 0.805721 0.678590 0.480611
O O7 0.125833 0.672662 0.701862
O O8 0.864707 0.851116 0.608338
O O9 0.791686 0.996164 0.863741
O O10 0.702572 0.999433 0.669853
O O11 0.780231 0.443632 0.043117
O O12 0.000000 0.500000 0.000000
O O13 0.099625 0.996962 0.768414
O O14 0.500000 0.500000 0.500000
O O15 0.459703 0.560806 0.331504
#
# Coordination Sequence:
#
# PCOD9242928 Si02
#       7
#     4   4   4   4   4   4   4
#     4   9  20  38  57  80 115 151 187 237 293 344
#     4  10  20  36  58  83 118 156 194 244 294 347
#     4  11  22  36  59  90 117 152 198 244 293 351
#     4   8  17  37  60  80 111 155 194 234 290 348
#     4  10  21  37  59  88 118 151 197 248 295 351
#     4  10  20  36  58  82 112 149 193 238 288 349
#     4  10  21  38  57  81 115 154 193 237 292 354
#
# _framework density 23.543434000000001
#
# number of rings (size 3 to 8) (size 9 to 14) (size 15 to 20)
#    0.000    2.286    0.000    2.143    0.000    6.857 
#    0.000    9.286    0.000    1.714    0.000    0.000 
#    0.000    0.000    0.000    0.000    0.000    0.000 
#
# Total GULP energy -156195.581682 kJ/mol
# GULP energy per Si atom -5578.413631 kJ/mol
# Density = 2.348985 g / cm^3
# Si number density = 23.543434 Si / 1000 Ang^3
#
#
#
# Elastic Constant Matrix: (Units=GPa)
#
#
# Indices 1 2 3 4 5 6 
#
# 1 60.0110 30.3576 12.8371 0.0000 -9.4280 0.0000
# 2 30.3576 109.9991 23.1937 0.0000 -6.9772 0.0000
# 3 12.8371 23.1937 58.5082 0.0000 -14.2763 0.0000
# 4 0.0000 0.0000 0.0000 39.5437 0.0000 -14.9026
# 5 -9.4280 -6.9772 -14.2763 0.0000 31.1550 0.0000
# 6 0.0000 0.0000 0.0000 -14.9026 0.0000 26.5543
#
#
#
# Elastic Compliance Matrix: (Units=1/GPa)
#
#
# Indices 1 2 3 4 5 6 
#
# 1 0.020172 -0.005000 -0.001382 0.000000 0.004351 0.000000
# 2 -0.005000 0.011166 -0.003477 0.000000 -0.000606 0.000000
# 3 -0.001382 -0.003477 0.020808 0.000000 0.008338 0.000000
# 4 0.000000 0.000000 0.000000 0.032072 0.000000 0.017999
# 5 0.004351 -0.000606 0.008338 0.000000 0.037099 0.000000
# 6 0.000000 0.000000 0.000000 0.017999 0.000000 0.047760
#
#
# Mechanical properties :
#
#
# Convention : Reuss Voigt Hill
#
# Bulk Modulus (GPa) = 30.83799 40.14388 35.49094
# Shear Modulus (GPa) = 25.04971 30.25927 27.65449
#
# Velocity S-wave (km/s) = 3.26541 3.58893 3.43098
# Velocity P-wave (km/s) = 5.22914 5.85337 5.55004
#
# Compressibility (1/GPa) = 0.03242754
#
# Stress axis : x y z
#
# Youngs Moduli (GPa) = 49.57349 89.56150 48.05911
#
# Poissons Ratio (x) = 0.44778 0.06643
# Poissons Ratio (y) = 0.24785 0.16710
# Poissons Ratio (z) = 0.06852 0.31141
#
# Static dielectric constant tensor:
#      x y z
#    x 1.903270 0.000000 0.011180 
#    y 0.000000 1.961000 0.000000 
#    z 0.011180 0.000000 1.947400 
# 
# From -- ./inp_files/40398.got.cif
#   From: 2010.05.17/outbox.cif.g08.bks.cpg/sg14_21_cif.got.tgz:40398.got - 2010.06.03 17:49:19.
