data_PCOD9242211
_publ_section_title
;
Structure prediction by ZEFSAII (Michael W. Deem and Ramdas Pophale) SiO2 
 PCOD9242211
Probable space group: P 21/C
;
_chemical_formula_sum "Si O2"
_cell_formula_units_Z 32
_cell_length_a 10.336259
_cell_length_b 15.142293
_cell_length_c 16.673336
_cell_angle_alpha 90.000000
_cell_angle_beta 35.143244
_cell_angle_gamma 90.000000
_cell_volume 1502.157109
_symmetry_space_group_name_H-M "P 21/C"
_symmetry_group_IT_number 14
_symmetry_cell_setting 'monoclinic'
loop_
_space_group_symop_operation_xyz
x,y,z
-x,1/2+y,1/2-z
-x,-y,-z
x,1/2-y,1/2+z
loop_
_atom_site_type_symbol
_atom_site_label
_atom_site_fract_x
_atom_site_fract_y
_atom_site_fract_z
Si Si1 0.995853 0.305571 0.158976
Si Si2 0.716245 0.088725 0.517805
Si Si3 0.531095 0.349698 0.647366
Si Si4 0.908225 0.277503 0.029789
Si Si5 0.594132 0.896828 0.614614
Si Si6 0.726387 0.686604 0.736879
Si Si7 0.092964 0.925804 0.149030
Si Si8 0.160791 0.610862 0.224469
O O1 0.900718 0.378799 0.267868
O O2 0.955553 0.206043 0.209476
O O3 0.871839 0.312609 0.136398
O O4 0.257169 0.322817 0.005051
O O5 0.480644 0.122437 0.673741
O O6 0.714402 0.108711 0.424551
O O7 0.907781 0.143522 0.465770
O O8 0.725593 0.985687 0.525778
O O9 0.413494 0.391355 0.784978
O O10 0.376796 0.278927 0.678190
O O11 0.713788 0.286673 0.598243
O O12 0.673720 0.412641 0.517190
O O13 0.134225 0.219567 0.910550
O O14 0.346340 0.899175 0.700871
O O15 0.902393 0.634775 0.702202
O O16 0.004919 0.026256 0.192103
#
# Coordination Sequence:
#
# PCOD9242211 Si02
#       8
#     4   4   4   4   4   4   4   4
#     4  12  24  42  68  98 131 171 218 277 323 390
#     4  11  23  41  67  98 129 174 218 269 329 392
#     4  10  22  41  63  99 131 172 215 269 328 384
#     4  10  22  40  65  93 135 173 211 266 335 381
#     4  12  23  42  71  96 128 169 231 267 316 396
#     4  10  19  40  65  92 127 172 214 261 322 388
#     4  11  24  43  68  97 135 175 217 271 330 382
#     4  12  24  44  68  98 131 170 224 273 322 389
#
# _framework density 21.302700000000002
#
# number of rings (size 3 to 8) (size 9 to 14) (size 15 to 20)
#    0.000    1.000    5.000    3.375    0.000    2.000 
#    0.000    0.000    0.000    3.000    0.000    0.000 
#    0.000    0.000    0.000    0.000    0.000    0.000 
#
# Total GULP energy -178619.928968 kJ/mol
# GULP energy per Si atom -5581.872780 kJ/mol
# Density = 2.125421 g / cm^3
# Si number density = 21.302700 Si / 1000 Ang^3
#
#
#
# Elastic Constant Matrix: (Units=GPa)
#
#
# Indices 1 2 3 4 5 6 
#
# 1 26.4672 16.0973 6.4867 0.0000 14.4663 0.0000
# 2 16.0973 66.3313 19.0749 0.0000 2.5197 0.0000
# 3 6.4867 19.0749 78.2553 0.0000 8.2333 0.0000
# 4 0.0000 0.0000 0.0000 32.6583 0.0000 15.3846
# 5 14.4663 2.5197 8.2333 0.0000 26.2657 0.0000
# 6 0.0000 0.0000 0.0000 15.3846 0.0000 -17.9347
#
#
#
# Elastic Compliance Matrix: (Units=1/GPa)
#
#
# Indices 1 2 3 4 5 6 
#
# 1 0.065953 -0.015226 0.001978 0.000000 -0.035484 0.000000
# 2 -0.015226 0.019730 -0.004375 0.000000 0.007865 0.000000
# 3 0.001978 -0.004375 0.014221 0.000000 -0.005127 0.000000
# 4 0.000000 0.000000 0.000000 0.021808 0.000000 0.018707
# 5 -0.035484 0.007865 -0.005127 0.000000 0.058469 0.000000
# 6 0.000000 0.000000 0.000000 0.018707 0.000000 -0.039711
#
#
# Mechanical properties :
#
#
# Convention : Reuss Voigt Hill
#
# Bulk Modulus (GPa) = 15.46605 28.26350 21.86478
# Shear Modulus (GPa) = 25.34614 16.82419 21.08516
#
# Velocity S-wave (km/s) = 3.45310 2.81333 3.14950
# Velocity P-wave (km/s) = 4.81399 4.88359 4.84891
#
# Compressibility (1/GPa) = 0.06465774
#
# Stress axis : x y z
#
# Youngs Moduli (GPa) = 15.16221 50.68359 70.32098
#
# Poissons Ratio (x) = 0.77173 -0.13908
# Poissons Ratio (y) = 0.23087 0.30763
# Poissons Ratio (z) = -0.02999 0.22172
#
# Static dielectric constant tensor:
#      x y z
#    x 1.791890 0.000000 -0.022130 
#    y 0.000000 1.759580 0.000000 
#    z -0.022130 0.000000 1.800720 
# 
# From -- ./inp_files/57979.got.cif
#   From: 2010.05.17/outbox.cif.g08.bks.cpg/sg14_29_cif.got.tgz:57979.got - 2010.06.03 17:49:19.
