data_PCOD9242018
_publ_section_title
;
Structure prediction by ZEFSAII (Michael W. Deem and Ramdas Pophale) SiO2 
 PCOD9242018
Probable space group: P 21/C
;
_chemical_formula_sum "Si O2"
_cell_formula_units_Z 32
_cell_length_a 19.484257
_cell_length_b 14.368285
_cell_length_c 14.891325
_cell_angle_alpha 90.000000
_cell_angle_beta 161.689920
_cell_angle_gamma 90.000000
_cell_volume 1309.701420
_symmetry_space_group_name_H-M "P 21/C"
_symmetry_group_IT_number 14
_symmetry_cell_setting 'monoclinic'
loop_
_space_group_symop_operation_xyz
x,y,z
-x,1/2+y,1/2-z
-x,-y,-z
x,1/2-y,1/2+z
loop_
_atom_site_type_symbol
_atom_site_label
_atom_site_fract_x
_atom_site_fract_y
_atom_site_fract_z
Si Si1 0.497321 0.739788 0.899556
Si Si2 0.841425 0.006790 0.684329
Si Si3 0.836772 0.521446 0.719819
Si Si4 0.597229 0.447025 0.708767
Si Si5 0.142675 0.857255 0.150709
Si Si6 0.829633 0.722181 0.660353
Si Si7 0.654630 0.667329 0.265020
Si Si8 0.625642 0.458102 0.297875
O O1 0.378378 0.836091 0.777084
O O2 0.369575 0.642000 0.742060
O O3 0.605821 0.756134 0.936991
O O4 0.682538 0.714794 0.203128
O O5 0.786926 0.011536 0.510232
O O6 0.887506 0.108088 0.784015
O O7 0.621352 0.972766 0.466700
O O8 0.042212 0.943162 0.966700
O O9 0.606185 0.544404 0.476862
O O10 0.905205 0.616188 0.759279
O O11 0.791615 0.448588 0.586778
O O12 0.000000 0.500000 0.000000
O O13 0.500000 0.500000 0.500000
O O14 0.394328 0.827862 0.459538
O O15 0.004174 0.776784 0.934389
O O16 0.778991 0.730288 0.492548
O O17 0.681716 0.554238 0.313519
#
# Coordination Sequence:
#
# PCOD9242018 Si02
#       8
#     4   4   4   4   4   4   4   4
#     4  11  21  38  63  88 120 164 206 253 317 368
#     4   9  19  38  64  86 116 165 214 253 307 379
#     4   9  20  38  58  85 118 159 201 245 309 369
#     4  10  23  39  57  87 128 167 203 252 317 374
#     4  10  19  38  66  87 115 163 211 252 311 367
#     4  10  22  40  60  91 126 159 203 257 315 376
#     4  10  23  39  62  93 125 157 212 259 309 378
#     4   9  18  38  62  85 119 162 203 259 308 360
#
# _framework density 24.433050999999999
#
# number of rings (size 3 to 8) (size 9 to 14) (size 15 to 20)
#    0.000    2.250    1.250    2.625    1.750    3.000 
#    2.250    3.750    0.000    0.000    0.000    0.000 
#    0.000    0.000    0.000    0.000    0.000    0.000 
#
# Total GULP energy -178433.646577 kJ/mol
# GULP energy per Si atom -5576.051456 kJ/mol
# Density = 2.437744 g / cm^3
# Si number density = 24.433051 Si / 1000 Ang^3
#
#
#
# Elastic Constant Matrix: (Units=GPa)
#
#
# Indices 1 2 3 4 5 6 
#
# 1 65.7226 17.4396 12.6552 0.0000 -27.1456 0.0000
# 2 17.4396 63.5613 5.7969 0.0000 -20.7887 0.0000
# 3 12.6552 5.7969 108.6931 0.0000 -32.8576 0.0000
# 4 0.0000 0.0000 0.0000 29.7699 0.0000 -10.4496
# 5 -27.1456 -20.7887 -32.8576 0.0000 61.0298 0.0000
# 6 0.0000 0.0000 0.0000 -10.4496 0.0000 26.8134
#
#
#
# Elastic Compliance Matrix: (Units=1/GPa)
#
#
# Indices 1 2 3 4 5 6 
#
# 1 0.019068 -0.002742 0.000248 0.000000 0.007681 0.000000
# 2 -0.002742 0.018201 0.001020 0.000000 0.005529 0.000000
# 3 0.000248 0.001020 0.011054 0.000000 0.006409 0.000000
# 4 0.000000 0.000000 0.000000 0.038914 0.000000 0.015165
# 5 0.007681 0.005529 0.006409 0.000000 0.025136 0.000000
# 6 0.000000 0.000000 0.000000 0.015165 0.000000 0.043205
#
#
# Mechanical properties :
#
#
# Convention : Reuss Voigt Hill
#
# Bulk Modulus (GPa) = 22.03883 34.41780 28.22832
# Shear Modulus (GPa) = 28.79338 36.99498 32.89418
#
# Velocity S-wave (km/s) = 3.43659 3.89541 3.67317
# Velocity P-wave (km/s) = 4.97861 5.86084 5.43765
#
# Compressibility (1/GPa) = 0.04537446
#
# Stress axis : x y z
#
# Youngs Moduli (GPa) = 52.44465 54.94319 90.46113
#
# Poissons Ratio (x) = 0.15067 -0.02244
# Poissons Ratio (y) = 0.14382 -0.09227
# Poissons Ratio (z) = -0.01301 -0.05604
#
# Static dielectric constant tensor:
#      x y z
#    x 2.065730 0.000000 0.011020 
#    y 0.000000 1.942140 0.000000 
#    z 0.011020 0.000000 2.053180 
# 
# From -- ./inp_files/50653.got.cif
#   From: 2010.05.17/outbox.cif.g08.bks.cpg/sg14_26_cif.got.tgz:50653.got - 2010.06.03 17:49:19.
