data_PCOD9242472
_publ_section_title
;
Structure prediction by ZEFSAII (Michael W. Deem and Ramdas Pophale) SiO2 
 PCOD9242472
Probable space group: P 21/C
;
_chemical_formula_sum "Si O2"
_cell_formula_units_Z 32
_cell_length_a 9.139080
_cell_length_b 17.927531
_cell_length_c 8.041169
_cell_angle_alpha 90.000000
_cell_angle_beta 66.421477
_cell_angle_gamma 90.000000
_cell_volume 1207.481969
_symmetry_space_group_name_H-M "P 21/C"
_symmetry_group_IT_number 14
_symmetry_cell_setting 'monoclinic'
loop_
_space_group_symop_operation_xyz
x,y,z
-x,1/2+y,1/2-z
-x,-y,-z
x,1/2-y,1/2+z
loop_
_atom_site_type_symbol
_atom_site_label
_atom_site_fract_x
_atom_site_fract_y
_atom_site_fract_z
Si Si1 0.353156 0.892769 0.395527
Si Si2 0.723329 0.514591 0.279500
Si Si3 0.814542 0.729736 0.078300
Si Si4 0.124152 0.825432 0.916859
Si Si5 0.686378 0.907053 0.437367
Si Si6 0.918259 0.031717 0.264232
Si Si7 0.655112 0.659410 0.461662
Si Si8 0.671859 0.255460 0.443402
O O1 0.513539 0.909404 0.428897
O O2 0.191422 0.923705 0.553471
O O3 0.343182 0.804291 0.397665
O O4 0.347592 0.933412 0.220865
O O5 0.656737 0.570862 0.447722
O O6 0.911838 0.512742 0.232762
O O7 0.676197 0.554250 0.125304
O O8 0.754192 0.673576 0.961346
O O9 0.709412 0.804957 0.110150
O O10 0.989352 0.761835 0.970341
O O11 0.785870 0.686392 0.263337
O O12 0.068971 0.908379 0.891394
O O13 0.195294 0.815568 0.067087
O O14 0.264867 0.801659 0.725360
O O15 0.814541 0.957401 0.280242
O O16 0.493949 0.702023 0.491194
#
# Coordination Sequence:
#
# PCOD9242472 Si02
#       8
#     4   4   4   4   4   4   4   4
#     4  10  20  34  56  87 117 154 202 250 293 344
#     4  10  20  33  58  85 118 154 202 250 293 344
#     4  11  22  39  62  89 119 157 198 244 300 354
#     4  11  24  39  62  91 122 156 200 247 299 355
#     4  10  20  33  58  85 118 154 202 250 293 344
#     4  10  20  34  56  87 117 154 202 250 293 344
#     4  11  22  39  62  89 119 157 198 244 300 354
#     4  11  24  39  62  91 122 156 200 247 299 355
#
# _framework density 26.501432000000001
#
# number of rings (size 3 to 8) (size 9 to 14) (size 15 to 20)
#    0.000    1.500    2.500    4.500   14.000    0.000 
#    0.000    0.000    0.000    9.000    0.000    0.000 
#    0.000    0.000    0.000    0.000    0.000    0.000 
#
# Total GULP energy -179029.849068 kJ/mol
# GULP energy per Si atom -5594.682783 kJ/mol
# Density = 2.644111 g / cm^3
# Si number density = 26.501432 Si / 1000 Ang^3
#
#
#
# Elastic Constant Matrix: (Units=GPa)
#
#
# Indices 1 2 3 4 5 6 
#
# 1 163.8683 38.1157 9.2221 0.0000 -22.9875 0.0000
# 2 38.1157 82.0493 20.7029 0.0000 1.3648 0.0000
# 3 9.2221 20.7029 73.4672 0.0000 -23.1832 0.0000
# 4 0.0000 0.0000 0.0000 28.4696 0.0000 5.8764
# 5 -22.9875 1.3648 -23.1832 0.0000 42.3610 0.0000
# 6 0.0000 0.0000 0.0000 5.8764 0.0000 51.7895
#
#
#
# Elastic Compliance Matrix: (Units=1/GPa)
#
#
# Indices 1 2 3 4 5 6 
#
# 1 0.007712 -0.004149 0.001890 0.000000 0.005353 0.000000
# 2 -0.004149 0.015666 -0.005758 0.000000 -0.005907 0.000000
# 3 0.001890 -0.005758 0.018589 0.000000 0.011385 0.000000
# 4 0.000000 0.000000 0.000000 0.035968 0.000000 -0.004081
# 5 0.005353 -0.005907 0.011385 0.000000 0.032932 0.000000
# 6 0.000000 0.000000 0.000000 -0.004081 0.000000 0.019772
#
#
# Mechanical properties :
#
#
# Convention : Reuss Voigt Hill
#
# Bulk Modulus (GPa) = 38.55819 50.60733 44.58276
# Shear Modulus (GPa) = 32.19221 41.28029 36.73625
#
# Velocity S-wave (km/s) = 3.48909 3.95101 3.72721
# Velocity P-wave (km/s) = 5.55092 6.32072 5.94828
#
# Compressibility (1/GPa) = 0.02593483
#
# Stress axis : x y z
#
# Youngs Moduli (GPa) = 129.66868 63.83203 53.79410
#
# Poissons Ratio (x) = 0.26481 -0.10168
# Poissons Ratio (y) = 0.53794 0.30975
# Poissons Ratio (z) = -0.24510 0.36754
#
# Static dielectric constant tensor:
#      x y z
#    x 2.056470 0.000000 0.053280 
#    y 0.000000 2.141000 0.000000 
#    z 0.053280 0.000000 2.148920 
# 
# From -- ./inp_files/14163.got.cif
#   From: 2010.05.17/outbox.cif.g08.bks.cpg/sg14_8_cif.got.tgz:14163.got - 2010.06.03 17:49:19.
