data_PCOD9242559
_publ_section_title
;
Structure prediction by ZEFSAII (Michael W. Deem and Ramdas Pophale) SiO2 
 PCOD9242559
Probable space group: P 21/C
;
_chemical_formula_sum "Si O2"
_cell_formula_units_Z 28
_cell_length_a 14.991089
_cell_length_b 17.898631
_cell_length_c 5.111564
_cell_angle_alpha 90.000000
_cell_angle_beta 71.416891
_cell_angle_gamma 90.000000
_cell_volume 1300.026172
_symmetry_space_group_name_H-M "P 21/C"
_symmetry_group_IT_number 14
_symmetry_cell_setting 'monoclinic'
loop_
_space_group_symop_operation_xyz
x,y,z
-x,1/2+y,1/2-z
-x,-y,-z
x,1/2-y,1/2+z
loop_
_atom_site_type_symbol
_atom_site_label
_atom_site_fract_x
_atom_site_fract_y
_atom_site_fract_z
Si Si1 0.504670 0.294511 0.884452
Si Si2 0.611720 0.495445 0.443409
Si Si3 0.780637 0.581068 0.088110
Si Si4 0.863473 0.058183 0.228308
Si Si5 0.701033 0.801605 0.306861
Si Si6 0.664124 0.093765 0.391717
Si Si7 0.947458 0.941878 0.740233
O O1 0.504109 0.277319 0.577420
O O2 0.405824 0.331485 0.057827
O O3 0.595555 0.340030 0.878305
O O4 0.500000 0.500000 0.500000
O O5 0.678967 0.566493 0.315217
O O6 0.635267 0.472291 0.717666
O O7 0.643008 0.431638 0.206825
O O8 0.767438 0.632820 0.848290
O O9 0.868234 0.608715 0.180612
O O10 0.817292 0.497949 0.983945
O O11 0.774667 0.108964 0.241214
O O12 0.961458 0.097060 0.214613
O O13 0.893838 0.997574 0.985011
O O14 0.711693 0.765249 0.012368
O O15 0.000000 0.000000 0.500000
#
# Coordination Sequence:
#
# PCOD9242559 Si02
#       7
#     4   4   4   4   4   4   4
#     4  10  21  39  56  77 109 157 198 231 267 323
#     4  11  22  33  52  86 117 145 175 230 293 339
#     4  10  20  34  56  80 116 148 185 232 287 337
#     4   9  19  33  56  87 111 141 183 231 293 346
#     4  10  23  37  55  78 110 153 199 227 264 327
#     4  11  21  36  56  83 113 145 187 233 276 339
#     4   9  17  34  55  82 112 141 176 222 290 348
#
# _framework density 21.538028000000001
#
# number of rings (size 3 to 8) (size 9 to 14) (size 15 to 20)
#    0.000    2.000    1.429    2.143    2.000    3.429 
#    0.000    0.000    0.000    1.714    0.000    0.000 
#    0.000    0.000    0.000    0.000    0.000    0.000 
#
# Total GULP energy -156100.915594 kJ/mol
# GULP energy per Si atom -5575.032700 kJ/mol
# Density = 2.148901 g / cm^3
# Si number density = 21.538028 Si / 1000 Ang^3
#
#
#
# Elastic Constant Matrix: (Units=GPa)
#
#
# Indices 1 2 3 4 5 6 
#
# 1 180.7924 21.8323 16.2987 0.0000 -16.4922 0.0000
# 2 21.8323 16.0209 0.0915 0.0000 -3.0010 0.0000
# 3 16.2987 0.0915 56.6770 0.0000 -8.7759 0.0000
# 4 0.0000 0.0000 0.0000 20.3996 0.0000 9.1689
# 5 -16.4922 -3.0010 -8.7759 0.0000 30.7152 0.0000
# 6 0.0000 0.0000 0.0000 9.1689 0.0000 37.6652
#
#
#
# Elastic Compliance Matrix: (Units=1/GPa)
#
#
# Indices 1 2 3 4 5 6 
#
# 1 0.006992 -0.009069 -0.001624 0.000000 0.002404 0.000000
# 2 -0.009069 0.075388 0.003006 0.000000 0.003355 0.000000
# 3 -0.001624 0.003006 0.018850 0.000000 0.004808 0.000000
# 4 0.000000 0.000000 0.000000 0.055043 0.000000 -0.013399
# 5 0.002404 0.003355 0.004808 0.000000 0.035550 0.000000
# 6 0.000000 0.000000 0.000000 -0.013399 0.000000 0.029812
#
#
# Mechanical properties :
#
#
# Convention : Reuss Voigt Hill
#
# Bulk Modulus (GPa) = 11.64731 36.65950 24.15340
# Shear Modulus (GPa) = 18.82338 32.10717 25.46528
#
# Velocity S-wave (km/s) = 2.95949 3.86517 3.44225
# Velocity P-wave (km/s) = 4.13493 6.08089 5.19975
#
# Compressibility (1/GPa) = 0.08585671
#
# Stress axis : x y z
#
# Youngs Moduli (GPa) = 143.01969 13.26473 53.04936
#
# Poissons Ratio (x) = 0.12029 0.08614
# Poissons Ratio (y) = 1.29700 -0.15945
# Poissons Ratio (z) = 0.23223 -0.03987
#
# Static dielectric constant tensor:
#      x y z
#    x 1.928540 0.000000 0.042400 
#    y 0.000000 1.831160 0.000000 
#    z 0.042400 0.000000 1.891960 
# 
# From -- ./inp_files/3722.got.cif
#   From: 2010.05.17/outbox.cif.g08.bks.cpg/sg14_2_cif.got.tgz:3722.got - 2010.06.03 17:49:19.
