data_PCOD9242356
_publ_section_title
;
Structure prediction by ZEFSAII (Michael W. Deem and Ramdas Pophale) SiO2 
 PCOD9242356
Probable space group: P 21/C
;
_chemical_formula_sum "Si O2"
_cell_formula_units_Z 32
_cell_length_a 8.851926
_cell_length_b 8.020793
_cell_length_c 17.971894
_cell_angle_alpha 90.000000
_cell_angle_beta 95.721677
_cell_angle_gamma 90.000000
_cell_volume 1269.637774
_symmetry_space_group_name_H-M "P 21/C"
_symmetry_group_IT_number 14
_symmetry_cell_setting 'monoclinic'
loop_
_space_group_symop_operation_xyz
x,y,z
-x,1/2+y,1/2-z
-x,-y,-z
x,1/2-y,1/2+z
loop_
_atom_site_type_symbol
_atom_site_label
_atom_site_fract_x
_atom_site_fract_y
_atom_site_fract_z
Si Si1 0.499161 0.792170 0.257925
Si Si2 0.629884 0.003694 0.150665
Si Si3 0.140073 0.304239 0.993167
Si Si4 0.205553 0.659158 0.025924
Si Si5 0.797743 0.049115 0.799265
Si Si6 0.918419 0.382299 0.730286
Si Si7 0.666372 0.495046 0.458980
Si Si8 0.776149 0.576541 0.852400
O O1 0.416363 0.626821 0.282496
O O2 0.362497 0.926345 0.249550
O O3 0.627811 0.823014 0.324902
O O4 0.589397 0.822504 0.184674
O O5 0.806466 0.060797 0.156334
O O6 0.507040 0.020630 0.078095
O O7 0.198284 0.491093 0.974287
O O8 0.126042 0.329648 0.081401
O O9 0.255957 0.150039 0.992710
O O10 0.966723 0.287496 0.960447
O O11 0.296904 0.816186 0.002450
O O12 0.278938 0.588226 0.105296
O O13 0.885019 0.211789 0.772451
O O14 0.756524 0.030461 0.884101
O O15 0.906968 0.899079 0.782731
O O16 0.875176 0.519734 0.789431
#
# Coordination Sequence:
#
# PCOD9242356 Si02
#       8
#     4   4   4   4   4   4   4   4
#     4   9  17  29  46  69  94 127 162 197 241 294
#     4   9  18  29  46  69  95 127 162 198 241 288
#     4   9  18  30  51  75  98 125 159 208 255 280
#     4   9  18  31  48  78  99 119 165 209 245 290
#     4  10  21  31  45  73 102 133 166 189 241 301
#     4  10  20  32  45  71 105 132 162 198 233 303
#     4  11  18  33  52  74 100 130 160 205 247 286
#     4   9  16  33  49  69 103 122 155 207 241 276
#
# _framework density 25.204035999999999
#
# number of rings (size 3 to 8) (size 9 to 14) (size 15 to 20)
#    0.750    1.750    2.500    0.375    3.500    1.000 
#    0.000    0.000    0.000    0.000    0.000   10.500 
#    0.000    0.000    0.000    0.000    0.000    0.000 
#
# Total GULP energy -178345.720981 kJ/mol
# GULP energy per Si atom -5573.303781 kJ/mol
# Density = 2.514667 g / cm^3
# Si number density = 25.204036 Si / 1000 Ang^3
#
#
#
# Elastic Constant Matrix: (Units=GPa)
#
#
# Indices 1 2 3 4 5 6 
#
# 1 103.7560 40.9413 0.1120 0.0000 6.5383 0.0000
# 2 40.9413 124.8011 4.2225 0.0000 8.4866 0.0000
# 3 0.1120 4.2225 51.3731 0.0000 18.4651 0.0000
# 4 0.0000 0.0000 0.0000 19.6887 0.0000 10.5622
# 5 6.5383 8.4866 18.4651 0.0000 22.5226 0.0000
# 6 0.0000 0.0000 0.0000 10.5622 0.0000 40.7595
#
#
#
# Elastic Compliance Matrix: (Units=1/GPa)
#
#
# Indices 1 2 3 4 5 6 
#
# 1 0.011217 -0.003519 0.001359 0.000000 -0.003045 0.000000
# 2 -0.003519 0.009341 0.000195 0.000000 -0.002659 0.000000
# 3 0.001359 0.000195 0.027810 0.000000 -0.023268 0.000000
# 4 0.000000 0.000000 0.000000 0.058991 0.000000 -0.015287
# 5 -0.003045 -0.002659 -0.023268 0.000000 0.065362 0.000000
# 6 0.000000 0.000000 0.000000 -0.015287 0.000000 0.028495
#
#
# Mechanical properties :
#
#
# Convention : Reuss Voigt Hill
#
# Bulk Modulus (GPa) = 22.50254 41.16466 31.83360
# Shear Modulus (GPa) = 22.73172 32.23778 27.48475
#
# Velocity S-wave (km/s) = 3.00644 3.58029 3.30584
# Velocity P-wave (km/s) = 4.58247 5.78440 5.21816
#
# Compressibility (1/GPa) = 0.04443943
#
# Stress axis : x y z
#
# Youngs Moduli (GPa) = 89.15172 107.05238 35.95888
#
# Poissons Ratio (x) = 0.37668 -0.04887
# Poissons Ratio (y) = 0.31369 -0.00703
# Poissons Ratio (z) = -0.12117 -0.02092
#
# Static dielectric constant tensor:
#      x y z
#    x 1.975770 0.000000 -0.027930 
#    y 0.000000 2.142600 0.000000 
#    z -0.027930 0.000000 2.042100 
# 
# From -- ./inp_files/76196.got.cif
#   From: 2010.05.17/outbox.cif.g08.bks.cpg/sg14_39_cif.got.tgz:76196.got - 2010.06.03 17:49:19.
