data_PCOD9242293
_publ_section_title
;
Structure prediction by ZEFSAII (Michael W. Deem and Ramdas Pophale) SiO2 
 PCOD9242293
Probable space group: P 21/C
;
_chemical_formula_sum "Si O2"
_cell_formula_units_Z 24
_cell_length_a 7.117335
_cell_length_b 20.856993
_cell_length_c 8.474841
_cell_angle_alpha 90.000000
_cell_angle_beta 52.146902
_cell_angle_gamma 90.000000
_cell_volume 993.345824
_symmetry_space_group_name_H-M "P 21/C"
_symmetry_group_IT_number 14
_symmetry_cell_setting 'monoclinic'
loop_
_space_group_symop_operation_xyz
x,y,z
-x,1/2+y,1/2-z
-x,-y,-z
x,1/2-y,1/2+z
loop_
_atom_site_type_symbol
_atom_site_label
_atom_site_fract_x
_atom_site_fract_y
_atom_site_fract_z
Si Si1 0.831515 0.720369 0.908653
Si Si2 0.501235 0.627015 0.951014
Si Si3 0.140277 0.501171 0.686761
Si Si4 0.706856 0.046387 0.202462
Si Si5 0.057267 0.160179 0.955644
Si Si6 0.980779 0.394342 0.986835
O O1 0.568632 0.696077 0.991993
O O2 0.989311 0.703425 0.674773
O O3 0.903159 0.669707 0.006031
O O4 0.867966 0.791978 0.945027
O O5 0.710630 0.619917 0.715527
O O6 0.250721 0.623174 0.995620
O O7 0.508732 0.570678 0.077981
O O8 0.328460 0.513483 0.448883
O O9 0.105682 0.560603 0.823235
O O10 0.895465 0.491797 0.712749
O O11 0.150032 0.437286 0.787752
O O12 0.842680 0.113445 0.098296
#
# Coordination Sequence:
#
# PCOD9242293 Si02
#       6
#     4   4   4   4   4   4
#     4  10  23  43  60  90 127 162 208 260 304 373
#     4   9  23  39  61  86 123 155 204 253 299 367
#     4   9  19  35  66  94 124 159 212 249 305 383
#     4  10  19  42  65  93 126 166 199 261 314 357
#     4  10  23  43  60  90 127 162 208 260 304 373
#     4  10  19  42  65  93 126 166 199 261 314 357
#
# _framework density 24.160769999999999
#
# number of rings (size 3 to 8) (size 9 to 14) (size 15 to 20)
#    1.000    1.333    1.667    0.000    4.667    1.333 
#    3.000   31.667    0.000    0.000    0.000    0.000 
#    0.000    0.000    0.000    0.000    0.000    0.000 
#
# Total GULP energy -134133.675295 kJ/mol
# GULP energy per Si atom -5588.903137 kJ/mol
# Density = 2.410578 g / cm^3
# Si number density = 24.160770 Si / 1000 Ang^3
#
#
#
# Elastic Constant Matrix: (Units=GPa)
#
#
# Indices 1 2 3 4 5 6 
#
# 1 66.8883 31.5439 32.4644 0.0000 22.6784 0.0000
# 2 31.5439 104.5279 45.5423 0.0000 7.7732 0.0000
# 3 32.4644 45.5423 108.7055 0.0000 13.8247 0.0000
# 4 0.0000 0.0000 0.0000 49.2236 0.0000 17.3837
# 5 22.6784 7.7732 13.8247 0.0000 39.0267 0.0000
# 6 0.0000 0.0000 0.0000 17.3837 0.0000 46.0190
#
#
#
# Elastic Compliance Matrix: (Units=1/GPa)
#
#
# Indices 1 2 3 4 5 6 
#
# 1 0.022426 -0.004456 -0.003441 0.000000 -0.010925 0.000000
# 2 -0.004456 0.012603 -0.004146 0.000000 0.001548 0.000000
# 3 -0.003441 -0.004146 0.012152 0.000000 -0.001479 0.000000
# 4 0.000000 0.000000 0.000000 0.023443 0.000000 -0.008856
# 5 -0.010925 0.001548 -0.001479 0.000000 0.032188 0.000000
# 6 0.000000 0.000000 0.000000 -0.008856 0.000000 0.025075
#
#
# Mechanical properties :
#
#
# Convention : Reuss Voigt Hill
#
# Bulk Modulus (GPa) = 43.30029 55.46920 49.38474
# Shear Modulus (GPa) = 31.31430 38.22526 34.76978
#
# Velocity S-wave (km/s) = 3.60402 3.98190 3.79766
# Velocity P-wave (km/s) = 5.93963 6.64447 6.30191
#
# Compressibility (1/GPa) = 0.02309454
#
# Stress axis : x y z
#
# Youngs Moduli (GPa) = 44.59105 79.34733 82.29100
#
# Poissons Ratio (x) = 0.35356 0.28318
# Poissons Ratio (y) = 0.19869 0.34119
# Poissons Ratio (z) = 0.15345 0.32898
#
# Static dielectric constant tensor:
#      x y z
#    x 1.910790 0.000000 0.023330 
#    y 0.000000 1.904630 0.000000 
#    z 0.023330 0.000000 1.988620 
# 
# From -- ./inp_files/9826.got.cif
#   From: 2010.05.17/outbox.cif.g08.bks.cpg/sg14_5_cif.got.tgz:9826.got - 2010.06.03 17:49:19.
