data_PCOD9242458
_publ_section_title
;
Structure prediction by ZEFSAII (Michael W. Deem and Ramdas Pophale) SiO2 
 PCOD9242458
Probable space group: P 21/C
;
_chemical_formula_sum "Si O2"
_cell_formula_units_Z 32
_cell_length_a 26.564924
_cell_length_b 9.234896
_cell_length_c 21.535357
_cell_angle_alpha 90.000000
_cell_angle_beta 162.203211
_cell_angle_gamma 90.000000
_cell_volume 1614.751203
_symmetry_space_group_name_H-M "P 21/C"
_symmetry_group_IT_number 14
_symmetry_cell_setting 'monoclinic'
loop_
_space_group_symop_operation_xyz
x,y,z
-x,1/2+y,1/2-z
-x,-y,-z
x,1/2-y,1/2+z
loop_
_atom_site_type_symbol
_atom_site_label
_atom_site_fract_x
_atom_site_fract_y
_atom_site_fract_z
Si Si1 0.704917 0.641292 0.461915
Si Si2 0.766430 0.058486 0.642521
Si Si3 0.584533 0.952864 0.697389
Si Si4 0.142575 0.261336 0.242130
Si Si5 0.431703 0.783506 0.409508
Si Si6 0.422182 0.034253 0.691918
Si Si7 0.424064 0.428032 0.511964
Si Si8 0.169320 0.689664 0.195614
O O1 0.718218 0.594388 0.405712
O O2 0.855464 0.678132 0.684987
O O3 0.595951 0.516329 0.366548
O O4 0.605379 0.794135 0.344974
O O5 0.590498 0.049601 0.471820
O O6 0.715737 0.046800 0.510903
O O7 0.843407 0.205062 0.759704
O O8 0.870633 0.912697 0.777373
O O9 0.563589 0.847479 0.613563
O O10 0.602186 0.108884 0.687286
O O11 0.323118 0.300282 0.427664
O O12 0.008989 0.337802 0.042126
O O13 0.501723 0.636898 0.463133
O O14 0.265149 0.771632 0.252767
O O15 0.432423 0.985339 0.774763
O O16 0.290840 0.556139 0.350278
#
# Coordination Sequence:
#
# PCOD9242458 Si02
#       8
#     4   4   4   4   4   4   4   4
#     4   9  18  31  54  77 108 135 173 223 263 308
#     4   9  17  34  55  81 104 140 179 223 258 313
#     4   9  17  34  55  79 100 134 186 221 268 307
#     4  10  20  35  55  78 110 144 174 216 271 317
#     4  10  20  33  56  77 103 139 177 223 263 317
#     4   9  17  29  52  83 103 129 176 226 266 296
#     4  11  20  34  54  82 108 137 174 226 271 309
#     4  11  22  34  53  80 114 142 175 214 267 328
#
# _framework density 19.817292999999999
#
# number of rings (size 3 to 8) (size 9 to 14) (size 15 to 20)
#    0.000    2.250    1.250    3.375    1.750    0.000 
#    0.000    0.000    8.250    0.000    0.000    0.000 
#    0.000    0.000    0.000    0.000    0.000    0.000 
#
# Total GULP energy -178296.588073 kJ/mol
# GULP energy per Si atom -5571.768377 kJ/mol
# Density = 1.977219 g / cm^3
# Si number density = 19.817293 Si / 1000 Ang^3
#
#
#
# Elastic Constant Matrix: (Units=GPa)
#
#
# Indices 1 2 3 4 5 6 
#
# 1 47.9588 34.7339 29.9691 0.0000 -28.7988 0.0000
# 2 34.7339 88.2855 34.6281 0.0000 -31.2012 0.0000
# 3 29.9691 34.6281 64.9029 0.0000 -32.2985 0.0000
# 4 0.0000 0.0000 0.0000 20.1926 0.0000 -8.3573
# 5 -28.7988 -31.2012 -32.2985 0.0000 27.1798 0.0000
# 6 0.0000 0.0000 0.0000 -8.3573 0.0000 34.5175
#
#
#
# Elastic Compliance Matrix: (Units=1/GPa)
#
#
# Indices 1 2 3 4 5 6 
#
# 1 0.059769 -0.001466 0.009450 0.000000 0.072876 0.000000
# 2 -0.001466 0.019178 0.001536 0.000000 0.022287 0.000000
# 3 0.009450 0.001536 0.039362 0.000000 0.058551 0.000000
# 4 0.000000 0.000000 0.000000 0.055038 0.000000 0.013326
# 5 0.072876 0.022287 0.058551 0.000000 0.209170 0.000000
# 6 0.000000 0.000000 0.000000 0.013326 0.000000 0.032197
#
#
# Mechanical properties :
#
#
# Convention : Reuss Voigt Hill
#
# Bulk Modulus (GPa) = 7.28078 44.42326 25.85202
# Shear Modulus (GPa) = 11.32610 23.16572 17.24591
#
# Velocity S-wave (km/s) = 2.39325 3.42272 2.95319
# Velocity P-wave (km/s) = 3.36434 6.17131 4.97011
#
# Compressibility (1/GPa) = 0.13734793
#
# Stress axis : x y z
#
# Youngs Moduli (GPa) = 16.73101 52.14393 25.40514
#
# Poissons Ratio (x) = 0.07645 -0.24007
# Poissons Ratio (y) = 0.02453 -0.03902
# Poissons Ratio (z) = -0.15810 -0.08008
#
# Static dielectric constant tensor:
#      x y z
#    x 1.720990 0.000000 -0.047770 
#    y 0.000000 1.754800 0.000000 
#    z -0.047770 0.000000 1.719640 
# 
# From -- ./inp_files/70515.got.cif
#   From: 2010.05.17/outbox.cif.g08.bks.cpg/sg14_36_cif.got.tgz:70515.got - 2010.06.03 17:49:19.
