data_PCOD9242641
_publ_section_title
;
Structure prediction by ZEFSAII (Michael W. Deem and Ramdas Pophale) SiO2 
 PCOD9242641
Probable space group: P 21/C
;
_chemical_formula_sum "Si O2"
_cell_formula_units_Z 24
_cell_length_a 31.722219
_cell_length_b 5.213488
_cell_length_c 23.620695
_cell_angle_alpha 90.000000
_cell_angle_beta 22.620691
_cell_angle_gamma 90.000000
_cell_volume 1502.540850
_symmetry_space_group_name_H-M "P 21/C"
_symmetry_group_IT_number 14
_symmetry_cell_setting 'monoclinic'
loop_
_space_group_symop_operation_xyz
x,y,z
-x,1/2+y,1/2-z
-x,-y,-z
x,1/2-y,1/2+z
loop_
_atom_site_type_symbol
_atom_site_label
_atom_site_fract_x
_atom_site_fract_y
_atom_site_fract_z
Si Si1 0.901147 0.029564 0.667389
Si Si2 0.281955 0.507162 0.697780
Si Si3 0.380587 0.505925 0.121306
Si Si4 0.179205 0.724056 0.426126
Si Si5 0.059525 0.032636 0.807786
Si Si6 0.926513 0.080855 0.333252
O O1 0.789369 0.013642 0.770182
O O2 0.916873 0.298588 0.679690
O O3 0.906034 0.797725 0.705848
O O4 0.000000 0.000000 0.500000
O O5 0.346225 0.247757 0.630468
O O6 0.198022 0.561147 0.854312
O O7 0.363490 0.748266 0.602096
O O8 0.287894 0.553190 0.284612
O O9 0.500000 0.500000 0.000000
O O10 0.070237 0.566158 0.544914
O O11 0.159916 0.846867 0.511130
O O12 0.114659 0.981833 0.678575
O O13 0.994791 0.830794 0.268228
#
# Coordination Sequence:
#
# PCOD9242641 Si02
#       6
#     4   4   4   4   4   4
#     4  12  20  32  49  73 109 141 166 200 250 323
#     4  10  21  32  52  76 105 130 169 209 268 308
#     4  10  20  35  53  77 103 129 173 222 269 304
#     4   9  21  32  53  74 109 134 173 215 254 305
#     4  11  21  32  49  76 107 145 167 198 252 316
#     4  10  21  33  49  72 108 141 179 208 246 306
#
# _framework density 15.972944
#
# number of rings (size 3 to 8) (size 9 to 14) (size 15 to 20)
#    1.000    0.667    1.667    5.000    4.667    0.000 
#    0.000    0.000    0.000    0.000    0.000    4.667 
#    0.000    0.000    0.000    0.000    0.000    0.000 
#
# Total GULP energy -133736.309329 kJ/mol
# GULP energy per Si atom -5572.346222 kJ/mol
# Density = 1.593659 g / cm^3
# Si number density = 15.972944 Si / 1000 Ang^3
#
#
#
# Elastic Constant Matrix: (Units=GPa)
#
#
# Indices 1 2 3 4 5 6 
#
# 1 81.6582 21.6956 46.0421 0.0000 -14.5157 0.0000
# 2 21.6956 104.6880 25.4910 0.0000 -12.1802 0.0000
# 3 46.0421 25.4910 59.9701 0.0000 -21.2409 0.0000
# 4 0.0000 0.0000 0.0000 5.2624 0.0000 -3.9535
# 5 -14.5157 -12.1802 -21.2409 0.0000 24.8743 0.0000
# 6 0.0000 0.0000 0.0000 -3.9535 0.0000 38.7108
#
#
#
# Elastic Compliance Matrix: (Units=1/GPa)
#
#
# Indices 1 2 3 4 5 6 
#
# 1 0.021711 -0.000570 -0.017257 0.000000 -0.002346 0.000000
# 2 -0.000570 0.010735 -0.003414 0.000000 0.002009 0.000000
# 3 -0.017257 -0.003414 0.039017 0.000000 0.021576 0.000000
# 4 0.000000 0.000000 0.000000 0.205818 0.000000 0.021020
# 5 -0.002346 0.002009 0.021576 0.000000 0.058241 0.000000
# 6 0.000000 0.000000 0.000000 0.021020 0.000000 0.027979
#
#
# Mechanical properties :
#
#
# Convention : Reuss Voigt Hill
#
# Bulk Modulus (GPa) = 34.50538 48.08597 41.29568
# Shear Modulus (GPa) = 12.02950 23.97534 18.00242
#
# Velocity S-wave (km/s) = 2.74728 3.87847 3.36081
# Velocity P-wave (km/s) = 5.63140 7.08708 6.40076
#
# Compressibility (1/GPa) = 0.02898099
#
# Stress axis : x y z
#
# Youngs Moduli (GPa) = 46.05984 93.15021 25.62972
#
# Poissons Ratio (x) = 0.05312 0.44229
# Poissons Ratio (y) = 0.02627 0.08750
# Poissons Ratio (z) = 0.79486 0.31800
#
# Static dielectric constant tensor:
#      x y z
#    x 1.532850 0.000000 0.012980 
#    y 0.000000 1.552100 0.000000 
#    z 0.012980 0.000000 1.524980 
# 
# From -- ./inp_files/69999.got.cif
#   From: 2010.05.17/outbox.cif.g08.bks.cpg/sg14_35_cif.got.tgz:69999.got - 2010.06.03 17:49:19.
