data_PCOD9242690
_publ_section_title
;
Structure prediction by ZEFSAII (Michael W. Deem and Ramdas Pophale) SiO2 
 PCOD9242690
Probable space group: P 21/C
;
_chemical_formula_sum "Si O2"
_cell_formula_units_Z 28
_cell_length_a 19.174378
_cell_length_b 6.478744
_cell_length_c 16.234240
_cell_angle_alpha 90.000000
_cell_angle_beta 137.599559
_cell_angle_gamma 90.000000
_cell_volume 1359.885755
_symmetry_space_group_name_H-M "P 21/C"
_symmetry_group_IT_number 14
_symmetry_cell_setting 'monoclinic'
loop_
_space_group_symop_operation_xyz
x,y,z
-x,1/2+y,1/2-z
-x,-y,-z
x,1/2-y,1/2+z
loop_
_atom_site_type_symbol
_atom_site_label
_atom_site_fract_x
_atom_site_fract_y
_atom_site_fract_z
Si Si1 0.210910 0.376752 0.537060
Si Si2 0.569534 0.188271 0.026704
Si Si3 0.898068 0.963420 0.464655
Si Si4 0.091530 0.760374 0.362104
Si Si5 0.258034 0.401812 0.304354
Si Si6 0.389243 0.433151 0.818371
Si Si7 0.855736 0.642800 0.163310
O O1 0.129658 0.270189 0.530078
O O2 0.157721 0.562776 0.442817
O O3 0.314460 0.439293 0.674599
O O4 0.224701 0.204496 0.478538
O O5 0.595047 0.348653 0.122734
O O6 0.672857 0.070583 0.088391
O O7 0.500750 0.323058 0.903711
O O8 0.500000 0.000000 0.000000
O O9 0.800596 0.015249 0.321534
O O10 0.906101 0.101028 0.553114
O O11 0.000000 0.000000 0.500000
O O12 0.973151 0.702416 0.241196
O O13 0.138193 0.895853 0.328498
O O14 0.330363 0.222225 0.329726
O O15 0.175425 0.277468 0.286152
#
# Coordination Sequence:
#
# PCOD9242690 Si02
#       7
#     4   4   4   4   4   4   4
#     4  10  22  37  57  83 121 161 195 235 300 353
#     4   9  18  36  66  86 114 140 189 254 305 349
#     4  10  20  35  56  87 119 149 200 244 288 347
#     4  11  21  37  52  81 123 169 193 242 287 357
#     4  10  20  36  58  92 115 150 197 249 292 360
#     4   9  19  38  61  92 111 149 194 248 312 351
#     4  11  22  36  56  81 121 165 203 229 298 360
#
# _framework density 20.589967000000001
#
# number of rings (size 3 to 8) (size 9 to 14) (size 15 to 20)
#    0.000    2.000    2.857    0.857    0.000    2.857 
#    2.571    0.000    9.429    0.000    0.000    0.000 
#    0.000    0.000    0.000    0.000    0.000    0.000 
#
# Total GULP energy -156072.018716 kJ/mol
# GULP energy per Si atom -5574.000668 kJ/mol
# Density = 2.054310 g / cm^3
# Si number density = 20.589967 Si / 1000 Ang^3
#
#
#
# Elastic Constant Matrix: (Units=GPa)
#
#
# Indices 1 2 3 4 5 6 
#
# 1 18.6288 5.4125 5.3790 0.0000 4.6327 0.0000
# 2 5.4125 80.5766 37.8991 0.0000 18.4895 0.0000
# 3 5.3790 37.8991 122.2229 0.0000 10.5700 0.0000
# 4 0.0000 0.0000 0.0000 41.1020 0.0000 0.2395
# 5 4.6327 18.4895 10.5700 0.0000 19.9553 0.0000
# 6 0.0000 0.0000 0.0000 0.2395 0.0000 18.8603
#
#
#
# Elastic Compliance Matrix: (Units=1/GPa)
#
#
# Indices 1 2 3 4 5 6 
#
# 1 0.057219 -0.000419 -0.001334 0.000000 -0.012189 0.000000
# 2 -0.000419 0.017648 -0.004243 0.000000 -0.014008 0.000000
# 3 -0.001334 -0.004243 0.009630 0.000000 -0.000860 0.000000
# 4 0.000000 0.000000 0.000000 0.024331 0.000000 -0.000309
# 5 -0.012189 -0.014008 -0.000860 0.000000 0.066376 0.000000
# 6 0.000000 0.000000 0.000000 -0.000309 0.000000 0.053025
#
#
# Mechanical properties :
#
#
# Convention : Reuss Voigt Hill
#
# Bulk Modulus (GPa) = 13.79203 35.42329 24.60766
# Shear Modulus (GPa) = 18.91142 27.49938 23.20540
#
# Velocity S-wave (km/s) = 3.03393 3.65851 3.36076
# Velocity P-wave (km/s) = 4.35728 5.92349 5.19970
#
# Compressibility (1/GPa) = 0.07250567
#
# Stress axis : x y z
#
# Youngs Moduli (GPa) = 17.47684 56.66222 103.83719
#
# Poissons Ratio (x) = 0.02375 0.13853
# Poissons Ratio (y) = 0.00733 0.44054
# Poissons Ratio (z) = 0.02332 0.24040
#
# Static dielectric constant tensor:
#      x y z
#    x 1.753720 0.000000 0.011700 
#    y 0.000000 1.778560 0.000000 
#    z 0.011700 0.000000 1.747780 
# 
# From -- ./inp_files/60919.got.cif
#   From: 2010.05.17/outbox.cif.g08.bks.cpg/sg14_31_cif.got.tgz:60919.got - 2010.06.03 17:49:19.
