data_PCOD9242581
_publ_section_title
;
Structure prediction by ZEFSAII (Michael W. Deem and Ramdas Pophale) SiO2 
 PCOD9242581
Probable space group: P 21/C
;
_chemical_formula_sum "Si O2"
_cell_formula_units_Z 16
_cell_length_a 17.407213
_cell_length_b 7.059842
_cell_length_c 13.799935
_cell_angle_alpha 90.000000
_cell_angle_beta 158.079602
_cell_angle_gamma 90.000000
_cell_volume 633.111627
_symmetry_space_group_name_H-M "P 21/C"
_symmetry_group_IT_number 14
_symmetry_cell_setting 'monoclinic'
loop_
_space_group_symop_operation_xyz
x,y,z
-x,1/2+y,1/2-z
-x,-y,-z
x,1/2-y,1/2+z
loop_
_atom_site_type_symbol
_atom_site_label
_atom_site_fract_x
_atom_site_fract_y
_atom_site_fract_z
Si Si1 0.848853 0.787177 0.158280
Si Si2 0.464723 0.209346 0.062267
Si Si3 0.172523 0.711347 0.388075
Si Si4 0.750942 0.311497 0.738655
O O1 0.948584 0.710666 0.176164
O O2 0.046313 0.814060 0.458821
O O3 0.757986 0.992195 0.024517
O O4 0.682723 0.686949 0.032967
O O5 0.667674 0.165547 0.363531
O O6 0.567811 0.289006 0.084663
O O7 0.335941 0.023649 0.880753
O O8 0.182968 0.765157 0.288389
#
# Coordination Sequence:
#
# PCOD9242581 Si02
#       4
#     4   4   4   4
#     4  10  21  37  59  81 110 147 183 224 272 327
#     4   9  18  32  55  81 104 139 186 224 260 316
#     4  10  20  34  57  86 108 141 185 226 272 323
#     4   9  19  37  57  78 108 150 187 216 267 333
#
# _framework density 25.272005
#
# number of rings (size 3 to 8) (size 9 to 14) (size 15 to 20)
#    0.000    2.500    0.000    3.000    0.000   12.000 
#    0.000    5.000    0.000   43.500    0.000    0.000 
#    0.000    0.000    0.000    0.000    0.000    0.000 
#
# Total GULP energy -89249.233258 kJ/mol
# GULP energy per Si atom -5578.077079 kJ/mol
# Density = 2.521448 g / cm^3
# Si number density = 25.272005 Si / 1000 Ang^3
#
#
#
# Elastic Constant Matrix: (Units=GPa)
#
#
# Indices 1 2 3 4 5 6 
#
# 1 299.1010 12.6731 64.6513 0.0000 65.5193 0.0000
# 2 12.6731 58.6136 10.7998 0.0000 11.6166 0.0000
# 3 64.6513 10.7998 97.3865 0.0000 30.6281 0.0000
# 4 0.0000 0.0000 0.0000 7.5951 0.0000 5.8016
# 5 65.5193 11.6166 30.6281 0.0000 62.9139 0.0000
# 6 0.0000 0.0000 0.0000 5.8016 0.0000 21.5538
#
#
#
# Elastic Compliance Matrix: (Units=1/GPa)
#
#
# Indices 1 2 3 4 5 6 
#
# 1 0.004591 0.000120 -0.001831 0.000000 -0.003912 0.000000
# 2 0.000120 0.017813 -0.001159 0.000000 -0.002850 0.000000
# 3 -0.001831 -0.001159 0.012924 0.000000 -0.004171 0.000000
# 4 0.000000 0.000000 0.000000 0.165742 0.000000 -0.044612
# 5 -0.003912 -0.002850 -0.004171 0.000000 0.022526 0.000000
# 6 0.000000 0.000000 0.000000 -0.044612 0.000000 0.058404
#
#
# Mechanical properties :
#
#
# Convention : Reuss Voigt Hill
#
# Bulk Modulus (GPa) = 33.79609 70.14994 51.97302
# Shear Modulus (GPa) = 16.80099 42.87770 29.83935
#
# Velocity S-wave (km/s) = 2.58118 4.12351 3.43990
# Velocity P-wave (km/s) = 4.72073 7.10558 6.03219
#
# Compressibility (1/GPa) = 0.02958922
#
# Stress axis : x y z
#
# Youngs Moduli (GPa) = 217.82166 56.13793 77.37495
#
# Poissons Ratio (x) = -0.00674 0.14165
# Poissons Ratio (y) = -0.02614 0.08966
# Poissons Ratio (z) = 0.39877 0.06505
#
# Static dielectric constant tensor:
#      x y z
#    x 2.088110 0.000000 0.053700 
#    y 0.000000 2.106690 0.000000 
#    z 0.053700 0.000000 1.954980 
# 
# From -- ./inp_files/27680.got.cif
#   From: 2010.05.17/outbox.cif.g08.bks.cpg/sg14_14_cif.got.tgz:27680.got - 2010.06.03 17:49:19.
