data_PCOD9242954
_publ_section_title
;
Structure prediction by ZEFSAII (Michael W. Deem and Ramdas Pophale) SiO2 
 PCOD9242954
Probable space group: P 21/C
;
_chemical_formula_sum "Si O2"
_cell_formula_units_Z 32
_cell_length_a 5.156379
_cell_length_b 18.776295
_cell_length_c 16.344636
_cell_angle_alpha 90.000000
_cell_angle_beta 92.901888
_cell_angle_gamma 90.000000
_cell_volume 1580.420762
_symmetry_space_group_name_H-M "P 21/C"
_symmetry_group_IT_number 14
_symmetry_cell_setting 'monoclinic'
loop_
_space_group_symop_operation_xyz
x,y,z
-x,1/2+y,1/2-z
-x,-y,-z
x,1/2-y,1/2+z
loop_
_atom_site_type_symbol
_atom_site_label
_atom_site_fract_x
_atom_site_fract_y
_atom_site_fract_z
Si Si1 0.748548 0.814713 0.094685
Si Si2 0.251186 0.735154 0.038424
Si Si3 0.256403 0.510456 0.262825
Si Si4 0.579306 0.850544 0.269665
Si Si5 0.401090 0.582930 0.112602
Si Si6 0.102102 0.662205 0.872929
Si Si7 0.906597 0.000564 0.612472
Si Si8 0.759872 0.981057 0.052990
O O1 0.509805 0.782151 0.040619
O O2 0.658654 0.811684 0.187634
O O3 0.777517 0.897429 0.073425
O O4 0.015657 0.773804 0.081438
O O5 0.330192 0.661233 0.083472
O O6 0.157427 0.716285 0.946124
O O7 0.405468 0.435724 0.247724
O O8 0.387638 0.572481 0.211152
O O9 0.234785 0.520001 0.358724
O O10 0.980433 0.501074 0.211379
O O11 0.301710 0.828962 0.300983
O O12 0.805805 0.835946 0.338849
O O13 0.678757 0.554069 0.089725
O O14 0.177331 0.527572 0.080041
O O15 0.156619 0.581976 0.906228
O O16 0.500000 0.000000 0.000000
O O17 0.000000 0.000000 0.000000
#
# Coordination Sequence:
#
# PCOD9242954 Si02
#       8
#     4   4   4   4   4   4   4   4
#     4  11  25  46  63  87 130 172 214 250 324 396
#     4  12  25  40  62  93 140 169 197 260 324 392
#     4   8  20  36  62  88 123 145 208 264 307 369
#     4  10  20  40  66  85 112 169 218 258 302 376
#     4  10  20  36  58  90 127 164 200 239 320 368
#     4  11  20  37  62  96 121 160 219 259 304 361
#     4   9  18  34  59  88 124 160 207 251 298 361
#     4  11  24  41  70  94 112 154 219 283 324 343
#
# _framework density 20.247774
#
# number of rings (size 3 to 8) (size 9 to 14) (size 15 to 20)
#    0.750    1.000    1.250    3.000    1.750    3.000 
#    0.000    7.500    0.000    0.000    0.000    0.000 
#    0.000    0.000    0.000    0.000    0.000    0.000 
#
# Total GULP energy -178697.497793 kJ/mol
# GULP energy per Si atom -5584.296806 kJ/mol
# Density = 2.020169 g / cm^3
# Si number density = 20.247774 Si / 1000 Ang^3
#
#
#
# Elastic Constant Matrix: (Units=GPa)
#
#
# Indices 1 2 3 4 5 6 
#
# 1 84.3841 -1.5248 -0.2711 0.0000 -5.0142 0.0000
# 2 -1.5248 35.8911 10.7781 0.0000 -4.1657 0.0000
# 3 -0.2711 10.7781 84.7301 0.0000 -4.0891 0.0000
# 4 0.0000 0.0000 0.0000 15.0625 0.0000 -0.8467
# 5 -5.0142 -4.1657 -4.0891 0.0000 22.4282 0.0000
# 6 0.0000 0.0000 0.0000 -0.8467 0.0000 32.8531
#
#
#
# Elastic Compliance Matrix: (Units=1/GPa)
#
#
# Indices 1 2 3 4 5 6 
#
# 1 0.012035 0.000821 0.000072 0.000000 0.002856 0.000000
# 2 0.000821 0.029535 -0.003512 0.000000 0.005029 0.000000
# 3 0.000072 -0.003512 0.012327 0.000000 0.001611 0.000000
# 4 0.000000 0.000000 0.000000 0.066486 0.000000 0.001714
# 5 0.002856 0.005029 0.001611 0.000000 0.046453 0.000000
# 6 0.000000 0.000000 0.000000 0.001714 0.000000 0.030483
#
#
# Mechanical properties :
#
#
# Convention : Reuss Voigt Hill
#
# Bulk Modulus (GPa) = 20.55061 24.77441 22.66251
# Shear Modulus (GPa) = 22.85432 27.13696 24.99564
#
# Velocity S-wave (km/s) = 3.36331 3.66491 3.51734
# Velocity P-wave (km/s) = 5.02534 5.49280 5.26426
#
# Compressibility (1/GPa) = 0.04866036
#
# Stress axis : x y z
#
# Youngs Moduli (GPa) = 83.08838 33.85783 81.12357
#
# Poissons Ratio (x) = -0.02781 -0.00583
# Poissons Ratio (y) = -0.06824 0.28488
# Poissons Ratio (z) = -0.00597 0.11890
#
# Static dielectric constant tensor:
#      x y z
#    x 1.699950 0.000000 0.006910 
#    y 0.000000 1.697590 0.000000 
#    z 0.006910 0.000000 1.770100 
# 
# From -- ./inp_files/37706.got.cif
#   From: 2010.05.17/outbox.cif.g08.bks.cpg/sg14_19_cif.got.tgz:37706.got - 2010.06.03 17:49:19.
