data_PCOD9242376
_publ_section_title
;
Structure prediction by ZEFSAII (Michael W. Deem and Ramdas Pophale) SiO2 
 PCOD9242376
Probable space group: P 21/C
;
_chemical_formula_sum "Si O2"
_cell_formula_units_Z 28
_cell_length_a 16.648973
_cell_length_b 20.296502
_cell_length_c 15.536574
_cell_angle_alpha 90.000000
_cell_angle_beta 17.826529
_cell_angle_gamma 90.000000
_cell_volume 1607.231681
_symmetry_space_group_name_H-M "P 21/C"
_symmetry_group_IT_number 14
_symmetry_cell_setting 'monoclinic'
loop_
_space_group_symop_operation_xyz
x,y,z
-x,1/2+y,1/2-z
-x,-y,-z
x,1/2-y,1/2+z
loop_
_atom_site_type_symbol
_atom_site_label
_atom_site_fract_x
_atom_site_fract_y
_atom_site_fract_z
Si Si1 0.997629 0.212413 0.560059
Si Si2 0.648442 0.325305 0.110134
Si Si3 0.355008 0.150881 0.494894
Si Si4 0.750000 0.546627 0.750000
Si Si5 0.851569 0.325303 0.389860
Si Si6 0.497597 0.712413 0.560085
Si Si7 0.854997 0.849122 0.994902
O O1 0.250018 0.188201 0.249986
O O2 0.077329 0.283596 0.518689
O O3 0.919210 0.166507 0.720631
O O4 0.750019 0.220664 0.749983
O O5 0.749999 0.250001 0.000001
O O6 0.580815 0.333493 0.279349
O O7 0.388021 0.333245 0.319386
O O8 0.887741 0.365639 0.824357
O O9 0.277962 0.093627 0.638801
O O10 0.612268 0.134363 0.175637
O O11 0.422695 0.216405 0.481292
O O12 0.111986 0.166760 0.680614
O O13 0.777955 0.593625 0.638806
O O14 0.000000 0.500000 0.500000
O O15 0.500000 0.500000 0.000000
#
# Coordination Sequence:
#
# PCOD9242376 Si02
#       7
#     4   4   4   4   4   4   4
#     4  11  19  30  52  79 110 139 175 206 264 335
#     4  10  20  32  51  76 104 144 178 207 268 338
#     4  11  21  36  51  70 112 144 179 223 267 302
#     4  12  26  38  56  78 104 148 202 228 254 304
#     4  10  20  32  51  76 104 144 178 207 268 338
#     4  11  19  30  52  79 110 139 175 206 264 335
#     4  11  21  36  51  70 112 144 179 223 267 302
#
# _framework density 17.421258999999999
#
# number of rings (size 3 to 8) (size 9 to 14) (size 15 to 20)
#    0.000    1.143    1.429   10.286    2.000    0.000 
#    0.000    0.000    0.000    0.000    0.000    0.000 
#    0.000   80.000    0.000    0.000    0.000    0.000 
#
# Total GULP energy -156353.739353 kJ/mol
# GULP energy per Si atom -5584.062120 kJ/mol
# Density = 1.738161 g / cm^3
# Si number density = 17.421259 Si / 1000 Ang^3
#
#
#
# Elastic Constant Matrix: (Units=GPa)
#
#
# Indices 1 2 3 4 5 6 
#
# 1 170.2591 42.9072 104.8987 0.0000 -8.1606 0.0000
# 2 42.9072 41.9878 29.0984 0.0000 2.1953 0.0000
# 3 104.8987 29.0984 182.1968 0.0000 0.0604 0.0000
# 4 0.0000 0.0000 0.0000 29.0419 0.0000 5.9599
# 5 -8.1606 2.1953 0.0604 0.0000 58.7100 0.0000
# 6 0.0000 0.0000 0.0000 5.9599 0.0000 12.6435
#
#
#
# Elastic Compliance Matrix: (Units=1/GPa)
#
#
# Indices 1 2 3 4 5 6 
#
# 1 0.011120 -0.007896 -0.005142 0.000000 0.001846 0.000000
# 2 -0.007896 0.032447 -0.000635 0.000000 -0.002310 0.000000
# 3 -0.005142 -0.000635 0.008550 0.000000 -0.000700 0.000000
# 4 0.000000 0.000000 0.000000 0.038121 0.000000 -0.017969
# 5 0.001846 -0.002310 -0.000700 0.000000 0.017377 0.000000
# 6 0.000000 0.000000 0.000000 -0.017969 0.000000 0.087563
#
#
# Mechanical properties :
#
#
# Convention : Reuss Voigt Hill
#
# Bulk Modulus (GPa) = 40.37006 83.13914 61.75460
# Shear Modulus (GPa) = 21.66571 34.58171 28.12371
#
# Velocity S-wave (km/s) = 3.53035 4.46020 4.02223
# Velocity P-wave (km/s) = 6.31197 8.62270 7.55619
#
# Compressibility (1/GPa) = 0.02477083
#
# Stress axis : x y z
#
# Youngs Moduli (GPa) = 89.93077 30.81991 116.95323
#
# Poissons Ratio (x) = 0.24337 0.60132
# Poissons Ratio (y) = 0.71013 0.07425
# Poissons Ratio (z) = 0.46238 0.01957
#
# Static dielectric constant tensor:
#      x y z
#    x 1.613050 0.000000 0.047870 
#    y 0.000000 1.575000 0.000000 
#    z 0.047870 0.000000 1.631670 
# 
# From -- ./inp_files/47580.got.cif
#   From: 2010.05.17/outbox.cif.g08.bks.cpg/sg14_24_cif.got.tgz:47580.got - 2010.06.03 17:49:19.
