data_PCOD9242335
_publ_section_title
;
Structure prediction by ZEFSAII (Michael W. Deem and Ramdas Pophale) SiO2 
 PCOD9242335
Probable space group: P 21/C
;
_chemical_formula_sum "Si O2"
_cell_formula_units_Z 32
_cell_length_a 16.106725
_cell_length_b 23.323729
_cell_length_c 13.825047
_cell_angle_alpha 90.000000
_cell_angle_beta 19.439815
_cell_angle_gamma 90.000000
_cell_volume 1728.529101
_symmetry_space_group_name_H-M "P 21/C"
_symmetry_group_IT_number 14
_symmetry_cell_setting 'monoclinic'
loop_
_space_group_symop_operation_xyz
x,y,z
-x,1/2+y,1/2-z
-x,-y,-z
x,1/2-y,1/2+z
loop_
_atom_site_type_symbol
_atom_site_label
_atom_site_fract_x
_atom_site_fract_y
_atom_site_fract_z
Si Si1 0.574052 0.691725 0.223905
Si Si2 0.268132 0.357526 0.219831
Si Si3 0.613395 0.264871 0.902211
Si Si4 0.820939 0.350929 0.839524
Si Si5 0.659575 0.469267 0.967402
Si Si6 0.708417 0.052269 0.204439
Si Si7 0.130827 0.745350 0.578486
Si Si8 0.834979 0.589109 0.862835
O O1 0.467383 0.711109 0.444635
O O2 0.352767 0.709238 0.390767
O O3 0.651734 0.625029 0.130393
O O4 0.845520 0.723743 0.911034
O O5 0.136323 0.369905 0.263313
O O6 0.094794 0.368179 0.501635
O O7 0.373334 0.294001 0.116255
O O8 0.495477 0.401515 0.959966
O O9 0.711352 0.311816 0.872441
O O10 0.806180 0.254699 0.604250
O O11 0.668963 0.409961 0.014241
O O12 0.839308 0.309107 0.910119
O O13 0.809689 0.458166 0.701827
O O14 0.750701 0.525285 0.925151
O O15 0.395341 0.491831 0.218218
O O16 0.875826 0.078149 0.934822
#
# Coordination Sequence:
#
# PCOD9242335 Si02
#       8
#     4   4   4   4   4   4   4   4
#     4  11  24  38  60  86 114 156 197 233 297 342
#     4  11  17  32  52  75 113 144 180 232 283 348
#     4  11  22  38  57  82 117 150 195 244 286 343
#     4  11  22  36  54  82 116 149 190 234 290 351
#     4  10  21  30  48  79 112 149 184 228 290 348
#     4  10  20  29  49  77 111 150 178 226 291 349
#     4  11  24  39  60  85 115 155 193 243 289 339
#     4  11  21  33  51  79 115 150 187 233 286 352
#
# _framework density 18.512848999999999
#
# number of rings (size 3 to 8) (size 9 to 14) (size 15 to 20)
#    0.000    1.250    5.000    1.875    5.250    0.000 
#    0.000    0.000    0.000    0.750    0.000    0.875 
#    0.000    0.125    0.000    0.000    0.000    0.000 
#
# Total GULP energy -178186.654199 kJ/mol
# GULP energy per Si atom -5568.332944 kJ/mol
# Density = 1.847071 g / cm^3
# Si number density = 18.512849 Si / 1000 Ang^3
#
#
#
# Elastic Constant Matrix: (Units=GPa)
#
#
# Indices 1 2 3 4 5 6 
#
# 1 42.7807 26.4125 14.8702 0.0000 8.4216 0.0000
# 2 26.4125 103.9342 11.8175 0.0000 2.4008 0.0000
# 3 14.8702 11.8175 56.0414 0.0000 -3.6406 0.0000
# 4 0.0000 0.0000 0.0000 32.8095 0.0000 0.5602
# 5 8.4216 2.4008 -3.6406 0.0000 20.5675 0.0000
# 6 0.0000 0.0000 0.0000 0.5602 0.0000 32.4307
#
#
#
# Elastic Compliance Matrix: (Units=1/GPa)
#
#
# Indices 1 2 3 4 5 6 
#
# 1 0.033572 -0.007255 -0.008312 0.000000 -0.014371 0.000000
# 2 -0.007255 0.011474 -0.000393 0.000000 0.001562 0.000000
# 3 -0.008312 -0.000393 0.020593 0.000000 0.007094 0.000000
# 4 0.000000 0.000000 0.000000 0.030488 0.000000 -0.000527
# 5 -0.014371 0.001562 0.007094 0.000000 0.055578 0.000000
# 6 0.000000 0.000000 0.000000 -0.000527 0.000000 0.030844
#
#
# Mechanical properties :
#
#
# Convention : Reuss Voigt Hill
#
# Bulk Modulus (GPa) = 29.65610 34.32854 31.99232
# Shear Modulus (GPa) = 22.15252 27.13864 24.64558
#
# Velocity S-wave (km/s) = 3.46295 3.83291 3.65261
# Velocity P-wave (km/s) = 5.66068 6.17832 5.92515
#
# Compressibility (1/GPa) = 0.03371987
#
# Stress axis : x y z
#
# Youngs Moduli (GPa) = 29.78674 87.15609 48.55970
#
# Poissons Ratio (x) = 0.63228 0.40362
# Poissons Ratio (y) = 0.21609 0.01909
# Poissons Ratio (z) = 0.24758 0.03426
#
# Static dielectric constant tensor:
#      x y z
#    x 1.711980 0.000000 -0.092390 
#    y 0.000000 1.674760 0.000000 
#    z -0.092390 0.000000 1.755480 
# 
# From -- ./inp_files/49315.got.cif
#   From: 2010.05.17/outbox.cif.g08.bks.cpg/sg14_25_cif.got.tgz:49315.got - 2010.06.03 17:49:19.
