data_PCOD9242572
_publ_section_title
;
Structure prediction by ZEFSAII (Michael W. Deem and Ramdas Pophale) SiO2 
 PCOD9242572
Probable space group: P 21/C
;
_chemical_formula_sum "Si O2"
_cell_formula_units_Z 32
_cell_length_a 18.729650
_cell_length_b 12.301854
_cell_length_c 14.309424
_cell_angle_alpha 90.000000
_cell_angle_beta 148.377842
_cell_angle_gamma 90.000000
_cell_volume 1728.681071
_symmetry_space_group_name_H-M "P 21/C"
_symmetry_group_IT_number 14
_symmetry_cell_setting 'monoclinic'
loop_
_space_group_symop_operation_xyz
x,y,z
-x,1/2+y,1/2-z
-x,-y,-z
x,1/2-y,1/2+z
loop_
_atom_site_type_symbol
_atom_site_label
_atom_site_fract_x
_atom_site_fract_y
_atom_site_fract_z
Si Si1 0.953417 0.578606 0.086292
Si Si2 0.765355 0.434773 0.508260
Si Si3 0.301802 0.157989 0.985867
Si Si4 0.239738 0.740481 0.644676
Si Si5 0.332604 0.127901 0.640122
Si Si6 0.013447 0.156096 0.571099
Si Si7 0.616225 0.211779 0.998407
Si Si8 0.600864 0.386313 0.820129
O O1 0.806092 0.610565 0.958336
O O2 0.998359 0.658794 0.053299
O O3 0.952566 0.458634 0.039501
O O4 0.072614 0.576495 0.295496
O O5 0.725063 0.560824 0.469645
O O6 0.726009 0.371555 0.370304
O O7 0.694635 0.374792 0.518655
O O8 0.172063 0.155560 0.773909
O O9 0.309954 0.275534 0.041660
O O10 0.449882 0.131563 0.109470
O O11 0.078420 0.753453 0.482304
O O12 0.310104 0.761911 0.822649
O O13 0.291504 0.832252 0.630125
O O14 0.369605 0.012811 0.634830
O O15 0.465045 0.164448 0.846392
O O16 0.604962 0.319241 0.921206
#
# Coordination Sequence:
#
# PCOD9242572 Si02
#       8
#     4   4   4   4   4   4   4   4
#     4  10  20  34  56  87 115 148 192 248 284 336
#     4  10  20  39  60  80 121 151 192 241 290 343
#     4  10  22  38  57  86 117 154 190 239 292 339
#     4  11  21  38  62  86 112 160 193 237 293 342
#     4  11  21  38  59  84 120 150 191 237 291 343
#     4  10  20  35  57  87 115 147 198 242 284 336
#     4  10  22  38  60  88 113 151 197 240 280 352
#     4  10  22  38  60  85 118 153 191 237 294 340
#
# _framework density 18.511222
#
# number of rings (size 3 to 8) (size 9 to 14) (size 15 to 20)
#    0.000    1.750    3.750    0.750    1.750    0.500 
#    0.000    3.750    0.000    2.250    0.000    0.000 
#    0.000    0.000    0.000    0.000    0.000    0.000 
#
# Total GULP energy -178483.519563 kJ/mol
# GULP energy per Si atom -5577.609986 kJ/mol
# Density = 1.846909 g / cm^3
# Si number density = 18.511222 Si / 1000 Ang^3
#
#
#
# Elastic Constant Matrix: (Units=GPa)
#
#
# Indices 1 2 3 4 5 6 
#
# 1 51.7939 19.2017 23.4974 0.0000 9.5901 0.0000
# 2 19.2017 101.3037 20.2596 0.0000 -3.2196 0.0000
# 3 23.4974 20.2596 50.6498 0.0000 20.2945 0.0000
# 4 0.0000 0.0000 0.0000 22.7453 0.0000 7.3285
# 5 9.5901 -3.2196 20.2945 0.0000 33.1442 0.0000
# 6 0.0000 0.0000 0.0000 7.3285 0.0000 10.5308
#
#
#
# Elastic Compliance Matrix: (Units=1/GPa)
#
#
# Indices 1 2 3 4 5 6 
#
# 1 0.025136 -0.002821 -0.009950 0.000000 -0.001454 0.000000
# 2 -0.002821 0.011672 -0.005488 0.000000 0.005310 0.000000
# 3 -0.009950 -0.005488 0.033942 0.000000 -0.018437 0.000000
# 4 0.000000 0.000000 0.000000 0.056672 0.000000 -0.039439
# 5 -0.001454 0.005310 -0.018437 0.000000 0.042397 0.000000
# 6 0.000000 0.000000 0.000000 -0.039439 0.000000 0.122406
#
#
# Mechanical properties :
#
#
# Convention : Reuss Voigt Hill
#
# Bulk Modulus (GPa) = 29.21169 36.62943 32.92056
# Shear Modulus (GPa) = 14.69916 22.66998 18.68457
#
# Velocity S-wave (km/s) = 2.82098 3.50331 3.18050
# Velocity P-wave (km/s) = 5.14056 6.01622 5.59555
#
# Compressibility (1/GPa) = 0.03423287
#
# Stress axis : x y z
#
# Youngs Moduli (GPa) = 39.78281 85.67295 29.46191
#
# Poissons Ratio (x) = 0.24167 0.29315
# Poissons Ratio (y) = 0.11222 0.16169
# Poissons Ratio (z) = 0.39585 0.47017
#
# Static dielectric constant tensor:
#      x y z
#    x 1.621730 0.000000 0.021490 
#    y 0.000000 1.638310 0.000000 
#    z 0.021490 0.000000 1.657480 
# 
# From -- ./inp_files/49054.got.cif
#   From: 2010.05.17/outbox.cif.g08.bks.cpg/sg14_25_cif.got.tgz:49054.got - 2010.06.03 17:49:19.
