data_PCOD9242466
_publ_section_title
;
Structure prediction by ZEFSAII (Michael W. Deem and Ramdas Pophale) SiO2 
 PCOD9242466
Probable space group: P 21/C
;
_chemical_formula_sum "Si O2"
_cell_formula_units_Z 24
_cell_length_a 21.477242
_cell_length_b 8.144665
_cell_length_c 15.660731
_cell_angle_alpha 90.000000
_cell_angle_beta 155.256461
_cell_angle_gamma 90.000000
_cell_volume 1146.617896
_symmetry_space_group_name_H-M "P 21/C"
_symmetry_group_IT_number 14
_symmetry_cell_setting 'monoclinic'
loop_
_space_group_symop_operation_xyz
x,y,z
-x,1/2+y,1/2-z
-x,-y,-z
x,1/2-y,1/2+z
loop_
_atom_site_type_symbol
_atom_site_label
_atom_site_fract_x
_atom_site_fract_y
_atom_site_fract_z
Si Si1 0.238427 0.290838 0.672255
Si Si2 0.619587 0.668444 0.972937
Si Si3 0.489964 0.864852 0.062410
Si Si4 0.952531 0.359082 0.875786
Si Si5 0.224954 0.890408 0.248163
Si Si6 0.359479 0.507964 0.574161
O O1 0.323965 0.252337 0.868176
O O2 0.358940 0.240482 0.753546
O O3 0.202939 0.482749 0.643047
O O4 0.087699 0.188250 0.482782
O O5 0.714220 0.499732 0.095962
O O6 0.451080 0.601128 0.761806
O O7 0.646323 0.810705 0.937480
O O8 0.460619 0.948120 0.116993
O O9 0.350367 0.741265 0.878264
O O10 0.500000 0.000000 0.000000
O O11 0.916232 0.204329 0.891643
O O12 0.802610 0.415340 0.641946
O O13 0.000000 0.500000 0.000000
#
# Coordination Sequence:
#
# PCOD9242466 Si02
#       6
#     4   4   4   4   4   4
#     4  10  20  33  57  83 112 140 188 233 275 320
#     4  10  21  38  56  86 109 150 195 228 264 339
#     4  11  18  34  55  85 111 147 183 232 276 331
#     4  11  18  34  55  85 111 147 183 232 276 331
#     4   9  20  34  57  78 111 147 183 229 272 322
#     4  11  21  35  60  81 114 149 190 228 279 329
#
# _framework density 20.931122999999999
#
# number of rings (size 3 to 8) (size 9 to 14) (size 15 to 20)
#    1.000    0.667    3.333    4.000    0.000    0.000 
#    0.000    0.000    0.000   12.000    0.000    0.000 
#    0.000    0.000    0.000    0.000    0.000    0.000 
#
# Total GULP energy -133705.168046 kJ/mol
# GULP energy per Si atom -5571.048669 kJ/mol
# Density = 2.088348 g / cm^3
# Si number density = 20.931123 Si / 1000 Ang^3
#
#
#
# Elastic Constant Matrix: (Units=GPa)
#
#
# Indices 1 2 3 4 5 6 
#
# 1 55.4831 2.3539 13.1925 0.0000 15.0576 0.0000
# 2 2.3539 77.5294 5.4799 0.0000 -6.4001 0.0000
# 3 13.1925 5.4799 79.7490 0.0000 -1.6215 0.0000
# 4 0.0000 0.0000 0.0000 36.7568 0.0000 5.8297
# 5 15.0576 -6.4001 -1.6215 0.0000 19.0705 0.0000
# 6 0.0000 0.0000 0.0000 5.8297 0.0000 16.8070
#
#
#
# Elastic Compliance Matrix: (Units=1/GPa)
#
#
# Indices 1 2 3 4 5 6 
#
# 1 0.024753 -0.002146 -0.004367 0.000000 -0.020636 0.000000
# 2 -0.002146 0.013506 -0.000447 0.000000 0.006189 0.000000
# 3 -0.004367 -0.000447 0.013383 0.000000 0.004436 0.000000
# 4 0.000000 0.000000 0.000000 0.028790 0.000000 -0.009986
# 5 -0.020636 0.006189 0.004436 0.000000 0.071185 0.000000
# 6 0.000000 0.000000 0.000000 -0.009986 0.000000 0.062963
#
#
# Mechanical properties :
#
#
# Convention : Reuss Voigt Hill
#
# Bulk Modulus (GPa) = 26.51037 28.31268 27.41152
# Shear Modulus (GPa) = 20.74047 27.30921 24.02484
#
# Velocity S-wave (km/s) = 3.15126 3.61601 3.39160
# Velocity P-wave (km/s) = 5.09250 5.56686 5.33496
#
# Compressibility (1/GPa) = 0.03772109
#
# Stress axis : x y z
#
# Youngs Moduli (GPa) = 40.39846 74.04095 74.72351
#
# Poissons Ratio (x) = 0.15892 0.32631
# Poissons Ratio (y) = 0.08671 0.03341
# Poissons Ratio (z) = 0.17642 0.03311
#
# Static dielectric constant tensor:
#      x y z
#    x 1.787880 0.000000 -0.030300 
#    y 0.000000 1.821290 0.000000 
#    z -0.030300 0.000000 1.759630 
# 
# From -- ./inp_files/61724.got.cif
#   From: 2010.05.17/outbox.cif.g08.bks.cpg/sg14_31_cif.got.tgz:61724.got - 2010.06.03 17:49:19.
