data_PCOD9242111
_publ_section_title
;
Structure prediction by ZEFSAII (Michael W. Deem and Ramdas Pophale) SiO2 
 PCOD9242111
Probable space group: P 21/C
;
_chemical_formula_sum "Si O2"
_cell_formula_units_Z 20
_cell_length_a 7.972004
_cell_length_b 7.073272
_cell_length_c 26.468635
_cell_angle_alpha 90.000000
_cell_angle_beta 28.417055
_cell_angle_gamma 90.000000
_cell_volume 710.268194
_symmetry_space_group_name_H-M "P 21/C"
_symmetry_group_IT_number 14
_symmetry_cell_setting 'monoclinic'
loop_
_space_group_symop_operation_xyz
x,y,z
-x,1/2+y,1/2-z
-x,-y,-z
x,1/2-y,1/2+z
loop_
_atom_site_type_symbol
_atom_site_label
_atom_site_fract_x
_atom_site_fract_y
_atom_site_fract_z
Si Si1 0.777546 0.117534 0.156897
Si Si2 0.490567 0.716007 0.678482
Si Si3 0.303114 0.261403 0.649328
Si Si4 0.296875 0.086971 0.480354
Si Si5 0.135510 0.865493 0.143928
O O1 0.478876 0.175159 0.276169
O O2 0.038163 0.982002 0.120298
O O3 0.653155 0.988288 0.144134
O O4 0.958317 0.310867 0.091876
O O5 0.652057 0.833690 0.590102
O O6 0.067861 0.708369 0.780571
O O7 0.337017 0.480408 0.626200
O O8 0.379288 0.633488 0.954454
O O9 0.200035 0.200948 0.733812
O O10 0.618495 0.184386 0.426271
#
# Coordination Sequence:
#
# PCOD9242111 Si02
#       5
#     4   4   4   4   4
#     4  11  23  41  61  93 126 159 209 253 312 371
#     4  10  24  40  62  93 128 164 198 259 318 357
#     4  10  19  39  65  88 125 160 211 247 308 359
#     4  11  22  42  65  89 124 165 210 254 300 372
#     4  10  20  37  64  94 118 167 204 252 305 361
#
# _framework density 28.158377000000002
#
# number of rings (size 3 to 8) (size 9 to 14) (size 15 to 20)
#    0.000    1.600    6.000    1.200    2.800    3.200 
#    3.600    1.000    0.000    0.000    0.000    0.000 
#    0.000    0.000    0.000    0.000    0.000    0.000 
#
# Total GULP energy -112225.007750 kJ/mol
# GULP energy per Si atom -5611.250387 kJ/mol
# Density = 2.809429 g / cm^3
# Si number density = 28.158377 Si / 1000 Ang^3
#
#
#
# Elastic Constant Matrix: (Units=GPa)
#
#
# Indices 1 2 3 4 5 6 
#
# 1 89.2017 -4.0267 19.7122 0.0000 8.7211 0.0000
# 2 -4.0267 124.6224 18.9177 0.0000 -6.6965 0.0000
# 3 19.7122 18.9177 85.3056 0.0000 23.4489 0.0000
# 4 0.0000 0.0000 0.0000 43.2705 0.0000 -3.3483
# 5 8.7211 -6.6965 23.4489 0.0000 36.2233 0.0000
# 6 0.0000 0.0000 0.0000 -3.3483 0.0000 51.0056
#
#
#
# Elastic Compliance Matrix: (Units=1/GPa)
#
#
# Indices 1 2 3 4 5 6 
#
# 1 0.011926 0.000730 -0.002634 0.000000 -0.001031 0.000000
# 2 0.000730 0.008690 -0.003028 0.000000 0.003391 0.000000
# 3 -0.002634 -0.003028 0.015792 0.000000 -0.010149 0.000000
# 4 0.000000 0.000000 0.000000 0.023228 0.000000 0.001525
# 5 -0.001031 0.003391 -0.010149 0.000000 0.035051 0.000000
# 6 0.000000 0.000000 0.000000 0.001525 0.000000 0.019706
#
#
# Mechanical properties :
#
#
# Convention : Reuss Voigt Hill
#
# Bulk Modulus (GPa) = 37.67327 40.92624 39.29976
# Shear Modulus (GPa) = 37.56391 43.73498 40.64945
#
# Velocity S-wave (km/s) = 3.65639 3.94531 3.80360
# Velocity P-wave (km/s) = 5.58871 5.94305 5.76860
#
# Compressibility (1/GPa) = 0.02654402
#
# Stress axis : x y z
#
# Youngs Moduli (GPa) = 83.84714 115.07971 63.32163
#
# Poissons Ratio (x) = -0.08399 0.16681
# Poissons Ratio (y) = -0.06120 0.19172
# Poissons Ratio (z) = 0.22088 0.34843
#
# Static dielectric constant tensor:
#      x y z
#    x 2.297330 0.000000 -0.003900 
#    y 0.000000 2.099260 0.000000 
#    z -0.003900 0.000000 2.143050 
# 
# From -- ./inp_files/38725.got.cif
#   From: 2010.05.17/outbox.cif.g08.bks.cpg/sg14_20_cif.got.tgz:38725.got - 2010.06.03 17:49:19.
