data_PCOD9242595
_publ_section_title
;
Structure prediction by ZEFSAII (Michael W. Deem and Ramdas Pophale) SiO2 
 PCOD9242595
Probable space group: P 21/C
;
_chemical_formula_sum "Si O2"
_cell_formula_units_Z 30
_cell_length_a 12.804826
_cell_length_b 13.307449
_cell_length_c 20.989715
_cell_angle_alpha 90.000000
_cell_angle_beta 21.026865
_cell_angle_gamma 90.000000
_cell_volume 1283.318061
_symmetry_space_group_name_H-M "P 21/C"
_symmetry_group_IT_number 14
_symmetry_cell_setting 'monoclinic'
loop_
_space_group_symop_operation_xyz
x,y,z
-x,1/2+y,1/2-z
-x,-y,-z
x,1/2-y,1/2+z
loop_
_atom_site_type_symbol
_atom_site_label
_atom_site_fract_x
_atom_site_fract_y
_atom_site_fract_z
Si Si1 0.945912 0.802775 0.366269
Si Si2 0.805430 0.211405 0.571380
Si Si3 0.429963 0.274737 0.172454
Si Si4 0.485988 0.703199 0.021415
Si Si5 0.042458 0.589308 0.352094
Si Si6 0.519709 0.092806 0.292569
Si Si7 0.502623 0.952519 0.839517
Si Si8 0.000000 0.500000 0.000000
O O1 0.778460 0.784455 0.394915
O O2 0.923469 0.703729 0.424757
O O3 0.755787 0.889298 0.506029
O O4 0.285080 0.799942 0.154837
O O5 0.609405 0.169413 0.624960
O O6 0.625154 0.296824 0.710420
O O7 0.092755 0.267277 0.382203
O O8 0.903986 0.120685 0.558862
O O9 0.551798 0.160685 0.109310
O O10 0.467618 0.308965 0.079345
O O11 0.293151 0.609413 0.157094
O O12 0.772121 0.519808 0.489214
O O13 0.210853 0.551786 0.319354
O O14 0.434925 0.038644 0.274512
O O15 0.831970 0.977933 0.667248
#
# Coordination Sequence:
#
# PCOD9242595 Si02
#       8
#     4   4   4   4   4   4   4   2
#     4   9  19  32  60  81 107 154 191 241 283 347
#     4  10  22  35  61  88 120 158 187 256 291 368
#     4  10  21  38  60  84 115 158 205 232 304 349
#     4   9  19  36  59  79 109 156 203 235 279 361
#     4   9  20  34  58  80 116 150 190 248 287 344
#     4  10  20  34  58  86 115 151 199 228 313 356
#     4  10  21  35  57  87 117 151 185 254 295 358
#     4  10  22  34  56  88 130 140 196 238 306 350
#
# _framework density 23.376902000000001
#
# number of rings (size 3 to 8) (size 9 to 14) (size 15 to 20)
#    0.800    1.600    0.000    2.000    7.467    1.067 
#    0.000    0.667    8.800    4.800    0.000    0.000 
#    0.000    0.000    0.000    0.000    0.000    0.000 
#
# Total GULP energy -167003.456959 kJ/mol
# GULP energy per Si atom -5566.781899 kJ/mol
# Density = 2.332370 g / cm^3
# Si number density = 23.376902 Si / 1000 Ang^3
#
#
#
# Elastic Constant Matrix: (Units=GPa)
#
#
# Indices 1 2 3 4 5 6 
#
# 1 84.5241 3.3703 13.0828 0.0000 -10.7527 0.0000
# 2 3.3703 41.4689 14.7135 0.0000 -2.3109 0.0000
# 3 13.0828 14.7135 30.3488 0.0000 -5.1773 0.0000
# 4 0.0000 0.0000 0.0000 32.9557 0.0000 -10.9990
# 5 -10.7527 -2.3109 -5.1773 0.0000 32.4499 0.0000
# 6 0.0000 0.0000 0.0000 -10.9990 0.0000 20.6537
#
#
#
# Elastic Compliance Matrix: (Units=1/GPa)
#
#
# Indices 1 2 3 4 5 6 
#
# 1 0.013100 0.001114 -0.005585 0.000000 0.003529 0.000000
# 2 0.001114 0.029220 -0.014626 0.000000 0.000116 0.000000
# 3 -0.005585 -0.014626 0.043129 0.000000 0.003989 0.000000
# 4 0.000000 0.000000 0.000000 0.036903 0.000000 0.019652
# 5 0.003529 0.000116 0.003989 0.000000 0.032631 0.000000
# 6 0.000000 0.000000 0.000000 0.019652 0.000000 0.058883
#
#
# Mechanical properties :
#
#
# Convention : Reuss Voigt Hill
#
# Bulk Modulus (GPa) = 21.16239 24.29721 22.72980
# Shear Modulus (GPa) = 18.66975 25.55688 22.11331
#
# Velocity S-wave (km/s) = 2.82909 3.31003 3.07896
# Velocity P-wave (km/s) = 4.44342 5.00246 4.73121
#
# Compressibility (1/GPa) = 0.04725365
#
# Stress axis : x y z
#
# Youngs Moduli (GPa) = 76.33623 34.22307 23.18608
#
# Poissons Ratio (x) = -0.03811 0.12949
# Poissons Ratio (y) = -0.08501 0.33913
# Poissons Ratio (z) = 0.42633 0.50056
#
# Static dielectric constant tensor:
#      x y z
#    x 1.615370 0.000000 0.429380 
#    y 0.000000 1.874130 0.000000 
#    z 0.429380 0.000000 1.235600 
# 
# From -- ./inp_files/73958.got.cif
#   From: 2010.05.17/outbox.cif.g08.bks.cpg/sg14_37_cif.got.tgz:73958.got - 2010.06.03 17:49:19.
