data_PCOD9242553
_publ_section_title
;
Structure prediction by ZEFSAII (Michael W. Deem and Ramdas Pophale) SiO2 
 PCOD9242553
Probable space group: P 21/C
;
_chemical_formula_sum "Si O2"
_cell_formula_units_Z 28
_cell_length_a 12.532170
_cell_length_b 17.613240
_cell_length_c 4.844216
_cell_angle_alpha 90.000000
_cell_angle_beta 103.744314
_cell_angle_gamma 90.000000
_cell_volume 1038.656093
_symmetry_space_group_name_H-M "P 21/C"
_symmetry_group_IT_number 14
_symmetry_cell_setting 'monoclinic'
loop_
_space_group_symop_operation_xyz
x,y,z
-x,1/2+y,1/2-z
-x,-y,-z
x,1/2-y,1/2+z
loop_
_atom_site_type_symbol
_atom_site_label
_atom_site_fract_x
_atom_site_fract_y
_atom_site_fract_z
Si Si1 0.945637 0.337693 0.860923
Si Si2 0.383288 0.205390 0.758896
Si Si3 0.070829 0.934771 0.167674
Si Si4 0.394814 0.045540 0.043418
Si Si5 0.848691 0.751564 0.195829
Si Si6 0.303691 0.700770 0.156463
Si Si7 0.309257 0.530642 0.009820
O O1 0.925519 0.363427 0.539298
O O2 0.830486 0.306552 0.911773
O O3 0.972968 0.408948 0.064473
O O4 0.053112 0.284886 0.970134
O O5 0.419461 0.275594 0.974973
O O6 0.407868 0.130413 0.940124
O O7 0.248460 0.210508 0.639260
O O8 0.193869 0.960871 0.293287
O O9 0.000000 0.000000 0.000000
O O10 0.621476 0.975491 0.648012
O O11 0.500000 0.000000 0.000000
O O12 0.298801 0.007826 0.800741
O O13 0.842699 0.682300 0.437124
O O14 0.335363 0.729680 0.477685
O O15 0.346872 0.618458 0.086508
#
# Coordination Sequence:
#
# PCOD9242553 Si02
#       7
#     4   4   4   4   4   4   4
#     4  11  21  36  56  89 131 179 232 282 335 409
#     4  10  23  43  68 104 138 173 229 295 352 422
#     4  11  24  39  60  94 138 185 231 280 344 431
#     4  12  26  49  77 104 142 190 238 301 374 436
#     4  10  20  34  55  88 125 168 218 272 334 395
#     4  11  21  39  64  94 133 180 234 294 343 412
#     4  11  25  46  69 101 139 185 237 290 359 433
#
# _framework density 26.957912
#
# number of rings (size 3 to 8) (size 9 to 14) (size 15 to 20)
#    0.000    1.143    0.000    7.714    0.000    6.857 
#    0.000    4.286    0.000    0.000    0.000    0.000 
#    0.000    0.000    0.000    0.000    0.000    0.000 
#
# Total GULP energy -156303.906322 kJ/mol
# GULP energy per Si atom -5582.282369 kJ/mol
# Density = 2.689655 g / cm^3
# Si number density = 26.957912 Si / 1000 Ang^3
#
#
#
# Elastic Constant Matrix: (Units=GPa)
#
#
# Indices 1 2 3 4 5 6 
#
# 1 63.9467 1.1244 26.5103 0.0000 11.1721 0.0000
# 2 1.1244 104.5528 27.6579 0.0000 6.1491 0.0000
# 3 26.5103 27.6579 175.6568 0.0000 -39.1237 0.0000
# 4 0.0000 0.0000 0.0000 50.8774 0.0000 -9.2210
# 5 11.1721 6.1491 -39.1237 0.0000 48.9928 0.0000
# 6 0.0000 0.0000 0.0000 -9.2210 0.0000 30.5302
#
#
#
# Elastic Compliance Matrix: (Units=1/GPa)
#
#
# Indices 1 2 3 4 5 6 
#
# 1 0.019232 0.001649 -0.005090 0.000000 -0.008658 0.000000
# 2 0.001649 0.010511 -0.002775 0.000000 -0.003911 0.000000
# 3 -0.005090 -0.002775 0.008799 0.000000 0.008536 0.000000
# 4 0.000000 0.000000 0.000000 0.020793 0.000000 0.006280
# 5 -0.008658 -0.003911 0.008536 0.000000 0.029693 0.000000
# 6 0.000000 0.000000 0.000000 0.006280 0.000000 0.034651
#
#
# Mechanical properties :
#
#
# Convention : Reuss Voigt Hill
#
# Bulk Modulus (GPa) = 38.30067 50.52684 44.41376
# Shear Modulus (GPa) = 34.52673 45.33767 39.93220
#
# Velocity S-wave (km/s) = 3.58266 4.10542 3.85291
# Velocity P-wave (km/s) = 5.59932 6.42310 6.02530
#
# Compressibility (1/GPa) = 0.02610920
#
# Stress axis : x y z
#
# Youngs Moduli (GPa) = 51.99690 95.13904 113.64568
#
# Poissons Ratio (x) = -0.15688 0.57850
# Poissons Ratio (y) = -0.08574 0.31537
# Poissons Ratio (z) = 0.26469 0.26401
#
# Static dielectric constant tensor:
#      x y z
#    x 2.209590 0.000000 0.174090 
#    y 0.000000 2.091580 0.000000 
#    z 0.174090 0.000000 2.505530 
# 
# From -- ./inp_files/3759.got.cif
#   From: 2010.05.17/outbox.cif.g08.bks.cpg/sg14_2_cif.got.tgz:3759.got - 2010.06.03 17:49:19.
