data_PCOD9242141
_publ_section_title
;
Structure prediction by ZEFSAII (Michael W. Deem and Ramdas Pophale) SiO2 
 PCOD9242141
Probable space group: P 21/C
;
_chemical_formula_sum "Si O2"
_cell_formula_units_Z 26
_cell_length_a 25.133096
_cell_length_b 4.571910
_cell_length_c 21.700444
_cell_angle_alpha 90.000000
_cell_angle_beta 158.917007
_cell_angle_gamma 90.000000
_cell_volume 896.967494
_symmetry_space_group_name_H-M "P 21/C"
_symmetry_group_IT_number 14
_symmetry_cell_setting 'monoclinic'
loop_
_space_group_symop_operation_xyz
x,y,z
-x,1/2+y,1/2-z
-x,-y,-z
x,1/2-y,1/2+z
loop_
_atom_site_type_symbol
_atom_site_label
_atom_site_fract_x
_atom_site_fract_y
_atom_site_fract_z
Si Si1 0.094578 0.195605 0.438506
Si Si2 0.706629 0.789292 0.744653
Si Si3 0.168889 0.101335 0.292874
Si Si4 0.827280 0.481334 0.592257
Si Si5 0.462495 0.160557 0.553167
Si Si6 0.000000 0.500000 0.500000
Si Si7 0.570142 0.060631 0.293388
O O1 0.201067 0.090084 0.607469
O O2 0.188991 0.387119 0.493495
O O3 0.951985 0.369522 0.312442
O O4 0.005224 0.983805 0.296917
O O5 0.586422 0.965443 0.654696
O O6 0.619043 0.666122 0.590927
O O7 0.839359 0.993966 0.862433
O O8 0.215332 0.343599 0.391839
O O9 0.324249 0.983344 0.434383
O O10 0.074944 0.222685 0.133316
O O11 0.731044 0.185795 0.484744
O O12 0.530423 0.353601 0.681160
O O13 0.536361 0.727577 0.272673
#
# Coordination Sequence:
#
# PCOD9242141 Si02
#       7
#     4   4   4   4   4   2   4
#     4  11  22  38  61  96 136 181 228 291 352 423
#     4   9  19  37  66  92 132 183 231 293 349 430
#     4  10  20  40  60  93 131 177 225 286 348 423
#     4  12  23  37  66  99 137 184 240 294 359 425
#     4  10  19  39  67  94 133 181 238 288 353 424
#     4   8  18  36  62  88 126 172 216 284 348 424
#     4  12  26  45  73 106 147 190 238 299 366 430
#
# _framework density 28.986557999999999
#
# number of rings (size 3 to 8) (size 9 to 14) (size 15 to 20)
#    0.000    1.538    4.615    0.923    0.000    0.000 
#    0.000    6.923    6.769    1.846    0.000    0.000 
#    0.000    0.000    0.000    0.000    0.000    0.000 
#
# Total GULP energy -144914.213034 kJ/mol
# GULP energy per Si atom -5573.623578 kJ/mol
# Density = 2.892058 g / cm^3
# Si number density = 28.986558 Si / 1000 Ang^3
#
#
#
# Elastic Constant Matrix: (Units=GPa)
#
#
# Indices 1 2 3 4 5 6 
#
# 1 156.2381 28.8508 89.8508 0.0000 22.7329 0.0000
# 2 28.8508 47.7754 20.4105 0.0000 3.4112 0.0000
# 3 89.8508 20.4105 211.4409 0.0000 -28.6794 0.0000
# 4 0.0000 0.0000 0.0000 33.6353 0.0000 15.0923
# 5 22.7329 3.4112 -28.6794 0.0000 120.1675 0.0000
# 6 0.0000 0.0000 0.0000 15.0923 0.0000 32.8646
#
#
#
# Elastic Compliance Matrix: (Units=1/GPa)
#
#
# Indices 1 2 3 4 5 6 
#
# 1 0.009981 -0.004021 -0.004231 0.000000 -0.002784 0.000000
# 2 -0.004021 0.023609 -0.000577 0.000000 -0.000047 0.000000
# 3 -0.004231 -0.000577 0.006918 0.000000 0.002468 0.000000
# 4 0.000000 0.000000 0.000000 0.037447 0.000000 -0.017197
# 5 -0.002784 -0.000047 0.002468 0.000000 0.009439 0.000000
# 6 0.000000 0.000000 0.000000 -0.017197 0.000000 0.038325
#
#
# Mechanical properties :
#
#
# Convention : Reuss Voigt Hill
#
# Bulk Modulus (GPa) = 43.76207 77.07538 60.41873
# Shear Modulus (GPa) = 33.11405 55.75631 44.43518
#
# Velocity S-wave (km/s) = 3.38360 4.39056 3.91955
# Velocity P-wave (km/s) = 5.51318 7.23536 6.43217
#
# Compressibility (1/GPa) = 0.02285084
#
# Stress axis : x y z
#
# Youngs Moduli (GPa) = 100.18801 42.35615 144.55595
#
# Poissons Ratio (x) = 0.17032 0.61160
# Poissons Ratio (y) = 0.40288 0.08335
# Poissons Ratio (z) = 0.42389 0.02442
#
# Static dielectric constant tensor:
#      x y z
#    x 2.352270 0.000000 -0.011850 
#    y 0.000000 2.345010 0.000000 
#    z -0.011850 0.000000 2.332950 
# 
# From -- ./inp_files/75152.got.cif
#   From: 2010.05.17/outbox.cif.g08.bks.cpg/sg14_38_cif.got.tgz:75152.got - 2010.06.03 17:49:19.
