data_PCOD9242161
_publ_section_title
;
Structure prediction by ZEFSAII (Michael W. Deem and Ramdas Pophale) SiO2 
 PCOD9242161
Probable space group: P 21/C
;
_chemical_formula_sum "Si O2"
_cell_formula_units_Z 16
_cell_length_a 19.536946
_cell_length_b 6.886018
_cell_length_c 5.282069
_cell_angle_alpha 90.000000
_cell_angle_beta 106.114728
_cell_angle_gamma 90.000000
_cell_volume 682.684801
_symmetry_space_group_name_H-M "P 21/C"
_symmetry_group_IT_number 14
_symmetry_cell_setting 'monoclinic'
loop_
_space_group_symop_operation_xyz
x,y,z
-x,1/2+y,1/2-z
-x,-y,-z
x,1/2-y,1/2+z
loop_
_atom_site_type_symbol
_atom_site_label
_atom_site_fract_x
_atom_site_fract_y
_atom_site_fract_z
Si Si1 0.569925 0.374638 0.523653
Si Si2 0.927399 0.619863 0.399818
Si Si3 0.780148 0.461055 0.392752
Si Si4 0.723509 0.480772 0.835472
O O1 0.500000 0.500000 0.500000
O O2 0.570186 0.206958 0.739005
O O3 0.643466 0.486900 0.652233
O O4 0.924578 0.776668 0.624378
O O5 0.859775 0.478442 0.371092
O O6 0.000000 0.500000 0.500000
O O7 0.774798 0.553376 0.665338
O O8 0.749789 0.243768 0.399722
O O9 0.730631 0.556668 0.127027
#
# Coordination Sequence:
#
# PCOD9242161 Si02
#       4
#     4   4   4   4
#     4  12  23  43  66 101 135 179 231 276 340 415
#     4  12  28  46  68 106 141 177 225 280 343 404
#     4  10  20  38  69  90 126 170 230 263 320 408
#     4  10  19  39  71  90 121 184 221 263 340 398
#
# _framework density 23.436879000000001
#
# number of rings (size 3 to 8) (size 9 to 14) (size 15 to 20)
#    0.000    1.000    5.000    3.000    7.000    0.000 
#    0.000    7.500    0.000    0.000    0.000    0.000 
#    0.000    0.000    0.000    0.000    0.000    0.000 
#
# Total GULP energy -89456.814892 kJ/mol
# GULP energy per Si atom -5591.050931 kJ/mol
# Density = 2.338354 g / cm^3
# Si number density = 23.436879 Si / 1000 Ang^3
#
#
#
# Elastic Constant Matrix: (Units=GPa)
#
#
# Indices 1 2 3 4 5 6 
#
# 1 120.3898 -5.0844 6.8207 0.0000 22.0312 0.0000
# 2 -5.0844 54.1865 -9.4060 0.0000 8.3827 0.0000
# 3 6.8207 -9.4060 116.3457 0.0000 -17.6397 0.0000
# 4 0.0000 0.0000 0.0000 -0.2103 0.0000 13.3799
# 5 22.0312 8.3827 -17.6397 0.0000 65.2387 0.0000
# 6 0.0000 0.0000 0.0000 13.3799 0.0000 41.8912
#
#
#
# Elastic Compliance Matrix: (Units=1/GPa)
#
#
# Indices 1 2 3 4 5 6 
#
# 1 0.009047 0.001220 -0.000958 0.000000 -0.003471 0.000000
# 2 0.001220 0.019157 0.001086 0.000000 -0.002580 0.000000
# 3 -0.000958 0.001086 0.009142 0.000000 0.002656 0.000000
# 4 0.000000 0.000000 0.000000 -0.223024 0.000000 0.071233
# 5 -0.003471 -0.002580 0.002656 0.000000 0.017550 0.000000
# 6 0.000000 0.000000 0.000000 0.071233 0.000000 0.001120
#
#
# Mechanical properties :
#
#
# Convention : Reuss Voigt Hill
#
# Bulk Modulus (GPa) = 24.97427 30.62027 27.79727
# Shear Modulus (GPa) = -31.97819 41.29003 4.65592
#
# Velocity S-wave (km/s) = -3.69784 4.20188 1.41099
# Velocity P-wave (km/s) = 2.74826 6.05264 3.81323
#
# Compressibility (1/GPa) = 0.04004121
#
# Stress axis : x y z
#
# Youngs Moduli (GPa) = 110.52980 52.20070 109.38886
#
# Poissons Ratio (x) = -0.06366 0.10480
# Poissons Ratio (y) = -0.13480 -0.11881
# Poissons Ratio (z) = 0.10589 -0.05670
#
# Static dielectric constant tensor:
#      x y z
#    x 1.856240 0.000000 -0.042340 
#    y 0.000000 2.876030 0.000000 
#    z -0.042340 0.000000 1.940330 
# 
# From -- ./inp_files/3432.got.cif
#   From: 2010.05.17/outbox.cif.g08.bks.cpg/sg14_2_cif.got.tgz:3432.got - 2010.06.03 17:49:19.
