data_PCOD9242138
_publ_section_title
;
Structure prediction by ZEFSAII (Michael W. Deem and Ramdas Pophale) SiO2 
 PCOD9242138
Probable space group: P 21/C
;
_chemical_formula_sum "Si O2"
_cell_formula_units_Z 28
_cell_length_a 9.680789
_cell_length_b 13.422294
_cell_length_c 9.596304
_cell_angle_alpha 90.000000
_cell_angle_beta 72.160667
_cell_angle_gamma 90.000000
_cell_volume 1186.975177
_symmetry_space_group_name_H-M "P 21/C"
_symmetry_group_IT_number 14
_symmetry_cell_setting 'monoclinic'
loop_
_space_group_symop_operation_xyz
x,y,z
-x,1/2+y,1/2-z
-x,-y,-z
x,1/2-y,1/2+z
loop_
_atom_site_type_symbol
_atom_site_label
_atom_site_fract_x
_atom_site_fract_y
_atom_site_fract_z
Si Si1 0.664422 0.160997 0.333207
Si Si2 0.306035 0.268702 0.794205
Si Si3 0.893282 0.498068 0.817231
Si Si4 0.282738 0.648498 0.499481
Si Si5 0.801052 0.550733 0.326152
Si Si6 0.945746 0.643742 0.550306
Si Si7 0.622015 0.629309 0.963267
O O1 0.669303 0.268166 0.405190
O O2 0.537293 0.094781 0.442022
O O3 0.815895 0.107413 0.322441
O O4 0.639997 0.159417 0.174293
O O5 0.305549 0.376223 0.722380
O O6 0.138678 0.236201 0.857779
O O7 0.380606 0.179603 0.687334
O O8 0.359920 0.280071 0.933257
O O9 0.908797 0.550008 0.660730
O O10 0.062253 0.490244 0.809057
O O11 0.769774 0.565122 0.930594
O O12 0.281548 0.540484 0.573704
O O13 0.114558 0.664076 0.508803
O O14 0.880196 0.616665 0.421117
#
# Coordination Sequence:
#
# PCOD9242138 Si02
#       7
#     4   4   4   4   4   4   4
#     4  12  23  43  60  90 130 177 218 257 316 392
#     4  11  23  41  66  94 125 165 215 268 327 382
#     4  10  21  39  65  91 122 165 211 264 331 379
#     4  11  24  38  67  94 127 170 216 271 324 378
#     4  11  20  42  68  98 127 162 217 277 333 379
#     4  10  19  39  67  93 122 162 208 266 335 382
#     4  11  25  41  62  91 129 173 215 262 314 391
#
# _framework density 23.589373999999999
#
# number of rings (size 3 to 8) (size 9 to 14) (size 15 to 20)
#    0.000    1.143    4.286    3.000    0.000    2.857 
#    0.000    5.714    0.000    0.000    0.000    0.000 
#    0.000    0.000    0.000    0.000    0.000    0.000 
#
# Total GULP energy -156397.262764 kJ/mol
# GULP energy per Si atom -5585.616527 kJ/mol
# Density = 2.353568 g / cm^3
# Si number density = 23.589374 Si / 1000 Ang^3
#
#
#
# Elastic Constant Matrix: (Units=GPa)
#
#
# Indices 1 2 3 4 5 6 
#
# 1 67.8928 19.0319 24.4781 0.0000 -17.4188 0.0000
# 2 19.0319 95.5688 38.6759 0.0000 -1.1791 0.0000
# 3 24.4781 38.6759 92.5054 0.0000 -27.0995 0.0000
# 4 0.0000 0.0000 0.0000 21.3502 0.0000 -1.0203
# 5 -17.4188 -1.1791 -27.0995 0.0000 30.7629 0.0000
# 6 0.0000 0.0000 0.0000 -1.0203 0.0000 29.7249
#
#
#
# Elastic Compliance Matrix: (Units=1/GPa)
#
#
# Indices 1 2 3 4 5 6 
#
# 1 0.018371 -0.003277 -0.000648 0.000000 0.009706 0.000000
# 2 -0.003277 0.013938 -0.007208 0.000000 -0.007670 0.000000
# 3 -0.000648 -0.007208 0.018609 0.000000 0.015750 0.000000
# 4 0.000000 0.000000 0.000000 0.046915 0.000000 0.001610
# 5 0.009706 -0.007670 0.015750 0.000000 0.051583 0.000000
# 6 0.000000 0.000000 0.000000 0.001610 0.000000 0.033697
#
#
# Mechanical properties :
#
#
# Convention : Reuss Voigt Hill
#
# Bulk Modulus (GPa) = 34.89851 46.70431 40.80141
# Shear Modulus (GPa) = 23.26348 27.95303 25.60826
#
# Velocity S-wave (km/s) = 3.14376 3.44609 3.29840
# Velocity P-wave (km/s) = 5.29188 5.97293 5.64269
#
# Compressibility (1/GPa) = 0.02865452
#
# Stress axis : x y z
#
# Youngs Moduli (GPa) = 54.43235 71.74441 53.73752
#
# Poissons Ratio (x) = 0.23507 0.03482
# Poissons Ratio (y) = 0.17835 0.38731
# Poissons Ratio (z) = 0.03527 0.51710
#
# Static dielectric constant tensor:
#      x y z
#    x 1.969240 0.000000 -0.068910 
#    y 0.000000 1.930640 0.000000 
#    z -0.068910 0.000000 1.920180 
# 
# From -- ./inp_files/13060.got.cif
#   From: 2010.05.17/outbox.cif.g08.bks.cpg/sg14_7_cif.got.tgz:13060.got - 2010.06.03 17:49:19.
