data_PCOD9242740
_publ_section_title
;
Structure prediction by ZEFSAII (Michael W. Deem and Ramdas Pophale) SiO2 
 PCOD9242740
Probable space group: P 21/C
;
_chemical_formula_sum "Si O2"
_cell_formula_units_Z 24
_cell_length_a 16.813862
_cell_length_b 7.068877
_cell_length_c 11.056098
_cell_angle_alpha 90.000000
_cell_angle_beta 128.632850
_cell_angle_gamma 90.000000
_cell_volume 1026.505433
_symmetry_space_group_name_H-M "P 21/C"
_symmetry_group_IT_number 14
_symmetry_cell_setting 'monoclinic'
loop_
_space_group_symop_operation_xyz
x,y,z
-x,1/2+y,1/2-z
-x,-y,-z
x,1/2-y,1/2+z
loop_
_atom_site_type_symbol
_atom_site_label
_atom_site_fract_x
_atom_site_fract_y
_atom_site_fract_z
Si Si1 0.398380 0.614671 0.752926
Si Si2 0.113042 0.546672 0.262263
Si Si3 0.783725 0.457576 0.135979
Si Si4 0.117171 0.495131 0.012033
Si Si5 0.436424 0.811394 0.539837
Si Si6 0.157949 0.936867 0.056668
O O1 0.426422 0.673178 0.643904
O O2 0.460331 0.426876 0.844338
O O3 0.278017 0.590324 0.647484
O O4 0.428038 0.756659 0.892327
O O5 0.178010 0.738911 0.333716
O O6 0.116075 0.458525 0.398920
O O7 0.994887 0.580545 0.121197
O O8 0.154339 0.442889 0.181720
O O9 0.811050 0.545742 0.033313
O O10 0.845692 0.525429 0.313252
O O11 0.662702 0.449494 0.040244
O O12 0.109212 0.726541 0.012063
#
# Coordination Sequence:
#
# PCOD9242740 Si02
#       6
#     4   4   4   4   4   4
#     4  10  20  35  58  85 112 147 190 231 279 339
#     4   9  16  27  48  74  97 127 170 212 257 318
#     4   9  17  31  50  73 102 135 171 217 270 320
#     4   9  16  27  48  74  97 127 170 212 257 318
#     4  10  20  35  58  85 112 147 190 231 279 339
#     4   9  17  31  50  73 102 135 171 217 270 320
#
# _framework density 23.380295
#
# number of rings (size 3 to 8) (size 9 to 14) (size 15 to 20)
#    0.000    2.667    3.333    0.000    0.000    1.333 
#    0.000    0.000    7.333    0.000    0.000    0.000 
#    0.000    0.000    0.000    0.000    0.000    0.000 
#
# Total GULP energy -133789.423732 kJ/mol
# GULP energy per Si atom -5574.559322 kJ/mol
# Density = 2.332708 g / cm^3
# Si number density = 23.380295 Si / 1000 Ang^3
#
#
#
# Elastic Constant Matrix: (Units=GPa)
#
#
# Indices 1 2 3 4 5 6 
#
# 1 77.7171 9.1543 21.1323 0.0000 0.9495 0.0000
# 2 9.1543 53.4996 -12.7042 0.0000 9.1652 0.0000
# 3 21.1323 -12.7042 93.3388 0.0000 -24.0701 0.0000
# 4 0.0000 0.0000 0.0000 -0.6305 0.0000 16.0360
# 5 0.9495 9.1652 -24.0701 0.0000 50.0389 0.0000
# 6 0.0000 0.0000 0.0000 16.0360 0.0000 5.3528
#
#
#
# Elastic Compliance Matrix: (Units=1/GPa)
#
#
# Indices 1 2 3 4 5 6 
#
# 1 0.014378 -0.003151 -0.004116 0.000000 -0.001676 0.000000
# 2 -0.003151 0.020306 0.002892 0.000000 -0.002268 0.000000
# 3 -0.004116 0.002892 0.013611 0.000000 0.006096 0.000000
# 4 0.000000 0.000000 0.000000 -0.020546 0.000000 0.061552
# 5 -0.001676 -0.002268 0.006096 0.000000 0.023364 0.000000
# 6 0.000000 0.000000 0.000000 0.061552 0.000000 0.002420
#
#
# Mechanical properties :
#
#
# Convention : Reuss Voigt Hill
#
# Bulk Modulus (GPa) = 25.28685 28.85780 27.07233
# Shear Modulus (GPa) = 66.25612 24.75045 45.50329
#
# Velocity S-wave (km/s) = 5.32916 3.25715 4.41639
# Velocity P-wave (km/s) = 6.97894 5.14927 6.13272
#
# Compressibility (1/GPa) = 0.03954625
#
# Stress axis : x y z
#
# Youngs Moduli (GPa) = 69.55065 49.24605 73.46902
#
# Poissons Ratio (x) = 0.15515 0.30241
# Poissons Ratio (y) = 0.21912 -0.21249
# Poissons Ratio (z) = 0.28628 -0.14243
#
# Static dielectric constant tensor:
#      x y z
#    x 1.927640 0.000000 -0.127700 
#    y 0.000000 1.879450 0.000000 
#    z -0.127700 0.000000 1.941590 
# 
# From -- ./inp_files/28119.got.cif
#   From: 2010.05.17/outbox.cif.g08.bks.cpg/sg14_15_cif.got.tgz:28119.got - 2010.06.03 17:49:19.
