data_PCOD9242623
_publ_section_title
;
Structure prediction by ZEFSAII (Michael W. Deem and Ramdas Pophale) SiO2 
 PCOD9242623
Probable space group: P 21/C
;
_chemical_formula_sum "Si O2"
_cell_formula_units_Z 28
_cell_length_a 7.410384
_cell_length_b 20.107986
_cell_length_c 10.718583
_cell_angle_alpha 90.000000
_cell_angle_beta 41.821334
_cell_angle_gamma 90.000000
_cell_volume 1064.997940
_symmetry_space_group_name_H-M "P 21/C"
_symmetry_group_IT_number 14
_symmetry_cell_setting 'monoclinic'
loop_
_space_group_symop_operation_xyz
x,y,z
-x,1/2+y,1/2-z
-x,-y,-z
x,1/2-y,1/2+z
loop_
_atom_site_type_symbol
_atom_site_label
_atom_site_fract_x
_atom_site_fract_y
_atom_site_fract_z
Si Si1 0.495127 0.410378 0.765739
Si Si2 0.997860 0.083103 0.688397
Si Si3 0.865966 0.228987 0.694367
Si Si4 0.550386 0.543701 0.609484
Si Si5 0.386861 0.232607 0.263677
Si Si6 0.029487 0.868269 0.834727
Si Si7 0.691436 0.871288 0.250958
O O1 0.621118 0.473111 0.631935
O O2 0.485221 0.342453 0.689739
O O3 0.672764 0.396826 0.799665
O O4 0.192828 0.426214 0.969064
O O5 0.192745 0.079360 0.706503
O O6 0.891459 0.159440 0.749417
O O7 0.729075 0.040065 0.819525
O O8 0.575431 0.242907 0.782764
O O9 0.955020 0.294262 0.726950
O O10 0.084966 0.223388 0.470591
O O11 0.514630 0.408977 0.235135
O O12 0.793280 0.582627 0.414390
O O13 0.398421 0.296445 0.166039
O O14 0.937178 0.859410 0.027012
#
# Coordination Sequence:
#
# PCOD9242623 Si02
#       7
#     4   4   4   4   4   4   4
#     4  10  20  34  62  86 114 154 189 234 285 342
#     4  11  20  34  62  85 111 146 198 232 286 336
#     4   9  15  32  55  77 104 144 185 228 273 333
#     4  10  20  38  62  78 120 158 181 227 298 342
#     4   9  17  34  55  79 110 144 186 230 278 327
#     4   8  18  37  58  77 114 152 188 227 285 334
#     4   9  20  36  60  81 111 150 190 233 285 333
#
# _framework density 26.291131
#
# number of rings (size 3 to 8) (size 9 to 14) (size 15 to 20)
#    0.857    1.714    1.429    0.857    0.000    0.571 
#    0.000   17.857    9.429    0.000    0.000    0.000 
#    0.000    0.000    0.000    0.000    0.000    0.000 
#
# Total GULP energy -156319.363704 kJ/mol
# GULP energy per Si atom -5582.834418 kJ/mol
# Density = 2.623129 g / cm^3
# Si number density = 26.291131 Si / 1000 Ang^3
#
#
#
# Elastic Constant Matrix: (Units=GPa)
#
#
# Indices 1 2 3 4 5 6 
#
# 1 77.7981 17.1200 7.3045 0.0000 -11.6069 0.0000
# 2 17.1200 128.1770 -14.1168 0.0000 0.1978 0.0000
# 3 7.3045 -14.1168 70.2611 0.0000 -17.5755 0.0000
# 4 0.0000 0.0000 0.0000 15.6326 0.0000 -4.8177
# 5 -11.6069 0.1978 -17.5755 0.0000 27.3718 0.0000
# 6 0.0000 0.0000 0.0000 -4.8177 0.0000 40.3551
#
#
#
# Elastic Compliance Matrix: (Units=1/GPa)
#
#
# Indices 1 2 3 4 5 6 
#
# 1 0.014181 -0.001950 -0.000427 0.000000 0.005754 0.000000
# 2 -0.001950 0.008277 0.001959 0.000000 0.000371 0.000000
# 3 -0.000427 0.001959 0.017420 0.000000 0.010990 0.000000
# 4 0.000000 0.000000 0.000000 0.066412 0.000000 0.007928
# 5 0.005754 0.000371 0.010990 0.000000 0.046028 0.000000
# 6 0.000000 0.000000 0.000000 0.007928 0.000000 0.025726
#
#
# Mechanical properties :
#
#
# Convention : Reuss Voigt Hill
#
# Bulk Modulus (GPa) = 25.61373 32.98350 29.29861
# Shear Modulus (GPa) = 26.05589 34.40049 30.22819
#
# Velocity S-wave (km/s) = 3.15151 3.62117 3.39447
# Velocity P-wave (km/s) = 4.79648 5.48238 5.15086
#
# Compressibility (1/GPa) = 0.03904156
#
# Stress axis : x y z
#
# Youngs Moduli (GPa) = 70.51504 120.81226 57.40655
#
# Poissons Ratio (x) = 0.23559 0.02451
# Poissons Ratio (y) = 0.13751 -0.11244
# Poissons Ratio (z) = 0.03010 -0.23662
#
# Static dielectric constant tensor:
#      x y z
#    x 2.095040 0.000000 0.024430 
#    y 0.000000 2.092400 0.000000 
#    z 0.024430 0.000000 2.026690 
# 
# From -- ./inp_files/41917.got.cif
#   From: 2010.05.17/outbox.cif.g08.bks.cpg/sg14_21_cif.got.tgz:41917.got - 2010.06.03 17:49:19.
