data_PCOD9242599
_publ_section_title
;
Structure prediction by ZEFSAII (Michael W. Deem and Ramdas Pophale) SiO2 
 PCOD9242599
Probable space group: P 21/C
;
_chemical_formula_sum "Si O2"
_cell_formula_units_Z 32
_cell_length_a 14.988417
_cell_length_b 9.563304
_cell_length_c 23.484567
_cell_angle_alpha 90.000000
_cell_angle_beta 153.771068
_cell_angle_gamma 90.000000
_cell_volume 1487.743787
_symmetry_space_group_name_H-M "P 21/C"
_symmetry_group_IT_number 14
_symmetry_cell_setting 'monoclinic'
loop_
_space_group_symop_operation_xyz
x,y,z
-x,1/2+y,1/2-z
-x,-y,-z
x,1/2-y,1/2+z
loop_
_atom_site_type_symbol
_atom_site_label
_atom_site_fract_x
_atom_site_fract_y
_atom_site_fract_z
Si Si1 0.302117 0.231822 0.157170
Si Si2 0.061627 0.376386 0.673628
Si Si3 0.749148 0.998976 0.080501
Si Si4 0.131276 0.785282 0.045514
Si Si5 0.285920 0.409903 0.313787
Si Si6 0.268909 0.971154 0.689596
Si Si7 0.374280 0.236186 0.069252
Si Si8 0.374084 0.985213 0.267694
O O1 0.343909 0.387648 0.202649
O O2 0.272291 0.231602 0.072751
O O3 0.445401 0.122123 0.272597
O O4 0.090329 0.177907 0.059344
O O5 0.209731 0.248470 0.772860
O O6 0.204873 0.481789 0.719060
O O7 0.938871 0.433396 0.657096
O O8 0.885357 0.321183 0.529943
O O9 0.769802 0.987268 0.159980
O O10 0.530182 0.075594 0.945705
O O11 0.732542 0.843436 0.043229
O O12 0.153514 0.625129 0.078472
O O13 0.285569 0.882035 0.168122
O O14 0.175475 0.476136 0.195489
O O15 0.437387 0.865526 0.809169
O O16 0.450050 0.393283 0.102836
#
# Coordination Sequence:
#
# PCOD9242599 Si02
#       8
#     4   4   4   4   4   4   4   4
#     4  11  18  32  55  85 128 156 199 258 317 375
#     4  11  21  42  68  92 128 168 219 266 327 375
#     4  10  23  45  66  86 130 174 213 270 322 375
#     4  10  20  34  58  92 127 160 202 261 323 387
#     4  10  22  44  65  90 124 169 221 263 318 385
#     4  10  20  36  59  86 125 163 201 258 318 379
#     4  10  21  36  56  90 122 172 208 252 320 383
#     4  10  20  35  58  92 128 163 206 264 316 384
#
# _framework density 21.509079
#
# number of rings (size 3 to 8) (size 9 to 14) (size 15 to 20)
#    0.000    1.750    2.500    4.125    0.000    3.000 
#   13.500    0.625    0.000    0.000    0.000    0.000 
#    0.000    0.000    0.000    0.000    0.000    0.000 
#
# Total GULP energy -178400.366179 kJ/mol
# GULP energy per Si atom -5575.011443 kJ/mol
# Density = 2.146012 g / cm^3
# Si number density = 21.509079 Si / 1000 Ang^3
#
#
#
# Elastic Constant Matrix: (Units=GPa)
#
#
# Indices 1 2 3 4 5 6 
#
# 1 128.0054 26.6053 20.0199 0.0000 -0.8904 0.0000
# 2 26.6053 115.9299 15.0309 0.0000 -7.7786 0.0000
# 3 20.0199 15.0309 31.5543 0.0000 -8.6811 0.0000
# 4 0.0000 0.0000 0.0000 23.9504 0.0000 7.0164
# 5 -0.8904 -7.7786 -8.6811 0.0000 13.1499 0.0000
# 6 0.0000 0.0000 0.0000 7.0164 0.0000 20.4540
#
#
#
# Elastic Compliance Matrix: (Units=1/GPa)
#
#
# Indices 1 2 3 4 5 6 
#
# 1 0.009083 -0.001574 -0.006232 0.000000 -0.004430 0.000000
# 2 -0.001574 0.009572 -0.002484 0.000000 0.003916 0.000000
# 3 -0.006232 -0.002484 0.044366 0.000000 0.027398 0.000000
# 4 0.000000 0.000000 0.000000 0.046418 0.000000 -0.015923
# 5 -0.004430 0.003916 0.027398 0.000000 0.096150 0.000000
# 6 0.000000 0.000000 0.000000 -0.015923 0.000000 0.054352
#
#
# Mechanical properties :
#
#
# Convention : Reuss Voigt Hill
#
# Bulk Modulus (GPa) = 23.56152 44.31130 33.93641
# Shear Modulus (GPa) = 16.96828 25.76640 21.36734
#
# Velocity S-wave (km/s) = 2.81176 3.46487 3.15526
# Velocity P-wave (km/s) = 4.63890 6.05417 5.39316
#
# Compressibility (1/GPa) = 0.04244207
#
# Stress axis : x y z
#
# Youngs Moduli (GPa) = 110.09420 104.47306 22.53971
#
# Poissons Ratio (x) = 0.16442 0.14047
# Poissons Ratio (y) = 0.17326 0.05598
# Poissons Ratio (z) = 0.68611 0.25949
#
# Static dielectric constant tensor:
#      x y z
#    x 1.800510 0.000000 0.004650 
#    y 0.000000 2.141320 0.000000 
#    z 0.004650 0.000000 1.875930 
# 
# From -- ./inp_files/73859.got.cif
#   From: 2010.05.17/outbox.cif.g08.bks.cpg/sg14_37_cif.got.tgz:73859.got - 2010.06.03 17:49:19.
