data_PCOD9242014
_publ_section_title
;
Structure prediction by ZEFSAII (Michael W. Deem and Ramdas Pophale) SiO2 
 PCOD9242014
Probable space group: P 21/C
;
_chemical_formula_sum "Si O2"
_cell_formula_units_Z 32
_cell_length_a 7.148649
_cell_length_b 16.000767
_cell_length_c 13.674788
_cell_angle_alpha 90.000000
_cell_angle_beta 61.866698
_cell_angle_gamma 90.000000
_cell_volume 1379.372456
_symmetry_space_group_name_H-M "P 21/C"
_symmetry_group_IT_number 14
_symmetry_cell_setting 'monoclinic'
loop_
_space_group_symop_operation_xyz
x,y,z
-x,1/2+y,1/2-z
-x,-y,-z
x,1/2-y,1/2+z
loop_
_atom_site_type_symbol
_atom_site_label
_atom_site_fract_x
_atom_site_fract_y
_atom_site_fract_z
Si Si1 0.415093 0.465140 0.132223
Si Si2 0.518117 0.080119 0.214488
Si Si3 0.062828 0.377735 0.345932
Si Si4 0.074294 0.950282 0.598958
Si Si5 0.721682 0.058864 0.800069
Si Si6 0.957767 0.170779 0.077607
Si Si7 0.234330 0.850441 0.401851
Si Si8 0.129691 0.193359 0.245978
O O1 0.525693 0.538799 0.168068
O O2 0.228176 0.438742 0.254028
O O3 0.289711 0.499474 0.069529
O O4 0.557366 0.381338 0.091029
O O5 0.475819 0.003396 0.149406
O O6 0.753827 0.115274 0.153902
O O7 0.349843 0.152995 0.229796
O O8 0.079833 0.370043 0.457245
O O9 0.828574 0.409036 0.371796
O O10 0.102736 0.185517 0.136324
O O11 0.065713 0.917047 0.489552
O O12 0.892934 0.001244 0.699692
O O13 0.059635 0.862054 0.660608
O O14 0.702320 0.133859 0.726695
O O15 0.861121 0.259441 0.065700
O O16 0.103117 0.212459 0.787740
#
# Coordination Sequence:
#
# PCOD9242014 Si02
#       8
#     4   4   4   4   4   4   4   4
#     4  10  22  41  64  97 131 169 213 273 312 380
#     4  10  23  43  63  91 129 170 213 263 316 377
#     4  11  23  43  66  92 132 170 211 267 327 378
#     4  10  19  38  65  92 126 169 208 262 321 369
#     4   9  21  39  63  90 129 166 208 272 309 374
#     4  12  24  41  66  94 129 176 211 261 325 391
#     4  11  20  37  64  95 128 166 215 260 320 377
#     4  11  22  44  63  94 132 165 212 269 321 380
#
# _framework density 23.198955999999999
#
# number of rings (size 3 to 8) (size 9 to 14) (size 15 to 20)
#    0.000    1.500    3.750    1.500    0.000    1.000 
#    4.500    2.500    0.000    0.000    0.000    0.000 
#    0.000    0.000    0.000    0.000    0.000    0.000 
#
# Total GULP energy -178641.129166 kJ/mol
# GULP energy per Si atom -5582.535286 kJ/mol
# Density = 2.314615 g / cm^3
# Si number density = 23.198956 Si / 1000 Ang^3
#
#
#
# Elastic Constant Matrix: (Units=GPa)
#
#
# Indices 1 2 3 4 5 6 
#
# 1 77.0134 15.9109 9.1927 0.0000 15.0915 0.0000
# 2 15.9109 82.2471 10.2054 0.0000 7.6336 0.0000
# 3 9.1927 10.2054 68.9253 0.0000 26.0557 0.0000
# 4 0.0000 0.0000 0.0000 29.0627 0.0000 -1.3286
# 5 15.0915 7.6336 26.0557 0.0000 28.6217 0.0000
# 6 0.0000 0.0000 0.0000 -1.3286 0.0000 30.4659
#
#
#
# Elastic Compliance Matrix: (Units=1/GPa)
#
#
# Indices 1 2 3 4 5 6 
#
# 1 0.014985 -0.002288 0.001672 0.000000 -0.008813 0.000000
# 2 -0.002288 0.012853 -0.001156 0.000000 -0.001169 0.000000
# 3 0.001672 -0.001156 0.022373 0.000000 -0.020940 0.000000
# 4 0.000000 0.000000 0.000000 0.034477 0.000000 0.001504
# 5 -0.008813 -0.001169 -0.020940 0.000000 0.058960 0.000000
# 6 0.000000 0.000000 0.000000 0.001504 0.000000 0.032889
#
#
# Mechanical properties :
#
#
# Convention : Reuss Voigt Hill
#
# Bulk Modulus (GPa) = 21.42912 33.20041 27.31477
# Shear Modulus (GPa) = 25.55754 30.48852 28.02303
#
# Velocity S-wave (km/s) = 3.32274 3.62915 3.47932
# Velocity P-wave (km/s) = 4.89673 5.64829 5.28588
#
# Compressibility (1/GPa) = 0.04666547
#
# Stress axis : x y z
#
# Youngs Moduli (GPa) = 66.73370 77.80217 44.69754
#
# Poissons Ratio (x) = 0.17804 -0.07472
# Poissons Ratio (y) = 0.15271 0.05167
# Poissons Ratio (z) = -0.11156 0.08994
#
# Static dielectric constant tensor:
#      x y z
#    x 1.965610 0.000000 -0.042100 
#    y 0.000000 1.872050 0.000000 
#    z -0.042100 0.000000 1.933000 
# 
# From -- ./inp_files/65695.got.cif
#   From: 2010.05.17/outbox.cif.g08.bks.cpg/sg14_33_cif.got.tgz:65695.got - 2010.06.03 17:49:19.
