data_PCOD9242621
_publ_section_title
;
Structure prediction by ZEFSAII (Michael W. Deem and Ramdas Pophale) SiO2 
 PCOD9242621
Probable space group: P 21/C
;
_chemical_formula_sum "Si O2"
_cell_formula_units_Z 32
_cell_length_a 16.108984
_cell_length_b 17.563991
_cell_length_c 4.989272
_cell_angle_alpha 90.000000
_cell_angle_beta 64.212212
_cell_angle_gamma 90.000000
_cell_volume 1271.070320
_symmetry_space_group_name_H-M "P 21/C"
_symmetry_group_IT_number 14
_symmetry_cell_setting 'monoclinic'
loop_
_space_group_symop_operation_xyz
x,y,z
-x,1/2+y,1/2-z
-x,-y,-z
x,1/2-y,1/2+z
loop_
_atom_site_type_symbol
_atom_site_label
_atom_site_fract_x
_atom_site_fract_y
_atom_site_fract_z
Si Si1 0.854936 0.205900 0.051660
Si Si2 0.921285 0.705493 0.731589
Si Si3 0.710119 0.471934 0.071095
Si Si4 0.331452 0.436100 0.354981
Si Si5 0.515960 0.075781 0.794625
Si Si6 0.946016 0.940006 0.887346
Si Si7 0.128482 0.928904 0.349002
Si Si8 0.624272 0.800366 0.875757
O O1 0.832282 0.370141 0.420666
O O2 0.966745 0.205897 0.914925
O O3 0.823562 0.227364 0.392022
O O4 0.888677 0.730036 0.068615
O O5 0.689455 0.638180 0.436254
O O6 0.686897 0.496845 0.407402
O O7 0.624527 0.421197 0.090819
O O8 0.711412 0.542888 0.866769
O O9 0.809641 0.437001 0.975715
O O10 0.442689 0.432589 0.154965
O O11 0.100346 0.376158 0.365579
O O12 0.473304 0.153276 0.979349
O O13 0.500000 0.000000 0.000000
O O14 0.884108 0.989321 0.775047
O O15 0.026582 0.903834 0.588727
O O16 0.000000 0.000000 0.000000
O O17 0.633643 0.727688 0.059243
#
# Coordination Sequence:
#
# PCOD9242621 Si02
#       8
#     4   4   4   4   4   4   4   4
#     4  10  20  36  57  84 118 155 198 238 301 380
#     4  10  20  36  62  85 108 151 199 247 308 375
#     4  11  21  39  59  92 119 164 206 254 300 362
#     4   9  21  35  63  86 122 154 207 245 297 362
#     4   8  19  37  63  90 121 157 207 245 290 368
#     4  11  23  40  60  89 122 154 216 264 310 363
#     4  11  25  37  61  92 123 164 205 267 308 357
#     4  10  20  34  61  93 125 162 207 247 305 357
#
# _framework density 25.175633999999999
#
# number of rings (size 3 to 8) (size 9 to 14) (size 15 to 20)
#    0.750    1.250    1.250    3.375    3.500    1.000 
#    0.000    1.250    0.000    4.500    0.000    0.000 
#    0.000    0.000    0.000    0.000    0.000    0.000 
#
# Total GULP energy -178739.241873 kJ/mol
# GULP energy per Si atom -5585.601309 kJ/mol
# Density = 2.511833 g / cm^3
# Si number density = 25.175634 Si / 1000 Ang^3
#
#
#
# Elastic Constant Matrix: (Units=GPa)
#
#
# Indices 1 2 3 4 5 6 
#
# 1 124.4126 41.2559 33.8424 0.0000 22.7112 0.0000
# 2 41.2559 102.3744 7.6707 0.0000 19.1598 0.0000
# 3 33.8424 7.6707 79.4264 0.0000 34.5636 0.0000
# 4 0.0000 0.0000 0.0000 40.9679 0.0000 21.9496
# 5 22.7112 19.1598 34.5636 0.0000 34.1021 0.0000
# 6 0.0000 0.0000 0.0000 21.9496 0.0000 34.8413
#
#
#
# Elastic Compliance Matrix: (Units=1/GPa)
#
#
# Indices 1 2 3 4 5 6 
#
# 1 0.010467 -0.003709 -0.003534 0.000000 -0.001306 0.000000
# 2 -0.003709 0.012614 0.004242 0.000000 -0.008916 0.000000
# 3 -0.003534 0.004242 0.024509 0.000000 -0.024871 0.000000
# 4 0.000000 0.000000 0.000000 0.036846 0.000000 -0.023213
# 5 -0.001306 -0.008916 -0.024871 0.000000 0.060410 0.000000
# 6 0.000000 0.000000 0.000000 -0.023213 0.000000 0.043325
#
#
# Mechanical properties :
#
#
# Convention : Reuss Voigt Hill
#
# Bulk Modulus (GPa) = 24.04460 52.41682 38.23071
# Shear Modulus (GPa) = 24.03434 36.87854 30.45644
#
# Velocity S-wave (km/s) = 3.09312 3.83149 3.48193
# Velocity P-wave (km/s) = 4.72525 6.35920 5.60212
#
# Compressibility (1/GPa) = 0.04158938
#
# Stress axis : x y z
#
# Youngs Moduli (GPa) = 95.53608 79.27921 40.80108
#
# Poissons Ratio (x) = 0.29405 0.14417
# Poissons Ratio (y) = 0.35435 -0.17309
# Poissons Ratio (z) = 0.33758 -0.33632
#
# Static dielectric constant tensor:
#      x y z
#    x 2.032240 0.000000 -0.067780 
#    y 0.000000 2.063960 0.000000 
#    z -0.067780 0.000000 2.027340 
# 
# From -- ./inp_files/3788.got.cif
#   From: 2010.05.17/outbox.cif.g08.bks.cpg/sg14_2_cif.got.tgz:3788.got - 2010.06.03 17:49:19.
