data_PCOD9242750
_publ_section_title
;
Structure prediction by ZEFSAII (Michael W. Deem and Ramdas Pophale) SiO2 
 PCOD9242750
Probable space group: P 21/C
;
_chemical_formula_sum "Si O2"
_cell_formula_units_Z 28
_cell_length_a 11.880826
_cell_length_b 6.799006
_cell_length_c 16.180086
_cell_angle_alpha 90.000000
_cell_angle_beta 110.332880
_cell_angle_gamma 90.000000
_cell_volume 1225.552795
_symmetry_space_group_name_H-M "P 21/C"
_symmetry_group_IT_number 14
_symmetry_cell_setting 'monoclinic'
loop_
_space_group_symop_operation_xyz
x,y,z
-x,1/2+y,1/2-z
-x,-y,-z
x,1/2-y,1/2+z
loop_
_atom_site_type_symbol
_atom_site_label
_atom_site_fract_x
_atom_site_fract_y
_atom_site_fract_z
Si Si1 0.848235 0.620705 0.199802
Si Si2 0.610383 0.508372 0.217783
Si Si3 0.630308 0.683066 0.862306
Si Si4 0.145871 0.294799 0.978754
Si Si5 0.227151 0.640164 0.202239
Si Si6 0.098408 0.669041 0.333280
Si Si7 0.091331 0.745907 0.506727
O O1 0.710375 0.630665 0.192913
O O2 0.866480 0.393588 0.178650
O O3 0.954190 0.655789 0.291939
O O4 0.873833 0.741486 0.123067
O O5 0.483603 0.453072 0.144474
O O6 0.591683 0.628889 0.298033
O O7 0.672164 0.298119 0.248919
O O8 0.717777 0.740488 0.959250
O O9 0.713920 0.546305 0.826166
O O10 0.113964 0.526493 0.985579
O O11 0.048422 0.198748 0.014223
O O12 0.154751 0.570973 0.265209
O O13 0.149291 0.754534 0.112598
O O14 0.139416 0.631905 0.438230
#
# Coordination Sequence:
#
# PCOD9242750 Si02
#       7
#     4   4   4   4   4   4   4
#     4  10  21  36  57  91 122 154 201 247 307 360
#     4  11  23  39  61  88 115 165 210 240 302 359
#     4  11  22  40  63  82 118 164 209 246 299 354
#     4   9  18  34  60  86 118 159 197 247 304 359
#     4  10  21  40  62  88 125 155 198 261 296 358
#     4  10  20  35  58  89 124 154 196 247 306 367
#     4   9  17  34  60  89 120 156 195 243 316 360
#
# _framework density 22.846831000000002
#
# number of rings (size 3 to 8) (size 9 to 14) (size 15 to 20)
#    0.000    2.000    2.857    0.857    4.000    0.571 
#    2.571    2.143    0.000    1.714    0.000    0.000 
#    0.000    0.000    0.000    0.000    0.000    0.000 
#
# Total GULP energy -156290.669702 kJ/mol
# GULP energy per Si atom -5581.809632 kJ/mol
# Density = 2.279483 g / cm^3
# Si number density = 22.846831 Si / 1000 Ang^3
#
#
#
# Elastic Constant Matrix: (Units=GPa)
#
#
# Indices 1 2 3 4 5 6 
#
# 1 126.3299 -0.9398 57.6535 0.0000 9.2996 0.0000
# 2 -0.9398 40.8034 -3.7110 0.0000 -5.5851 0.0000
# 3 57.6535 -3.7110 125.2492 0.0000 -2.2735 0.0000
# 4 0.0000 0.0000 0.0000 22.8330 0.0000 -3.6702
# 5 9.2996 -5.5851 -2.2735 0.0000 35.2698 0.0000
# 6 0.0000 0.0000 0.0000 -3.6702 0.0000 40.7356
#
#
#
# Elastic Compliance Matrix: (Units=1/GPa)
#
#
# Indices 1 2 3 4 5 6 
#
# 1 0.010351 -0.000632 -0.004841 0.000000 -0.003141 0.000000
# 2 -0.000632 0.025173 0.001113 0.000000 0.004225 0.000000
# 3 -0.004841 0.001113 0.010284 0.000000 0.002116 0.000000
# 4 0.000000 0.000000 0.000000 0.044440 0.000000 0.004004
# 5 -0.003141 0.004225 0.002116 0.000000 0.029987 0.000000
# 6 0.000000 0.000000 0.000000 0.004004 0.000000 0.024909
#
#
# Mechanical properties :
#
#
# Convention : Reuss Voigt Hill
#
# Bulk Modulus (GPa) = 26.96169 44.26533 35.61351
# Shear Modulus (GPa) = 30.07973 35.72633 32.90303
#
# Velocity S-wave (km/s) = 3.63241 3.95870 3.79906
# Velocity P-wave (km/s) = 5.42395 6.34917 5.90471
#
# Compressibility (1/GPa) = 0.03708966
#
# Stress axis : x y z
#
# Youngs Moduli (GPa) = 96.60472 39.72552 97.24167
#
# Poissons Ratio (x) = 0.02510 0.47071
# Poissons Ratio (y) = 0.06104 -0.10826
# Poissons Ratio (z) = 0.46763 -0.04423
#
# Static dielectric constant tensor:
#      x y z
#    x 1.847770 0.000000 -0.023970 
#    y 0.000000 1.957680 0.000000 
#    z -0.023970 0.000000 1.873530 
# 
# From -- ./inp_files/43474.got.cif
#   From: 2010.05.17/outbox.cif.g08.bks.cpg/sg14_22_cif.got.tgz:43474.got - 2010.06.03 17:49:19.
