data_PCOD9242914
_publ_section_title
;
Structure prediction by ZEFSAII (Michael W. Deem and Ramdas Pophale) SiO2 
 PCOD9242914
Probable space group: P 21/C
;
_chemical_formula_sum "Si O2"
_cell_formula_units_Z 32
_cell_length_a 19.428303
_cell_length_b 8.387921
_cell_length_c 13.948705
_cell_angle_alpha 90.000000
_cell_angle_beta 140.061431
_cell_angle_gamma 90.000000
_cell_volume 1459.267984
_symmetry_space_group_name_H-M "P 21/C"
_symmetry_group_IT_number 14
_symmetry_cell_setting 'monoclinic'
loop_
_space_group_symop_operation_xyz
x,y,z
-x,1/2+y,1/2-z
-x,-y,-z
x,1/2-y,1/2+z
loop_
_atom_site_type_symbol
_atom_site_label
_atom_site_fract_x
_atom_site_fract_y
_atom_site_fract_z
Si Si1 0.417965 0.963342 0.145501
Si Si2 0.399001 0.405739 0.014825
Si Si3 0.890651 0.268323 0.237940
Si Si4 0.181390 0.461355 0.458115
Si Si5 0.322802 0.742305 0.876148
Si Si6 0.826415 0.864484 0.652462
Si Si7 0.522053 0.356756 0.594228
Si Si8 0.915227 0.874507 0.951849
O O1 0.488126 0.911770 0.309971
O O2 0.496204 0.083573 0.172733
O O3 0.383420 0.834068 0.028341
O O4 0.306234 0.032177 0.063737
O O5 0.425804 0.266864 0.969430
O O6 0.366326 0.564612 0.927459
O O7 0.302676 0.377273 0.986510
O O8 0.800621 0.251760 0.225240
O O9 0.873783 0.455128 0.183327
O O10 0.007121 0.252339 0.410181
O O11 0.869357 0.123601 0.141214
O O12 0.138763 0.291562 0.369819
O O13 0.159031 0.453917 0.547155
O O14 0.359517 0.804719 0.811745
O O15 0.851621 0.821277 0.790502
O O16 0.500000 0.500000 0.500000
O O17 0.000000 0.000000 0.000000
#
# Coordination Sequence:
#
# PCOD9242914 Si02
#       8
#     4   4   4   4   4   4   4   4
#     4  10  21  38  59  94 127 171 218 267 332 400
#     4  11  20  37  60  86 129 169 212 266 324 397
#     4   9  22  43  67  97 133 175 226 284 340 404
#     4  11  23  44  72  95 142 182 223 288 348 402
#     4   9  20  35  59  88 124 165 211 266 329 383
#     4  10  23  45  66 101 135 173 233 279 337 421
#     4  10  20  36  57  87 125 162 211 265 317 401
#     4  10  24  44  70 101 135 173 233 291 339 403
#
# _framework density 21.928802999999998
#
# number of rings (size 3 to 8) (size 9 to 14) (size 15 to 20)
#    0.000    2.000    1.250    1.125    3.500    4.500 
#    2.250    2.500    0.000    0.000    0.000    0.000 
#    0.000    0.000    0.000    0.000    0.000    0.000 
#
# Total GULP energy -178366.248867 kJ/mol
# GULP energy per Si atom -5573.945277 kJ/mol
# Density = 2.187889 g / cm^3
# Si number density = 21.928803 Si / 1000 Ang^3
#
#
#
# Elastic Constant Matrix: (Units=GPa)
#
#
# Indices 1 2 3 4 5 6 
#
# 1 103.2348 37.3600 8.4154 0.0000 -20.3630 0.0000
# 2 37.3600 107.1534 12.6486 0.0000 -6.7650 0.0000
# 3 8.4154 12.6486 65.6043 0.0000 0.1369 0.0000
# 4 0.0000 0.0000 0.0000 13.9925 0.0000 0.0763
# 5 -20.3630 -6.7650 0.1369 0.0000 17.5169 0.0000
# 6 0.0000 0.0000 0.0000 0.0763 0.0000 30.5036
#
#
#
# Elastic Compliance Matrix: (Units=1/GPa)
#
#
# Indices 1 2 3 4 5 6 
#
# 1 0.014114 -0.003849 -0.001100 0.000000 0.014929 0.000000
# 2 -0.003849 0.010846 -0.001597 0.000000 -0.000273 0.000000
# 3 -0.001100 -0.001597 0.015696 0.000000 -0.002018 0.000000
# 4 0.000000 0.000000 0.000000 0.071468 0.000000 -0.000179
# 5 0.014929 -0.000273 -0.002018 0.000000 0.074353 0.000000
# 6 0.000000 0.000000 0.000000 -0.000179 0.000000 0.032784
#
#
# Mechanical properties :
#
#
# Convention : Reuss Voigt Hill
#
# Bulk Modulus (GPa) = 36.27728 43.64895 39.96311
# Shear Modulus (GPa) = 20.70062 26.90715 23.80389
#
# Velocity S-wave (km/s) = 3.07578 3.50669 3.29828
# Velocity P-wave (km/s) = 5.40306 6.02859 5.72437
#
# Compressibility (1/GPa) = 0.02756547
#
# Stress axis : x y z
#
# Youngs Moduli (GPa) = 70.85231 92.20404 63.71044
#
# Poissons Ratio (x) = 0.35486 0.07006
# Poissons Ratio (y) = 0.27268 0.10173
# Poissons Ratio (z) = 0.07791 0.14723
#
# Static dielectric constant tensor:
#      x y z
#    x 1.856470 0.000000 -0.005580 
#    y 0.000000 2.021960 0.000000 
#    z -0.005580 0.000000 1.837090 
# 
# From -- ./inp_files/50106.got.cif
#   From: 2010.05.17/outbox.cif.g08.bks.cpg/sg14_26_cif.got.tgz:50106.got - 2010.06.03 17:49:19.
