data_PCOD9242272
_publ_section_title
;
Structure prediction by ZEFSAII (Michael W. Deem and Ramdas Pophale) SiO2 
 PCOD9242272
Probable space group: P 21/C
;
_chemical_formula_sum "Si O2"
_cell_formula_units_Z 24
_cell_length_a 8.513058
_cell_length_b 10.859165
_cell_length_c 11.239835
_cell_angle_alpha 90.000000
_cell_angle_beta 111.067026
_cell_angle_gamma 90.000000
_cell_volume 969.612790
_symmetry_space_group_name_H-M "P 21/C"
_symmetry_group_IT_number 14
_symmetry_cell_setting 'monoclinic'
loop_
_space_group_symop_operation_xyz
x,y,z
-x,1/2+y,1/2-z
-x,-y,-z
x,1/2-y,1/2+z
loop_
_atom_site_type_symbol
_atom_site_label
_atom_site_fract_x
_atom_site_fract_y
_atom_site_fract_z
Si Si1 0.424922 0.931836 0.205988
Si Si2 0.143419 0.957906 0.941679
Si Si3 0.176530 0.434797 0.201392
Si Si4 0.682367 0.530859 0.103170
Si Si5 0.191828 0.783455 0.289843
Si Si6 0.964917 0.665940 0.051716
O O1 0.623032 0.936003 0.253208
O O2 0.355555 0.044184 0.268506
O O3 0.367840 0.809021 0.265337
O O4 0.320937 0.946612 0.058081
O O5 0.150593 0.829766 0.865479
O O6 0.141141 0.052415 0.830644
O O7 0.000000 0.000000 0.000000
O O8 0.097170 0.553868 0.112747
O O9 0.099778 0.325249 0.100794
O O10 0.799701 0.408712 0.130938
O O11 0.792228 0.636087 0.075270
O O12 0.500000 0.500000 0.000000
O O13 0.067497 0.772171 0.143796
#
# Coordination Sequence:
#
# PCOD9242272 Si02
#       6
#     4   4   4   4   4   4
#     4  10  21  42  67 104 146 191 261 317 385 461
#     4  11  23  44  71 106 160 206 250 325 407 470
#     4  10  21  37  73 100 140 206 246 311 395 462
#     4  10  20  42  74 108 150 201 263 327 402 477
#     4   9  23  39  72 108 148 203 258 323 386 481
#     4  10  19  41  69 105 152 195 257 316 398 470
#
# _framework density 24.752147000000001
#
# number of rings (size 3 to 8) (size 9 to 14) (size 15 to 20)
#    1.000    1.000    1.667    2.500    0.000    4.000 
#    0.000    3.333   25.667    0.000    0.000    0.000 
#    0.000    0.000    0.000    0.000    0.000    0.000 
#
# Total GULP energy -133692.751235 kJ/mol
# GULP energy per Si atom -5570.531301 kJ/mol
# Density = 2.469581 g / cm^3
# Si number density = 24.752147 Si / 1000 Ang^3
#
#
#
# Elastic Constant Matrix: (Units=GPa)
#
#
# Indices 1 2 3 4 5 6 
#
# 1 205.2224 47.2789 85.6854 0.0000 4.6184 0.0000
# 2 47.2789 56.1215 24.0083 0.0000 -1.8346 0.0000
# 3 85.6854 24.0083 199.9949 0.0000 0.3069 0.0000
# 4 0.0000 0.0000 0.0000 12.8222 0.0000 12.3813
# 5 4.6184 -1.8346 0.3069 0.0000 50.7989 0.0000
# 6 0.0000 0.0000 0.0000 12.3813 0.0000 9.9319
#
#
#
# Elastic Compliance Matrix: (Units=1/GPa)
#
#
# Indices 1 2 3 4 5 6 
#
# 1 0.007035 -0.004916 -0.002423 0.000000 -0.000802 0.000000
# 2 -0.004916 0.022243 -0.000566 0.000000 0.001254 0.000000
# 3 -0.002423 -0.000566 0.006106 0.000000 0.000163 0.000000
# 4 0.000000 0.000000 0.000000 -0.382788 0.000000 0.477187
# 5 -0.000802 0.001254 0.000163 0.000000 0.019803 0.000000
# 6 0.000000 0.000000 0.000000 0.477187 0.000000 -0.494182
#
#
# Mechanical properties :
#
#
# Convention : Reuss Voigt Hill
#
# Bulk Modulus (GPa) = 51.08705 86.14268 68.61487
# Shear Modulus (GPa) = -6.25431 35.00168 14.37368
#
# Velocity S-wave (km/s) = -1.59131 3.76451 2.41240
# Velocity P-wave (km/s) = 4.16028 7.33301 5.96158
#
# Compressibility (1/GPa) = 0.01957443
#
# Stress axis : x y z
#
# Youngs Moduli (GPa) = 142.14725 44.95750 163.78035
#
# Poissons Ratio (x) = 0.22103 0.39678
# Poissons Ratio (y) = 0.69885 0.09266
# Poissons Ratio (z) = 0.34437 0.02543
#
# Static dielectric constant tensor:
#      x y z
#    x 2.012710 0.000000 -0.079900 
#    y 0.000000 2.104090 0.000000 
#    z -0.079900 0.000000 1.989090 
# 
# From -- ./inp_files/25007.got.cif
#   From: 2010.05.17/outbox.cif.g08.bks.cpg/sg14_13_cif.got.tgz:25007.got - 2010.06.03 17:49:19.
