data_PCOD9242415
_publ_section_title
;
Structure prediction by ZEFSAII (Michael W. Deem and Ramdas Pophale) SiO2 
 PCOD9242415
Probable space group: P 21/C
;
_chemical_formula_sum "Si O2"
_cell_formula_units_Z 32
_cell_length_a 11.788174
_cell_length_b 9.218392
_cell_length_c 22.858917
_cell_angle_alpha 90.000000
_cell_angle_beta 45.485062
_cell_angle_gamma 90.000000
_cell_volume 1771.283660
_symmetry_space_group_name_H-M "P 21/C"
_symmetry_group_IT_number 14
_symmetry_cell_setting 'monoclinic'
loop_
_space_group_symop_operation_xyz
x,y,z
-x,1/2+y,1/2-z
-x,-y,-z
x,1/2-y,1/2+z
loop_
_atom_site_type_symbol
_atom_site_label
_atom_site_fract_x
_atom_site_fract_y
_atom_site_fract_z
Si Si1 0.961449 0.168378 0.582271
Si Si2 0.359991 0.325575 0.265208
Si Si3 0.359990 0.674426 0.265208
Si Si4 0.113917 0.666701 0.626619
Si Si5 0.239424 0.166781 0.686191
Si Si6 0.038553 0.331622 0.917729
Si Si7 0.760577 0.333218 0.813809
Si Si8 0.113918 0.166701 0.126619
O O1 0.804096 0.261924 0.650589
O O2 0.000001 0.174306 0.500000
O O3 0.096739 0.236359 0.574974
O O4 0.935277 1.000000 0.608422
O O5 0.364286 0.500000 0.269157
O O6 0.500001 0.250001 0.250000
O O7 0.356723 0.291846 0.196721
O O8 0.195906 0.261924 0.349410
O O9 0.356721 0.708154 0.196721
O O10 0.231454 0.732174 0.632616
O O11 0.149438 0.500000 0.599989
O O12 0.937386 0.670574 0.720391
O O13 0.096738 0.763640 0.574974
O O14 0.231455 0.267826 0.632616
O O15 0.268999 1.000000 0.658437
O O16 0.937387 0.329425 0.720391
#
# Coordination Sequence:
#
# PCOD9242415 Si02
#       8
#     4   4   4   4   4   4   4   4
#     4  10  20  33  50  72  99 131 164 199 241 288
#     4  10  20  33  51  74 100 130 162 199 242 288
#     4  10  20  33  51  74 100 130 162 199 242 288
#     4   9  16  26  44  69  94 122 157 199 242 281
#     4   8  15  27  43  66  94 123 156 194 237 284
#     4  10  20  33  50  72  99 131 164 199 241 288
#     4   8  15  27  43  66  94 123 156 194 237 284
#     4   9  16  26  44  69  94 122 157 199 242 281
#
# _framework density 18.065994
#
# number of rings (size 3 to 8) (size 9 to 14) (size 15 to 20)
#    0.000    2.750    0.000    3.750    0.000    9.000 
#    0.000    0.000    0.000    1.500    0.000   10.500 
#    0.000    0.000    0.000    0.000    0.000    0.000 
#
# Total GULP energy -178332.439000 kJ/mol
# GULP energy per Si atom -5572.888719 kJ/mol
# Density = 1.802487 g / cm^3
# Si number density = 18.065994 Si / 1000 Ang^3
#
#
#
# Elastic Constant Matrix: (Units=GPa)
#
#
# Indices 1 2 3 4 5 6 
#
# 1 165.5025 88.0446 24.2660 0.0000 28.7241 0.0000
# 2 88.0446 118.6867 26.6368 0.0000 26.4808 0.0000
# 3 24.2660 26.6368 17.4350 0.0000 15.4826 0.0000
# 4 0.0000 0.0000 0.0000 18.2467 0.0000 6.8726
# 5 28.7241 26.4808 15.4826 0.0000 20.2794 0.0000
# 6 0.0000 0.0000 0.0000 6.8726 0.0000 37.5657
#
#
#
# Elastic Compliance Matrix: (Units=1/GPa)
#
#
# Indices 1 2 3 4 5 6 
#
# 1 0.010638 -0.006633 0.003158 0.000000 -0.008818 0.000000
# 2 -0.006633 0.017162 -0.016863 0.000000 -0.000141 0.000000
# 3 0.003158 -0.016863 0.196074 0.000000 -0.132148 0.000000
# 4 0.000000 0.000000 0.000000 0.058860 0.000000 -0.010768
# 5 -0.008818 -0.000141 -0.132148 0.000000 0.162874 0.000000
# 6 0.000000 0.000000 0.000000 -0.010768 0.000000 0.028590
#
#
# Mechanical properties :
#
#
# Convention : Reuss Voigt Hill
#
# Bulk Modulus (GPa) = 5.45858 64.39100 34.92479
# Shear Modulus (GPa) = 8.68143 26.06348 17.37246
#
# Velocity S-wave (km/s) = 2.19450 3.80239 3.10435
# Velocity P-wave (km/s) = 3.07394 7.41600 5.67654
#
# Compressibility (1/GPa) = 0.18319781
#
# Stress axis : x y z
#
# Youngs Moduli (GPa) = 94.00048 58.26807 5.10011
#
# Poissons Ratio (x) = 0.38650 -0.01610
# Poissons Ratio (y) = 0.62351 0.08600
# Poissons Ratio (z) = -0.29683 0.98257
#
# Static dielectric constant tensor:
#      x y z
#    x 1.649200 0.000000 0.004230 
#    y 0.000000 1.608510 0.000000 
#    z 0.004230 0.000000 1.609990 
# 
# From -- ./inp_files/66859.got.cif
#   From: 2010.05.17/outbox.cif.g08.bks.cpg/sg14_34_cif.got.tgz:66859.got - 2010.06.03 17:49:19.
