data_PCOD9242834
_publ_section_title
;
Structure prediction by ZEFSAII (Michael W. Deem and Ramdas Pophale) SiO2 
 PCOD9242834
Probable space group: P 21/C
;
_chemical_formula_sum "Si O2"
_cell_formula_units_Z 28
_cell_length_a 11.060805
_cell_length_b 6.550414
_cell_length_c 19.605509
_cell_angle_alpha 90.000000
_cell_angle_beta 120.273729
_cell_angle_gamma 90.000000
_cell_volume 1226.760305
_symmetry_space_group_name_H-M "P 21/C"
_symmetry_group_IT_number 14
_symmetry_cell_setting 'monoclinic'
loop_
_space_group_symop_operation_xyz
x,y,z
-x,1/2+y,1/2-z
-x,-y,-z
x,1/2-y,1/2+z
loop_
_atom_site_type_symbol
_atom_site_label
_atom_site_fract_x
_atom_site_fract_y
_atom_site_fract_z
Si Si1 0.149316 0.560176 0.014317
Si Si2 0.369801 0.276081 0.143160
Si Si3 0.281323 0.014449 0.898124
Si Si4 0.478211 0.209525 0.531892
Si Si5 0.789634 0.391558 0.358545
Si Si6 0.011298 0.700295 0.364926
Si Si7 0.742227 0.989278 0.262364
O O1 0.117770 0.641568 0.930887
O O2 0.243295 0.371166 0.062205
O O3 0.200834 0.753644 0.071881
O O4 0.000000 0.500000 0.000000
O O5 0.484711 0.293905 0.116690
O O6 0.364892 0.414029 0.209401
O O7 0.333396 0.052603 0.160998
O O8 0.389692 0.842949 0.953249
O O9 0.120437 0.937958 0.853142
O O10 0.315037 0.053413 0.828707
O O11 0.332400 0.197577 0.960992
O O12 0.500000 0.000000 0.500000
O O13 0.927109 0.531963 0.385974
O O14 0.774171 0.225609 0.292618
O O15 0.883191 0.847569 0.305347
#
# Coordination Sequence:
#
# PCOD9242834 Si02
#       7
#     4   4   4   4   4   4   4
#     4  11  18  32  56  96 132 162 226 270 332 409
#     4  10  22  42  67  97 131 180 228 285 343 405
#     4  11  27  45  66 102 137 182 240 274 347 420
#     4  11  26  50  72  94 136 189 237 288 331 408
#     4  10  20  35  63  95 135 173 215 274 348 406
#     4  11  22  37  64  96 139 175 214 284 348 415
#     4  10  24  43  62 106 138 173 228 285 354 413
#
# _framework density 22.824342000000001
#
# number of rings (size 3 to 8) (size 9 to 14) (size 15 to 20)
#    0.000    1.429    4.286    2.143    4.000    6.857 
#    5.143    0.000    0.000    0.000    0.000    0.000 
#    0.000    0.000    0.000    0.000    0.000    0.000 
#
# Total GULP energy -155982.567064 kJ/mol
# GULP energy per Si atom -5570.805967 kJ/mol
# Density = 2.277239 g / cm^3
# Si number density = 22.824342 Si / 1000 Ang^3
#
#
#
# Elastic Constant Matrix: (Units=GPa)
#
#
# Indices 1 2 3 4 5 6 
#
# 1 94.8715 39.0166 17.9873 0.0000 -10.7769 0.0000
# 2 39.0166 116.2446 29.6957 0.0000 -1.6200 0.0000
# 3 17.9873 29.6957 95.7732 0.0000 -8.9495 0.0000
# 4 0.0000 0.0000 0.0000 2.4917 0.0000 -16.1277
# 5 -10.7769 -1.6200 -8.9495 0.0000 37.4735 0.0000
# 6 0.0000 0.0000 0.0000 -16.1277 0.0000 17.0971
#
#
#
# Elastic Compliance Matrix: (Units=1/GPa)
#
#
# Indices 1 2 3 4 5 6 
#
# 1 0.012722 -0.004010 -0.000839 0.000000 0.003285 0.000000
# 2 -0.004010 0.010610 -0.002661 0.000000 -0.001330 0.000000
# 3 -0.000839 -0.002661 0.011651 0.000000 0.002426 0.000000
# 4 0.000000 0.000000 0.000000 -0.078607 0.000000 -0.074150
# 5 0.003285 -0.001330 0.002426 0.000000 0.028152 0.000000
# 6 0.000000 0.000000 0.000000 -0.074150 0.000000 -0.011456
#
#
# Mechanical properties :
#
#
# Convention : Reuss Voigt Hill
#
# Bulk Modulus (GPa) = 50.09351 53.36539 51.72945
# Shear Modulus (GPa) = -951.55996 26.09176 -462.73410
#
# Velocity S-wave (km/s) = -20.44042 3.38473 -14.25402
# Velocity P-wave (km/s) = 23.13193 6.22148 15.75403
#
# Compressibility (1/GPa) = 0.01996267
#
# Stress axis : x y z
#
# Youngs Moduli (GPa) = 78.60454 94.25391 85.83216
#
# Poissons Ratio (x) = 0.37795 0.07202
# Poissons Ratio (y) = 0.31520 0.22838
# Poissons Ratio (z) = 0.06595 0.25079
#
# Static dielectric constant tensor:
#      x y z
#    x 0.984640 0.000000 0.390130 
#    y 0.000000 1.503170 0.000000 
#    z 0.390130 0.000000 1.718400 
# 
# From -- ./inp_files/66540.got.cif
#   From: 2010.05.17/outbox.cif.g08.bks.cpg/sg14_34_cif.got.tgz:66540.got - 2010.06.03 17:49:19.
