data_PCOD9242818
_publ_section_title
;
Structure prediction by ZEFSAII (Michael W. Deem and Ramdas Pophale) SiO2 
 PCOD9242818
Probable space group: P 21/C
;
_chemical_formula_sum "Si O2"
_cell_formula_units_Z 32
_cell_length_a 8.488002
_cell_length_b 8.850387
_cell_length_c 21.693725
_cell_angle_alpha 90.000000
_cell_angle_beta 108.901329
_cell_angle_gamma 90.000000
_cell_volume 1541.802472
_symmetry_space_group_name_H-M "P 21/C"
_symmetry_group_IT_number 14
_symmetry_cell_setting 'monoclinic'
loop_
_space_group_symop_operation_xyz
x,y,z
-x,1/2+y,1/2-z
-x,-y,-z
x,1/2-y,1/2+z
loop_
_atom_site_type_symbol
_atom_site_label
_atom_site_fract_x
_atom_site_fract_y
_atom_site_fract_z
Si Si1 0.781575 0.937218 0.353057
Si Si2 0.048891 0.383788 0.452734
Si Si3 0.147797 0.474270 0.758145
Si Si4 0.379450 0.318856 0.285141
Si Si5 0.236646 0.724390 0.667643
Si Si6 0.183570 0.064127 0.507802
Si Si7 0.800593 0.046257 0.147131
Si Si8 0.844186 0.367387 0.110692
O O1 0.648568 0.872950 0.288702
O O2 0.719366 0.950513 0.415494
O O3 0.955846 0.842959 0.377154
O O4 0.821951 0.103516 0.331764
O O5 0.872375 0.330525 0.403299
O O6 0.000000 0.500000 0.500000
O O7 0.154546 0.238974 0.487767
O O8 0.145030 0.456011 0.407085
O O9 0.260686 0.326077 0.773263
O O10 0.205816 0.609121 0.719870
O O11 0.152176 0.535845 0.827254
O O12 0.964719 0.433011 0.710292
O O13 0.568393 0.275035 0.320469
O O14 0.323272 0.448445 0.326261
O O15 0.233853 0.961858 0.455770
O O16 0.000000 0.000000 0.500000
O O17 0.753560 0.211346 0.115898
#
# Coordination Sequence:
#
# PCOD9242818 Si02
#       8
#     4   4   4   4   4   4   4   4
#     4  11  21  39  64  92 129 167 211 263 316 389
#     4  11  22  39  67  97 123 164 221 265 315 393
#     4  11  22  37  63  93 125 168 216 264 317 383
#     4  12  24  41  62  97 134 166 211 270 335 385
#     4  11  25  40  62  95 134 169 203 268 340 379
#     4  10  20  35  62  92 119 164 210 264 307 369
#     4  11  22  37  66  94 124 165 218 272 310 380
#     4  11  20  37  64  94 119 161 221 265 312 363
#
# _framework density 20.754929000000001
#
# number of rings (size 3 to 8) (size 9 to 14) (size 15 to 20)
#    0.000    1.000    5.000    3.750    3.500    0.000 
#    0.000    0.625    0.000    3.750    0.000    0.000 
#    0.000    0.000    0.000    0.000    0.000    0.000 
#
# Total GULP energy -178763.832864 kJ/mol
# GULP energy per Si atom -5586.369777 kJ/mol
# Density = 2.070769 g / cm^3
# Si number density = 20.754929 Si / 1000 Ang^3
#
#
#
# Elastic Constant Matrix: (Units=GPa)
#
#
# Indices 1 2 3 4 5 6 
#
# 1 33.5995 6.6707 13.6132 0.0000 1.4361 0.0000
# 2 6.6707 117.9448 62.6182 0.0000 -8.3392 0.0000
# 3 13.6132 62.6182 119.1776 0.0000 -20.2464 0.0000
# 4 0.0000 0.0000 0.0000 37.3793 0.0000 -6.3525
# 5 1.4361 -8.3392 -20.2464 0.0000 16.7877 0.0000
# 6 0.0000 0.0000 0.0000 -6.3525 0.0000 15.0575
#
#
#
# Elastic Compliance Matrix: (Units=1/GPa)
#
#
# Indices 1 2 3 4 5 6 
#
# 1 0.032282 0.000430 -0.005466 0.000000 -0.009140 0.000000
# 2 0.000430 0.011819 -0.006626 0.000000 -0.002156 0.000000
# 3 -0.005466 -0.006626 0.015113 0.000000 0.015403 0.000000
# 4 0.000000 0.000000 0.000000 0.028819 0.000000 0.012158
# 5 -0.009140 -0.002156 0.015403 0.000000 0.077855 0.000000
# 6 0.000000 0.000000 0.000000 0.012158 0.000000 0.071541
#
#
# Mechanical properties :
#
#
# Convention : Reuss Voigt Hill
#
# Bulk Modulus (GPa) = 27.86187 48.50293 38.18240
# Shear Modulus (GPa) = 18.33402 26.36623 22.35012
#
# Velocity S-wave (km/s) = 2.97536 3.56808 3.28511
# Velocity P-wave (km/s) = 5.02564 6.35571 5.72940
#
# Compressibility (1/GPa) = 0.03589134
#
# Stress axis : x y z
#
# Youngs Moduli (GPa) = 30.97671 84.60707 66.16744
#
# Poissons Ratio (x) = -0.03638 0.36168
# Poissons Ratio (y) = -0.01332 0.43839
# Poissons Ratio (z) = 0.16933 0.56057
#
# Static dielectric constant tensor:
#      x y z
#    x 1.733290 0.000000 -0.044300 
#    y 0.000000 1.794590 0.000000 
#    z -0.044300 0.000000 1.781600 
# 
# From -- ./inp_files/64873.got.cif
#   From: 2010.05.17/outbox.cif.g08.bks.cpg/sg14_33_cif.got.tgz:64873.got - 2010.06.03 17:49:19.
