data_PCOD9242671
_publ_section_title
;
Structure prediction by ZEFSAII (Michael W. Deem and Ramdas Pophale) SiO2 
 PCOD9242671
Probable space group: P 21/C
;
_chemical_formula_sum "Si O2"
_cell_formula_units_Z 32
_cell_length_a 15.110154
_cell_length_b 7.776335
_cell_length_c 17.543084
_cell_angle_alpha 90.000000
_cell_angle_beta 44.407368
_cell_angle_gamma 90.000000
_cell_volume 1442.433956
_symmetry_space_group_name_H-M "P 21/C"
_symmetry_group_IT_number 14
_symmetry_cell_setting 'monoclinic'
loop_
_space_group_symop_operation_xyz
x,y,z
-x,1/2+y,1/2-z
-x,-y,-z
x,1/2-y,1/2+z
loop_
_atom_site_type_symbol
_atom_site_label
_atom_site_fract_x
_atom_site_fract_y
_atom_site_fract_z
Si Si1 0.351023 0.360802 0.165669
Si Si2 0.106639 0.334202 0.239148
Si Si3 0.065706 0.453406 0.539005
Si Si4 0.128057 0.858410 0.625896
Si Si5 0.379754 0.636194 0.013050
Si Si6 0.609905 0.598796 0.147278
Si Si7 0.886331 0.949659 0.514160
Si Si8 0.654093 0.968759 0.153553
O O1 0.225577 0.265616 0.213230
O O2 0.485475 0.269111 0.070446
O O3 0.333421 0.413405 0.264442
O O4 0.365475 0.530001 0.101351
O O5 0.157150 0.454166 0.141748
O O6 0.024526 0.459256 0.343704
O O7 0.006707 0.206553 0.264514
O O8 0.082434 0.246074 0.531809
O O9 0.207319 0.532090 0.454457
O O10 0.000000 0.500000 0.500000
O O11 0.251659 0.756825 0.577038
O O12 0.107550 0.898326 0.551087
O O13 0.390455 0.514727 0.929889
O O14 0.627231 0.799406 0.120430
O O15 0.472900 0.580801 0.271106
O O16 0.733469 0.552486 0.123040
O O17 0.000000 0.000000 0.500000
#
# Coordination Sequence:
#
# PCOD9242671 Si02
#       8
#     4   4   4   4   4   4   4   4
#     4   9  17  33  59  77 105 142 185 228 270 333
#     4  11  21  36  58  84 113 146 190 231 284 335
#     4  11  21  34  54  85 112 147 185 233 276 337
#     4  10  21  36  58  83 111 150 185 235 283 335
#     4   8  17  35  55  81 106 143 186 226 279 331
#     4   9  20  35  55  81 109 147 182 234 278 332
#     4  10  21  37  56  81 116 146 188 236 284 332
#     4  10  20  35  56  81 112 142 189 227 281 332
#
# _framework density 22.184723999999999
#
# number of rings (size 3 to 8) (size 9 to 14) (size 15 to 20)
#    0.000    2.250    1.250    1.500    1.750    5.000 
#    0.000    0.000    0.000    1.500    0.000    0.000 
#    0.000    0.000    0.000    0.000    0.000    0.000 
#
# Total GULP energy -178191.641872 kJ/mol
# GULP energy per Si atom -5568.488809 kJ/mol
# Density = 2.213423 g / cm^3
# Si number density = 22.184724 Si / 1000 Ang^3
#
#
#
# Elastic Constant Matrix: (Units=GPa)
#
#
# Indices 1 2 3 4 5 6 
#
# 1 109.2087 8.1568 34.9031 0.0000 -33.9183 0.0000
# 2 8.1568 30.3802 0.2347 0.0000 -1.9708 0.0000
# 3 34.9031 0.2347 83.5345 0.0000 -37.7554 0.0000
# 4 0.0000 0.0000 0.0000 25.3492 0.0000 -5.8744
# 5 -33.9183 -1.9708 -37.7554 0.0000 52.5135 0.0000
# 6 0.0000 0.0000 0.0000 -5.8744 0.0000 25.1857
#
#
#
# Elastic Compliance Matrix: (Units=1/GPa)
#
#
# Indices 1 2 3 4 5 6 
#
# 1 0.011951 -0.002804 -0.002288 0.000000 0.005969 0.000000
# 2 -0.002804 0.033681 0.001229 0.000000 0.000337 0.000000
# 3 -0.002288 0.001229 0.018186 0.000000 0.011644 0.000000
# 4 0.000000 0.000000 0.000000 0.041703 0.000000 0.009727
# 5 0.005969 0.000337 0.011644 0.000000 0.031282 0.000000
# 6 0.000000 0.000000 0.000000 0.009727 0.000000 0.041974
#
#
# Mechanical properties :
#
#
# Convention : Reuss Voigt Hill
#
# Bulk Modulus (GPa) = 17.82734 34.41252 26.11993
# Shear Modulus (GPa) = 24.36633 32.59826 28.48230
#
# Velocity S-wave (km/s) = 3.31771 3.83744 3.58700
# Velocity P-wave (km/s) = 4.76756 5.93128 5.38097
#
# Compressibility (1/GPa) = 0.05609360
#
# Stress axis : x y z
#
# Youngs Moduli (GPa) = 83.67270 29.69004 54.98677
#
# Poissons Ratio (x) = 0.08325 0.12580
# Poissons Ratio (y) = 0.23461 -0.06758
# Poissons Ratio (z) = 0.19142 -0.03649
#
# Static dielectric constant tensor:
#      x y z
#    x 1.910060 0.000000 -0.090340 
#    y 0.000000 1.870270 0.000000 
#    z -0.090340 0.000000 1.938190 
# 
# From -- ./inp_files/68189.got.cif
#   From: 2010.05.17/outbox.cif.g08.bks.cpg/sg14_35_cif.got.tgz:68189.got - 2010.06.03 17:49:19.
