data_PCOD9242767
_publ_section_title
;
Structure prediction by ZEFSAII (Michael W. Deem and Ramdas Pophale) SiO2 
 PCOD9242767
Probable space group: P 21/C
;
_chemical_formula_sum "Si O2"
_cell_formula_units_Z 24
_cell_length_a 14.890958
_cell_length_b 9.457406
_cell_length_c 10.087833
_cell_angle_alpha 90.000000
_cell_angle_beta 143.409802
_cell_angle_gamma 90.000000
_cell_volume 846.842386
_symmetry_space_group_name_H-M "P 21/C"
_symmetry_group_IT_number 14
_symmetry_cell_setting 'monoclinic'
loop_
_space_group_symop_operation_xyz
x,y,z
-x,1/2+y,1/2-z
-x,-y,-z
x,1/2-y,1/2+z
loop_
_atom_site_type_symbol
_atom_site_label
_atom_site_fract_x
_atom_site_fract_y
_atom_site_fract_z
Si Si1 0.314250 0.400320 0.697576
Si Si2 0.419094 0.881777 0.773873
Si Si3 0.237951 0.407051 0.327886
Si Si4 0.435656 0.384082 0.115533
Si Si5 0.831709 0.185459 0.899489
Si Si6 0.966641 0.324443 0.826574
O O1 0.259337 0.325565 0.496786
O O2 0.454833 0.493238 0.812146
O O3 0.206638 0.523451 0.621654
O O4 0.357362 0.327601 0.887449
O O5 0.456321 0.746837 0.718228
O O6 0.305670 0.796579 0.736328
O O7 0.349138 0.019621 0.619281
O O8 0.589244 0.938775 0.011553
O O9 0.144647 0.544237 0.271018
O O10 0.128276 0.355641 0.081476
O O11 0.951561 0.217647 0.156898
O O12 0.897524 0.201197 0.833396
#
# Coordination Sequence:
#
# PCOD9242767 Si02
#       6
#     4   4   4   4   4   4
#     4   8  16  32  54  76 109 157 194 232 296 364
#     4  10  20  35  59  89 118 156 204 252 300 358
#     4   9  20  38  58  82 117 160 202 245 301 363
#     4   9  17  32  54  83 116 148 194 250 297 344
#     4  10  20  36  60  85 116 155 199 249 306 359
#     4  10  21  39  59  85 122 161 197 246 308 364
#
# _framework density 28.340575999999999
#
# number of rings (size 3 to 8) (size 9 to 14) (size 15 to 20)
#    0.000    2.667    0.000    2.000    0.000    3.333 
#    0.000   10.000    0.000   12.000    0.000    0.000 
#    0.000    0.000    0.000    0.000    0.000    0.000 
#
# Total GULP energy -133956.596910 kJ/mol
# GULP energy per Si atom -5581.524871 kJ/mol
# Density = 2.827607 g / cm^3
# Si number density = 28.340576 Si / 1000 Ang^3
#
#
#
# Elastic Constant Matrix: (Units=GPa)
#
#
# Indices 1 2 3 4 5 6 
#
# 1 23.3493 12.2953 19.8191 0.0000 -7.2503 0.0000
# 2 12.2953 73.8158 17.2857 0.0000 -0.6837 0.0000
# 3 19.8191 17.2857 161.2928 0.0000 -2.5081 0.0000
# 4 0.0000 0.0000 0.0000 53.0627 0.0000 -7.8601
# 5 -7.2503 -0.6837 -2.5081 0.0000 53.5130 0.0000
# 6 0.0000 0.0000 0.0000 -7.8601 0.0000 28.0233
#
#
#
# Elastic Compliance Matrix: (Units=1/GPa)
#
#
# Indices 1 2 3 4 5 6 
#
# 1 0.053792 -0.007563 -0.005692 0.000000 0.006925 0.000000
# 2 -0.007563 0.014960 -0.000687 0.000000 -0.000866 0.000000
# 3 -0.005692 -0.000687 0.006966 0.000000 -0.000453 0.000000
# 4 0.000000 0.000000 0.000000 0.019663 0.000000 0.005515
# 5 0.006925 -0.000866 -0.000453 0.000000 0.019593 0.000000
# 6 0.000000 0.000000 0.000000 0.005515 0.000000 0.037232
#
#
# Mechanical properties :
#
#
# Convention : Reuss Voigt Hill
#
# Bulk Modulus (GPa) = 20.90581 39.69535 30.30058
# Shear Modulus (GPa) = 25.50596 40.85698 33.18147
#
# Velocity S-wave (km/s) = 3.00322 3.80102 3.42542
# Velocity P-wave (km/s) = 4.40664 5.77067 5.13415
#
# Compressibility (1/GPa) = 0.04783359
#
# Stress axis : x y z
#
# Youngs Moduli (GPa) = 18.59029 66.84528 143.55694
#
# Poissons Ratio (x) = 0.50555 0.81706
# Poissons Ratio (y) = 0.14060 0.09868
# Poissons Ratio (z) = 0.10581 0.04595
#
# Static dielectric constant tensor:
#      x y z
#    x 2.299030 0.000000 -0.016360 
#    y 0.000000 2.276030 0.000000 
#    z -0.016360 0.000000 2.403600 
# 
# From -- ./inp_files/33985.got.cif
#   From: 2010.05.17/outbox.cif.g08.bks.cpg/sg14_17_cif.got.tgz:33985.got - 2010.06.03 17:49:19.
