data_PCOD9242249
_publ_section_title
;
Structure prediction by ZEFSAII (Michael W. Deem and Ramdas Pophale) SiO2 
 PCOD9242249
Probable space group: P 21/C
;
_chemical_formula_sum "Si O2"
_cell_formula_units_Z 32
_cell_length_a 12.423216
_cell_length_b 7.315440
_cell_length_c 15.122973
_cell_angle_alpha 90.000000
_cell_angle_beta 87.635292
_cell_angle_gamma 90.000000
_cell_volume 1373.224926
_symmetry_space_group_name_H-M "P 21/C"
_symmetry_group_IT_number 14
_symmetry_cell_setting 'monoclinic'
loop_
_space_group_symop_operation_xyz
x,y,z
-x,1/2+y,1/2-z
-x,-y,-z
x,1/2-y,1/2+z
loop_
_atom_site_type_symbol
_atom_site_label
_atom_site_fract_x
_atom_site_fract_y
_atom_site_fract_z
Si Si1 0.322565 0.467926 0.518269
Si Si2 0.569593 0.133212 0.153684
Si Si3 0.336993 0.438166 0.716113
Si Si4 0.429903 0.407600 0.073931
Si Si5 0.930533 0.833763 0.340781
Si Si6 0.127265 0.425436 0.814055
Si Si7 0.097096 0.358059 0.476067
Si Si8 0.722469 0.501474 0.791191
O O1 0.403013 0.559652 0.445394
O O2 0.304733 0.524245 0.621628
O O3 0.366039 0.261786 0.532572
O O4 0.207641 0.469612 0.475392
O O5 0.466122 0.037885 0.204749
O O6 0.519698 0.330394 0.138153
O O7 0.672402 0.106771 0.211907
O O8 0.251540 0.487083 0.795563
O O9 0.313419 0.216774 0.717334
O O10 0.345675 0.546285 0.119865
O O11 0.500000 0.500000 0.000000
O O12 0.911142 0.661076 0.278003
O O13 0.898987 0.779562 0.440730
O O14 0.848630 0.988648 0.305786
O O15 0.051180 0.904870 0.336498
O O16 0.102776 0.267136 0.887662
O O17 0.000000 0.500000 0.500000
#
# Coordination Sequence:
#
# PCOD9242249 Si02
#       8
#     4   4   4   4   4   4   4   4
#     4  10  19  41  64  91 134 171 218 277 342 402
#     4  10  20  38  67  98 123 176 229 263 336 423
#     4   9  19  39  62  91 129 170 212 272 340 392
#     4  10  21  38  61  93 132 173 214 276 341 402
#     4  11  22  46  63 100 138 175 228 282 354 397
#     4  11  23  40  71  93 136 180 222 292 337 418
#     4  12  24  43  70  96 131 189 239 278 354 409
#     4   9  19  39  61  84 133 172 208 267 332 401
#
# _framework density 23.302810999999998
#
# number of rings (size 3 to 8) (size 9 to 14) (size 15 to 20)
#    0.000    2.000    3.750    4.125    0.000    3.000 
#    2.250    7.500    0.000    0.000    0.000    0.000 
#    0.000    0.000    0.000    0.000    0.000    0.000 
#
# Total GULP energy -178413.010118 kJ/mol
# GULP energy per Si atom -5575.406566 kJ/mol
# Density = 2.324977 g / cm^3
# Si number density = 23.302811 Si / 1000 Ang^3
#
#
#
# Elastic Constant Matrix: (Units=GPa)
#
#
# Indices 1 2 3 4 5 6 
#
# 1 132.4064 25.9004 34.2477 0.0000 -21.9998 0.0000
# 2 25.9004 37.7848 17.0805 0.0000 -6.1362 0.0000
# 3 34.2477 17.0805 102.6798 0.0000 -25.5077 0.0000
# 4 0.0000 0.0000 0.0000 28.6174 0.0000 -2.5805
# 5 -21.9998 -6.1362 -25.5077 0.0000 40.4406 0.0000
# 6 0.0000 0.0000 0.0000 -2.5805 0.0000 29.7461
#
#
#
# Elastic Compliance Matrix: (Units=1/GPa)
#
#
# Indices 1 2 3 4 5 6 
#
# 1 0.009544 -0.005329 -0.001432 0.000000 0.003480 0.000000
# 2 -0.005329 0.031680 -0.003579 0.000000 -0.000350 0.000000
# 3 -0.001432 -0.003579 0.012432 0.000000 0.006519 0.000000
# 4 0.000000 0.000000 0.000000 0.035219 0.000000 0.003055
# 5 0.003480 -0.000350 0.006519 0.000000 0.030679 0.000000
# 6 0.000000 0.000000 0.000000 0.003055 0.000000 0.033883
#
#
# Mechanical properties :
#
#
# Convention : Reuss Voigt Hill
#
# Bulk Modulus (GPa) = 30.32735 47.48090 38.90413
# Shear Modulus (GPa) = 27.01105 32.80364 29.90735
#
# Velocity S-wave (km/s) = 3.40830 3.75602 3.58637
# Velocity P-wave (km/s) = 5.34148 6.26339 5.82072
#
# Compressibility (1/GPa) = 0.03297353
#
# Stress axis : x y z
#
# Youngs Moduli (GPa) = 104.78210 31.56568 80.44061
#
# Poissons Ratio (x) = 0.16822 0.11521
# Poissons Ratio (y) = 0.55842 0.28792
# Poissons Ratio (z) = 0.15007 0.11298
#
# Static dielectric constant tensor:
#      x y z
#    x 1.923270 0.000000 -0.031010 
#    y 0.000000 1.926310 0.000000 
#    z -0.031010 0.000000 1.938460 
# 
# From -- ./inp_files/43753.got.cif
#   From: 2010.05.17/outbox.cif.g08.bks.cpg/sg14_22_cif.got.tgz:43753.got - 2010.06.03 17:49:19.
