data_PCOD9242327
_publ_section_title
;
Structure prediction by ZEFSAII (Michael W. Deem and Ramdas Pophale) SiO2 
 PCOD9242327
Probable space group: P 21/C
;
_chemical_formula_sum "Si O2"
_cell_formula_units_Z 26
_cell_length_a 13.400216
_cell_length_b 12.045161
_cell_length_c 14.220581
_cell_angle_alpha 90.000000
_cell_angle_beta 31.243790
_cell_angle_gamma 90.000000
_cell_volume 1190.533854
_symmetry_space_group_name_H-M "P 21/C"
_symmetry_group_IT_number 14
_symmetry_cell_setting 'monoclinic'
loop_
_space_group_symop_operation_xyz
x,y,z
-x,1/2+y,1/2-z
-x,-y,-z
x,1/2-y,1/2+z
loop_
_atom_site_type_symbol
_atom_site_label
_atom_site_fract_x
_atom_site_fract_y
_atom_site_fract_z
Si Si1 0.057406 0.648069 0.599894
Si Si2 0.000000 0.000000 0.000000
Si Si3 0.389583 0.684160 0.486136
Si Si4 0.660006 0.880541 0.198640
Si Si5 0.698888 0.283695 0.228373
Si Si6 0.366249 0.488554 0.811813
Si Si7 0.729986 0.711980 0.989761
O O1 0.025068 0.522078 0.595405
O O2 0.220773 0.667644 0.546056
O O3 0.140105 0.695846 0.433783
O O4 0.870773 0.709694 0.788517
O O5 0.794259 0.935375 0.167021
O O6 0.506610 0.795527 0.367864
O O7 0.308346 0.692820 0.655874
O O8 0.538819 0.583002 0.348772
O O9 0.538648 0.970509 0.239349
O O10 0.773193 0.805697 0.031616
O O11 0.731367 0.400012 0.147998
O O12 0.490786 0.235235 0.363633
O O13 0.248200 0.403963 0.971762
#
# Coordination Sequence:
#
# PCOD9242327 Si02
#       7
#     4   2   4   4   4   4   4
#     4  12  25  42  65 103 134 179 231 280 341 408
#     4  12  24  40  68 102 132 174 238 272 336 408
#     4  11  22  43  68  98 138 180 226 287 344 404
#     4  10  21  42  72  95 140 183 221 288 342 404
#     4  11  23  44  70  94 137 183 224 280 351 405
#     4  10  19  45  67  95 132 184 225 277 349 403
#     4  10  23  42  67  96 139 175 227 283 336 409
#
# _framework density 21.838940999999998
#
# number of rings (size 3 to 8) (size 9 to 14) (size 15 to 20)
#    0.000    1.231    6.154    1.385    2.154    2.462 
#    0.000    3.846    0.000    0.000    0.000    0.000 
#    0.000    0.000    0.000    0.000    0.000    0.000 
#
# Total GULP energy -144828.841721 kJ/mol
# GULP energy per Si atom -5570.340066 kJ/mol
# Density = 2.178923 g / cm^3
# Si number density = 21.838941 Si / 1000 Ang^3
#
#
#
# Elastic Constant Matrix: (Units=GPa)
#
#
# Indices 1 2 3 4 5 6 
#
# 1 82.7533 5.6915 10.8728 0.0000 15.5520 0.0000
# 2 5.6915 49.8953 5.8503 0.0000 0.6061 0.0000
# 3 10.8728 5.8503 61.4980 0.0000 1.7214 0.0000
# 4 0.0000 0.0000 0.0000 6.3637 0.0000 5.2674
# 5 15.5520 0.6061 1.7214 0.0000 19.6001 0.0000
# 6 0.0000 0.0000 0.0000 5.2674 0.0000 13.6343
#
#
#
# Elastic Compliance Matrix: (Units=1/GPa)
#
#
# Indices 1 2 3 4 5 6 
#
# 1 0.014585 -0.001275 -0.002140 0.000000 -0.011345 0.000000
# 2 -0.001275 0.020384 -0.001729 0.000000 0.000533 0.000000
# 3 -0.002140 -0.001729 0.016796 0.000000 0.000276 0.000000
# 4 0.000000 0.000000 0.000000 0.231015 0.000000 -0.089248
# 5 -0.011345 0.000533 0.000276 0.000000 0.059981 0.000000
# 6 0.000000 0.000000 0.000000 -0.089248 0.000000 0.107823
#
#
# Mechanical properties :
#
#
# Convention : Reuss Voigt Hill
#
# Bulk Modulus (GPa) = 24.10932 26.55284 25.33108
# Shear Modulus (GPa) = 10.53303 19.36843 14.95073
#
# Velocity S-wave (km/s) = 2.19853 2.98128 2.61931
# Velocity P-wave (km/s) = 4.18429 4.90261 4.55762
#
# Compressibility (1/GPa) = 0.04147774
#
# Stress axis : x y z
#
# Youngs Moduli (GPa) = 68.56309 49.05900 59.53898
#
# Poissons Ratio (x) = 0.06255 0.12740
# Poissons Ratio (y) = 0.08742 0.10292
# Poissons Ratio (z) = 0.14671 0.08480
#
# Static dielectric constant tensor:
#      x y z
#    x 1.835420 0.000000 -0.045220 
#    y 0.000000 1.784510 0.000000 
#    z -0.045220 0.000000 1.827740 
# 
# From -- ./inp_files/47096.got.cif
#   From: 2010.05.17/outbox.cif.g08.bks.cpg/sg14_24_cif.got.tgz:47096.got - 2010.06.03 17:49:19.
