data_PCOD9242898
_publ_section_title
;
Structure prediction by ZEFSAII (Michael W. Deem and Ramdas Pophale) SiO2 
 PCOD9242898
Probable space group: P 21/C
;
_chemical_formula_sum "Si O2"
_cell_formula_units_Z 26
_cell_length_a 15.571593
_cell_length_b 8.505283
_cell_length_c 10.042969
_cell_angle_alpha 90.000000
_cell_angle_beta 50.308122
_cell_angle_gamma 90.000000
_cell_volume 1023.497932
_symmetry_space_group_name_H-M "P 21/C"
_symmetry_group_IT_number 14
_symmetry_cell_setting 'monoclinic'
loop_
_space_group_symop_operation_xyz
x,y,z
-x,1/2+y,1/2-z
-x,-y,-z
x,1/2-y,1/2+z
loop_
_atom_site_type_symbol
_atom_site_label
_atom_site_fract_x
_atom_site_fract_y
_atom_site_fract_z
Si Si1 0.995625 0.859332 0.114188
Si Si2 0.262390 0.075345 0.222383
Si Si3 0.000000 0.500000 0.000000
Si Si4 0.756251 0.580708 0.809102
Si Si5 0.398289 0.649150 0.735219
Si Si6 0.444505 0.867742 0.463904
Si Si7 0.221087 0.914785 0.991102
O O1 0.867792 0.882988 0.283067
O O2 0.087436 0.883950 0.139194
O O3 0.022206 0.687171 0.029461
O O4 0.000000 0.000000 0.000000
O O5 0.132688 0.050387 0.390101
O O6 0.341544 0.014696 0.259453
O O7 0.297194 0.249771 0.148435
O O8 0.269243 0.974533 0.080590
O O9 0.680940 0.437793 0.932091
O O10 0.778706 0.536446 0.631763
O O11 0.446893 0.713132 0.549065
O O12 0.298215 0.772561 0.866306
O O13 0.482963 0.649131 0.774659
O O14 0.500000 0.000000 0.500000
#
# Coordination Sequence:
#
# PCOD9242898 Si02
#       7
#     4   4   2   4   4   4   4
#     4   9  18  37  59  92 138 181 226 283 333 417
#     4  11  22  39  64  99 135 183 227 280 341 419
#     4  10  20  36  56  96 136 186 236 262 344 416
#     4   9  23  41  64  97 135 177 230 290 344 410
#     4  11  23  45  72 100 132 182 225 284 351 415
#     4  11  26  49  73 100 135 179 234 293 353 410
#     4  10  20  40  64  93 141 177 227 276 349 409
#
# _framework density 25.403082999999999
#
# number of rings (size 3 to 8) (size 9 to 14) (size 15 to 20)
#    0.000    1.846    3.077    0.000    2.154    2.462 
#   16.615    1.538    0.000    0.000    0.000    0.000 
#    0.000    0.000    0.000    0.000    0.000    0.000 
#
# Total GULP energy -144842.223715 kJ/mol
# GULP energy per Si atom -5570.854758 kJ/mol
# Density = 2.534526 g / cm^3
# Si number density = 25.403083 Si / 1000 Ang^3
#
#
#
# Elastic Constant Matrix: (Units=GPa)
#
#
# Indices 1 2 3 4 5 6 
#
# 1 118.0793 16.5362 43.4512 0.0000 22.2055 0.0000
# 2 16.5362 80.8226 3.2326 0.0000 5.2940 0.0000
# 3 43.4512 3.2326 52.3420 0.0000 7.7528 0.0000
# 4 0.0000 0.0000 0.0000 22.0766 0.0000 -0.6232
# 5 22.2055 5.2940 7.7528 0.0000 45.4235 0.0000
# 6 0.0000 0.0000 0.0000 -0.6232 0.0000 43.8287
#
#
#
# Elastic Compliance Matrix: (Units=1/GPa)
#
#
# Indices 1 2 3 4 5 6 
#
# 1 0.013413 -0.002033 -0.010334 0.000000 -0.004556 0.000000
# 2 -0.002033 0.012793 0.000996 0.000000 -0.000667 0.000000
# 3 -0.010334 0.000996 0.027589 0.000000 0.000227 0.000000
# 4 0.000000 0.000000 0.000000 0.045315 0.000000 0.000644
# 5 -0.004556 -0.000667 0.000227 0.000000 0.024281 0.000000
# 6 0.000000 0.000000 0.000000 0.000644 0.000000 0.022825
#
#
# Mechanical properties :
#
#
# Convention : Reuss Voigt Hill
#
# Bulk Modulus (GPa) = 32.20310 41.96485 37.08398
# Shear Modulus (GPa) = 27.88476 34.80069 31.34272
#
# Velocity S-wave (km/s) = 3.31674 3.70529 3.51638
# Velocity P-wave (km/s) = 5.23183 5.90432 5.57822
#
# Compressibility (1/GPa) = 0.03105291
#
# Stress axis : x y z
#
# Youngs Moduli (GPa) = 74.55284 78.17080 36.24633
#
# Poissons Ratio (x) = 0.15889 0.37459
# Poissons Ratio (y) = 0.15153 -0.03611
# Poissons Ratio (z) = 0.77047 -0.07787
#
# Static dielectric constant tensor:
#      x y z
#    x 2.086780 0.000000 -0.054210 
#    y 0.000000 1.969320 0.000000 
#    z -0.054210 0.000000 2.153340 
# 
# From -- ./inp_files/31474.got.cif
#   From: 2010.05.17/outbox.cif.g08.bks.cpg/sg14_16_cif.got.tgz:31474.got - 2010.06.03 17:49:19.
