data_PCOD9242768
_publ_section_title
;
Structure prediction by ZEFSAII (Michael W. Deem and Ramdas Pophale) SiO2 
 PCOD9242768
Probable space group: P 21/C
;
_chemical_formula_sum "Si O2"
_cell_formula_units_Z 32
_cell_length_a 7.982493
_cell_length_b 12.612495
_cell_length_c 14.667988
_cell_angle_alpha 90.000000
_cell_angle_beta 68.162466
_cell_angle_gamma 90.000000
_cell_volume 1370.791734
_symmetry_space_group_name_H-M "P 21/C"
_symmetry_group_IT_number 14
_symmetry_cell_setting 'monoclinic'
loop_
_space_group_symop_operation_xyz
x,y,z
-x,1/2+y,1/2-z
-x,-y,-z
x,1/2-y,1/2+z
loop_
_atom_site_type_symbol
_atom_site_label
_atom_site_fract_x
_atom_site_fract_y
_atom_site_fract_z
Si Si1 0.735377 0.415398 0.238824
Si Si2 0.232080 0.293420 0.381905
Si Si3 0.557065 0.252049 0.675858
Si Si4 0.151180 0.331673 0.605848
Si Si5 0.827644 0.568717 0.061949
Si Si6 0.305610 0.385497 0.103060
Si Si7 0.926195 0.978112 0.209085
Si Si8 0.516245 0.955661 0.895714
O O1 0.724814 0.304475 0.190194
O O2 0.742509 0.505282 0.161295
O O3 0.895220 0.431787 0.277502
O O4 0.547449 0.442267 0.327463
O O5 0.402142 0.250554 0.286823
O O6 0.236004 0.330089 0.486978
O O7 0.115975 0.185191 0.415685
O O8 0.140438 0.390335 0.348308
O O9 0.478072 0.172569 0.612919
O O10 0.609340 0.365704 0.622295
O O11 0.153484 0.208944 0.634349
O O12 0.983004 0.409901 0.653628
O O13 0.301141 0.385846 0.639693
O O14 0.693267 0.580745 0.002586
O O15 0.000000 0.500000 0.000000
O O16 0.229520 0.478890 0.182101
O O17 0.500000 0.000000 0.000000
#
# Coordination Sequence:
#
# PCOD9242768 Si02
#       8
#     4   4   4   4   4   4   4   4
#     4  11  22  39  60  91 123 157 202 257 308 368
#     4  10  20  39  64  86 117 165 204 250 308 369
#     4  10  21  39  62  87 120 158 208 247 310 376
#     4   9  19  35  60  86 116 154 208 245 300 365
#     4  11  21  39  64  83 121 166 207 245 316 368
#     4   9  20  36  60  84 112 166 201 243 301 375
#     4  10  20  35  59  91 121 154 202 254 304 360
#     4  10  20  39  62  84 122 163 192 250 320 364
#
# _framework density 23.344173999999999
#
# number of rings (size 3 to 8) (size 9 to 14) (size 15 to 20)
#    0.000    2.000    2.500    1.125    1.750    0.500 
#    4.500    5.000    0.000    0.000    0.000    0.000 
#    0.000    0.000    0.000    0.000    0.000    0.000 
#
# Total GULP energy -178467.256081 kJ/mol
# GULP energy per Si atom -5577.101753 kJ/mol
# Density = 2.329104 g / cm^3
# Si number density = 23.344174 Si / 1000 Ang^3
#
#
#
# Elastic Constant Matrix: (Units=GPa)
#
#
# Indices 1 2 3 4 5 6 
#
# 1 56.5642 4.1476 1.1303 0.0000 15.8747 0.0000
# 2 4.1476 84.4853 29.5406 0.0000 2.1043 0.0000
# 3 1.1303 29.5406 111.4166 0.0000 13.3046 0.0000
# 4 0.0000 0.0000 0.0000 41.1649 0.0000 4.1556
# 5 15.8747 2.1043 13.3046 0.0000 20.3874 0.0000
# 6 0.0000 0.0000 0.0000 4.1556 0.0000 24.7786
#
#
#
# Elastic Compliance Matrix: (Units=1/GPa)
#
#
# Indices 1 2 3 4 5 6 
#
# 1 0.023233 -0.001530 0.002507 0.000000 -0.019568 0.000000
# 2 -0.001530 0.013165 -0.003747 0.000000 0.002277 0.000000
# 3 0.002507 -0.003747 0.010986 0.000000 -0.008735 0.000000
# 4 0.000000 0.000000 0.000000 0.024711 0.000000 -0.004144
# 5 -0.019568 0.002277 -0.008735 0.000000 0.069752 0.000000
# 6 0.000000 0.000000 0.000000 -0.004144 0.000000 0.041052
#
#
# Mechanical properties :
#
#
# Convention : Reuss Voigt Hill
#
# Bulk Modulus (GPa) = 23.89819 35.78924 29.84371
# Shear Modulus (GPa) = 24.70514 31.77604 28.24059
#
# Velocity S-wave (km/s) = 3.25668 3.69344 3.48192
# Velocity P-wave (km/s) = 4.93972 5.79250 5.38303
#
# Compressibility (1/GPa) = 0.04184418
#
# Stress axis : x y z
#
# Youngs Moduli (GPa) = 43.04246 75.95966 91.02193
#
# Poissons Ratio (x) = 0.11619 -0.22815
# Poissons Ratio (y) = 0.06584 0.34105
# Poissons Ratio (z) = -0.10789 0.28462
#
# Static dielectric constant tensor:
#      x y z
#    x 1.921850 0.000000 -0.000870 
#    y 0.000000 1.988670 0.000000 
#    z -0.000870 0.000000 1.878430 
# 
# From -- ./inp_files/40277.got.cif
#   From: 2010.05.17/outbox.cif.g08.bks.cpg/sg14_21_cif.got.tgz:40277.got - 2010.06.03 17:49:19.
