data_PCOD9242862
_publ_section_title
;
Structure prediction by ZEFSAII (Michael W. Deem and Ramdas Pophale) SiO2 
 PCOD9242862
Probable space group: P 21/C
;
_chemical_formula_sum "Si O2"
_cell_formula_units_Z 28
_cell_length_a 8.539738
_cell_length_b 16.432522
_cell_length_c 13.730813
_cell_angle_alpha 90.000000
_cell_angle_beta 127.549241
_cell_angle_gamma 90.000000
_cell_volume 1527.654079
_symmetry_space_group_name_H-M "P 21/C"
_symmetry_group_IT_number 14
_symmetry_cell_setting 'monoclinic'
loop_
_space_group_symop_operation_xyz
x,y,z
-x,1/2+y,1/2-z
-x,-y,-z
x,1/2-y,1/2+z
loop_
_atom_site_type_symbol
_atom_site_label
_atom_site_fract_x
_atom_site_fract_y
_atom_site_fract_z
Si Si1 0.935298 0.583052 0.852847
Si Si2 0.276132 0.935014 0.639741
Si Si3 0.933607 0.002000 0.148686
Si Si4 0.290132 0.850157 0.852772
Si Si5 0.744929 0.840293 0.995804
Si Si6 0.281902 0.113864 0.229255
Si Si7 0.918013 0.748276 0.733373
O O1 0.766799 0.527665 0.840478
O O2 0.992980 0.532622 0.777494
O O3 0.878560 0.671509 0.789399
O O4 0.114387 0.586543 0.997096
O O5 0.252712 0.878878 0.727062
O O6 0.496715 0.920012 0.684810
O O7 0.830060 0.929340 0.052604
O O8 0.776399 0.073794 0.106602
O O9 0.124710 0.040609 0.171246
O O10 0.144579 0.777187 0.825696
O O11 0.520877 0.833072 0.948822
O O12 0.874533 0.778417 0.106758
O O13 0.743753 0.834632 0.879689
O O14 0.217725 0.175096 0.290129
#
# Coordination Sequence:
#
# PCOD9242862 Si02
#       7
#     4   4   4   4   4   4   4
#     4   9  19  36  57  79 113 149 190 224 274 332
#     4   9  19  36  58  79 112 153 185 228 273 332
#     4   9  18  36  56  81 108 141 186 228 273 334
#     4   9  19  35  56  79 110 149 181 230 280 324
#     4  10  20  36  55  79 109 148 183 227 278 332
#     4  10  21  36  56  85 114 144 185 235 280 320
#     4  10  22  35  54  84 114 144 191 229 278 332
#
# _framework density 18.328755999999998
#
# number of rings (size 3 to 8) (size 9 to 14) (size 15 to 20)
#    0.000    2.571    0.000    0.857    4.000    1.714 
#    0.000    5.714    0.000    0.000    0.000    0.000 
#    0.000    0.000    0.000    0.000    0.000    0.000 
#
# Total GULP energy -156101.920915 kJ/mol
# GULP energy per Si atom -5575.068604 kJ/mol
# Density = 1.828704 g / cm^3
# Si number density = 18.328756 Si / 1000 Ang^3
#
#
#
# Elastic Constant Matrix: (Units=GPa)
#
#
# Indices 1 2 3 4 5 6 
#
# 1 79.4216 28.4175 2.5796 0.0000 17.6609 0.0000
# 2 28.4175 69.5204 15.3273 0.0000 15.3859 0.0000
# 3 2.5796 15.3273 32.5961 0.0000 3.7972 0.0000
# 4 0.0000 0.0000 0.0000 -7.6306 0.0000 6.3690
# 5 17.6609 15.3859 3.7972 0.0000 16.6101 0.0000
# 6 0.0000 0.0000 0.0000 6.3690 0.0000 14.6018
#
#
#
# Elastic Compliance Matrix: (Units=1/GPa)
#
#
# Indices 1 2 3 4 5 6 
#
# 1 0.017405 -0.004311 0.002404 0.000000 -0.015062 0.000000
# 2 -0.004311 0.020725 -0.007912 0.000000 -0.012805 0.000000
# 3 0.002404 -0.007912 0.034573 0.000000 -0.003131 0.000000
# 4 0.000000 0.000000 0.000000 -0.096074 0.000000 0.041906
# 5 -0.015062 -0.012805 -0.003131 0.000000 0.088796 0.000000
# 6 0.000000 0.000000 0.000000 0.041906 0.000000 0.050206
#
#
# Mechanical properties :
#
#
# Convention : Reuss Voigt Hill
#
# Bulk Modulus (GPa) = 18.84485 30.46523 24.65504
# Shear Modulus (GPa) = 32.68875 13.73052 23.20963
#
# Velocity S-wave (km/s) = 4.22769 2.73998 3.56237
# Velocity P-wave (km/s) = 5.84252 5.16407 5.51374
#
# Compressibility (1/GPa) = 0.05306488
#
# Stress axis : x y z
#
# Youngs Moduli (GPa) = 57.45537 48.25139 28.92391
#
# Poissons Ratio (x) = 0.20802 -0.06954
# Poissons Ratio (y) = 0.24770 0.22886
# Poissons Ratio (z) = -0.13814 0.38178
#
# Static dielectric constant tensor:
#      x y z
#    x 1.610370 0.000000 -0.017600 
#    y 0.000000 1.626260 0.000000 
#    z -0.017600 0.000000 1.618760 
# 
# From -- ./inp_files/25102.got.cif
#   From: 2010.05.17/outbox.cif.g08.bks.cpg/sg14_13_cif.got.tgz:25102.got - 2010.06.03 17:49:19.
