data_PCOD9242745
_publ_section_title
;
Structure prediction by ZEFSAII (Michael W. Deem and Ramdas Pophale) SiO2 
 PCOD9242745
Probable space group: P 21/C
;
_chemical_formula_sum "Si O2"
_cell_formula_units_Z 28
_cell_length_a 7.578844
_cell_length_b 13.686850
_cell_length_c 12.428548
_cell_angle_alpha 90.000000
_cell_angle_beta 63.434622
_cell_angle_gamma 90.000000
_cell_volume 1153.109697
_symmetry_space_group_name_H-M "P 21/C"
_symmetry_group_IT_number 14
_symmetry_cell_setting 'monoclinic'
loop_
_space_group_symop_operation_xyz
x,y,z
-x,1/2+y,1/2-z
-x,-y,-z
x,1/2-y,1/2+z
loop_
_atom_site_type_symbol
_atom_site_label
_atom_site_fract_x
_atom_site_fract_y
_atom_site_fract_z
Si Si1 0.959185 0.125041 0.618706
Si Si2 0.461737 0.785107 0.200541
Si Si3 0.805269 0.952558 0.776946
Si Si4 0.381808 0.594403 0.314269
Si Si5 0.095691 0.711532 0.516254
Si Si6 0.762864 0.577551 0.523149
Si Si7 0.181799 0.275621 0.225321
O O1 0.747052 0.164759 0.719976
O O2 0.948049 0.176154 0.504799
O O3 0.154874 0.168802 0.621327
O O4 0.948841 0.013866 0.661328
O O5 0.406724 0.669050 0.206789
O O6 0.577870 0.847272 0.078701
O O7 0.624621 0.791440 0.254049
O O8 0.594434 0.950156 0.777323
O O9 0.852004 0.838892 0.778507
O O10 0.773582 0.983540 0.909977
O O11 0.308513 0.671713 0.425771
O O12 0.249690 0.498021 0.372400
O O13 0.953292 0.645426 0.480956
O O14 0.010246 0.691058 0.655384
#
# Coordination Sequence:
#
# PCOD9242745 Si02
#       7
#     4   4   4   4   4   4   4
#     4  11  21  41  59  89 123 158 204 252 307 354
#     4   9  22  37  57  88 126 155 193 257 301 354
#     4  11  22  36  63  89 116 164 205 248 299 372
#     4  10  20  35  58  88 116 153 199 247 295 354
#     4  10  22  37  61  88 123 160 197 259 298 364
#     4  11  19  37  60  93 115 158 208 243 305 362
#     4  10  22  41  56  89 127 155 199 254 305 352
#
# _framework density 24.282166
#
# number of rings (size 3 to 8) (size 9 to 14) (size 15 to 20)
#    0.000    1.714    2.857    1.714    2.000    1.714 
#    0.000    0.000    0.000    0.000    0.000   14.000 
#    0.000    0.000    0.000    0.000    0.000    0.000 
#
# Total GULP energy -155940.988561 kJ/mol
# GULP energy per Si atom -5569.321020 kJ/mol
# Density = 2.422690 g / cm^3
# Si number density = 24.282166 Si / 1000 Ang^3
#
#
#
# Elastic Constant Matrix: (Units=GPa)
#
#
# Indices 1 2 3 4 5 6 
#
# 1 47.3176 26.3888 4.1377 0.0000 -2.1722 0.0000
# 2 26.3888 120.6245 5.4013 0.0000 5.9126 0.0000
# 3 4.1377 5.4013 29.8892 0.0000 -2.4096 0.0000
# 4 0.0000 0.0000 0.0000 49.5418 0.0000 -14.8543
# 5 -2.1722 5.9126 -2.4096 0.0000 18.1694 0.0000
# 6 0.0000 0.0000 0.0000 -14.8543 0.0000 20.5820
#
#
#
# Elastic Compliance Matrix: (Units=1/GPa)
#
#
# Indices 1 2 3 4 5 6 
#
# 1 0.024588 -0.005506 -0.002049 0.000000 0.004460 0.000000
# 2 -0.005506 0.009750 -0.001323 0.000000 -0.004007 0.000000
# 3 -0.002049 -0.001323 0.034362 0.000000 0.004742 0.000000
# 4 0.000000 0.000000 0.000000 0.025759 0.000000 0.018591
# 5 0.004460 -0.004007 0.004742 0.000000 0.057504 0.000000
# 6 0.000000 0.000000 0.000000 0.018591 0.000000 0.062003
#
#
# Mechanical properties :
#
#
# Convention : Reuss Voigt Hill
#
# Bulk Modulus (GPa) = 19.62921 29.96520 24.79721
# Shear Modulus (GPa) = 20.10420 28.45219 24.27819
#
# Velocity S-wave (km/s) = 2.88052 3.42677 3.16545
# Velocity P-wave (km/s) = 4.37773 5.29379 4.85740
#
# Compressibility (1/GPa) = 0.05094448
#
# Stress axis : x y z
#
# Youngs Moduli (GPa) = 40.66964 102.56049 29.10193
#
# Poissons Ratio (x) = 0.56470 0.05964
# Poissons Ratio (y) = 0.22393 0.03850
# Poissons Ratio (z) = 0.08335 0.13566
#
# Static dielectric constant tensor:
#      x y z
#    x 1.940060 0.000000 0.052250 
#    y 0.000000 2.063840 0.000000 
#    z 0.052250 0.000000 2.048450 
# 
# From -- ./inp_files/39928.got.cif
#   From: 2010.05.17/outbox.cif.g08.bks.cpg/sg14_20_cif.got.tgz:39928.got - 2010.06.03 17:49:19.
