data_PCOD9242205
_publ_section_title
;
Structure prediction by ZEFSAII (Michael W. Deem and Ramdas Pophale) SiO2 
 PCOD9242205
Probable space group: P 21/C
;
_chemical_formula_sum "Si O2"
_cell_formula_units_Z 28
_cell_length_a 24.032411
_cell_length_b 10.239946
_cell_length_c 13.569694
_cell_angle_alpha 90.000000
_cell_angle_beta 159.747605
_cell_angle_gamma 90.000000
_cell_volume 1155.945266
_symmetry_space_group_name_H-M "P 21/C"
_symmetry_group_IT_number 14
_symmetry_cell_setting 'monoclinic'
loop_
_space_group_symop_operation_xyz
x,y,z
-x,1/2+y,1/2-z
-x,-y,-z
x,1/2-y,1/2+z
loop_
_atom_site_type_symbol
_atom_site_label
_atom_site_fract_x
_atom_site_fract_y
_atom_site_fract_z
Si Si1 0.498150 0.295004 0.539251
Si Si2 0.800478 0.934365 0.151666
Si Si3 0.404196 0.069205 0.698868
Si Si4 0.083021 0.327475 0.582525
Si Si5 0.570972 0.418632 0.946718
Si Si6 0.792439 0.898452 0.918168
Si Si7 0.755966 0.226823 0.107874
O O1 0.536923 0.432921 0.656184
O O2 0.494058 0.328220 0.417337
O O3 0.330113 0.225519 0.285295
O O4 0.642930 0.212522 0.823971
O O5 0.611825 0.902250 0.827598
O O6 0.866016 0.912936 0.149195
O O7 0.866358 0.824606 0.334214
O O8 0.816378 0.079049 0.222349
O O9 0.214679 0.105703 0.374613
O O10 0.442960 0.045762 0.649753
O O11 0.095858 0.383537 0.493139
O O12 0.905085 0.321965 0.330813
O O13 0.686174 0.472239 0.222377
O O14 0.654981 0.302139 0.024531
#
# Coordination Sequence:
#
# PCOD9242205 Si02
#       7
#     4   4   4   4   4   4   4
#     4  10  19  40  65 101 129 179 242 283 337 419
#     4  12  24  45  71 100 143 189 239 296 356 431
#     4   9  20  37  69  96 134 178 229 288 343 414
#     4  11  24  45  68 102 149 184 227 298 370 425
#     4  10  23  42  70 101 133 185 241 293 345 419
#     4  11  23  43  71 101 138 191 238 296 356 424
#     4  11  25  44  70 104 142 187 239 294 363 427
#
# _framework density 24.222598999999999
#
# number of rings (size 3 to 8) (size 9 to 14) (size 15 to 20)
#    0.000    1.429    2.857    2.571    2.000    5.143 
#    2.571    5.714    0.000    0.000    0.000    0.000 
#    0.000    0.000    0.000    0.000    0.000    0.000 
#
# Total GULP energy -156347.626637 kJ/mol
# GULP energy per Si atom -5583.843808 kJ/mol
# Density = 2.416747 g / cm^3
# Si number density = 24.222599 Si / 1000 Ang^3
#
#
#
# Elastic Constant Matrix: (Units=GPa)
#
#
# Indices 1 2 3 4 5 6 
#
# 1 121.2831 32.2659 44.3698 0.0000 -1.3666 0.0000
# 2 32.2659 104.7468 46.9154 0.0000 11.3965 0.0000
# 3 44.3698 46.9154 76.1515 0.0000 -3.5120 0.0000
# 4 0.0000 0.0000 0.0000 52.9094 0.0000 -3.5499
# 5 -1.3666 11.3965 -3.5120 0.0000 24.1429 0.0000
# 6 0.0000 0.0000 0.0000 -3.5499 0.0000 46.6789
#
#
#
# Elastic Compliance Matrix: (Units=1/GPa)
#
#
# Indices 1 2 3 4 5 6 
#
# 1 0.010514 -0.000701 -0.005690 0.000000 0.000098 0.000000
# 2 -0.000701 0.014715 -0.009040 0.000000 -0.008301 0.000000
# 3 -0.005690 -0.009040 0.022348 0.000000 0.007196 0.000000
# 4 0.000000 0.000000 0.000000 0.018997 0.000000 0.001445
# 5 0.000098 -0.008301 0.007196 0.000000 0.046391 0.000000
# 6 0.000000 0.000000 0.000000 0.001445 0.000000 0.021533
#
#
# Mechanical properties :
#
#
# Convention : Reuss Voigt Hill
#
# Bulk Modulus (GPa) = 59.82360 61.03151 60.42755
# Shear Modulus (GPa) = 29.25163 36.65494 32.95328
#
# Velocity S-wave (km/s) = 3.47885 3.89428 3.69241
# Velocity P-wave (km/s) = 6.39434 6.74324 6.57111
#
# Compressibility (1/GPa) = 0.01671581
#
# Stress axis : x y z
#
# Youngs Moduli (GPa) = 95.10857 67.95890 44.74693
#
# Poissons Ratio (x) = 0.04765 0.25460
# Poissons Ratio (y) = 0.06668 0.40450
# Poissons Ratio (z) = 0.54114 0.61433
#
# Static dielectric constant tensor:
#      x y z
#    x 1.927590 0.000000 0.022720 
#    y 0.000000 2.020720 0.000000 
#    z 0.022720 0.000000 1.963420 
# 
# From -- ./inp_files/51995.got.cif
#   From: 2010.05.17/outbox.cif.g08.bks.cpg/sg14_26_cif.got.tgz:51995.got - 2010.06.03 17:49:19.
