data_PCOD9242363
_publ_section_title
;
Structure prediction by ZEFSAII (Michael W. Deem and Ramdas Pophale) SiO2 
 PCOD9242363
Probable space group: P 21/C
;
_chemical_formula_sum "Si O2"
_cell_formula_units_Z 32
_cell_length_a 5.228807
_cell_length_b 23.110045
_cell_length_c 14.596277
_cell_angle_alpha 90.000000
_cell_angle_beta 88.526257
_cell_angle_gamma 90.000000
_cell_volume 1763.200979
_symmetry_space_group_name_H-M "P 21/C"
_symmetry_group_IT_number 14
_symmetry_cell_setting 'monoclinic'
loop_
_space_group_symop_operation_xyz
x,y,z
-x,1/2+y,1/2-z
-x,-y,-z
x,1/2-y,1/2+z
loop_
_atom_site_type_symbol
_atom_site_label
_atom_site_fract_x
_atom_site_fract_y
_atom_site_fract_z
Si Si1 0.536649 0.023614 0.355272
Si Si2 0.746294 0.069597 0.533106
Si Si3 0.163224 0.752345 0.480025
Si Si4 0.329781 0.199511 0.080290
Si Si5 0.750568 0.904915 0.364790
Si Si6 0.937837 0.710032 0.799573
Si Si7 0.377259 0.369081 0.750132
Si Si8 0.875246 0.306718 0.829003
O O1 0.702488 0.060834 0.426128
O O2 0.429637 0.065353 0.279439
O O3 0.314743 0.993200 0.418911
O O4 0.698470 0.967909 0.321556
O O5 0.847043 0.203061 0.436995
O O6 0.021789 0.088768 0.563912
O O7 0.420103 0.715603 0.477394
O O8 0.487589 0.892802 0.422428
O O9 0.133012 0.785074 0.383316
O O10 0.349815 0.142434 0.141714
O O11 0.079936 0.208950 0.020662
O O12 0.288191 0.248765 0.159541
O O13 0.833018 0.854556 0.295173
O O14 0.060955 0.743241 0.713811
O O15 0.621251 0.332598 0.785051
O O16 0.118104 0.346160 0.800271
#
# Coordination Sequence:
#
# PCOD9242363 Si02
#       8
#     4   4   4   4   4   4   4   4
#     4   9  22  30  50  69 103 133 171 203 245 305
#     4   9  21  32  44  74 101 130 176 196 245 297
#     4  10  20  34  53  72 106 132 174 201 274 294
#     4   9  19  36  48  76 100 135 164 218 248 304
#     4  10  20  32  48  67 100 139 158 210 246 296
#     4   9  22  34  53  73 109 127 180 205 254 304
#     4  11  21  34  52  76 109 131 177 212 249 304
#     4  11  23  34  54  80 101 141 169 217 256 309
#
# _framework density 18.148810000000001
#
# number of rings (size 3 to 8) (size 9 to 14) (size 15 to 20)
#    1.500    0.750    1.250    1.125    7.000    0.000 
#    0.000    0.000    0.000    0.000    0.000    1.750 
#    0.000    0.000    0.000    0.000    0.000    0.000 
#
# Total GULP energy -178182.998771 kJ/mol
# GULP energy per Si atom -5568.218712 kJ/mol
# Density = 1.810750 g / cm^3
# Si number density = 18.148810 Si / 1000 Ang^3
#
#
#
# Elastic Constant Matrix: (Units=GPa)
#
#
# Indices 1 2 3 4 5 6 
#
# 1 112.5909 2.1770 5.7082 0.0000 7.9730 0.0000
# 2 2.1770 50.2876 4.8608 0.0000 3.1071 0.0000
# 3 5.7082 4.8608 14.2034 0.0000 1.2248 0.0000
# 4 0.0000 0.0000 0.0000 26.8410 0.0000 0.6693
# 5 7.9730 3.1071 1.2248 0.0000 17.2150 0.0000
# 6 0.0000 0.0000 0.0000 0.6693 0.0000 15.7545
#
#
#
# Elastic Compliance Matrix: (Units=1/GPa)
#
#
# Indices 1 2 3 4 5 6 
#
# 1 0.009345 0.000185 -0.003464 0.000000 -0.004115 0.000000
# 2 0.000185 0.020750 -0.006887 0.000000 -0.003341 0.000000
# 3 -0.003464 -0.006887 0.074365 0.000000 -0.002443 0.000000
# 4 0.000000 0.000000 0.000000 0.037296 0.000000 -0.001585
# 5 -0.004115 -0.003341 -0.002443 0.000000 0.060771 0.000000
# 6 0.000000 0.000000 0.000000 -0.001585 0.000000 0.063541
#
#
# Mechanical properties :
#
#
# Convention : Reuss Voigt Hill
#
# Bulk Modulus (GPa) = 11.88682 22.50822 17.19752
# Shear Modulus (GPa) = 15.90105 22.91783 19.40944
#
# Velocity S-wave (km/s) = 2.96319 3.55741 3.27381
# Velocity P-wave (km/s) = 4.27448 5.41318 4.87718
#
# Compressibility (1/GPa) = 0.08412676
#
# Stress axis : x y z
#
# Youngs Moduli (GPa) = 107.00715 48.19336 13.44711
#
# Poissons Ratio (x) = -0.00889 0.04658
# Poissons Ratio (y) = -0.01975 0.09261
# Poissons Ratio (z) = 0.37068 0.33192
#
# Static dielectric constant tensor:
#      x y z
#    x 1.651110 0.000000 0.003300 
#    y 0.000000 1.684620 0.000000 
#    z 0.003300 0.000000 1.602790 
# 
# From -- ./inp_files/63893.got.cif
#   From: 2010.05.17/outbox.cif.g08.bks.cpg/sg14_32_cif.got.tgz:63893.got - 2010.06.03 17:49:19.
