data_PCOD9242920
_publ_section_title
;
Structure prediction by ZEFSAII (Michael W. Deem and Ramdas Pophale) SiO2 
 PCOD9242920
Probable space group: P 21/C
;
_chemical_formula_sum "Si O2"
_cell_formula_units_Z 32
_cell_length_a 12.275522
_cell_length_b 15.747786
_cell_length_c 19.903887
_cell_angle_alpha 90.000000
_cell_angle_beta 152.985634
_cell_angle_gamma 90.000000
_cell_volume 1747.663366
_symmetry_space_group_name_H-M "P 21/C"
_symmetry_group_IT_number 14
_symmetry_cell_setting 'monoclinic'
loop_
_space_group_symop_operation_xyz
x,y,z
-x,1/2+y,1/2-z
-x,-y,-z
x,1/2-y,1/2+z
loop_
_atom_site_type_symbol
_atom_site_label
_atom_site_fract_x
_atom_site_fract_y
_atom_site_fract_z
Si Si1 0.182397 0.978852 0.383466
Si Si2 0.541301 0.143000 0.279635
Si Si3 0.846593 0.792671 0.839435
Si Si4 0.305457 0.820657 0.185280
Si Si5 0.327971 0.931513 0.322301
Si Si6 0.055955 0.101648 0.620707
Si Si7 0.960213 0.430398 0.644054
Si Si8 0.483452 0.531714 0.684391
O O1 0.410059 0.026368 0.540982
O O2 0.022642 0.046988 0.254616
O O3 0.286723 0.920013 0.380007
O O4 0.026422 0.930390 0.351903
O O5 0.396331 0.165526 0.267436
O O6 0.555593 0.231739 0.247223
O O7 0.427333 0.062467 0.180031
O O8 0.810254 0.115223 0.445346
O O9 0.818633 0.693607 0.810045
O O10 0.950607 0.839422 0.831410
O O11 0.046384 0.807070 0.007722
O O12 0.294859 0.852108 0.255849
O O13 0.429497 0.897401 0.211623
O O14 0.126626 0.002071 0.194422
O O15 0.242998 0.038855 0.688852
O O16 0.690427 0.445576 0.473032
#
# Coordination Sequence:
#
# PCOD9242920 Si02
#       8
#     4   4   4   4   4   4   4   4
#     4   9  20  37  58  83 110 160 194 231 281 343
#     4  11  22  35  59  87 116 149 189 238 301 343
#     4  10  20  36  59  85 112 149 196 241 285 348
#     4  10  20  36  57  89 111 144 192 243 287 342
#     4   9  18  37  61  81 111 149 199 237 276 340
#     4  11  22  37  56  84 121 151 190 236 292 356
#     4   9  19  36  59  83 108 152 199 232 279 339
#     4  11  21  36  57  86 117 151 183 245 302 332
#
# _framework density 18.310161999999998
#
# number of rings (size 3 to 8) (size 9 to 14) (size 15 to 20)
#    0.750    1.250    1.250    3.375    0.000    2.500 
#    0.000    2.500    0.000    0.000    0.000    0.000 
#    0.000    0.000    0.000    0.000    0.000    0.000 
#
# Total GULP energy -178351.664627 kJ/mol
# GULP energy per Si atom -5573.489520 kJ/mol
# Density = 1.826849 g / cm^3
# Si number density = 18.310162 Si / 1000 Ang^3
#
#
#
# Elastic Constant Matrix: (Units=GPa)
#
#
# Indices 1 2 3 4 5 6 
#
# 1 53.5062 31.9777 14.1323 0.0000 -0.2425 0.0000
# 2 31.9777 91.1390 8.4148 0.0000 -8.0905 0.0000
# 3 14.1323 8.4148 55.3954 0.0000 4.7030 0.0000
# 4 0.0000 0.0000 0.0000 19.7997 0.0000 3.6321
# 5 -0.2425 -8.0905 4.7030 0.0000 25.0386 0.0000
# 6 0.0000 0.0000 0.0000 3.6321 0.0000 29.5433
#
#
#
# Elastic Compliance Matrix: (Units=1/GPa)
#
#
# Indices 1 2 3 4 5 6 
#
# 1 0.025059 -0.008472 -0.004974 0.000000 -0.001561 0.000000
# 2 -0.008472 0.014396 -0.000420 0.000000 0.004649 0.000000
# 3 -0.004974 -0.000420 0.019715 0.000000 -0.003887 0.000000
# 4 0.000000 0.000000 0.000000 0.051671 0.000000 -0.006353
# 5 -0.001561 0.004649 -0.003887 0.000000 0.042155 0.000000
# 6 0.000000 0.000000 0.000000 -0.006353 0.000000 0.034630
#
#
# Mechanical properties :
#
#
# Convention : Reuss Voigt Hill
#
# Bulk Modulus (GPa) = 31.80780 34.34337 33.07558
# Shear Modulus (GPa) = 22.13989 24.57739 23.35864
#
# Velocity S-wave (km/s) = 3.48107 3.66769 3.57560
# Velocity P-wave (km/s) = 5.79366 6.06078 5.92873
#
# Compressibility (1/GPa) = 0.03143883
#
# Stress axis : x y z
#
# Youngs Moduli (GPa) = 39.90570 69.46301 50.72354
#
# Poissons Ratio (x) = 0.58847 0.25228
# Poissons Ratio (y) = 0.33807 0.02132
# Poissons Ratio (z) = 0.19848 0.02919
#
# Static dielectric constant tensor:
#      x y z
#    x 1.622600 0.000000 0.008450 
#    y 0.000000 1.638730 0.000000 
#    z 0.008450 0.000000 1.637080 
# 
# From -- ./inp_files/67488.got.cif
#   From: 2010.05.17/outbox.cif.g08.bks.cpg/sg14_34_cif.got.tgz:67488.got - 2010.06.03 17:49:19.
