data_PCOD9242522
_publ_section_title
;
Structure prediction by ZEFSAII (Michael W. Deem and Ramdas Pophale) SiO2 
 PCOD9242522
Probable space group: P 21/C
;
_chemical_formula_sum "Si O2"
_cell_formula_units_Z 26
_cell_length_a 6.695135
_cell_length_b 7.012653
_cell_length_c 18.885460
_cell_angle_alpha 90.000000
_cell_angle_beta 74.607935
_cell_angle_gamma 90.000000
_cell_volume 854.881327
_symmetry_space_group_name_H-M "P 21/C"
_symmetry_group_IT_number 14
_symmetry_cell_setting 'monoclinic'
loop_
_space_group_symop_operation_xyz
x,y,z
-x,1/2+y,1/2-z
-x,-y,-z
x,1/2-y,1/2+z
loop_
_atom_site_type_symbol
_atom_site_label
_atom_site_fract_x
_atom_site_fract_y
_atom_site_fract_z
Si Si1 0.884274 0.802688 0.624998
Si Si2 0.667168 0.770006 0.779474
Si Si3 0.557809 0.310642 0.904623
Si Si4 0.533439 0.262715 0.563524
Si Si5 0.022921 0.721449 0.905507
Si Si6 0.224862 0.670293 0.248290
Si Si7 0.000000 0.000000 0.000000
O O1 0.830002 0.868598 0.711739
O O2 0.646772 0.774707 0.621345
O O3 0.984641 0.620924 0.578318
O O4 0.986130 0.995760 0.585356
O O5 0.614874 0.850053 0.862231
O O6 0.749152 0.555070 0.763334
O O7 0.434491 0.763008 0.768833
O O8 0.534659 0.539397 0.921281
O O9 0.752450 0.264346 0.835132
O O10 0.559487 0.205238 0.978479
O O11 0.771299 0.297772 0.569661
O O12 0.050347 0.775082 0.821232
O O13 0.865177 0.829014 0.970319
#
# Coordination Sequence:
#
# PCOD9242522 Si02
#       7
#     4   4   4   4   4   4   2
#     4  10  20  34  54  79 104 138 176 216 258 307
#     4   9  15  27  49  77 108 131 165 215 263 307
#     4   8  15  29  53  84 108 132 164 216 273 311
#     4   8  15  29  53  84 108 132 164 216 273 311
#     4  10  20  34  54  79 104 138 176 216 258 307
#     4   9  15  27  49  77 108 131 165 215 263 307
#     4  12  22  36  54  74 106 140 186 214 244 306
#
# _framework density 30.413577
#
# number of rings (size 3 to 8) (size 9 to 14) (size 15 to 20)
#    0.000    2.769    1.538    3.231    0.000    0.000 
#    0.000    0.769    0.000    1.846    0.000    0.000 
#    0.000    0.000    0.000    0.000    0.000    0.000 
#
# Total GULP energy -145210.467811 kJ/mol
# GULP energy per Si atom -5585.017993 kJ/mol
# Density = 3.034435 g / cm^3
# Si number density = 30.413577 Si / 1000 Ang^3
#
#
#
# Elastic Constant Matrix: (Units=GPa)
#
#
# Indices 1 2 3 4 5 6 
#
# 1 95.6659 -15.8928 40.8580 0.0000 -16.9224 0.0000
# 2 -15.8928 112.6103 6.0187 0.0000 17.3474 0.0000
# 3 40.8580 6.0187 262.4337 0.0000 22.0991 0.0000
# 4 0.0000 0.0000 0.0000 43.9215 0.0000 3.1448
# 5 -16.9224 17.3474 22.0991 0.0000 55.3101 0.0000
# 6 0.0000 0.0000 0.0000 3.1448 0.0000 8.0508
#
#
#
# Elastic Compliance Matrix: (Units=1/GPa)
#
#
# Indices 1 2 3 4 5 6 
#
# 1 0.012417 0.001207 -0.002327 0.000000 0.004350 0.000000
# 2 0.001207 0.009449 -0.000193 0.000000 -0.002517 0.000000
# 3 -0.002327 -0.000193 0.004379 0.000000 -0.002401 0.000000
# 4 0.000000 0.000000 0.000000 0.023423 0.000000 -0.009150
# 5 0.004350 -0.002517 -0.002401 0.000000 0.021160 0.000000
# 6 0.000000 0.000000 0.000000 -0.009150 0.000000 0.127786
#
#
# Mechanical properties :
#
#
# Convention : Reuss Voigt Hill
#
# Bulk Modulus (GPa) = 42.33937 59.18640 50.76289
# Shear Modulus (GPa) = 23.91050 50.77153 37.34101
#
# Velocity S-wave (km/s) = 2.80693 4.09023 3.50776
# Velocity P-wave (km/s) = 4.94536 6.46602 5.75612
#
# Compressibility (1/GPa) = 0.02361868
#
# Stress axis : x y z
#
# Youngs Moduli (GPa) = 80.53498 105.83622 228.33969
#
# Poissons Ratio (x) = -0.12770 0.53139
# Poissons Ratio (y) = -0.09718 0.04397
# Poissons Ratio (z) = 0.18742 0.02038
#
# Static dielectric constant tensor:
#      x y z
#    x 2.256290 0.000000 0.526840 
#    y 0.000000 2.032310 0.000000 
#    z 0.526840 0.000000 2.045670 
# 
# From -- ./inp_files/66594.got.cif
#   From: 2010.05.17/outbox.cif.g08.bks.cpg/sg14_34_cif.got.tgz:66594.got - 2010.06.03 17:49:19.
