data_PCOD9242449
_publ_section_title
;
Structure prediction by ZEFSAII (Michael W. Deem and Ramdas Pophale) SiO2 
 PCOD9242449
Probable space group: P 21/C
;
_chemical_formula_sum "Si O2"
_cell_formula_units_Z 28
_cell_length_a 8.606799
_cell_length_b 18.353938
_cell_length_c 9.370916
_cell_angle_alpha 90.000000
_cell_angle_beta 48.747927
_cell_angle_gamma 90.000000
_cell_volume 1112.921422
_symmetry_space_group_name_H-M "P 21/C"
_symmetry_group_IT_number 14
_symmetry_cell_setting 'monoclinic'
loop_
_space_group_symop_operation_xyz
x,y,z
-x,1/2+y,1/2-z
-x,-y,-z
x,1/2-y,1/2+z
loop_
_atom_site_type_symbol
_atom_site_label
_atom_site_fract_x
_atom_site_fract_y
_atom_site_fract_z
Si Si1 0.280669 0.603028 0.002519
Si Si2 0.410109 0.890247 0.744404
Si Si3 0.863742 0.550694 0.874665
Si Si4 0.224332 0.190335 0.983771
Si Si5 0.022739 0.823190 0.445700
Si Si6 0.272137 0.456875 0.360364
Si Si7 0.606420 0.786448 0.833136
O O1 0.304655 0.623824 0.154648
O O2 0.206503 0.667663 0.945401
O O3 0.128475 0.532747 0.078192
O O4 0.496178 0.569883 0.816983
O O5 0.640696 0.916207 0.558082
O O6 0.433338 0.825783 0.844734
O O7 0.301767 0.959552 0.883956
O O8 0.025005 0.609236 0.835978
O O9 0.853043 0.545626 0.710898
O O10 0.032850 0.247346 0.101070
O O11 0.182089 0.105164 0.016926
O O12 0.329821 0.208215 0.767084
O O13 0.393718 0.213843 0.998083
O O14 0.818209 0.830405 0.669110
#
# Coordination Sequence:
#
# PCOD9242449 Si02
#       7
#     4   4   4   4   4   4   4
#     4   9  16  29  53  85 102 128 175 230 253 298
#     4   8  16  30  52  79 103 135 176 219 258 306
#     4   8  14  29  52  76 106 136 172 207 260 318
#     4  10  20  33  55  71 105 146 176 204 259 326
#     4   9  18  29  52  74 105 136 175 209 262 311
#     4   9  17  30  54  79 106 137 176 215 263 306
#     4   9  20  34  54  71 103 145 177 208 262 328
#
# _framework density 25.159008
#
# number of rings (size 3 to 8) (size 9 to 14) (size 15 to 20)
#    0.857    2.286    0.000    3.000    2.000    0.571 
#    0.000    1.429    0.000    3.429    0.000    0.000 
#    0.000    0.000    0.000    0.000    0.000    0.000 
#
# Total GULP energy -156246.169849 kJ/mol
# GULP energy per Si atom -5580.220352 kJ/mol
# Density = 2.510174 g / cm^3
# Si number density = 25.159008 Si / 1000 Ang^3
#
#
#
# Elastic Constant Matrix: (Units=GPa)
#
#
# Indices 1 2 3 4 5 6 
#
# 1 90.6932 48.2254 14.4765 0.0000 8.4351 0.0000
# 2 48.2254 100.0867 23.5153 0.0000 -2.4896 0.0000
# 3 14.4765 23.5153 41.2368 0.0000 0.2880 0.0000
# 4 0.0000 0.0000 0.0000 29.3307 0.0000 9.0466
# 5 8.4351 -2.4896 0.2880 0.0000 25.5928 0.0000
# 6 0.0000 0.0000 0.0000 9.0466 0.0000 31.8266
#
#
#
# Elastic Compliance Matrix: (Units=1/GPa)
#
#
# Indices 1 2 3 4 5 6 
#
# 1 0.015724 -0.007431 -0.001241 0.000000 -0.005891 0.000000
# 2 -0.007431 0.015086 -0.006022 0.000000 0.003985 0.000000
# 3 -0.001241 -0.006022 0.028123 0.000000 -0.000493 0.000000
# 4 0.000000 0.000000 0.000000 0.037370 0.000000 -0.010622
# 5 -0.005891 0.003985 -0.000493 0.000000 0.041408 0.000000
# 6 0.000000 0.000000 0.000000 -0.010622 0.000000 0.034440
#
#
# Mechanical properties :
#
#
# Convention : Reuss Voigt Hill
#
# Bulk Modulus (GPa) = 33.84711 44.93901 39.39306
# Shear Modulus (GPa) = 23.65326 27.07001 25.36163
#
# Velocity S-wave (km/s) = 3.06951 3.28374 3.17843
# Velocity P-wave (km/s) = 5.10343 5.68137 5.40014
#
# Compressibility (1/GPa) = 0.02954462
#
# Stress axis : x y z
#
# Youngs Moduli (GPa) = 63.59827 66.28709 35.55776
#
# Poissons Ratio (x) = 0.49259 0.04413
# Poissons Ratio (y) = 0.47261 0.21412
# Poissons Ratio (z) = 0.07893 0.39917
#
# Static dielectric constant tensor:
#      x y z
#    x 2.007760 0.000000 -0.037760 
#    y 0.000000 2.024950 0.000000 
#    z -0.037760 0.000000 2.030510 
# 
# From -- ./inp_files/25772.got.cif
#   From: 2010.05.17/outbox.cif.g08.bks.cpg/sg14_13_cif.got.tgz:25772.got - 2010.06.03 17:49:19.
