data_PCOD9242957
_publ_section_title
;
Structure prediction by ZEFSAII (Michael W. Deem and Ramdas Pophale) SiO2 
 PCOD9242957
Probable space group: P 21/C
;
_chemical_formula_sum "Si O2"
_cell_formula_units_Z 28
_cell_length_a 5.565741
_cell_length_b 23.012494
_cell_length_c 13.550101
_cell_angle_alpha 90.000000
_cell_angle_beta 57.441279
_cell_angle_gamma 90.000000
_cell_volume 1462.764885
_symmetry_space_group_name_H-M "P 21/C"
_symmetry_group_IT_number 14
_symmetry_cell_setting 'monoclinic'
loop_
_space_group_symop_operation_xyz
x,y,z
-x,1/2+y,1/2-z
-x,-y,-z
x,1/2-y,1/2+z
loop_
_atom_site_type_symbol
_atom_site_label
_atom_site_fract_x
_atom_site_fract_y
_atom_site_fract_z
Si Si1 0.250001 0.691513 0.500000
Si Si2 0.679623 0.738555 0.651440
Si Si3 0.179622 0.238555 0.151440
Si Si4 0.555151 0.533238 0.140374
Si Si5 0.944849 0.533238 0.859625
Si Si6 0.811706 0.154552 0.768396
Si Si7 0.311707 0.654552 0.268396
O O1 0.520441 0.730919 0.468593
O O2 0.163754 0.657130 0.617484
O O3 0.336247 0.657130 0.382516
O O4 0.979560 0.730919 0.531407
O O5 0.750001 0.750000 0.750000
O O6 0.506214 0.678438 0.681105
O O7 0.494514 0.795615 0.671913
O O8 0.994513 0.295615 0.171913
O O9 0.006213 0.178438 0.181105
O O10 0.285089 0.492829 0.167812
O O11 0.413895 0.592840 0.208248
O O12 0.785089 0.507171 0.167812
O O13 0.750000 0.542974 1.000000
O O14 0.086105 0.592840 0.791751
#
# Coordination Sequence:
#
# PCOD9242957 Si02
#       7
#     4   4   4   4   4   4   4
#     4  10  20  36  58  94 126 156 198 252 310 382
#     4   9  20  35  58  90 121 158 196 248 308 369
#     4   9  20  35  58  90 121 158 196 248 308 369
#     4  10  24  44  65  90 121 163 214 263 306 364
#     4  10  24  44  65  90 121 163 214 263 306 364
#     4  10  21  38  62  88 125 161 201 254 311 371
#     4  10  21  38  62  88 125 161 201 254 311 371
#
# _framework density 19.141832000000001
#
# number of rings (size 3 to 8) (size 9 to 14) (size 15 to 20)
#    0.000    2.286    0.000    0.857    8.000    6.857 
#    2.571    1.429    0.000    0.000    0.000    0.000 
#    0.000    0.000    0.000    0.000    0.000    0.000 
#
# Total GULP energy -155903.285755 kJ/mol
# GULP energy per Si atom -5567.974491 kJ/mol
# Density = 1.909826 g / cm^3
# Si number density = 19.141832 Si / 1000 Ang^3
#
#
#
# Elastic Constant Matrix: (Units=GPa)
#
#
# Indices 1 2 3 4 5 6 
#
# 1 112.2588 50.1321 38.1574 0.0000 -22.5750 0.0000
# 2 50.1321 123.8061 69.8522 0.0000 -15.9820 0.0000
# 3 38.1574 69.8522 78.0685 0.0000 -16.4492 0.0000
# 4 0.0000 0.0000 0.0000 36.8376 0.0000 1.7004
# 5 -22.5750 -15.9820 -16.4492 0.0000 40.7692 0.0000
# 6 0.0000 0.0000 0.0000 1.7004 0.0000 16.2317
#
#
#
# Elastic Compliance Matrix: (Units=1/GPa)
#
#
# Indices 1 2 3 4 5 6 
#
# 1 0.011901 -0.003011 -0.002167 0.000000 0.004535 0.000000
# 2 -0.003011 0.017085 -0.013940 0.000000 -0.000594 0.000000
# 3 -0.002167 -0.013940 0.027255 0.000000 0.004331 0.000000
# 4 0.000000 0.000000 0.000000 0.027278 0.000000 -0.002858
# 5 0.004535 -0.000594 0.004331 0.000000 0.028554 0.000000
# 6 0.000000 0.000000 0.000000 -0.002858 0.000000 0.061907
#
#
# Mechanical properties :
#
#
# Convention : Reuss Voigt Hill
#
# Bulk Modulus (GPa) = 55.54501 70.04632 62.79566
# Shear Modulus (GPa) = 22.91281 29.16716 26.03998
#
# Velocity S-wave (km/s) = 3.46352 3.90774 3.69232
# Velocity P-wave (km/s) = 6.71381 7.55205 7.14523
#
# Compressibility (1/GPa) = 0.01800342
#
# Stress axis : x y z
#
# Youngs Moduli (GPa) = 84.02446 58.53144 36.69114
#
# Poissons Ratio (x) = 0.17622 0.07953
# Poissons Ratio (y) = 0.25298 0.51149
# Poissons Ratio (z) = 0.18212 0.81595
#
# Static dielectric constant tensor:
#      x y z
#    x 1.771450 0.000000 0.003490 
#    y 0.000000 1.633620 0.000000 
#    z 0.003490 0.000000 1.705110 
# 
# From -- ./inp_files/21963.got.cif
#   From: 2010.05.17/outbox.cif.g08.bks.cpg/sg14_11_cif.got.tgz:21963.got - 2010.06.03 17:49:19.
