data_PCOD9242207
_publ_section_title
;
Structure prediction by ZEFSAII (Michael W. Deem and Ramdas Pophale) SiO2 
 PCOD9242207
Probable space group: P 21/C
;
_chemical_formula_sum "Si O2"
_cell_formula_units_Z 12
_cell_length_a 9.058183
_cell_length_b 7.551050
_cell_length_c 8.468227
_cell_angle_alpha 90.000000
_cell_angle_beta 58.871181
_cell_angle_gamma 90.000000
_cell_volume 495.813478
_symmetry_space_group_name_H-M "P 21/C"
_symmetry_group_IT_number 14
_symmetry_cell_setting 'monoclinic'
loop_
_space_group_symop_operation_xyz
x,y,z
-x,1/2+y,1/2-z
-x,-y,-z
x,1/2-y,1/2+z
loop_
_atom_site_type_symbol
_atom_site_label
_atom_site_fract_x
_atom_site_fract_y
_atom_site_fract_z
Si Si1 0.243583 0.567324 0.311451
Si Si2 0.856715 0.407440 0.974367
Si Si3 0.486066 0.616445 0.663967
O O1 0.145289 0.695404 0.489457
O O2 0.333049 0.400595 0.344531
O O3 0.406761 0.692341 0.168992
O O4 0.135175 0.545807 0.213479
O O5 0.669283 0.460552 0.144144
O O6 0.000000 0.500000 0.000000
O O7 0.500000 0.500000 0.500000
#
# Coordination Sequence:
#
# PCOD9242207 Si02
#       3
#     4   4   4
#     4  10  20  40  63  89 118 158 206 242 301 360
#     4  10  22  40  60  91 127 153 199 254 305 353
#     4  10  19  40  65  89 117 158 205 245 295 367
#
# _framework density 24.202652
#
# number of rings (size 3 to 8) (size 9 to 14) (size 15 to 20)
#    2.000    0.000    3.333    1.000    0.000    0.000 
#   12.000    3.333    0.000    0.000    0.000    0.000 
#    0.000    0.000    0.000    0.000    0.000    0.000 
#
# Total GULP energy -66969.810614 kJ/mol
# GULP energy per Si atom -5580.817551 kJ/mol
# Density = 2.414757 g / cm^3
# Si number density = 24.202652 Si / 1000 Ang^3
#
#
#
# Elastic Constant Matrix: (Units=GPa)
#
#
# Indices 1 2 3 4 5 6 
#
# 1 149.1173 37.0301 41.1880 0.0000 42.3532 0.0000
# 2 37.0301 67.1439 17.5290 0.0000 2.0422 0.0000
# 3 41.1880 17.5290 86.9358 0.0000 20.8200 0.0000
# 4 0.0000 0.0000 0.0000 28.6071 0.0000 5.3220
# 5 42.3532 2.0422 20.8200 0.0000 51.5724 0.0000
# 6 0.0000 0.0000 0.0000 5.3220 0.0000 42.3335
#
#
#
# Elastic Compliance Matrix: (Units=1/GPa)
#
#
# Indices 1 2 3 4 5 6 
#
# 1 0.010804 -0.005142 -0.002220 0.000000 -0.007773 0.000000
# 2 -0.005142 0.018193 -0.002292 0.000000 0.004428 0.000000
# 3 -0.002220 -0.002292 0.013903 0.000000 -0.003698 0.000000
# 4 0.000000 0.000000 0.000000 0.035793 0.000000 -0.004500
# 5 -0.007773 0.004428 -0.003698 0.000000 0.027091 0.000000
# 6 0.000000 0.000000 0.000000 -0.004500 0.000000 0.024188
#
#
# Mechanical properties :
#
#
# Convention : Reuss Voigt Hill
#
# Bulk Modulus (GPa) = 42.39189 54.96570 48.67880
# Shear Modulus (GPa) = 31.81755 38.33260 35.07508
#
# Velocity S-wave (km/s) = 3.62972 3.98404 3.81100
# Velocity P-wave (km/s) = 5.92620 6.62747 6.28662
#
# Compressibility (1/GPa) = 0.02358942
#
# Stress axis : x y z
#
# Youngs Moduli (GPa) = 92.55762 54.96542 71.92881
#
# Poissons Ratio (x) = 0.28266 0.15971
# Poissons Ratio (y) = 0.47597 0.16490
# Poissons Ratio (z) = 0.20551 0.12601
#
# Static dielectric constant tensor:
#      x y z
#    x 1.934440 0.000000 -0.014760 
#    y 0.000000 2.030460 0.000000 
#    z -0.014760 0.000000 1.906620 
# 
# From -- ./inp_files/4755.got.cif
#   From: 2010.05.17/outbox.cif.g08.bks.cpg/sg14_3_cif.got.tgz:4755.got - 2010.06.03 17:49:19.
