data_PCOD9242493
_publ_section_title
;
Structure prediction by ZEFSAII (Michael W. Deem and Ramdas Pophale) SiO2 
 PCOD9242493
Probable space group: P 21/C
;
_chemical_formula_sum "Si O2"
_cell_formula_units_Z 28
_cell_length_a 9.394799
_cell_length_b 7.912920
_cell_length_c 18.461715
_cell_angle_alpha 90.000000
_cell_angle_beta 103.005118
_cell_angle_gamma 90.000000
_cell_volume 1337.245931
_symmetry_space_group_name_H-M "P 21/C"
_symmetry_group_IT_number 14
_symmetry_cell_setting 'monoclinic'
loop_
_space_group_symop_operation_xyz
x,y,z
-x,1/2+y,1/2-z
-x,-y,-z
x,1/2-y,1/2+z
loop_
_atom_site_type_symbol
_atom_site_label
_atom_site_fract_x
_atom_site_fract_y
_atom_site_fract_z
Si Si1 0.039897 0.876402 0.779211
Si Si2 0.357376 0.057862 0.025552
Si Si3 0.053815 0.075283 0.929372
Si Si4 0.686537 0.001256 0.269147
Si Si5 0.493521 0.233413 0.663613
Si Si6 0.768113 0.045867 0.720915
Si Si7 0.241401 0.704689 0.626631
O O1 0.152425 0.992800 0.745980
O O2 0.119982 0.697383 0.786177
O O3 0.036332 0.945538 0.860816
O O4 0.875222 0.886136 0.728890
O O5 0.400946 0.207759 0.084826
O O6 0.304014 0.894564 0.065655
O O7 0.223472 0.114146 0.959342
O O8 0.500000 0.000000 0.000000
O O9 0.934493 0.219749 0.899851
O O10 0.000000 0.000000 0.000000
O O11 0.585616 0.104602 0.201461
O O12 0.692822 0.117244 0.342506
O O13 0.612744 0.828595 0.284488
O O14 0.615623 0.086459 0.664078
O O15 0.730758 0.083008 0.800874
#
# Coordination Sequence:
#
# PCOD9242493 Si02
#       7
#     4   4   4   4   4   4   4
#     4   9  18  33  53  78 100 134 177 215 262 311
#     4  11  20  34  56  79 107 145 179 211 261 330
#     4   9  18  32  52  74 104 142 177 211 251 313
#     4  10  20  35  56  79 107 136 175 230 272 312
#     4  10  20  34  52  82 107 136 172 219 280 314
#     4   9  18  32  51  76 104 128 168 223 263 305
#     4   8  18  36  52  74 104 137 175 219 262 305
#
# _framework density 20.938558
#
# number of rings (size 3 to 8) (size 9 to 14) (size 15 to 20)
#    0.000    2.857    0.000    3.429    0.000    4.571 
#    0.000    4.286    0.000    5.143    0.000    0.000 
#    0.000    0.000    0.000    0.000    0.000    0.000 
#
# Total GULP energy -156071.162847 kJ/mol
# GULP energy per Si atom -5573.970102 kJ/mol
# Density = 2.089090 g / cm^3
# Si number density = 20.938558 Si / 1000 Ang^3
#
#
#
# Elastic Constant Matrix: (Units=GPa)
#
#
# Indices 1 2 3 4 5 6 
#
# 1 111.2214 14.9821 16.5452 0.0000 7.2253 0.0000
# 2 14.9821 27.3780 5.1970 0.0000 -0.0236 0.0000
# 3 16.5452 5.1970 52.7838 0.0000 13.0888 0.0000
# 4 0.0000 0.0000 0.0000 25.2031 0.0000 2.3985
# 5 7.2253 -0.0236 13.0888 0.0000 45.3659 0.0000
# 6 0.0000 0.0000 0.0000 2.3985 0.0000 37.5597
#
#
#
# Elastic Compliance Matrix: (Units=1/GPa)
#
#
# Indices 1 2 3 4 5 6 
#
# 1 0.010095 -0.005062 -0.002441 0.000000 -0.000906 0.000000
# 2 -0.005062 0.039816 -0.002734 0.000000 0.001616 0.000000
# 3 -0.002441 -0.002734 0.021416 0.000000 -0.005791 0.000000
# 4 0.000000 0.000000 0.000000 0.039920 0.000000 -0.002549
# 5 -0.000906 0.001616 -0.005791 0.000000 0.023859 0.000000
# 6 0.000000 0.000000 0.000000 -0.002549 0.000000 0.026787
#
#
# Mechanical properties :
#
#
# Convention : Reuss Voigt Hill
#
# Bulk Modulus (GPa) = 19.66479 29.42576 24.54527
# Shear Modulus (GPa) = 25.08554 31.93636 28.51095
#
# Velocity S-wave (km/s) = 3.46505 3.90967 3.69405
# Velocity P-wave (km/s) = 5.04190 5.87066 5.47199
#
# Compressibility (1/GPa) = 0.05085232
#
# Stress axis : x y z
#
# Youngs Moduli (GPa) = 99.05974 25.11552 46.69471
#
# Poissons Ratio (x) = 0.12713 0.11399
# Poissons Ratio (y) = 0.50141 0.12768
# Poissons Ratio (z) = 0.24183 0.06867
#
# Static dielectric constant tensor:
#      x y z
#    x 1.816060 0.000000 0.030120 
#    y 0.000000 2.158300 0.000000 
#    z 0.030120 0.000000 1.762530 
# 
# From -- ./inp_files/64613.got.cif
#   From: 2010.05.17/outbox.cif.g08.bks.cpg/sg14_33_cif.got.tgz:64613.got - 2010.06.03 17:49:19.
