data_PCOD9242587
_publ_section_title
;
Structure prediction by ZEFSAII (Michael W. Deem and Ramdas Pophale) SiO2 
 PCOD9242587
Probable space group: P 21/C
;
_chemical_formula_sum "Si O2"
_cell_formula_units_Z 28
_cell_length_a 7.773218
_cell_length_b 18.071697
_cell_length_c 8.673645
_cell_angle_alpha 90.000000
_cell_angle_beta 82.083923
_cell_angle_gamma 90.000000
_cell_volume 1206.821751
_symmetry_space_group_name_H-M "P 21/C"
_symmetry_group_IT_number 14
_symmetry_cell_setting 'monoclinic'
loop_
_space_group_symop_operation_xyz
x,y,z
-x,1/2+y,1/2-z
-x,-y,-z
x,1/2-y,1/2+z
loop_
_atom_site_type_symbol
_atom_site_label
_atom_site_fract_x
_atom_site_fract_y
_atom_site_fract_z
Si Si1 0.860309 0.585491 0.869011
Si Si2 0.041415 0.075703 0.292492
Si Si3 0.135709 0.838305 0.140340
Si Si4 0.327033 0.856902 0.716667
Si Si5 0.304851 0.728199 0.916795
Si Si6 0.530513 0.516309 0.822103
Si Si7 0.695483 0.012271 0.907472
O O1 0.676228 0.577993 0.806514
O O2 0.949377 0.504426 0.833258
O O3 0.963916 0.644260 0.755843
O O4 0.870502 0.597849 0.053209
O O5 0.883058 0.131003 0.271419
O O6 0.178350 0.058106 0.136564
O O7 0.261501 0.813556 0.264993
O O8 0.199686 0.915113 0.052793
O O9 0.143049 0.770600 0.020396
O O10 0.399397 0.800839 0.837003
O O11 0.378662 0.824194 0.541388
O O12 0.399604 0.937380 0.742421
O O13 0.353313 0.533552 0.761761
O O14 0.500000 0.500000 0.000000
O O15 0.500000 0.000000 0.000000
#
# Coordination Sequence:
#
# PCOD9242587 Si02
#       7
#     4   4   4   4   4   4   4
#     4   9  17  32  56  81 104 133 180 230 270 317
#     4   9  17  33  55  79 107 136 175 229 274 317
#     4  10  20  37  58  82 108 145 190 228 279 328
#     4  10  20  35  57  82 106 144 190 224 277 329
#     4  10  20  34  58  79 108 147 189 229 259 343
#     4  11  20  33  58  86 109 144 184 230 282 334
#     4  11  22  35  56  87 118 143 178 239 288 322
#
# _framework density 23.201439000000001
#
# number of rings (size 3 to 8) (size 9 to 14) (size 15 to 20)
#    0.000    2.000    2.857    1.714    0.000    1.143 
#    0.000    4.286    0.000   34.286    0.000    0.000 
#    0.000    0.000    0.000    0.000    0.000    0.000 
#
# Total GULP energy -155915.288015 kJ/mol
# GULP energy per Si atom -5568.403143 kJ/mol
# Density = 2.314863 g / cm^3
# Si number density = 23.201439 Si / 1000 Ang^3
#
#
#
# Elastic Constant Matrix: (Units=GPa)
#
#
# Indices 1 2 3 4 5 6 
#
# 1 40.1747 9.1054 -6.1437 0.0000 2.0403 0.0000
# 2 9.1054 68.9791 20.9061 0.0000 -5.1644 0.0000
# 3 -6.1437 20.9061 83.3692 0.0000 -4.5189 0.0000
# 4 0.0000 0.0000 0.0000 43.6288 0.0000 -12.7299
# 5 2.0403 -5.1644 -4.5189 0.0000 37.7373 0.0000
# 6 0.0000 0.0000 0.0000 -12.7299 0.0000 8.5924
#
#
#
# Elastic Compliance Matrix: (Units=1/GPa)
#
#
# Indices 1 2 3 4 5 6 
#
# 1 0.026461 -0.004527 0.002993 0.000000 -0.001692 0.000000
# 2 -0.004527 0.016571 -0.004381 0.000000 0.001988 0.000000
# 3 0.002993 -0.004381 0.013360 0.000000 0.000838 0.000000
# 4 0.000000 0.000000 0.000000 0.040373 0.000000 0.059813
# 5 -0.001692 0.001988 0.000838 0.000000 0.026963 0.000000
# 6 0.000000 0.000000 0.000000 0.059813 0.000000 0.204996
#
#
# Mechanical properties :
#
#
# Convention : Reuss Voigt Hill
#
# Bulk Modulus (GPa) = 22.44042 26.69541 24.56791
# Shear Modulus (GPa) = 14.06836 29.23538 21.65187
#
# Velocity S-wave (km/s) = 2.46510 3.55359 3.05817
# Velocity P-wave (km/s) = 4.21845 5.32619 4.80435
#
# Compressibility (1/GPa) = 0.04456245
#
# Stress axis : x y z
#
# Youngs Moduli (GPa) = 37.79156 60.34477 74.85263
#
# Poissons Ratio (x) = 0.27317 -0.22407
# Poissons Ratio (y) = 0.17108 0.32796
# Poissons Ratio (z) = -0.11313 0.26439
#
# Static dielectric constant tensor:
#      x y z
#    x 1.868820 0.000000 -0.093360 
#    y 0.000000 1.985680 0.000000 
#    z -0.093360 0.000000 2.082240 
# 
# From -- ./inp_files/9394.got.cif
#   From: 2010.05.17/outbox.cif.g08.bks.cpg/sg14_5_cif.got.tgz:9394.got - 2010.06.03 17:49:19.
