data_PCOD9242286
_publ_section_title
;
Structure prediction by ZEFSAII (Michael W. Deem and Ramdas Pophale) SiO2 
 PCOD9242286
Probable space group: P 21/C
;
_chemical_formula_sum "Si O2"
_cell_formula_units_Z 20
_cell_length_a 11.812737
_cell_length_b 11.665776
_cell_length_c 15.224720
_cell_angle_alpha 90.000000
_cell_angle_beta 27.952717
_cell_angle_gamma 90.000000
_cell_volume 983.440413
_symmetry_space_group_name_H-M "P 21/C"
_symmetry_group_IT_number 14
_symmetry_cell_setting 'monoclinic'
loop_
_space_group_symop_operation_xyz
x,y,z
-x,1/2+y,1/2-z
-x,-y,-z
x,1/2-y,1/2+z
loop_
_atom_site_type_symbol
_atom_site_label
_atom_site_fract_x
_atom_site_fract_y
_atom_site_fract_z
Si Si1 0.899802 0.282731 0.703353
Si Si2 0.155105 0.888289 0.411269
Si Si3 0.116788 0.713517 0.584240
Si Si4 0.817229 0.524171 0.705650
Si Si5 0.426214 0.169413 0.763968
O O1 0.909549 0.254599 0.798717
O O2 0.173264 0.302209 0.481505
O O3 0.803346 0.182208 0.706650
O O4 0.752356 0.399743 0.786292
O O5 0.411124 0.908906 0.283223
O O6 0.025885 0.803424 0.571381
O O7 0.000000 0.000000 0.500000
O O8 0.972858 0.597248 0.667734
O O9 0.404434 0.718976 0.366538
O O10 0.615071 0.601830 0.798465
O O11 0.000000 0.500000 0.500000
#
# Coordination Sequence:
#
# PCOD9242286 Si02
#       5
#     4   4   4   4   4
#     4  11  23  40  64  90 120 162 204 244 302 364
#     4  10  23  41  58  93 126 150 203 259 291 357
#     4  10  23  39  61  92 117 157 204 244 303 355
#     4  10  19  42  63  86 121 159 207 246 291 372
#     4   9  20  41  62  86 120 162 192 253 301 344
#
# _framework density 20.336767999999999
#
# number of rings (size 3 to 8) (size 9 to 14) (size 15 to 20)
#    1.200    0.800    4.000    0.000    2.800    7.200 
#    0.000    1.000    0.000    0.000    0.000    0.000 
#    0.000    0.000    0.000    0.000    0.000    0.000 
#
# Total GULP energy -111424.036827 kJ/mol
# GULP energy per Si atom -5571.201841 kJ/mol
# Density = 2.029048 g / cm^3
# Si number density = 20.336768 Si / 1000 Ang^3
#
#
#
# Elastic Constant Matrix: (Units=GPa)
#
#
# Indices 1 2 3 4 5 6 
#
# 1 93.9914 21.6749 12.6573 0.0000 11.4443 0.0000
# 2 21.6749 62.9955 -13.1443 0.0000 2.9887 0.0000
# 3 12.6573 -13.1443 46.6976 0.0000 3.7797 0.0000
# 4 0.0000 0.0000 0.0000 -10.3228 0.0000 17.5614
# 5 11.4443 2.9887 3.7797 0.0000 48.8881 0.0000
# 6 0.0000 0.0000 0.0000 17.5614 0.0000 25.8766
#
#
#
# Elastic Compliance Matrix: (Units=1/GPa)
#
#
# Indices 1 2 3 4 5 6 
#
# 1 0.012779 -0.005282 -0.004764 0.000000 -0.002300 0.000000
# 2 -0.005282 0.019144 0.006858 0.000000 -0.000464 0.000000
# 3 -0.004764 0.006858 0.024735 0.000000 -0.001216 0.000000
# 4 0.000000 0.000000 0.000000 -0.044962 0.000000 0.030514
# 5 -0.002300 -0.000464 -0.001216 0.000000 0.021116 0.000000
# 6 0.000000 0.000000 0.000000 0.030514 0.000000 0.017936
#
#
# Mechanical properties :
#
#
# Convention : Reuss Voigt Hill
#
# Bulk Modulus (GPa) = 19.88799 27.34004 23.61401
# Shear Modulus (GPa) = 67.67264 25.05480 46.36372
#
# Velocity S-wave (km/s) = 5.77479 3.51379 4.77990
# Velocity P-wave (km/s) = 7.36647 5.47130 6.48845
#
# Compressibility (1/GPa) = 0.05028160
#
# Stress axis : x y z
#
# Youngs Moduli (GPa) = 78.25378 52.23450 40.42934
#
# Poissons Ratio (x) = 0.27589 0.19262
# Poissons Ratio (y) = 0.41332 -0.27726
# Poissons Ratio (z) = 0.37282 -0.35822
#
# Static dielectric constant tensor:
#      x y z
#    x 1.734910 0.000000 -0.030760 
#    y 0.000000 1.764140 0.000000 
#    z -0.030760 0.000000 1.737770 
# 
# From -- ./inp_files/44557.got.cif
#   From: 2010.05.17/outbox.cif.g08.bks.cpg/sg14_23_cif.got.tgz:44557.got - 2010.06.03 17:49:19.
