data_PCOD9242351
_publ_section_title
;
Structure prediction by ZEFSAII (Michael W. Deem and Ramdas Pophale) SiO2 
 PCOD9242351
Probable space group: P 21/C
;
_chemical_formula_sum "Si O2"
_cell_formula_units_Z 32
_cell_length_a 28.723458
_cell_length_b 8.071035
_cell_length_c 19.811113
_cell_angle_alpha 90.000000
_cell_angle_beta 158.760319
_cell_angle_gamma 90.000000
_cell_volume 1663.824107
_symmetry_space_group_name_H-M "P 21/C"
_symmetry_group_IT_number 14
_symmetry_cell_setting 'monoclinic'
loop_
_space_group_symop_operation_xyz
x,y,z
-x,1/2+y,1/2-z
-x,-y,-z
x,1/2-y,1/2+z
loop_
_atom_site_type_symbol
_atom_site_label
_atom_site_fract_x
_atom_site_fract_y
_atom_site_fract_z
Si Si1 0.199540 0.889250 0.452208
Si Si2 0.087081 0.952814 0.749882
Si Si3 0.940536 0.743061 0.945182
Si Si4 0.641758 0.970398 0.915530
Si Si5 0.018994 0.923462 0.916204
Si Si6 0.689624 0.973823 0.124281
Si Si7 0.469338 0.788769 0.776466
Si Si8 0.828353 0.144167 0.433660
O O1 0.127250 0.713435 0.343506
O O2 0.332614 0.881220 0.591086
O O3 0.228713 0.895884 0.570710
O O4 0.103156 0.028098 0.294396
O O5 0.041865 0.883394 0.615757
O O6 0.216662 0.061121 0.921530
O O7 0.963769 0.043934 0.612954
O O8 0.980819 0.797876 0.925002
O O9 0.802866 0.657343 0.762584
O O10 0.939268 0.907866 0.989793
O O11 0.564787 0.096213 0.764433
O O12 0.554635 0.821235 0.824459
O O13 0.667324 0.065275 0.022245
O O14 0.129202 0.833477 0.022207
O O15 0.736369 0.083327 0.249184
O O16 0.558676 0.868701 0.954975
#
# Coordination Sequence:
#
# PCOD9242351 Si02
#       8
#     4   4   4   4   4   4   4   4
#     4  10  21  35  51  75 110 144 179 211 252 316
#     4   9  18  34  52  76 107 136 167 224 272 302
#     4   9  18  33  53  80 110 123 173 224 277 300
#     4   9  18  34  52  77 100 132 173 216 264 309
#     4  10  20  31  55  84 101 141 172 225 261 306
#     4   9  20  34  53  78 105 142 164 221 267 309
#     4   9  21  35  52  77 103 139 174 213 264 308
#     4  11  20  34  54  78 108 142 176 210 261 321
#
# _framework density 19.232800999999998
#
# number of rings (size 3 to 8) (size 9 to 14) (size 15 to 20)
#    0.750    1.750    0.000    2.250    1.750    3.500 
#    0.000    0.000    0.000    0.750    0.000    0.000 
#    0.000    0.000    0.000    0.000    0.000    0.000 
#
# Total GULP energy -178235.986612 kJ/mol
# GULP energy per Si atom -5569.874582 kJ/mol
# Density = 1.918903 g / cm^3
# Si number density = 19.232801 Si / 1000 Ang^3
#
#
#
# Elastic Constant Matrix: (Units=GPa)
#
#
# Indices 1 2 3 4 5 6 
#
# 1 38.8590 -3.1560 -4.5513 0.0000 -8.6244 0.0000
# 2 -3.1560 38.8431 16.2110 0.0000 7.4402 0.0000
# 3 -4.5513 16.2110 69.6516 0.0000 1.6513 0.0000
# 4 0.0000 0.0000 0.0000 29.3299 0.0000 2.4043
# 5 -8.6244 7.4402 1.6513 0.0000 21.0122 0.0000
# 6 0.0000 0.0000 0.0000 2.4043 0.0000 14.2163
#
#
#
# Elastic Compliance Matrix: (Units=1/GPa)
#
#
# Indices 1 2 3 4 5 6 
#
# 1 0.028502 -0.000670 0.001739 0.000000 0.011799 0.000000
# 2 -0.000670 0.030600 -0.006915 0.000000 -0.010567 0.000000
# 3 0.001739 -0.006915 0.016035 0.000000 0.001902 0.000000
# 4 0.000000 0.000000 0.000000 0.034574 0.000000 -0.005847
# 5 0.011799 -0.010567 0.001902 0.000000 0.056026 0.000000
# 6 0.000000 0.000000 0.000000 -0.005847 0.000000 0.071331
#
#
# Mechanical properties :
#
#
# Convention : Reuss Voigt Hill
#
# Bulk Modulus (GPa) = 15.76186 18.26234 17.01210
# Shear Modulus (GPa) = 18.52469 22.16833 20.34651
#
# Velocity S-wave (km/s) = 3.10688 3.39873 3.25608
# Velocity P-wave (km/s) = 4.59167 4.99177 4.79589
#
# Compressibility (1/GPa) = 0.06344428
#
# Stress axis : x y z
#
# Youngs Moduli (GPa) = 35.08528 32.67948 62.36293
#
# Poissons Ratio (x) = 0.02189 -0.10842
# Poissons Ratio (y) = 0.02350 0.43126
# Poissons Ratio (z) = -0.06100 0.22599
#
# Static dielectric constant tensor:
#      x y z
#    x 1.681750 0.000000 -0.007440 
#    y 0.000000 1.699630 0.000000 
#    z -0.007440 0.000000 1.684140 
# 
# From -- ./inp_files/66851.got.cif
#   From: 2010.05.17/outbox.cif.g08.bks.cpg/sg14_34_cif.got.tgz:66851.got - 2010.06.03 17:49:19.
