data_PCOD9242235
_publ_section_title
;
Structure prediction by ZEFSAII (Michael W. Deem and Ramdas Pophale) SiO2 
 PCOD9242235
Probable space group: P 21/C
;
_chemical_formula_sum "Si O2"
_cell_formula_units_Z 32
_cell_length_a 14.757687
_cell_length_b 17.349042
_cell_length_c 11.688891
_cell_angle_alpha 90.000000
_cell_angle_beta 30.157315
_cell_angle_gamma 90.000000
_cell_volume 1503.474005
_symmetry_space_group_name_H-M "P 21/C"
_symmetry_group_IT_number 14
_symmetry_cell_setting 'monoclinic'
loop_
_space_group_symop_operation_xyz
x,y,z
-x,1/2+y,1/2-z
-x,-y,-z
x,1/2-y,1/2+z
loop_
_atom_site_type_symbol
_atom_site_label
_atom_site_fract_x
_atom_site_fract_y
_atom_site_fract_z
Si Si1 0.939372 0.614285 0.771657
Si Si2 0.464864 0.111889 0.310734
Si Si3 0.511523 0.409232 0.010620
Si Si4 0.364883 0.062817 0.907005
Si Si5 0.973459 0.056149 0.267194
Si Si6 0.898739 0.162478 0.136032
Si Si7 0.376775 0.568103 0.690162
Si Si8 0.783622 0.330084 0.339265
O O1 0.983957 0.525758 0.692266
O O2 0.982936 0.660313 0.608356
O O3 0.063357 0.636341 0.743780
O O4 0.729752 0.618067 0.033206
O O5 0.437560 0.125673 0.474977
O O6 0.553740 0.025669 0.193940
O O7 0.605401 0.173741 0.111647
O O8 0.715751 0.383210 0.804798
O O9 0.500000 0.500000 0.000000
O O10 0.406111 0.395739 0.242292
O O11 0.473631 0.104542 0.888856
O O12 0.150368 0.061152 0.153556
O O13 0.971413 0.121178 0.171674
O O14 0.791647 0.051954 0.540972
O O15 0.848109 0.249280 0.221431
O O16 0.500000 0.500000 0.500000
O O17 0.284785 0.616136 0.689593
#
# Coordination Sequence:
#
# PCOD9242235 Si02
#       8
#     4   4   4   4   4   4   4   4
#     4  12  23  47  76 100 138 184 246 291 347 428
#     4  11  21  45  72 101 138 179 226 290 355 410
#     4  10  19  40  71  99 132 172 234 289 338 405
#     4  11  21  41  71 109 129 171 243 292 336 413
#     4  12  23  43  78 104 135 188 239 300 340 423
#     4  12  26  45  73 106 145 183 235 301 367 413
#     4  12  24  44  71 105 140 189 242 283 353 432
#     4  12  28  46  67 104 151 186 224 296 369 425
#
# _framework density 21.284040000000001
#
# number of rings (size 3 to 8) (size 9 to 14) (size 15 to 20)
#    0.000    0.500    6.250    2.625    1.750    3.000 
#    4.500    0.000    2.750    0.000    0.000    0.000 
#    0.000    0.000    0.000    0.000    0.000    0.000 
#
# Total GULP energy -178680.058829 kJ/mol
# GULP energy per Si atom -5583.751838 kJ/mol
# Density = 2.123560 g / cm^3
# Si number density = 21.284040 Si / 1000 Ang^3
#
#
#
# Elastic Constant Matrix: (Units=GPa)
#
#
# Indices 1 2 3 4 5 6 
#
# 1 168.1232 56.8861 77.7912 0.0000 -10.5270 0.0000
# 2 56.8861 80.5535 -6.4773 0.0000 -7.8708 0.0000
# 3 77.7912 -6.4773 -54.2809 0.0000 -64.3605 0.0000
# 4 0.0000 0.0000 0.0000 22.0378 0.0000 -1.2330
# 5 -10.5270 -7.8708 -64.3605 0.0000 46.7718 0.0000
# 6 0.0000 0.0000 0.0000 -1.2330 0.0000 18.1071
#
#
#
# Elastic Compliance Matrix: (Units=1/GPa)
#
#
# Indices 1 2 3 4 5 6 
#
# 1 0.006019 -0.003512 0.003093 0.000000 0.005020 0.000000
# 2 -0.003512 0.014345 -0.003294 0.000000 -0.002910 0.000000
# 3 0.003093 -0.003294 -0.005231 0.000000 -0.007056 0.000000
# 4 0.000000 0.000000 0.000000 0.045550 0.000000 0.003102
# 5 0.005020 -0.002910 -0.007056 0.000000 0.012311 0.000000
# 6 0.000000 0.000000 0.000000 0.003102 0.000000 0.055438
#
#
# Mechanical properties :
#
#
# Convention : Reuss Voigt Hill
#
# Bulk Modulus (GPa) = 129.73805 50.08842 89.91323
# Shear Modulus (GPa) = 36.11984 21.79639 28.95812
#
# Velocity S-wave (km/s) = 4.12398 3.20358 3.69257
# Velocity P-wave (km/s) = 9.15228 6.10478 7.77922
#
# Compressibility (1/GPa) = 0.00770784
#
# Stress axis : x y z
#
# Youngs Moduli (GPa) = 166.13156 69.71196 -191.18049
#
# Poissons Ratio (x) = 0.24480 0.59134
# Poissons Ratio (y) = 0.58338 -0.62981
# Poissons Ratio (z) = -0.51386 0.22965
#
# Static dielectric constant tensor:
#      x y z
#    x 2.047390 0.000000 -0.178840 
#    y 0.000000 1.773450 0.000000 
#    z -0.178840 0.000000 1.975330 
# 
# From -- ./inp_files/33035.got.cif
#   From: 2010.05.17/outbox.cif.g08.bks.cpg/sg14_17_cif.got.tgz:33035.got - 2010.06.03 17:49:19.
