data_PCOD9242162
_publ_section_title
;
Structure prediction by ZEFSAII (Michael W. Deem and Ramdas Pophale) SiO2 
 PCOD9242162
Probable space group: P 21/C
;
_chemical_formula_sum "Si O2"
_cell_formula_units_Z 24
_cell_length_a 11.395522
_cell_length_b 14.420718
_cell_length_c 14.883233
_cell_angle_alpha 90.000000
_cell_angle_beta 29.699953
_cell_angle_gamma 90.000000
_cell_volume 1211.783948
_symmetry_space_group_name_H-M "P 21/C"
_symmetry_group_IT_number 14
_symmetry_cell_setting 'monoclinic'
loop_
_space_group_symop_operation_xyz
x,y,z
-x,1/2+y,1/2-z
-x,-y,-z
x,1/2-y,1/2+z
loop_
_atom_site_type_symbol
_atom_site_label
_atom_site_fract_x
_atom_site_fract_y
_atom_site_fract_z
Si Si1 0.756367 0.478301 0.110185
Si Si2 0.646083 0.083367 0.216125
Si Si3 0.551114 0.295490 0.951647
Si Si4 0.917635 0.417042 0.809849
Si Si5 0.532282 0.593177 0.536768
Si Si6 0.149813 0.076212 0.789949
O O1 0.575848 0.560817 0.200867
O O2 0.605994 0.416989 0.278388
O O3 0.828997 0.430745 0.969332
O O4 0.000000 0.500000 0.000000
O O5 0.578321 0.162771 0.332685
O O6 0.711610 0.989794 0.230276
O O7 0.891587 0.102444 0.000099
O O8 0.769205 0.338211 0.860360
O O9 0.554651 0.185531 0.953550
O O10 0.313919 0.338248 0.153308
O O11 0.879041 0.511044 0.778285
O O12 0.192508 0.395246 0.626447
O O13 0.500000 0.500000 0.500000
#
# Coordination Sequence:
#
# PCOD9242162 Si02
#       6
#     4   4   4   4   4   4
#     4  12  23  42  69  96 139 180 221 277 354 401
#     4  10  20  39  70 105 128 171 227 289 333 402
#     4  11  24  43  71 103 132 181 240 276 334 410
#     4  11  22  44  71  98 136 178 225 290 339 408
#     4  12  28  46  61  99 146 187 219 276 349 412
#     4  10  19  39  74  99 132 168 228 287 340 389
#
# _framework density 19.805510999999999
#
# number of rings (size 3 to 8) (size 9 to 14) (size 15 to 20)
#    0.000    1.000    6.667    1.000    0.000    4.000 
#    3.000    0.000    0.000    0.000    0.000    0.000 
#    0.000    0.000    0.000    0.000    0.000    0.000 
#
# Total GULP energy -134142.225044 kJ/mol
# GULP energy per Si atom -5589.259377 kJ/mol
# Density = 1.976043 g / cm^3
# Si number density = 19.805511 Si / 1000 Ang^3
#
#
#
# Elastic Constant Matrix: (Units=GPa)
#
#
# Indices 1 2 3 4 5 6 
#
# 1 108.9011 39.0184 54.3644 0.0000 -12.1237 0.0000
# 2 39.0184 114.5079 53.8110 0.0000 3.3217 0.0000
# 3 54.3644 53.8110 174.3124 0.0000 0.6569 0.0000
# 4 0.0000 0.0000 0.0000 11.7910 0.0000 4.6703
# 5 -12.1237 3.3217 0.6569 0.0000 39.1612 0.0000
# 6 0.0000 0.0000 0.0000 4.6703 0.0000 5.8404
#
#
#
# Elastic Compliance Matrix: (Units=1/GPa)
#
#
# Indices 1 2 3 4 5 6 
#
# 1 0.012115 -0.002881 -0.002904 0.000000 0.004044 0.000000
# 2 -0.002881 0.010926 -0.002468 0.000000 -0.001777 0.000000
# 3 -0.002904 -0.002468 0.007408 0.000000 -0.000814 0.000000
# 4 0.000000 0.000000 0.000000 0.124124 0.000000 -0.099256
# 5 0.004044 -0.001777 -0.000814 0.000000 0.026952 0.000000
# 6 0.000000 0.000000 0.000000 -0.099256 0.000000 0.250590
#
#
# Mechanical properties :
#
#
# Convention : Reuss Voigt Hill
#
# Bulk Modulus (GPa) = 71.72178 76.90101 74.31140
# Shear Modulus (GPa) = 11.03103 28.06037 19.54570
#
# Velocity S-wave (km/s) = 2.36258 3.76812 3.14488
# Velocity P-wave (km/s) = 6.61317 7.60552 7.12664
#
# Compressibility (1/GPa) = 0.01394277
#
# Stress axis : x y z
#
# Youngs Moduli (GPa) = 82.54396 91.52656 134.99810
#
# Poissons Ratio (x) = 0.26365 0.39208
# Poissons Ratio (y) = 0.23777 0.33314
# Poissons Ratio (z) = 0.23974 0.22587
#
# Static dielectric constant tensor:
#      x y z
#    x 1.692500 0.000000 -0.008470 
#    y 0.000000 1.682480 0.000000 
#    z -0.008470 0.000000 1.685100 
# 
# From -- ./inp_files/44876.got.cif
#   From: 2010.05.17/outbox.cif.g08.bks.cpg/sg14_23_cif.got.tgz:44876.got - 2010.06.03 17:49:19.
