data_PCOD9242180
_publ_section_title
;
Structure prediction by ZEFSAII (Michael W. Deem and Ramdas Pophale) SiO2 
 PCOD9242180
Probable space group: P 21/C
;
_chemical_formula_sum "Si O2"
_cell_formula_units_Z 24
_cell_length_a 20.206042
_cell_length_b 10.896081
_cell_length_c 14.879509
_cell_angle_alpha 90.000000
_cell_angle_beta 158.615133
_cell_angle_gamma 90.000000
_cell_volume 1194.520472
_symmetry_space_group_name_H-M "P 21/C"
_symmetry_group_IT_number 14
_symmetry_cell_setting 'monoclinic'
loop_
_space_group_symop_operation_xyz
x,y,z
-x,1/2+y,1/2-z
-x,-y,-z
x,1/2-y,1/2+z
loop_
_atom_site_type_symbol
_atom_site_label
_atom_site_fract_x
_atom_site_fract_y
_atom_site_fract_z
Si Si1 0.434670 0.637760 0.902768
Si Si2 0.050080 0.307055 0.085664
Si Si3 0.196649 0.511600 0.136837
Si Si4 0.559526 0.636268 0.671870
Si Si5 0.388081 0.369112 0.055854
Si Si6 0.169497 0.591559 0.713788
O O1 0.552734 0.734935 0.109613
O O2 0.500000 0.500000 0.000000
O O3 0.467680 0.664591 0.839803
O O4 0.238264 0.629248 0.700823
O O5 0.129325 0.405660 0.117701
O O6 0.212530 0.218012 0.320999
O O7 0.954524 0.382060 0.046231
O O8 0.904567 0.222527 0.847783
O O9 0.379628 0.568739 0.409304
O O10 0.264841 0.445778 0.132214
O O11 0.544755 0.650425 0.759138
O O12 0.324218 0.511382 0.958705
O O13 0.000000 0.500000 0.500000
#
# Coordination Sequence:
#
# PCOD9242180 Si02
#       6
#     4   4   4   4   4   4
#     4  10  20  40  63  88 122 165 206 267 308 368
#     4  10  19  40  62  89 121 167 202 264 322 375
#     4  10  22  39  62  84 132 165 201 262 329 368
#     4  11  22  42  62  92 123 173 209 260 316 385
#     4  10  22  39  66  92 121 164 223 256 310 391
#     4   9  19  38  62  87 122 159 202 264 315 354
#
# _framework density 20.091745
#
# number of rings (size 3 to 8) (size 9 to 14) (size 15 to 20)
#    0.000    2.000    3.333    0.000    0.000    2.667 
#    3.000    6.667    0.000    0.000    0.000    0.000 
#    0.000    0.000    0.000    0.000    0.000    0.000 
#
# Total GULP energy -133610.559639 kJ/mol
# GULP energy per Si atom -5567.106652 kJ/mol
# Density = 2.004601 g / cm^3
# Si number density = 20.091745 Si / 1000 Ang^3
#
#
#
# Elastic Constant Matrix: (Units=GPa)
#
#
# Indices 1 2 3 4 5 6 
#
# 1 125.3137 27.1808 21.1745 0.0000 -6.2370 0.0000
# 2 27.1808 121.3302 9.8418 0.0000 2.2146 0.0000
# 3 21.1745 9.8418 16.3204 0.0000 4.4709 0.0000
# 4 0.0000 0.0000 0.0000 12.2258 0.0000 11.5339
# 5 -6.2370 2.2146 4.4709 0.0000 35.5720 0.0000
# 6 0.0000 0.0000 0.0000 11.5339 0.0000 32.5322
#
#
#
# Elastic Compliance Matrix: (Units=1/GPa)
#
#
# Indices 1 2 3 4 5 6 
#
# 1 0.010886 -0.001344 -0.014353 0.000000 0.003796 0.000000
# 2 -0.001344 0.008832 -0.003488 0.000000 -0.000347 0.000000
# 3 -0.014353 -0.003488 0.085575 0.000000 -0.013055 0.000000
# 4 0.000000 0.000000 0.000000 0.122901 0.000000 -0.043573
# 5 0.003796 -0.000347 -0.013055 0.000000 0.030440 0.000000
# 6 0.000000 0.000000 0.000000 -0.043573 0.000000 0.046187
#
#
# Mechanical properties :
#
#
# Convention : Reuss Voigt Hill
#
# Bulk Modulus (GPa) = 14.94242 42.15095 28.54669
# Shear Modulus (GPa) = 13.68001 29.71715 21.69858
#
# Velocity S-wave (km/s) = 2.61219 3.85004 3.28986
# Velocity P-wave (km/s) = 4.06833 6.38659 5.35443
#
# Compressibility (1/GPa) = 0.06692355
#
# Stress axis : x y z
#
# Youngs Moduli (GPa) = 91.86435 113.22161 11.68572
#
# Poissons Ratio (x) = 0.15213 0.16772
# Poissons Ratio (y) = 0.12344 0.04076
# Poissons Ratio (z) = 1.31853 0.39489
#
# Static dielectric constant tensor:
#      x y z
#    x 1.785300 0.000000 0.075880 
#    y 0.000000 1.760850 0.000000 
#    z 0.075880 0.000000 1.716170 
# 
# From -- ./inp_files/50480.got.cif
#   From: 2010.05.17/outbox.cif.g08.bks.cpg/sg14_26_cif.got.tgz:50480.got - 2010.06.03 17:49:19.
