data_PCOD9242764
_publ_section_title
;
Structure prediction by ZEFSAII (Michael W. Deem and Ramdas Pophale) SiO2 
 PCOD9242764
Probable space group: P 21/C
;
_chemical_formula_sum "Si O2"
_cell_formula_units_Z 32
_cell_length_a 17.852144
_cell_length_b 11.828365
_cell_length_c 13.159737
_cell_angle_alpha 90.000000
_cell_angle_beta 36.565785
_cell_angle_gamma 90.000000
_cell_volume 1655.476322
_symmetry_space_group_name_H-M "P 21/C"
_symmetry_group_IT_number 14
_symmetry_cell_setting 'monoclinic'
loop_
_space_group_symop_operation_xyz
x,y,z
-x,1/2+y,1/2-z
-x,-y,-z
x,1/2-y,1/2+z
loop_
_atom_site_type_symbol
_atom_site_label
_atom_site_fract_x
_atom_site_fract_y
_atom_site_fract_z
Si Si1 0.739301 0.506810 0.564174
Si Si2 0.343686 0.652425 0.852871
Si Si3 0.092032 0.098889 0.783176
Si Si4 0.113496 0.697429 0.642443
Si Si5 0.357182 0.100171 0.388706
Si Si6 0.458674 0.856983 0.622040
Si Si7 0.039766 0.136133 0.064045
Si Si8 0.463620 0.323060 0.189287
O O1 0.799066 0.411208 0.426136
O O2 0.669606 0.429797 0.726023
O O3 0.849323 0.586966 0.486033
O O4 0.628692 0.590525 0.650375
O O5 0.355278 0.518795 0.832660
O O6 0.422080 0.727815 0.688324
O O7 0.403974 0.679768 0.897522
O O8 0.203817 0.702189 0.005817
O O9 0.218350 0.118935 0.583839
O O10 0.975600 0.152463 0.849860
O O11 0.096165 0.149584 0.890932
O O12 0.063456 0.964987 0.826574
O O13 0.025408 0.751409 0.823848
O O14 0.448850 0.101803 0.388194
O O15 0.402002 0.200676 0.267579
O O16 0.517891 0.862259 0.446385
#
# Coordination Sequence:
#
# PCOD9242764 Si02
#       8
#     4   4   4   4   4   4   4   4
#     4  10  20  35  60  88 116 151 195 248 292 342
#     4  10  22  37  58  87 120 154 198 240 305 353
#     4  10  21  34  59  86 113 152 204 243 280 350
#     4  10  21  38  57  86 123 150 194 254 296 341
#     4  11  21  38  60  86 123 159 192 247 295 355
#     4  10  22  37  59  93 120 151 198 245 299 353
#     4  10  20  35  59  87 112 154 201 238 289 350
#     4  11  22  36  62  86 120 159 193 245 297 351
#
# _framework density 19.329785000000001
#
# number of rings (size 3 to 8) (size 9 to 14) (size 15 to 20)
#    0.000    1.750    2.500    1.875    1.750    2.500 
#    0.000    0.000    5.500    3.750    0.000    0.000 
#    0.000    0.000    0.000    0.000    0.000    0.000 
#
# Total GULP energy -178506.452143 kJ/mol
# GULP energy per Si atom -5578.326629 kJ/mol
# Density = 1.928579 g / cm^3
# Si number density = 19.329785 Si / 1000 Ang^3
#
#
#
# Elastic Constant Matrix: (Units=GPa)
#
#
# Indices 1 2 3 4 5 6 
#
# 1 17.4913 8.0794 14.0559 0.0000 -4.6196 0.0000
# 2 8.0794 121.7903 38.4708 0.0000 -1.3282 0.0000
# 3 14.0559 38.4708 69.0609 0.0000 -12.0070 0.0000
# 4 0.0000 0.0000 0.0000 41.9350 0.0000 -6.1290
# 5 -4.6196 -1.3282 -12.0070 0.0000 24.5034 0.0000
# 6 0.0000 0.0000 0.0000 -6.1290 0.0000 21.7694
#
#
#
# Elastic Compliance Matrix: (Units=1/GPa)
#
#
# Indices 1 2 3 4 5 6 
#
# 1 0.069380 -0.000539 -0.012627 0.000000 0.006863 0.000000
# 2 -0.000539 0.010097 -0.005944 0.000000 -0.002467 0.000000
# 3 -0.012627 -0.005944 0.021744 0.000000 0.007952 0.000000
# 4 0.000000 0.000000 0.000000 0.024870 0.000000 0.007002
# 5 0.006863 -0.002467 0.007952 0.000000 0.045867 0.000000
# 6 0.000000 0.000000 0.000000 0.007002 0.000000 0.047907
#
#
# Mechanical properties :
#
#
# Convention : Reuss Voigt Hill
#
# Bulk Modulus (GPa) = 15.87292 36.61717 26.24505
# Shear Modulus (GPa) = 17.91561 27.49066 22.70313
#
# Velocity S-wave (km/s) = 3.04771 3.77529 3.43084
# Velocity P-wave (km/s) = 4.54028 6.16346 5.41306
#
# Compressibility (1/GPa) = 0.06300038
#
# Stress axis : x y z
#
# Youngs Moduli (GPa) = 14.41335 99.03694 45.99044
#
# Poissons Ratio (x) = 0.05338 0.58074
# Poissons Ratio (y) = 0.00777 0.27336
# Poissons Ratio (z) = 0.18200 0.58867
#
# Static dielectric constant tensor:
#      x y z
#    x 1.662130 0.000000 -0.032490 
#    y 0.000000 1.680400 0.000000 
#    z -0.032490 0.000000 1.671810 
# 
# From -- ./inp_files/29348.got.cif
#   From: 2010.05.17/outbox.cif.g08.bks.cpg/sg14_15_cif.got.tgz:29348.got - 2010.06.03 17:49:19.
