data_PCOD9242579
_publ_section_title
;
Structure prediction by ZEFSAII (Michael W. Deem and Ramdas Pophale) SiO2 
 PCOD9242579
Probable space group: P 21/C
;
_chemical_formula_sum "Si O2"
_cell_formula_units_Z 32
_cell_length_a 8.849332
_cell_length_b 26.715473
_cell_length_c 8.245318
_cell_angle_alpha 90.000000
_cell_angle_beta 50.431652
_cell_angle_gamma 90.000000
_cell_volume 1502.654858
_symmetry_space_group_name_H-M "P 21/C"
_symmetry_group_IT_number 14
_symmetry_cell_setting 'monoclinic'
loop_
_space_group_symop_operation_xyz
x,y,z
-x,1/2+y,1/2-z
-x,-y,-z
x,1/2-y,1/2+z
loop_
_atom_site_type_symbol
_atom_site_label
_atom_site_fract_x
_atom_site_fract_y
_atom_site_fract_z
Si Si1 0.001458 0.345834 0.704622
Si Si2 0.291301 0.174380 0.448871
Si Si3 0.368915 0.836344 0.344100
Si Si4 0.372831 0.609806 0.165097
Si Si5 0.495682 0.974874 0.785562
Si Si6 0.679612 0.432708 0.280260
Si Si7 0.883426 0.586278 0.099546
Si Si8 0.277367 0.224373 0.810735
O O1 0.856378 0.376839 0.684381
O O2 0.130856 0.384936 0.718581
O O3 0.116623 0.304455 0.527396
O O4 0.847940 0.323127 0.942524
O O5 0.502536 0.146744 0.304481
O O6 0.141282 0.129264 0.520301
O O7 0.268680 0.203079 0.634804
O O8 0.262994 0.216183 0.331474
O O9 0.441606 0.873284 0.439456
O O10 0.365197 0.873386 0.195116
O O11 0.514747 0.790479 0.248352
O O12 0.425050 0.553240 0.173249
O O13 0.706883 0.951665 0.692014
O O14 0.531395 0.033609 0.774659
O O15 0.344645 0.955741 0.025627
O O16 0.900223 0.436544 0.061339
#
# Coordination Sequence:
#
# PCOD9242579 Si02
#       8
#     4   4   4   4   4   4   4   4
#     4   9  19  37  56  78 109 143 185 217 275 320
#     4  10  22  37  58  80 109 143 183 223 279 322
#     4   8  19  37  54  79 110 143 180 225 271 321
#     4   8  19  39  53  80 109 142 178 228 268 324
#     4  10  20  34  57  83 113 142 186 226 276 324
#     4  10  20  34  57  83 109 147 186 223 274 331
#     4  10  20  38  56  79 112 147 181 229 271 323
#     4  11  20  38  57  79 110 142 180 229 270 328
#
# _framework density 21.295641
#
# number of rings (size 3 to 8) (size 9 to 14) (size 15 to 20)
#    0.750    1.750    0.000    1.875    1.750    1.500 
#    6.750    0.000    0.000    2.250    0.000    0.000 
#    0.000    0.000    0.000    0.000    0.000    0.000 
#
# Total GULP energy -178314.998553 kJ/mol
# GULP energy per Si atom -5572.343705 kJ/mol
# Density = 2.124717 g / cm^3
# Si number density = 21.295641 Si / 1000 Ang^3
#
#
#
# Elastic Constant Matrix: (Units=GPa)
#
#
# Indices 1 2 3 4 5 6 
#
# 1 43.7465 -11.3245 -3.0150 0.0000 -1.6844 0.0000
# 2 -11.3245 42.9021 11.8322 0.0000 3.5626 0.0000
# 3 -3.0150 11.8322 43.6532 0.0000 0.4138 0.0000
# 4 0.0000 0.0000 0.0000 22.9309 0.0000 3.0730
# 5 -1.6844 3.5626 0.4138 0.0000 23.0330 0.0000
# 6 0.0000 0.0000 0.0000 3.0730 0.0000 28.3282
#
#
#
# Elastic Compliance Matrix: (Units=1/GPa)
#
#
# Indices 1 2 3 4 5 6 
#
# 1 0.024550 0.006429 -0.000055 0.000000 0.000802 0.000000
# 2 0.006429 0.027208 -0.006896 0.000000 -0.003614 0.000000
# 3 -0.000055 -0.006896 0.024767 0.000000 0.000618 0.000000
# 4 0.000000 0.000000 0.000000 0.044253 0.000000 -0.004800
# 5 0.000802 -0.003614 0.000618 0.000000 0.044023 0.000000
# 6 0.000000 0.000000 0.000000 -0.004800 0.000000 0.035821
#
#
# Mechanical properties :
#
#
# Convention : Reuss Voigt Hill
#
# Bulk Modulus (GPa) = 13.24830 13.92079 13.58455
# Shear Modulus (GPa) = 22.04324 23.71236 22.87780
#
# Velocity S-wave (km/s) = 3.22080 3.34051 3.28120
# Velocity P-wave (km/s) = 4.47951 4.62923 4.55499
#
# Compressibility (1/GPa) = 0.07548140
#
# Stress axis : x y z
#
# Youngs Moduli (GPa) = 40.73271 36.75400 40.37551
#
# Poissons Ratio (x) = -0.23628 0.00220
# Poissons Ratio (y) = -0.26186 0.27845
# Poissons Ratio (z) = 0.00222 0.25347
#
# Static dielectric constant tensor:
#      x y z
#    x 1.834660 0.000000 0.021440 
#    y 0.000000 1.771480 0.000000 
#    z 0.021440 0.000000 1.774830 
# 
# From -- ./inp_files/11068.got.cif
#   From: 2010.05.17/outbox.cif.g08.bks.cpg/sg14_6_cif.got.tgz:11068.got - 2010.06.03 17:49:19.
