data_PCOD9242160
_publ_section_title
;
Structure prediction by ZEFSAII (Michael W. Deem and Ramdas Pophale) SiO2 
 PCOD9242160
Probable space group: P 21/C
;
_chemical_formula_sum "Si O2"
_cell_formula_units_Z 32
_cell_length_a 18.500261
_cell_length_b 17.359182
_cell_length_c 10.739331
_cell_angle_alpha 90.000000
_cell_angle_beta 154.331842
_cell_angle_gamma 90.000000
_cell_volume 1493.932332
_symmetry_space_group_name_H-M "P 21/C"
_symmetry_group_IT_number 14
_symmetry_cell_setting 'monoclinic'
loop_
_space_group_symop_operation_xyz
x,y,z
-x,1/2+y,1/2-z
-x,-y,-z
x,1/2-y,1/2+z
loop_
_atom_site_type_symbol
_atom_site_label
_atom_site_fract_x
_atom_site_fract_y
_atom_site_fract_z
Si Si1 0.237442 0.554896 0.127618
Si Si2 0.283746 0.414627 0.358931
Si Si3 0.616434 0.758037 0.008358
Si Si4 0.651885 0.050444 0.479088
Si Si5 0.252479 0.630608 0.632237
Si Si6 0.617283 0.593305 0.082242
Si Si7 0.598257 0.285654 0.574751
Si Si8 0.117934 0.487035 0.328503
O O1 0.305018 0.470886 0.274449
O O2 0.266381 0.561009 0.026411
O O3 0.327314 0.628940 0.328377
O O4 0.044365 0.550945 0.864522
O O5 0.245952 0.324685 0.291749
O O6 0.470401 0.411212 0.703813
O O7 0.159377 0.460322 0.254518
O O8 0.512727 0.784964 0.970769
O O9 0.504566 0.741721 0.708985
O O10 0.690659 0.675587 0.160369
O O11 0.619165 0.962390 0.466501
O O12 0.759594 0.091115 0.751833
O O13 0.260716 0.721566 0.671312
O O14 0.122786 0.579963 0.351349
O O15 0.432035 0.610040 0.847366
O O16 0.725014 0.548361 0.351340
#
# Coordination Sequence:
#
# PCOD9242160 Si02
#       8
#     4   4   4   4   4   4   4   4
#     4  12  27  37  60  98 137 165 201 269 328 377
#     4  12  21  42  62  88 128 163 214 262 307 382
#     4  11  23  39  68  99 121 164 224 270 312 364
#     4  11  19  40  64  92 118 158 219 266 307 366
#     4  10  19  39  71  87 119 171 218 258 304 394
#     4  10  20  38  70  91 121 166 218 266 307 377
#     4  11  22  41  63  98 127 162 215 270 319 371
#     4  11  23  44  60  93 128 173 211 248 330 390
#
# _framework density 21.419979999999999
#
# number of rings (size 3 to 8) (size 9 to 14) (size 15 to 20)
#    0.000    1.000    5.000    3.000    3.500    2.000 
#    2.250    1.250    0.000    0.000    0.000    0.000 
#    0.000    0.000    0.000    0.000    0.000    0.000 
#
# Total GULP energy -178557.944321 kJ/mol
# GULP energy per Si atom -5579.935760 kJ/mol
# Density = 2.137123 g / cm^3
# Si number density = 21.419980 Si / 1000 Ang^3
#
#
#
# Elastic Constant Matrix: (Units=GPa)
#
#
# Indices 1 2 3 4 5 6 
#
# 1 108.2169 14.1312 16.9279 0.0000 -2.7505 0.0000
# 2 14.1312 137.2820 -3.5919 0.0000 -9.4747 0.0000
# 3 16.9279 -3.5919 29.3099 0.0000 -5.2246 0.0000
# 4 0.0000 0.0000 0.0000 28.7973 0.0000 -2.9892
# 5 -2.7505 -9.4747 -5.2246 0.0000 23.8279 0.0000
# 6 0.0000 0.0000 0.0000 -2.9892 0.0000 26.4108
#
#
#
# Elastic Compliance Matrix: (Units=1/GPa)
#
#
# Indices 1 2 3 4 5 6 
#
# 1 0.010371 -0.001279 -0.006269 0.000000 -0.000686 0.000000
# 2 -0.001279 0.007712 0.002294 0.000000 0.003422 0.000000
# 3 -0.006269 0.002294 0.039601 0.000000 0.008872 0.000000
# 4 0.000000 0.000000 0.000000 0.035138 0.000000 0.003977
# 5 -0.000686 0.003422 0.008872 0.000000 0.045194 0.000000
# 6 0.000000 0.000000 0.000000 0.003977 0.000000 0.038313
#
#
# Mechanical properties :
#
#
# Convention : Reuss Voigt Hill
#
# Bulk Modulus (GPa) = 21.19708 36.63814 28.91761
# Shear Modulus (GPa) = 24.68366 32.29664 28.49015
#
# Velocity S-wave (km/s) = 3.39833 3.88723 3.65097
# Velocity P-wave (km/s) = 5.03147 6.10649 5.59486
#
# Compressibility (1/GPa) = 0.04717630
#
# Stress axis : x y z
#
# Youngs Moduli (GPa) = 96.42406 129.66642 25.25183
#
# Poissons Ratio (x) = 0.16583 0.15830
# Poissons Ratio (y) = 0.12332 -0.05792
# Poissons Ratio (z) = 0.60445 -0.29741
#
# Static dielectric constant tensor:
#      x y z
#    x 1.776120 0.000000 -0.058100 
#    y 0.000000 1.867970 0.000000 
#    z -0.058100 0.000000 1.842460 
# 
# From -- ./inp_files/34367.got.cif
#   From: 2010.05.17/outbox.cif.g08.bks.cpg/sg14_18_cif.got.tgz:34367.got - 2010.06.03 17:49:19.
