data_PCOD9242698
_publ_section_title
;
Structure prediction by ZEFSAII (Michael W. Deem and Ramdas Pophale) SiO2 
 PCOD9242698
Probable space group: P 21/C
;
_chemical_formula_sum "Si O2"
_cell_formula_units_Z 20
_cell_length_a 21.669275
_cell_length_b 9.483612
_cell_length_c 13.906646
_cell_angle_alpha 90.000000
_cell_angle_beta 159.575141
_cell_angle_gamma 90.000000
_cell_volume 997.331295
_symmetry_space_group_name_H-M "P 21/C"
_symmetry_group_IT_number 14
_symmetry_cell_setting 'monoclinic'
loop_
_space_group_symop_operation_xyz
x,y,z
-x,1/2+y,1/2-z
-x,-y,-z
x,1/2-y,1/2+z
loop_
_atom_site_type_symbol
_atom_site_label
_atom_site_fract_x
_atom_site_fract_y
_atom_site_fract_z
Si Si1 0.820733 0.076579 0.111100
Si Si2 0.171928 0.127272 0.710414
Si Si3 0.660311 0.088516 0.685436
Si Si4 0.578299 0.086443 0.026355
Si Si5 0.576562 0.611307 0.902213
O O1 0.982457 0.165577 0.389856
O O2 0.840322 0.929337 0.197977
O O3 0.818319 0.067041 0.992410
O O4 0.626076 0.130818 0.857186
O O5 0.310740 0.252010 0.909129
O O6 0.250787 0.996657 0.764415
O O7 0.619854 0.253325 0.616102
O O8 0.500000 0.000000 0.500000
O O9 0.665986 0.019122 0.588594
O O10 0.441928 0.088118 0.738100
O O11 0.500000 0.000000 0.000000
#
# Coordination Sequence:
#
# PCOD9242698 Si02
#       5
#     4   4   4   4   4
#     4   9  20  38  60  87 117 151 194 237 293 347
#     4  10  21  38  62  85 117 156 192 242 291 344
#     4  10  20  35  57  82 115 150 187 238 286 337
#     4  11  21  35  58  86 115 153 195 234 286 347
#     4  10  20  38  62  86 116 153 193 240 291 342
#
# _framework density 20.053516999999999
#
# number of rings (size 3 to 8) (size 9 to 14) (size 15 to 20)
#    0.000    2.000    0.000    6.000    0.000    3.200 
#    0.000    4.000    0.000   30.000    0.000    0.000 
#    0.000    0.000    0.000    0.000    0.000    0.000 
#
# Total GULP energy -111570.049703 kJ/mol
# GULP energy per Si atom -5578.502485 kJ/mol
# Density = 2.000787 g / cm^3
# Si number density = 20.053517 Si / 1000 Ang^3
#
#
#
# Elastic Constant Matrix: (Units=GPa)
#
#
# Indices 1 2 3 4 5 6 
#
# 1 82.3373 48.5732 49.0449 0.0000 -33.2200 0.0000
# 2 48.5732 124.4099 54.7999 0.0000 -12.3759 0.0000
# 3 49.0449 54.7999 165.1732 0.0000 -28.5400 0.0000
# 4 0.0000 0.0000 0.0000 17.6832 0.0000 1.0034
# 5 -33.2200 -12.3759 -28.5400 0.0000 35.8416 0.0000
# 6 0.0000 0.0000 0.0000 1.0034 0.0000 27.5156
#
#
#
# Elastic Compliance Matrix: (Units=1/GPa)
#
#
# Indices 1 2 3 4 5 6 
#
# 1 0.025326 -0.007165 -0.001756 0.000000 0.019602 0.000000
# 2 -0.007165 0.011465 -0.002481 0.000000 -0.004658 0.000000
# 3 -0.001756 -0.002481 0.008081 0.000000 0.003951 0.000000
# 4 0.000000 0.000000 0.000000 0.056668 0.000000 -0.002066
# 5 0.019602 -0.004658 0.003951 0.000000 0.047606 0.000000
# 6 0.000000 0.000000 0.000000 -0.002066 0.000000 0.036418
#
#
# Mechanical properties :
#
#
# Convention : Reuss Voigt Hill
#
# Bulk Modulus (GPa) = 45.31285 75.19516 60.25400
# Shear Modulus (GPa) = 23.17762 30.84158 27.00960
#
# Velocity S-wave (km/s) = 3.40338 3.92594 3.67396
# Velocity P-wave (km/s) = 6.17163 7.62426 6.93608
#
# Compressibility (1/GPa) = 0.02206879
#
# Stress axis : x y z
#
# Youngs Moduli (GPa) = 39.48452 87.22372 123.73942
#
# Poissons Ratio (x) = 0.62493 0.21731
# Poissons Ratio (y) = 0.28289 0.30700
# Poissons Ratio (z) = 0.06934 0.21641
#
# Static dielectric constant tensor:
#      x y z
#    x 1.779450 0.000000 -0.018100 
#    y 0.000000 1.695760 0.000000 
#    z -0.018100 0.000000 1.737440 
# 
# From -- ./inp_files/51099.got.cif
#   From: 2010.05.17/outbox.cif.g08.bks.cpg/sg14_26_cif.got.tgz:51099.got - 2010.06.03 17:49:19.
