data_PCOD9242907
_publ_section_title
;
Structure prediction by ZEFSAII (Michael W. Deem and Ramdas Pophale) SiO2 
 PCOD9242907
Probable space group: P 21/C
;
_chemical_formula_sum "Si O2"
_cell_formula_units_Z 20
_cell_length_a 8.515637
_cell_length_b 6.133919
_cell_length_c 20.699977
_cell_angle_alpha 90.000000
_cell_angle_beta 120.048126
_cell_angle_gamma 90.000000
_cell_volume 935.933207
_symmetry_space_group_name_H-M "P 21/C"
_symmetry_group_IT_number 14
_symmetry_cell_setting 'monoclinic'
loop_
_space_group_symop_operation_xyz
x,y,z
-x,1/2+y,1/2-z
-x,-y,-z
x,1/2-y,1/2+z
loop_
_atom_site_type_symbol
_atom_site_label
_atom_site_fract_x
_atom_site_fract_y
_atom_site_fract_z
Si Si1 0.145954 0.354824 0.919827
Si Si2 0.562820 0.601244 0.445435
Si Si3 0.847818 0.067298 0.917496
Si Si4 0.926975 0.735281 0.827920
Si Si5 0.209599 0.481996 0.318322
O O1 0.094489 0.602402 0.894547
O O2 0.209347 0.221953 0.868934
O O3 0.948695 0.262443 0.901770
O O4 0.297065 0.294193 0.005328
O O5 0.500000 0.500000 0.500000
O O6 0.669144 0.422782 0.423835
O O7 0.378286 0.639836 0.368589
O O8 0.826853 0.873408 0.861639
O O9 0.000000 0.000000 0.000000
O O10 0.798856 0.588428 0.757424
O O11 0.023718 0.897444 0.797661
#
# Coordination Sequence:
#
# PCOD9242907 Si02
#       5
#     4   4   4   4   4
#     4   9  19  37  62  82 112 153 188 233 289 341
#     4   9  19  38  59  83 114 147 193 243 278 338
#     4   9  20  38  58  84 114 148 191 239 286 342
#     4  11  20  36  60  82 116 156 189 234 294 345
#     4  10  20  36  57  84 115 149 192 235 283 345
#
# _framework density 21.369046999999998
#
# number of rings (size 3 to 8) (size 9 to 14) (size 15 to 20)
#    0.000    2.400    2.000    1.200    0.000    4.000 
#    3.600    4.000    0.000    0.000    0.000    0.000 
#    0.000    0.000    0.000    0.000    0.000    0.000 
#
# Total GULP energy -111380.617197 kJ/mol
# GULP energy per Si atom -5569.030860 kJ/mol
# Density = 2.132041 g / cm^3
# Si number density = 21.369047 Si / 1000 Ang^3
#
#
#
# Elastic Constant Matrix: (Units=GPa)
#
#
# Indices 1 2 3 4 5 6 
#
# 1 104.4355 6.0612 23.9846 0.0000 -14.7413 0.0000
# 2 6.0612 24.4782 7.8766 0.0000 -11.0616 0.0000
# 3 23.9846 7.8766 112.4983 0.0000 -1.7730 0.0000
# 4 0.0000 0.0000 0.0000 27.0651 0.0000 2.3844
# 5 -14.7413 -11.0616 -1.7730 0.0000 29.5106 0.0000
# 6 0.0000 0.0000 0.0000 2.3844 0.0000 9.0876
#
#
#
# Elastic Compliance Matrix: (Units=1/GPa)
#
#
# Indices 1 2 3 4 5 6 
#
# 1 0.010837 0.000516 -0.002260 0.000000 0.005471 0.000000
# 2 0.000516 0.050354 -0.003337 0.000000 0.018932 0.000000
# 3 -0.002260 -0.003337 0.009576 0.000000 -0.001805 0.000000
# 4 0.000000 0.000000 0.000000 0.037822 0.000000 -0.009924
# 5 0.005471 0.018932 -0.001805 0.000000 0.043607 0.000000
# 6 0.000000 0.000000 0.000000 -0.009924 0.000000 0.112643
#
#
# Mechanical properties :
#
#
# Convention : Reuss Voigt Hill
#
# Bulk Modulus (GPa) = 16.50054 35.25076 25.87565
# Shear Modulus (GPa) = 16.93749 26.69862 21.81806
#
# Velocity S-wave (km/s) = 2.81840 3.53853 3.19879
# Velocity P-wave (km/s) = 4.28131 5.76428 5.07723
#
# Compressibility (1/GPa) = 0.06060408
#
# Stress axis : x y z
#
# Youngs Moduli (GPa) = 92.27938 19.85946 104.42630
#
# Poissons Ratio (x) = -0.01025 0.23603
# Poissons Ratio (y) = -0.04764 0.34849
# Poissons Ratio (z) = 0.20858 0.06628
#
# Static dielectric constant tensor:
#      x y z
#    x 1.844650 0.000000 0.003760 
#    y 0.000000 1.946600 0.000000 
#    z 0.003760 0.000000 1.813600 
# 
# From -- ./inp_files/63990.got.cif
#   From: 2010.05.17/outbox.cif.g08.bks.cpg/sg14_32_cif.got.tgz:63990.got - 2010.06.03 17:49:19.
