data_PCOD9242291
_publ_section_title
;
Structure prediction by ZEFSAII (Michael W. Deem and Ramdas Pophale) SiO2 
 PCOD9242291
Probable space group: P 21/C
;
_chemical_formula_sum "Si O2"
_cell_formula_units_Z 30
_cell_length_a 10.749261
_cell_length_b 8.642235
_cell_length_c 13.521556
_cell_angle_alpha 90.000000
_cell_angle_beta 114.926451
_cell_angle_gamma 90.000000
_cell_volume 1139.112426
_symmetry_space_group_name_H-M "P 21/C"
_symmetry_group_IT_number 14
_symmetry_cell_setting 'monoclinic'
loop_
_space_group_symop_operation_xyz
x,y,z
-x,1/2+y,1/2-z
-x,-y,-z
x,1/2-y,1/2+z
loop_
_atom_site_type_symbol
_atom_site_label
_atom_site_fract_x
_atom_site_fract_y
_atom_site_fract_z
Si Si1 0.354010 0.795996 0.950625
Si Si2 0.355722 0.000875 0.284010
Si Si3 0.570971 0.941069 0.904022
Si Si4 0.673214 0.490577 0.937754
Si Si5 0.000000 0.500000 0.500000
Si Si6 0.768177 0.758322 0.602844
Si Si7 0.923639 0.044595 0.187553
Si Si8 0.844876 0.274893 0.847606
O O1 0.426287 0.866908 0.878726
O O2 0.201801 0.856800 0.898296
O O3 0.357616 0.617508 0.976699
O O4 0.426861 0.878177 0.069236
O O5 0.360489 0.078751 0.177035
O O6 0.519237 0.959122 0.353644
O O7 0.297844 0.134568 0.335700
O O8 0.255865 0.851208 0.240870
O O9 0.662456 0.862567 0.018893
O O10 0.749378 0.388560 0.881081
O O11 0.774353 0.623679 0.011510
O O12 0.024234 0.450190 0.627515
O O13 0.940830 0.327749 0.451019
O O14 0.881283 0.637372 0.680748
O O15 0.932615 0.120562 0.298904
#
# Coordination Sequence:
#
# PCOD9242291 Si02
#       8
#     4   4   4   4   2   4   4   4
#     4  10  19  42  65 101 154 207 250 314 396 465
#     4  12  25  41  72 118 165 209 269 311 402 501
#     4  10  21  37  63 102 158 214 246 307 383 480
#     4  12  24  43  71 118 163 209 251 328 409 487
#     4  12  28  60  82 108 158 210 292 344 394 480
#     4  11  26  41  70 115 159 196 264 326 401 487
#     4  11  26  51  79 108 152 210 272 340 405 466
#     4  12  28  51  82 114 160 223 268 340 409 479
#
# _framework density 26.336293000000001
#
# number of rings (size 3 to 8) (size 9 to 14) (size 15 to 20)
#    0.000    0.800    4.000    2.800    5.600    1.067 
#    2.400    0.667    0.000    0.000    0.000    0.000 
#    0.000    0.000    0.000    0.000    0.000    0.000 
#
# Total GULP energy -167068.273787 kJ/mol
# GULP energy per Si atom -5568.942460 kJ/mol
# Density = 2.627635 g / cm^3
# Si number density = 26.336293 Si / 1000 Ang^3
#
#
#
# Elastic Constant Matrix: (Units=GPa)
#
#
# Indices 1 2 3 4 5 6 
#
# 1 62.2761 55.5926 49.2681 0.0000 -18.5232 0.0000
# 2 55.5926 155.3293 76.8251 0.0000 -1.2697 0.0000
# 3 49.2681 76.8251 117.4184 0.0000 -25.1357 0.0000
# 4 0.0000 0.0000 0.0000 66.4367 0.0000 -0.8518
# 5 -18.5232 -1.2697 -25.1357 0.0000 50.9960 0.0000
# 6 0.0000 0.0000 0.0000 -0.8518 0.0000 46.0237
#
#
#
# Elastic Compliance Matrix: (Units=1/GPa)
#
#
# Indices 1 2 3 4 5 6 
#
# 1 0.029901 -0.007776 -0.005785 0.000000 0.007816 0.000000
# 2 -0.007776 0.012021 -0.005749 0.000000 -0.005359 0.000000
# 3 -0.005785 -0.005749 0.015903 0.000000 0.005594 0.000000
# 4 0.000000 0.000000 0.000000 0.015056 0.000000 0.000279
# 5 0.007816 -0.005359 0.005594 0.000000 0.025072 0.000000
# 6 0.000000 0.000000 0.000000 0.000279 0.000000 0.021733
#
#
# Mechanical properties :
#
#
# Convention : Reuss Voigt Hill
#
# Bulk Modulus (GPa) = 52.07482 77.59948 64.83715
# Shear Modulus (GPa) = 30.35662 42.91379 36.63520
#
# Velocity S-wave (km/s) = 3.39876 4.04103 3.73373
# Velocity P-wave (km/s) = 5.93448 7.16254 6.57724
#
# Compressibility (1/GPa) = 0.01920314
#
# Stress axis : x y z
#
# Youngs Moduli (GPa) = 33.44397 83.18806 62.88007
#
# Poissons Ratio (x) = 0.64690 0.36377
# Poissons Ratio (y) = 0.26007 0.36153
# Poissons Ratio (z) = 0.19348 0.47829
#
# Static dielectric constant tensor:
#      x y z
#    x 2.167810 0.000000 0.032180 
#    y 0.000000 2.107810 0.000000 
#    z 0.032180 0.000000 2.178500 
# 
# From -- ./inp_files/43498.got.cif
#   From: 2010.05.17/outbox.cif.g08.bks.cpg/sg14_22_cif.got.tgz:43498.got - 2010.06.03 17:49:19.
