data_PCOD9242953
_publ_section_title
;
Structure prediction by ZEFSAII (Michael W. Deem and Ramdas Pophale) SiO2 
 PCOD9242953
Probable space group: P 21/C
;
_chemical_formula_sum "Si O2"
_cell_formula_units_Z 32
_cell_length_a 10.917882
_cell_length_b 19.897698
_cell_length_c 9.264787
_cell_angle_alpha 90.000000
_cell_angle_beta 55.274080
_cell_angle_gamma 90.000000
_cell_volume 1654.201749
_symmetry_space_group_name_H-M "P 21/C"
_symmetry_group_IT_number 14
_symmetry_cell_setting 'monoclinic'
loop_
_space_group_symop_operation_xyz
x,y,z
-x,1/2+y,1/2-z
-x,-y,-z
x,1/2-y,1/2+z
loop_
_atom_site_type_symbol
_atom_site_label
_atom_site_fract_x
_atom_site_fract_y
_atom_site_fract_z
Si Si1 0.988978 0.713432 0.902740
Si Si2 0.604004 0.491693 0.569862
Si Si3 0.772703 0.175407 0.209215
Si Si4 0.776835 0.372529 0.386896
Si Si5 0.208013 0.236204 0.735586
Si Si6 0.476654 0.787776 0.087723
Si Si7 0.458582 0.928319 0.595045
Si Si8 0.369967 0.130326 0.773773
O O1 0.094571 0.779880 0.814584
O O2 0.099146 0.651033 0.807784
O O3 0.864724 0.711903 0.862917
O O4 0.906369 0.713884 0.110425
O O5 0.500000 0.500000 0.500000
O O6 0.749919 0.451363 0.421720
O O7 0.531278 0.442283 0.740683
O O8 0.640919 0.561399 0.627624
O O9 0.628736 0.224371 0.309502
O O10 0.704980 0.105686 0.318525
O O11 0.816223 0.158898 0.015640
O O12 0.622053 0.338864 0.439681
O O13 0.369039 0.268296 0.593856
O O14 0.226369 0.175740 0.839516
O O15 0.517489 0.823934 0.210072
O O16 0.570082 0.882746 0.427969
O O17 0.500000 0.000000 0.500000
#
# Coordination Sequence:
#
# PCOD9242953 Si02
#       8
#     4   4   4   4   4   4   4   4
#     4  11  24  38  59  86 131 161 202 254 323 379
#     4  10  20  39  62  92 127 165 211 267 318 371
#     4  10  20  36  58  90 121 155 206 257 317 368
#     4  10  21  38  61  92 119 161 208 259 313 375
#     4  12  23  40  58  94 126 168 200 260 320 379
#     4  11  21  33  64  91 123 154 207 266 311 375
#     4   9  20  36  62  90 125 157 207 262 308 368
#     4  11  21  37  60  94 123 160 210 260 316 374
#
# _framework density 19.344677000000001
#
# number of rings (size 3 to 8) (size 9 to 14) (size 15 to 20)
#    0.000    1.500    5.000    0.750    1.750    0.000 
#    0.000    0.625    0.000    0.750    0.000    0.000 
#    0.000    0.000    0.000    0.000    0.000    0.000 
#
# Total GULP energy -178270.846296 kJ/mol
# GULP energy per Si atom -5570.963947 kJ/mol
# Density = 1.930065 g / cm^3
# Si number density = 19.344677 Si / 1000 Ang^3
#
#
#
# Elastic Constant Matrix: (Units=GPa)
#
#
# Indices 1 2 3 4 5 6 
#
# 1 72.5792 15.2351 2.8309 0.0000 5.5154 0.0000
# 2 15.2351 61.0359 15.2783 0.0000 0.4030 0.0000
# 3 2.8309 15.2783 79.8401 0.0000 -9.8774 0.0000
# 4 0.0000 0.0000 0.0000 31.4328 0.0000 6.7667
# 5 5.5154 0.4030 -9.8774 0.0000 34.1924 0.0000
# 6 0.0000 0.0000 0.0000 6.7667 0.0000 25.0078
#
#
#
# Elastic Compliance Matrix: (Units=1/GPa)
#
#
# Indices 1 2 3 4 5 6 
#
# 1 0.014725 -0.003630 -0.000120 0.000000 -0.002367 0.000000
# 2 -0.003630 0.018150 -0.003421 0.000000 -0.000617 0.000000
# 3 -0.000120 -0.003421 0.013680 0.000000 0.004012 0.000000
# 4 0.000000 0.000000 0.000000 0.033782 0.000000 -0.009141
# 5 -0.002367 -0.000617 0.004012 0.000000 0.030794 0.000000
# 6 0.000000 0.000000 0.000000 -0.009141 0.000000 0.042461
#
#
# Mechanical properties :
#
#
# Convention : Reuss Voigt Hill
#
# Bulk Modulus (GPa) = 31.04313 31.12710 31.08511
# Shear Modulus (GPa) = 27.98439 30.13399 29.05919
#
# Velocity S-wave (km/s) = 3.80757 3.95110 3.88000
# Velocity P-wave (km/s) = 5.95083 6.07788 6.01469
#
# Compressibility (1/GPa) = 0.03221325
#
# Stress axis : x y z
#
# Youngs Moduli (GPa) = 67.91395 55.09594 73.09827
#
# Poissons Ratio (x) = 0.19998 0.00880
# Poissons Ratio (y) = 0.24650 0.25006
# Poissons Ratio (z) = 0.00818 0.18847
#
# Static dielectric constant tensor:
#      x y z
#    x 1.657760 0.000000 -0.002070 
#    y 0.000000 1.739100 0.000000 
#    z -0.002070 0.000000 1.724240 
# 
# From -- ./inp_files/14306.got.cif
#   From: 2010.05.17/outbox.cif.g08.bks.cpg/sg14_8_cif.got.tgz:14306.got - 2010.06.03 17:49:19.
