data_PCOD9242303
_publ_section_title
;
Structure prediction by ZEFSAII (Michael W. Deem and Ramdas Pophale) SiO2 
 PCOD9242303
Probable space group: P 21/C
;
_chemical_formula_sum "Si O2"
_cell_formula_units_Z 24
_cell_length_a 18.474054
_cell_length_b 8.448840
_cell_length_c 19.562903
_cell_angle_alpha 90.000000
_cell_angle_beta 22.106950
_cell_angle_gamma 90.000000
_cell_volume 1149.129858
_symmetry_space_group_name_H-M "P 21/C"
_symmetry_group_IT_number 14
_symmetry_cell_setting 'monoclinic'
loop_
_space_group_symop_operation_xyz
x,y,z
-x,1/2+y,1/2-z
-x,-y,-z
x,1/2-y,1/2+z
loop_
_atom_site_type_symbol
_atom_site_label
_atom_site_fract_x
_atom_site_fract_y
_atom_site_fract_z
Si Si1 0.174584 0.733840 0.013168
Si Si2 0.542554 0.817468 0.455644
Si Si3 0.565254 0.704061 0.592971
Si Si4 0.109583 0.379706 0.855615
Si Si5 0.280316 0.898329 0.101669
Si Si6 0.926528 0.582772 0.822181
O O1 0.147476 0.592033 0.092908
O O2 0.043207 0.683929 0.064619
O O3 0.078021 0.892386 0.127743
O O4 0.390064 0.739017 0.797061
O O5 0.519665 0.756373 0.554555
O O6 0.754570 0.766375 0.242856
O O7 0.398918 0.748685 0.524135
O O8 0.500000 0.000000 0.500000
O O9 0.614401 0.516352 0.543899
O O10 0.751510 0.801095 0.456242
O O11 0.259417 0.493725 0.686673
O O12 0.000000 0.500000 0.000000
O O13 0.064136 0.866156 0.264975
#
# Coordination Sequence:
#
# PCOD9242303 Si02
#       6
#     4   4   4   4   4   4
#     4  11  24  41  69  93 133 177 223 275 334 399
#     4  11  23  40  67 101 134 169 229 292 330 399
#     4  11  23  45  67  96 135 183 221 270 343 413
#     4  10  19  42  68  91 129 178 222 265 343 415
#     4  10  22  40  63  93 135 175 216 267 339 410
#     4  11  23  42  64  97 133 172 224 278 327 401
#
# _framework density 20.885366999999999
#
# number of rings (size 3 to 8) (size 9 to 14) (size 15 to 20)
#    0.000    1.333    5.000    4.000    4.667    0.000 
#    0.000    8.333    0.000    0.000    0.000    0.000 
#    0.000    0.000    0.000    0.000    0.000    0.000 
#
# Total GULP energy -133736.042524 kJ/mol
# GULP energy per Si atom -5572.335105 kJ/mol
# Density = 2.083783 g / cm^3
# Si number density = 20.885367 Si / 1000 Ang^3
#
#
#
# Elastic Constant Matrix: (Units=GPa)
#
#
# Indices 1 2 3 4 5 6 
#
# 1 63.9037 14.1298 11.2660 0.0000 -7.3272 0.0000
# 2 14.1298 47.2043 24.4127 0.0000 4.4417 0.0000
# 3 11.2660 24.4127 142.8336 0.0000 10.5204 0.0000
# 4 0.0000 0.0000 0.0000 32.7860 0.0000 0.0644
# 5 -7.3272 4.4417 10.5204 0.0000 30.6399 0.0000
# 6 0.0000 0.0000 0.0000 0.0644 0.0000 37.8920
#
#
#
# Elastic Compliance Matrix: (Units=1/GPa)
#
#
# Indices 1 2 3 4 5 6 
#
# 1 0.017580 -0.005310 -0.000867 0.000000 0.005272 0.000000
# 2 -0.005310 0.024969 -0.003579 0.000000 -0.003661 0.000000
# 3 -0.000867 -0.003579 0.007857 0.000000 -0.002386 0.000000
# 4 0.000000 0.000000 0.000000 0.030501 0.000000 -0.000052
# 5 0.005272 -0.003661 -0.002386 0.000000 0.035248 0.000000
# 6 0.000000 0.000000 0.000000 -0.000052 0.000000 0.026391
#
#
# Mechanical properties :
#
#
# Convention : Reuss Voigt Hill
#
# Bulk Modulus (GPa) = 32.36906 39.28431 35.82668
# Shear Modulus (GPa) = 29.00958 33.87245 31.44102
#
# Velocity S-wave (km/s) = 3.73096 4.03156 3.88417
# Velocity P-wave (km/s) = 5.83885 6.36566 6.10794
#
# Compressibility (1/GPa) = 0.03089370
#
# Stress axis : x y z
#
# Youngs Moduli (GPa) = 56.88302 40.04892 127.27356
#
# Poissons Ratio (x) = 0.21265 0.11039
# Poissons Ratio (y) = 0.30203 0.45555
# Poissons Ratio (z) = 0.04934 0.14335
#
# Static dielectric constant tensor:
#      x y z
#    x 1.845490 0.000000 -0.071760 
#    y 0.000000 1.893670 0.000000 
#    z -0.071760 0.000000 1.898940 
# 
# From -- ./inp_files/69749.got.cif
#   From: 2010.05.17/outbox.cif.g08.bks.cpg/sg14_35_cif.got.tgz:69749.got - 2010.06.03 17:49:19.
