data_PCOD9242132
_publ_section_title
;
Structure prediction by ZEFSAII (Michael W. Deem and Ramdas Pophale) SiO2 
 PCOD9242132
Probable space group: P 21/C
;
_chemical_formula_sum "Si O2"
_cell_formula_units_Z 24
_cell_length_a 11.950562
_cell_length_b 11.857699
_cell_length_c 13.493949
_cell_angle_alpha 90.000000
_cell_angle_beta 151.072752
_cell_angle_gamma 90.000000
_cell_volume 924.916889
_symmetry_space_group_name_H-M "P 21/C"
_symmetry_group_IT_number 14
_symmetry_cell_setting 'monoclinic'
loop_
_space_group_symop_operation_xyz
x,y,z
-x,1/2+y,1/2-z
-x,-y,-z
x,1/2-y,1/2+z
loop_
_atom_site_type_symbol
_atom_site_label
_atom_site_fract_x
_atom_site_fract_y
_atom_site_fract_z
Si Si1 0.653623 0.987775 0.251923
Si Si2 0.712130 0.121713 0.548757
Si Si3 0.964066 0.652897 0.879006
Si Si4 0.697218 0.634264 0.429501
Si Si5 0.612181 0.881597 0.427303
Si Si6 0.126499 0.845348 0.130227
O O1 0.401290 0.035207 0.077839
O O2 0.835949 0.090424 0.398939
O O3 0.726253 0.909525 0.218516
O O4 0.702192 0.916149 0.388619
O O5 0.499937 0.148580 0.310117
O O6 0.718303 0.194868 0.653401
O O7 0.933916 0.143391 0.651151
O O8 0.699725 0.986539 0.562228
O O9 0.975332 0.774778 0.935609
O O10 0.683379 0.750701 0.482796
O O11 0.926014 0.602803 0.544840
O O12 0.335519 0.890818 0.225505
#
# Coordination Sequence:
#
# PCOD9242132 Si02
#       6
#     4   4   4   4   4   4
#     4   9  18  36  65  88 125 173 202 265 330 363
#     4  10  24  40  63  98 133 168 220 262 339 375
#     4   9  18  38  66  87 130 172 212 266 316 387
#     4  10  21  40  63  97 130 167 221 263 321 395
#     4  10  19  39  66  92 134 169 207 282 318 383
#     4  12  21  40  68  94 128 176 214 271 329 388
#
# _framework density 25.948277000000001
#
# number of rings (size 3 to 8) (size 9 to 14) (size 15 to 20)
#    0.000    2.333    5.000    0.500    0.000    2.667 
#    3.000    4.167    0.000    1.000    0.000    0.000 
#    0.000    0.000    0.000    0.000    0.000    0.000 
#
# Total GULP energy -133708.049044 kJ/mol
# GULP energy per Si atom -5571.168710 kJ/mol
# Density = 2.588922 g / cm^3
# Si number density = 25.948277 Si / 1000 Ang^3
#
#
#
# Elastic Constant Matrix: (Units=GPa)
#
#
# Indices 1 2 3 4 5 6 
#
# 1 80.1789 -0.5533 18.4477 0.0000 26.4313 0.0000
# 2 -0.5533 75.3218 21.9084 0.0000 15.8213 0.0000
# 3 18.4477 21.9084 63.2879 0.0000 34.1543 0.0000
# 4 0.0000 0.0000 0.0000 26.1140 0.0000 8.7504
# 5 26.4313 15.8213 34.1543 0.0000 61.7751 0.0000
# 6 0.0000 0.0000 0.0000 8.7504 0.0000 18.9479
#
#
#
# Elastic Compliance Matrix: (Units=1/GPa)
#
#
# Indices 1 2 3 4 5 6 
#
# 1 0.014820 0.001861 -0.001831 0.000000 -0.005805 0.000000
# 2 0.001861 0.015077 -0.004629 0.000000 -0.002098 0.000000
# 3 -0.001831 -0.004629 0.024050 0.000000 -0.011328 0.000000
# 4 0.000000 0.000000 0.000000 0.045304 0.000000 -0.020922
# 5 -0.005805 -0.002098 -0.011328 0.000000 0.025472 0.000000
# 6 0.000000 0.000000 0.000000 -0.020922 0.000000 0.062438
#
#
# Mechanical properties :
#
#
# Convention : Reuss Voigt Hill
#
# Bulk Modulus (GPa) = 22.34740 33.15493 27.75116
# Shear Modulus (GPa) = 23.66557 33.29980 28.48269
#
# Velocity S-wave (km/s) = 3.02326 3.58622 3.31671
# Velocity P-wave (km/s) = 4.56265 5.47294 5.03839
#
# Compressibility (1/GPa) = 0.04474794
#
# Stress axis : x y z
#
# Youngs Moduli (GPa) = 67.47667 66.32494 41.57931
#
# Poissons Ratio (x) = -0.12342 0.07614
# Poissons Ratio (y) = -0.12556 0.19249
# Poissons Ratio (z) = 0.12357 0.30705
#
# Static dielectric constant tensor:
#      x y z
#    x 1.958520 0.000000 -0.038150 
#    y 0.000000 2.159630 0.000000 
#    z -0.038150 0.000000 2.196390 
# 
# From -- ./inp_files/45153.got.cif
#   From: 2010.05.17/outbox.cif.g08.bks.cpg/sg14_23_cif.got.tgz:45153.got - 2010.06.03 17:49:19.
