data_PCOD9242464
_publ_section_title
;
Structure prediction by ZEFSAII (Michael W. Deem and Ramdas Pophale) SiO2 
 PCOD9242464
Probable space group: P 21/C
;
_chemical_formula_sum "Si O2"
_cell_formula_units_Z 24
_cell_length_a 5.642555
_cell_length_b 8.039737
_cell_length_c 19.531798
_cell_angle_alpha 90.000000
_cell_angle_beta 94.443064
_cell_angle_gamma 90.000000
_cell_volume 883.390580
_symmetry_space_group_name_H-M "P 21/C"
_symmetry_group_IT_number 14
_symmetry_cell_setting 'monoclinic'
loop_
_space_group_symop_operation_xyz
x,y,z
-x,1/2+y,1/2-z
-x,-y,-z
x,1/2-y,1/2+z
loop_
_atom_site_type_symbol
_atom_site_label
_atom_site_fract_x
_atom_site_fract_y
_atom_site_fract_z
Si Si1 0.683867 0.636189 0.877789
Si Si2 0.486041 0.838663 0.051660
Si Si3 0.339917 0.059136 0.302617
Si Si4 0.025626 0.295708 0.497597
Si Si5 0.048500 0.358600 0.261481
Si Si6 0.397977 0.929447 0.831674
O O1 0.514824 0.473869 0.869736
O O2 0.890674 0.693117 0.933516
O O3 0.799199 0.638157 0.805014
O O4 0.482888 0.779321 0.880378
O O5 0.478331 0.912991 0.128222
O O6 0.746808 0.761377 0.045419
O O7 0.239909 0.745836 0.029881
O O8 0.500000 0.000000 0.000000
O O9 0.497058 0.102271 0.240455
O O10 0.210714 0.891175 0.273020
O O11 0.127174 0.192096 0.302104
O O12 0.000000 0.500000 0.500000
O O13 0.128686 0.510096 0.313568
#
# Coordination Sequence:
#
# PCOD9242464 Si02
#       6
#     4   4   4   4   4   4
#     4  10  20  36  58  86 121 150 208 251 312 360
#     4  10  20  33  58  92 123 153 203 254 312 352
#     4  10  22  36  57  87 118 162 199 256 308 373
#     4  10  20  33  56  94 119 157 196 259 301 362
#     4  10  22  36  59  84 120 160 201 254 313 362
#     4  10  20  36  58  87 119 151 202 256 306 367
#
# _framework density 27.168053
#
# number of rings (size 3 to 8) (size 9 to 14) (size 15 to 20)
#    0.000    2.000    3.333    1.000    4.667    2.667 
#    0.000    0.000    0.000    2.000    0.000    0.000 
#    0.000    0.000    0.000    0.000    0.000    0.000 
#
# Total GULP energy -133931.928712 kJ/mol
# GULP energy per Si atom -5580.497030 kJ/mol
# Density = 2.710622 g / cm^3
# Si number density = 27.168053 Si / 1000 Ang^3
#
#
#
# Elastic Constant Matrix: (Units=GPa)
#
#
# Indices 1 2 3 4 5 6 
#
# 1 170.2543 47.6451 57.6404 0.0000 49.1554 0.0000
# 2 47.6451 72.0910 26.9108 0.0000 15.6355 0.0000
# 3 57.6404 26.9108 120.1710 0.0000 45.0766 0.0000
# 4 0.0000 0.0000 0.0000 40.4440 0.0000 18.1709
# 5 49.1554 15.6355 45.0766 0.0000 62.8749 0.0000
# 6 0.0000 0.0000 0.0000 18.1709 0.0000 42.3696
#
#
#
# Elastic Compliance Matrix: (Units=1/GPa)
#
#
# Indices 1 2 3 4 5 6 
#
# 1 0.009007 -0.004327 -0.001523 0.000000 -0.004874 0.000000
# 2 -0.004327 0.017370 -0.002001 0.000000 0.000498 0.000000
# 3 -0.001523 -0.002001 0.012128 0.000000 -0.007007 0.000000
# 4 0.000000 0.000000 0.000000 0.030627 0.000000 -0.013135
# 5 -0.004874 0.000498 -0.007007 0.000000 0.024614 0.000000
# 6 0.000000 0.000000 0.000000 -0.013135 0.000000 0.029235
#
#
# Mechanical properties :
#
#
# Convention : Reuss Voigt Hill
#
# Bulk Modulus (GPa) = 43.85410 69.65653 56.75531
# Shear Modulus (GPa) = 34.17950 44.49237 39.33593
#
# Velocity S-wave (km/s) = 3.55079 4.05121 3.80922
# Velocity P-wave (km/s) = 5.74348 6.89767 6.34687
#
# Compressibility (1/GPa) = 0.02280289
#
# Stress axis : x y z
#
# Youngs Moduli (GPa) = 111.01966 57.56968 82.45076
#
# Poissons Ratio (x) = 0.24913 0.12559
# Poissons Ratio (y) = 0.48042 0.16499
# Poissons Ratio (z) = 0.16910 0.11520
#
# Static dielectric constant tensor:
#      x y z
#    x 2.066490 0.000000 0.025790 
#    y 0.000000 2.295320 0.000000 
#    z 0.025790 0.000000 2.129290 
# 
# From -- ./inp_files/70984.got.cif
#   From: 2010.05.17/outbox.cif.g08.bks.cpg/sg14_36_cif.got.tgz:70984.got - 2010.06.03 17:49:19.
