data_PCOD9242775
_publ_section_title
;
Structure prediction by ZEFSAII (Michael W. Deem and Ramdas Pophale) SiO2 
 PCOD9242775
Probable space group: P 21/C
;
_chemical_formula_sum "Si O2"
_cell_formula_units_Z 20
_cell_length_a 7.277874
_cell_length_b 4.948919
_cell_length_c 23.866001
_cell_angle_alpha 90.000000
_cell_angle_beta 104.539377
_cell_angle_gamma 90.000000
_cell_volume 832.068008
_symmetry_space_group_name_H-M "P 21/C"
_symmetry_group_IT_number 14
_symmetry_cell_setting 'monoclinic'
loop_
_space_group_symop_operation_xyz
x,y,z
-x,1/2+y,1/2-z
-x,-y,-z
x,1/2-y,1/2+z
loop_
_atom_site_type_symbol
_atom_site_label
_atom_site_fract_x
_atom_site_fract_y
_atom_site_fract_z
Si Si1 0.858901 0.461478 0.671195
Si Si2 0.388154 0.314413 0.555735
Si Si3 0.224404 0.308259 0.163618
Si Si4 0.239985 0.678942 0.734666
Si Si5 0.639798 0.814286 0.566477
O O1 0.716859 0.304316 0.701708
O O2 0.766571 0.677363 0.623223
O O3 0.999376 0.255749 0.650225
O O4 0.011055 0.629603 0.719904
O O5 0.286591 0.259624 0.606113
O O6 0.450866 0.624799 0.554665
O O7 0.282299 0.228470 0.490458
O O8 0.575231 0.120912 0.570177
O O9 0.270986 0.606266 0.187729
O O10 0.314071 0.105802 0.217508
#
# Coordination Sequence:
#
# PCOD9242775 Si02
#       5
#     4   4   4   4   4
#     4  10  21  37  63  86 113 157 197 242 301 356
#     4  10  22  42  55  88 121 157 196 248 293 358
#     4  10  20  36  61  83 121 147 194 251 291 343
#     4  10  20  35  60  86 115 148 192 250 292 352
#     4  10  23  38  63  81 121 161 197 238 306 357
#
# _framework density 24.036498999999999
#
# number of rings (size 3 to 8) (size 9 to 14) (size 15 to 20)
#    1.200    0.800    2.000    1.200    2.800    0.800 
#    0.000    5.000    0.000    0.000    0.000    0.000 
#    0.000    0.000    0.000    0.000    0.000    0.000 
#
# Total GULP energy -111743.635750 kJ/mol
# GULP energy per Si atom -5587.181787 kJ/mol
# Density = 2.398179 g / cm^3
# Si number density = 24.036499 Si / 1000 Ang^3
#
#
#
# Elastic Constant Matrix: (Units=GPa)
#
#
# Indices 1 2 3 4 5 6 
#
# 1 47.5528 -4.3583 29.7102 0.0000 -18.5949 0.0000
# 2 -4.3583 96.6913 -0.7586 0.0000 -7.9739 0.0000
# 3 29.7102 -0.7586 122.4125 0.0000 -30.3716 0.0000
# 4 0.0000 0.0000 0.0000 32.8448 0.0000 -10.3022
# 5 -18.5949 -7.9739 -30.3716 0.0000 43.5493 0.0000
# 6 0.0000 0.0000 0.0000 -10.3022 0.0000 7.7409
#
#
#
# Elastic Compliance Matrix: (Units=1/GPa)
#
#
# Indices 1 2 3 4 5 6 
#
# 1 0.027496 0.001948 -0.004426 0.000000 0.009011 0.000000
# 2 0.001948 0.010682 0.000345 0.000000 0.003028 0.000000
# 3 -0.004426 0.000345 0.010632 0.000000 0.005588 0.000000
# 4 0.000000 0.000000 0.000000 0.052263 0.000000 0.069555
# 5 0.009011 0.003028 0.005588 0.000000 0.031262 0.000000
# 6 0.000000 0.000000 0.000000 0.069555 0.000000 0.221752
#
#
# Mechanical properties :
#
#
# Convention : Reuss Voigt Hill
#
# Bulk Modulus (GPa) = 22.44969 35.09368 28.77168
# Shear Modulus (GPa) = 13.39755 32.96455 23.18105
#
# Velocity S-wave (km/s) = 2.36346 3.70731 3.10886
# Velocity P-wave (km/s) = 4.09976 5.74085 4.98826
#
# Compressibility (1/GPa) = 0.04454405
#
# Stress axis : x y z
#
# Youngs Moduli (GPa) = 36.36827 93.61183 94.05667
#
# Poissons Ratio (x) = -0.18233 0.41628
# Poissons Ratio (y) = -0.07084 -0.03243
# Poissons Ratio (z) = 0.16096 -0.03227
#
# Static dielectric constant tensor:
#      x y z
#    x 1.966430 0.000000 0.063630 
#    y 0.000000 1.889240 0.000000 
#    z 0.063630 0.000000 1.959460 
# 
# From -- ./inp_files/49779.got.cif
#   From: 2010.05.17/outbox.cif.g08.bks.cpg/sg14_25_cif.got.tgz:49779.got - 2010.06.03 17:49:19.
