data_PCOD9242850
_publ_section_title
;
Structure prediction by ZEFSAII (Michael W. Deem and Ramdas Pophale) SiO2 
 PCOD9242850
Probable space group: P 21/C
;
_chemical_formula_sum "Si O2"
_cell_formula_units_Z 32
_cell_length_a 8.607628
_cell_length_b 30.984323
_cell_length_c 11.181908
_cell_angle_alpha 90.000000
_cell_angle_beta 31.289517
_cell_angle_gamma 90.000000
_cell_volume 1548.860233
_symmetry_space_group_name_H-M "P 21/C"
_symmetry_group_IT_number 14
_symmetry_cell_setting 'monoclinic'
loop_
_space_group_symop_operation_xyz
x,y,z
-x,1/2+y,1/2-z
-x,-y,-z
x,1/2-y,1/2+z
loop_
_atom_site_type_symbol
_atom_site_label
_atom_site_fract_x
_atom_site_fract_y
_atom_site_fract_z
Si Si1 0.718469 0.746498 0.422252
Si Si2 0.138608 0.501176 0.271867
Si Si3 0.402625 0.284157 0.243449
Si Si4 0.036355 0.664739 0.095964
Si Si5 0.161460 0.329849 0.044403
Si Si6 0.168462 0.594320 0.160978
Si Si7 0.878055 0.593673 0.759054
Si Si8 0.859333 0.156667 0.105684
O O1 0.543418 0.760017 0.416980
O O2 0.557343 0.738995 0.655634
O O3 0.927375 0.788192 0.317226
O O4 0.867207 0.701169 0.285913
O O5 0.048573 0.547352 0.276126
O O6 0.027781 0.455895 0.289815
O O7 0.000000 0.500000 0.500000
O O8 0.500000 0.500000 0.000000
O O9 0.067067 0.301813 0.459248
O O10 0.617747 0.324845 0.107879
O O11 0.021645 0.614215 0.138306
O O12 0.949197 0.673962 0.017156
O O13 0.518972 0.330047 0.818526
O O14 0.084323 0.376427 0.149708
O O15 0.078949 0.631671 0.312668
O O16 0.532261 0.592965 0.937762
O O17 0.068003 0.620265 0.538888
#
# Coordination Sequence:
#
# PCOD9242850 Si02
#       8
#     4   4   4   4   4   4   4   4
#     4  12  26  40  61  93 123 170 217 279 328 402
#     4  10  20  35  69 107 134 173 231 285 340 414
#     4  12  26  41  67  89 129 167 227 269 338 394
#     4  12  26  43  63  93 130 176 219 275 337 406
#     4  11  26  40  61  90 131 170 221 272 340 400
#     4  10  20  39  65  98 129 167 221 276 332 400
#     4  10  20  40  65  95 128 173 216 276 332 404
#     4  11  20  41  64  88 126 167 215 270 327 392
#
# _framework density 20.660353000000001
#
# number of rings (size 3 to 8) (size 9 to 14) (size 15 to 20)
#    0.000    1.000    6.250    0.750    3.500    1.000 
#    0.000    0.625    0.000    0.750    0.000    0.000 
#    0.000    0.000    0.000    0.000    0.000    0.000 
#
# Total GULP energy -178272.902424 kJ/mol
# GULP energy per Si atom -5571.028201 kJ/mol
# Density = 2.061333 g / cm^3
# Si number density = 20.660353 Si / 1000 Ang^3
#
#
#
# Elastic Constant Matrix: (Units=GPa)
#
#
# Indices 1 2 3 4 5 6 
#
# 1 81.4857 49.5167 20.6036 0.0000 31.2030 0.0000
# 2 49.5167 162.6703 25.2609 0.0000 12.3948 0.0000
# 3 20.6036 25.2609 42.1056 0.0000 17.4934 0.0000
# 4 0.0000 0.0000 0.0000 20.8840 0.0000 3.8361
# 5 31.2030 12.3948 17.4934 0.0000 21.3967 0.0000
# 6 0.0000 0.0000 0.0000 3.8361 0.0000 32.7021
#
#
#
# Elastic Compliance Matrix: (Units=1/GPa)
#
#
# Indices 1 2 3 4 5 6 
#
# 1 0.036745 -0.008512 0.011116 0.000000 -0.057743 0.000000
# 2 -0.008512 0.008762 -0.006270 0.000000 0.012463 0.000000
# 3 0.011116 -0.006270 0.041340 0.000000 -0.046378 0.000000
# 4 0.000000 0.000000 0.000000 0.048938 0.000000 -0.005741
# 5 -0.057743 0.012463 -0.046378 0.000000 0.161641 0.000000
# 6 0.000000 0.000000 0.000000 -0.005741 0.000000 0.031253
#
#
# Mechanical properties :
#
#
# Convention : Reuss Voigt Hill
#
# Bulk Modulus (GPa) = 12.57585 53.00266 32.78926
# Shear Modulus (GPa) = 13.79253 27.72193 20.75723
#
# Velocity S-wave (km/s) = 2.58657 3.66702 3.17312
# Velocity P-wave (km/s) = 3.87564 6.60601 5.41572
#
# Compressibility (1/GPa) = 0.07951749
#
# Stress axis : x y z
#
# Youngs Moduli (GPa) = 27.21453 114.12475 24.18967
#
# Poissons Ratio (x) = 0.97139 -0.26890
# Poissons Ratio (y) = 0.23164 0.15166
# Poissons Ratio (z) = -0.30253 0.71552
#
# Static dielectric constant tensor:
#      x y z
#    x 1.759630 0.000000 0.059360 
#    y 0.000000 1.771180 0.000000 
#    z 0.059360 0.000000 1.840630 
# 
# From -- ./inp_files/27166.got.cif
#   From: 2010.05.17/outbox.cif.g08.bks.cpg/sg14_14_cif.got.tgz:27166.got - 2010.06.03 17:49:19.
