data_PCOD9242455
_publ_section_title
;
Structure prediction by ZEFSAII (Michael W. Deem and Ramdas Pophale) SiO2 
 PCOD9242455
Probable space group: P 21/C
;
_chemical_formula_sum "Si O2"
_cell_formula_units_Z 28
_cell_length_a 14.934841
_cell_length_b 5.337799
_cell_length_c 22.110321
_cell_angle_alpha 90.000000
_cell_angle_beta 52.226330
_cell_angle_gamma 90.000000
_cell_volume 1393.236686
_symmetry_space_group_name_H-M "P 21/C"
_symmetry_group_IT_number 14
_symmetry_cell_setting 'monoclinic'
loop_
_space_group_symop_operation_xyz
x,y,z
-x,1/2+y,1/2-z
-x,-y,-z
x,1/2-y,1/2+z
loop_
_atom_site_type_symbol
_atom_site_label
_atom_site_fract_x
_atom_site_fract_y
_atom_site_fract_z
Si Si1 0.210770 0.046229 0.538302
Si Si2 0.702169 0.134802 0.337131
Si Si3 0.064017 0.435884 0.206682
Si Si4 0.477246 0.233295 0.605014
Si Si5 0.677713 0.458233 0.457724
Si Si6 0.408952 0.619915 0.726622
Si Si7 0.635067 0.582093 0.127145
O O1 0.091852 0.066780 0.623138
O O2 0.279047 0.269990 0.543171
O O3 0.242104 0.109752 0.455462
O O4 0.249815 0.763482 0.539194
O O5 0.691208 0.384408 0.382221
O O6 0.666293 0.191747 0.282890
O O7 0.822627 0.014283 0.302901
O O8 0.603335 0.946526 0.399401
O O9 0.977545 0.661662 0.256571
O O10 0.551705 0.422416 0.535259
O O11 0.409499 0.372115 0.685784
O O12 0.567341 0.064901 0.603345
O O13 0.360703 0.570716 0.812634
O O14 0.543057 0.695619 0.677114
#
# Coordination Sequence:
#
# PCOD9242455 Si02
#       7
#     4   4   4   4   4   4   4
#     4  10  21  38  63  87 118 159 202 250 298 363
#     4  10  24  35  57  90 117 160 204 251 312 357
#     4  11  24  44  66  86 114 152 207 272 324 359
#     4  10  20  33  55  85 129 164 194 237 282 369
#     4  10  20  36  56  89 128 158 191 236 300 373
#     4  11  20  34  57  84 130 169 196 234 276 369
#     4  10  20  36  54  89 124 169 206 222 285 359
#
# _framework density 20.097089
#
# number of rings (size 3 to 8) (size 9 to 14) (size 15 to 20)
#    0.000    1.714    2.857    2.143    6.000    1.714 
#    0.000    0.000    0.000    1.714    0.000    0.000 
#    0.000    0.000    0.000    0.000    0.000    0.000 
#
# Total GULP energy -156035.938684 kJ/mol
# GULP energy per Si atom -5572.712096 kJ/mol
# Density = 2.005135 g / cm^3
# Si number density = 20.097089 Si / 1000 Ang^3
#
#
#
# Elastic Constant Matrix: (Units=GPa)
#
#
# Indices 1 2 3 4 5 6 
#
# 1 34.3812 -1.2145 6.1037 0.0000 3.6100 0.0000
# 2 -1.2145 62.1971 4.5746 0.0000 5.2209 0.0000
# 3 6.1037 4.5746 132.5489 0.0000 17.3354 0.0000
# 4 0.0000 0.0000 0.0000 30.6934 0.0000 -13.6484
# 5 3.6100 5.2209 17.3354 0.0000 22.8241 0.0000
# 6 0.0000 0.0000 0.0000 -13.6484 0.0000 13.6495
#
#
#
# Elastic Compliance Matrix: (Units=1/GPa)
#
#
# Indices 1 2 3 4 5 6 
#
# 1 0.029721 0.001002 -0.000842 0.000000 -0.004291 0.000000
# 2 0.001002 0.016427 -0.000112 0.000000 -0.003831 0.000000
# 3 -0.000842 -0.000112 0.008401 0.000000 -0.006222 0.000000
# 4 0.000000 0.000000 0.000000 0.058664 0.000000 0.058660
# 5 -0.004291 -0.003831 -0.006222 0.000000 0.050094 0.000000
# 6 0.000000 0.000000 0.000000 0.058660 0.000000 0.131918
#
#
# Mechanical properties :
#
#
# Convention : Reuss Voigt Hill
#
# Bulk Modulus (GPa) = 18.29967 27.56163 22.93065
# Shear Modulus (GPa) = 15.95692 28.07762 22.01727
#
# Velocity S-wave (km/s) = 2.82084 3.74183 3.31349
# Velocity P-wave (km/s) = 4.44240 5.69319 5.10624
#
# Compressibility (1/GPa) = 0.05464581
#
# Stress axis : x y z
#
# Youngs Moduli (GPa) = 33.64618 60.87417 119.03719
#
# Poissons Ratio (x) = -0.06102 0.10024
# Poissons Ratio (y) = -0.03373 0.01334
# Poissons Ratio (z) = 0.02833 0.00682
#
# Static dielectric constant tensor:
#      x y z
#    x 1.716870 0.000000 -0.017860 
#    y 0.000000 1.772180 0.000000 
#    z -0.017860 0.000000 1.785800 
# 
# From -- ./inp_files/73478.got.cif
#   From: 2010.05.17/outbox.cif.g08.bks.cpg/sg14_37_cif.got.tgz:73478.got - 2010.06.03 17:49:19.
