data_PCOD9242130
_publ_section_title
;
Structure prediction by ZEFSAII (Michael W. Deem and Ramdas Pophale) SiO2 
 PCOD9242130
Probable space group: P 21/C
;
_chemical_formula_sum "Si O2"
_cell_formula_units_Z 24
_cell_length_a 8.474566
_cell_length_b 17.144000
_cell_length_c 14.491129
_cell_angle_alpha 90.000000
_cell_angle_beta 144.697314
_cell_angle_gamma 90.000000
_cell_volume 1216.694229
_symmetry_space_group_name_H-M "P 21/C"
_symmetry_group_IT_number 14
_symmetry_cell_setting 'monoclinic'
loop_
_space_group_symop_operation_xyz
x,y,z
-x,1/2+y,1/2-z
-x,-y,-z
x,1/2-y,1/2+z
loop_
_atom_site_type_symbol
_atom_site_label
_atom_site_fract_x
_atom_site_fract_y
_atom_site_fract_z
Si Si1 0.671786 0.340767 0.949272
Si Si2 0.196344 0.925647 0.094181
Si Si3 0.940655 0.699487 0.334929
Si Si4 0.684494 0.426789 0.152236
Si Si5 0.724736 0.028842 0.320988
Si Si6 0.071636 0.425337 0.819182
O O1 0.384925 0.295621 0.811959
O O2 0.650237 0.397923 0.851096
O O3 0.702323 0.388223 0.060049
O O4 0.919357 0.280658 0.073527
O O5 0.200417 0.890306 0.199741
O O6 0.490703 0.963172 0.209889
O O7 0.080541 0.862326 0.969886
O O8 0.000000 0.000000 0.000000
O O9 0.978398 0.657993 0.252729
O O10 0.843407 0.509327 0.216628
O O11 0.357125 0.428757 0.012106
O O12 0.818581 0.051992 0.262598
O O13 0.000000 0.000000 0.500000
#
# Coordination Sequence:
#
# PCOD9242130 Si02
#       6
#     4   4   4   4   4   4
#     4  11  25  44  63  93 132 174 213 272 329 382
#     4  12  22  42  67  98 128 170 217 273 319 383
#     4  11  26  44  63  93 135 169 216 273 331 377
#     4  10  19  39  66  89 127 166 211 260 319 378
#     4  12  22  39  71  99 125 171 224 261 320 394
#     4  10  20  39  65  94 123 167 213 259 314 389
#
# _framework density 19.725581999999999
#
# number of rings (size 3 to 8) (size 9 to 14) (size 15 to 20)
#    0.000    1.000    6.667    1.000    2.333    2.000 
#    3.000    3.333    0.000    0.000    0.000    0.000 
#    0.000    0.000    0.000    0.000    0.000    0.000 
#
# Total GULP energy -133756.191027 kJ/mol
# GULP energy per Si atom -5573.174626 kJ/mol
# Density = 1.968069 g / cm^3
# Si number density = 19.725582 Si / 1000 Ang^3
#
#
#
# Elastic Constant Matrix: (Units=GPa)
#
#
# Indices 1 2 3 4 5 6 
#
# 1 63.2607 -3.1009 17.3765 0.0000 -5.4882 0.0000
# 2 -3.1009 37.9575 4.3761 0.0000 3.2692 0.0000
# 3 17.3765 4.3761 69.0920 0.0000 -1.0551 0.0000
# 4 0.0000 0.0000 0.0000 43.2410 0.0000 4.9990
# 5 -5.4882 3.2692 -1.0551 0.0000 29.1791 0.0000
# 6 0.0000 0.0000 0.0000 4.9990 0.0000 18.3383
#
#
#
# Elastic Compliance Matrix: (Units=1/GPa)
#
#
# Indices 1 2 3 4 5 6 
#
# 1 0.017359 0.001677 -0.004427 0.000000 0.002917 0.000000
# 2 0.001677 0.026973 -0.002173 0.000000 -0.002785 0.000000
# 3 -0.004427 -0.002173 0.015724 0.000000 -0.000021 0.000000
# 4 0.000000 0.000000 0.000000 0.023879 0.000000 -0.006509
# 5 0.002917 -0.002785 -0.000021 0.000000 0.035131 0.000000
# 6 0.000000 0.000000 0.000000 -0.006509 0.000000 0.056305
#
#
# Mechanical properties :
#
#
# Convention : Reuss Voigt Hill
#
# Bulk Modulus (GPa) = 19.91627 23.06817 21.49222
# Shear Modulus (GPa) = 24.75819 28.26225 26.51022
#
# Velocity S-wave (km/s) = 3.54663 3.78930 3.66997
# Velocity P-wave (km/s) = 5.18556 5.55563 5.37378
#
# Compressibility (1/GPa) = 0.05021021
#
# Stress axis : x y z
#
# Youngs Moduli (GPa) = 57.60689 37.07457 63.59599
#
# Poissons Ratio (x) = -0.06219 0.28157
# Poissons Ratio (y) = -0.09663 0.13818
# Poissons Ratio (z) = 0.25505 0.08055
#
# Static dielectric constant tensor:
#      x y z
#    x 1.765890 0.000000 0.008780 
#    y 0.000000 1.816650 0.000000 
#    z 0.008780 0.000000 1.677560 
# 
# From -- ./inp_files/41867.got.cif
#   From: 2010.05.17/outbox.cif.g08.bks.cpg/sg14_21_cif.got.tgz:41867.got - 2010.06.03 17:49:19.
