data_PCOD9242942
_publ_section_title
;
Structure prediction by ZEFSAII (Michael W. Deem and Ramdas Pophale) SiO2 
 PCOD9242942
Probable space group: P 21/C
;
_chemical_formula_sum "Si O2"
_cell_formula_units_Z 28
_cell_length_a 6.291597
_cell_length_b 17.482617
_cell_length_c 14.943836
_cell_angle_alpha 90.000000
_cell_angle_beta 114.898772
_cell_angle_gamma 90.000000
_cell_volume 1490.946690
_symmetry_space_group_name_H-M "P 21/C"
_symmetry_group_IT_number 14
_symmetry_cell_setting 'monoclinic'
loop_
_space_group_symop_operation_xyz
x,y,z
-x,1/2+y,1/2-z
-x,-y,-z
x,1/2-y,1/2+z
loop_
_atom_site_type_symbol
_atom_site_label
_atom_site_fract_x
_atom_site_fract_y
_atom_site_fract_z
Si Si1 0.717097 0.000000 0.217097
Si Si2 0.962181 0.901083 0.111611
Si Si3 0.738960 0.598918 0.388389
Si Si4 0.515505 0.139712 0.747335
Si Si5 0.416879 0.760464 0.887228
Si Si6 0.357577 0.239536 0.887227
Si Si7 0.020834 0.360287 0.752664
O O1 0.467270 0.036830 0.148514
O O2 0.881074 0.070693 0.275666
O O3 0.829756 0.963170 0.148513
O O4 0.670259 0.929307 0.275667
O O5 0.835188 0.821248 0.112908
O O6 0.231155 0.894631 0.184982
O O7 0.920706 0.915632 0.000000
O O8 0.609373 0.678752 0.387093
O O9 0.861193 0.605369 0.315019
O O10 0.533442 0.182023 0.655935
O O11 0.458787 0.203280 0.813654
O O12 0.168522 0.796720 0.813654
O O13 0.450869 0.754013 0.000000
O O14 0.221572 0.317977 0.844064
#
# Coordination Sequence:
#
# PCOD9242942 Si02
#       7
#     4   4   4   4   4   4   4
#     4  10  23  34  55  84 122 152 189 232 291 346
#     4  10  20  36  58  85 117 151 186 236 295 341
#     4  10  20  36  58  85 117 151 186 236 295 341
#     4  11  20  38  57  85 116 152 190 241 287 339
#     4  10  21  36  59  87 113 148 197 238 283 344
#     4  10  21  36  59  87 113 148 197 238 283 344
#     4  11  20  38  57  85 116 152 190 241 287 339
#
# _framework density 18.780014000000001
#
# number of rings (size 3 to 8) (size 9 to 14) (size 15 to 20)
#    0.000    1.714    2.857    2.143    0.000    4.571 
#    0.000    0.714    0.000    3.429    0.000    0.000 
#    0.000    0.000    0.000    0.000    0.000    0.000 
#
# Total GULP energy -156312.845976 kJ/mol
# GULP energy per Si atom -5582.601642 kJ/mol
# Density = 1.873727 g / cm^3
# Si number density = 18.780014 Si / 1000 Ang^3
#
#
#
# Elastic Constant Matrix: (Units=GPa)
#
#
# Indices 1 2 3 4 5 6 
#
# 1 48.6243 18.5955 18.6028 0.0000 0.3409 0.0000
# 2 18.5955 98.2429 31.8852 0.0000 -0.7720 0.0000
# 3 18.6028 31.8852 37.5411 0.0000 0.3019 0.0000
# 4 0.0000 0.0000 0.0000 10.0598 0.0000 0.5888
# 5 0.3409 -0.7720 0.3019 0.0000 12.0788 0.0000
# 6 0.0000 0.0000 0.0000 0.5888 0.0000 20.2048
#
#
#
# Elastic Compliance Matrix: (Units=1/GPa)
#
#
# Indices 1 2 3 4 5 6 
#
# 1 0.025451 -0.001007 -0.011752 0.000000 -0.000489 0.000000
# 2 -0.001007 0.014110 -0.011495 0.000000 0.001218 0.000000
# 3 -0.011752 -0.011495 0.042236 0.000000 -0.001459 0.000000
# 4 0.000000 0.000000 0.000000 0.099575 0.000000 -0.002902
# 5 -0.000489 0.001218 -0.001459 0.000000 0.082918 0.000000
# 6 0.000000 0.000000 0.000000 -0.002902 0.000000 0.049578
#
#
# Mechanical properties :
#
#
# Convention : Reuss Voigt Hill
#
# Bulk Modulus (GPa) = 30.04087 35.84170 32.94128
# Shear Modulus (GPa) = 13.38790 16.15699 14.77244
#
# Velocity S-wave (km/s) = 2.67288 2.93632 2.80769
# Velocity P-wave (km/s) = 5.05536 5.53375 5.29995
#
# Compressibility (1/GPa) = 0.03328798
#
# Stress axis : x y z
#
# Youngs Moduli (GPa) = 39.29180 70.87325 23.67651
#
# Poissons Ratio (x) = 0.07136 0.27826
# Poissons Ratio (y) = 0.03956 0.27216
# Poissons Ratio (z) = 0.46178 0.81468
#
# Static dielectric constant tensor:
#      x y z
#    x 1.641580 0.000000 0.001840 
#    y 0.000000 1.684390 0.000000 
#    z 0.001840 0.000000 1.609950 
# 
# From -- ./inp_files/37615.got.cif
#   From: 2010.05.17/outbox.cif.g08.bks.cpg/sg14_19_cif.got.tgz:37615.got - 2010.06.03 17:49:19.
