data_PCOD9242978
_publ_section_title
;
Structure prediction by ZEFSAII (Michael W. Deem and Ramdas Pophale) SiO2 
 PCOD9242978
Probable space group: P 21/C
;
_chemical_formula_sum "Si O2"
_cell_formula_units_Z 32
_cell_length_a 17.096482
_cell_length_b 16.803185
_cell_length_c 9.069642
_cell_angle_alpha 90.000000
_cell_angle_beta 142.725819
_cell_angle_gamma 90.000000
_cell_volume 1577.959306
_symmetry_space_group_name_H-M "P 21/C"
_symmetry_group_IT_number 14
_symmetry_cell_setting 'monoclinic'
loop_
_space_group_symop_operation_xyz
x,y,z
-x,1/2+y,1/2-z
-x,-y,-z
x,1/2-y,1/2+z
loop_
_atom_site_type_symbol
_atom_site_label
_atom_site_fract_x
_atom_site_fract_y
_atom_site_fract_z
Si Si1 0.796228 0.569261 0.525580
Si Si2 0.256206 0.620727 0.212646
Si Si3 0.508947 0.912847 0.939336
Si Si4 0.491053 0.087153 0.412495
Si Si5 0.003509 0.328761 0.331295
Si Si6 0.256206 0.620727 0.555973
Si Si7 0.996491 0.828761 0.820767
Si Si8 0.203772 0.069261 0.636896
O O1 0.658078 0.611396 0.289207
O O2 0.905620 0.598419 0.580198
O O3 0.770719 0.474726 0.478630
O O4 0.836826 0.586629 0.755240
O O5 0.394408 0.635937 0.343891
O O6 0.257380 0.644118 0.386070
O O7 0.229281 0.525274 0.166473
O O8 0.138317 0.659033 0.948930
O O9 0.487533 0.918974 0.731300
O O10 0.658078 0.888604 0.185028
O O11 0.500000 0.000000 0.000000
O O12 0.605592 0.135937 0.660668
O O13 0.500000 0.000000 0.500000
O O14 0.997530 0.320237 0.496296
O O15 0.060077 0.250000 0.340115
O O16 0.138317 0.659033 0.466022
O O17 0.905620 0.901581 0.636662
#
# Coordination Sequence:
#
# PCOD9242978 Si02
#       8
#     4   4   4   4   4   4   4   4
#     4   9  19  36  58  84 114 145 178 222 272 322
#     4  10  20  36  59  85 114 145 180 225 274 326
#     4   9  17  31  54  84 115 144 178 223 273 323
#     4   9  17  31  54  84 115 144 178 223 273 323
#     4  12  25  39  56  78 109 147 187 230 274 326
#     4  10  20  36  59  85 114 145 180 225 274 326
#     4  12  25  39  56  78 109 147 187 230 274 326
#     4   9  19  36  58  84 114 145 178 222 272 322
#
# _framework density 20.279356
#
# number of rings (size 3 to 8) (size 9 to 14) (size 15 to 20)
#    0.000    2.000    0.000    6.000    0.000    9.000 
#    0.000    1.250    0.000    6.000    0.000    0.000 
#    0.000    0.000    0.000    0.000    0.000    0.000 
#
# Total GULP energy -178698.139275 kJ/mol
# GULP energy per Si atom -5584.316852 kJ/mol
# Density = 2.023320 g / cm^3
# Si number density = 20.279356 Si / 1000 Ang^3
#
#
#
# Elastic Constant Matrix: (Units=GPa)
#
#
# Indices 1 2 3 4 5 6 
#
# 1 147.8318 18.2829 58.8400 0.0000 -13.4753 0.0000
# 2 18.2829 19.8564 14.1161 0.0000 -5.2831 0.0000
# 3 58.8400 14.1161 119.6883 0.0000 -22.2078 0.0000
# 4 0.0000 0.0000 0.0000 9.5738 0.0000 -8.7445
# 5 -13.4753 -5.2831 -22.2078 0.0000 28.1100 0.0000
# 6 0.0000 0.0000 0.0000 -8.7445 0.0000 16.4706
#
#
#
# Elastic Compliance Matrix: (Units=1/GPa)
#
#
# Indices 1 2 3 4 5 6 
#
# 1 0.008945 -0.005528 -0.003682 0.000000 0.000340 0.000000
# 2 -0.005528 0.059295 -0.003164 0.000000 0.005995 0.000000
# 3 -0.003682 -0.003164 0.011835 0.000000 0.006991 0.000000
# 4 0.000000 0.000000 0.000000 0.202789 0.000000 0.107664
# 5 0.000340 0.005995 0.006991 0.000000 0.042387 0.000000
# 6 0.000000 0.000000 0.000000 0.107664 0.000000 0.117874
#
#
# Mechanical properties :
#
#
# Convention : Reuss Voigt Hill
#
# Bulk Modulus (GPa) = 18.07384 52.20607 35.13996
# Shear Modulus (GPa) = 10.28138 23.90672 17.09405
#
# Velocity S-wave (km/s) = 2.25408 3.43719 2.90647
# Velocity P-wave (km/s) = 3.96312 6.44606 5.35061
#
# Compressibility (1/GPa) = 0.05532859
#
# Stress axis : x y z
#
# Youngs Moduli (GPa) = 111.79820 16.86471 84.49172
#
# Poissons Ratio (x) = 0.09322 0.31112
# Poissons Ratio (y) = 0.61799 0.26729
# Poissons Ratio (z) = 0.41167 0.05335
#
# Static dielectric constant tensor:
#      x y z
#    x 1.695570 0.000000 0.030950 
#    y 0.000000 1.825310 0.000000 
#    z 0.030950 0.000000 1.719990 
# 
# From -- ./inp_files/16873.got.cif
#   From: 2010.05.17/outbox.cif.g08.bks.cpg/sg14_9_cif.got.tgz:16873.got - 2010.06.03 17:49:19.
