data_PCOD9242236
_publ_section_title
;
Structure prediction by ZEFSAII (Michael W. Deem and Ramdas Pophale) SiO2 
 PCOD9242236
Probable space group: P 21/C
;
_chemical_formula_sum "Si O2"
_cell_formula_units_Z 32
_cell_length_a 13.099751
_cell_length_b 10.055727
_cell_length_c 14.666440
_cell_angle_alpha 90.000000
_cell_angle_beta 131.175331
_cell_angle_gamma 90.000000
_cell_volume 1454.193642
_symmetry_space_group_name_H-M "P 21/C"
_symmetry_group_IT_number 14
_symmetry_cell_setting 'monoclinic'
loop_
_space_group_symop_operation_xyz
x,y,z
-x,1/2+y,1/2-z
-x,-y,-z
x,1/2-y,1/2+z
loop_
_atom_site_type_symbol
_atom_site_label
_atom_site_fract_x
_atom_site_fract_y
_atom_site_fract_z
Si Si1 0.206445 0.779821 0.267686
Si Si2 0.711404 0.725558 0.152210
Si Si3 0.503649 0.333660 0.120207
Si Si4 0.513281 0.025861 0.116732
Si Si5 0.320728 0.152936 0.682489
Si Si6 0.243655 0.979004 0.916109
Si Si7 0.025041 0.380942 0.944697
Si Si8 0.055818 0.026662 0.254570
O O1 0.338889 0.857189 0.308200
O O2 0.249772 0.649878 0.352515
O O3 0.098593 0.723207 0.130996
O O4 0.125119 0.884572 0.281348
O O5 0.655962 0.740650 0.222857
O O6 0.743725 0.871720 0.123940
O O7 0.848156 0.640569 0.229794
O O8 0.596422 0.651472 0.025041
O O9 0.503204 0.176310 0.135732
O O10 0.425390 0.380191 0.163486
O O11 0.653098 0.976088 0.239975
O O12 0.369060 0.962196 0.059668
O O13 0.500000 0.000000 0.000000
O O14 0.172515 0.176828 0.556028
O O15 0.095866 0.975349 0.873846
O O16 0.036919 0.440409 0.850113
O O17 0.000000 0.500000 0.000000
#
# Coordination Sequence:
#
# PCOD9242236 Si02
#       8
#     4   4   4   4   4   4   4   4
#     4  11  23  43  66 100 137 174 227 292 337 414
#     4  11  22  45  69  96 136 188 222 287 344 413
#     4  11  23  42  68  98 137 174 235 280 349 408
#     4  11  20  42  69  90 121 183 237 273 323 419
#     4  12  23  42  70  97 134 181 229 287 343 412
#     4  10  19  40  72  89 123 185 237 260 336 417
#     4  11  24  43  67 101 135 187 242 275 331 434
#     4  11  24  41  68 100 141 178 218 291 361 390
#
# _framework density 22.005322
#
# number of rings (size 3 to 8) (size 9 to 14) (size 15 to 20)
#    0.000    1.000    5.000    3.750    1.750    1.500 
#   11.250    0.625    0.000    0.000    0.000    0.000 
#    0.000    0.000    0.000    0.000    0.000    0.000 
#
# Total GULP energy -178286.789161 kJ/mol
# GULP energy per Si atom -5571.462161 kJ/mol
# Density = 2.195524 g / cm^3
# Si number density = 22.005322 Si / 1000 Ang^3
#
#
#
# Elastic Constant Matrix: (Units=GPa)
#
#
# Indices 1 2 3 4 5 6 
#
# 1 100.7395 -7.6278 30.4670 0.0000 19.7761 0.0000
# 2 -7.6278 39.6506 -10.3341 0.0000 2.6200 0.0000
# 3 30.4670 -10.3341 83.0155 0.0000 21.0976 0.0000
# 4 0.0000 0.0000 0.0000 18.3228 0.0000 12.3037
# 5 19.7761 2.6200 21.0976 0.0000 37.7707 0.0000
# 6 0.0000 0.0000 0.0000 12.3037 0.0000 31.6952
#
#
#
# Elastic Compliance Matrix: (Units=1/GPa)
#
#
# Indices 1 2 3 4 5 6 
#
# 1 0.011877 0.001831 -0.002935 0.000000 -0.004706 0.000000
# 2 0.001831 0.026938 0.003962 0.000000 -0.005041 0.000000
# 3 -0.002935 0.003962 0.015495 0.000000 -0.007393 0.000000
# 4 0.000000 0.000000 0.000000 0.073819 0.000000 -0.028656
# 5 -0.004706 -0.005041 -0.007393 0.000000 0.033419 0.000000
# 6 0.000000 0.000000 0.000000 -0.028656 0.000000 0.042674
#
#
# Mechanical properties :
#
#
# Convention : Reuss Voigt Hill
#
# Bulk Modulus (GPa) = 16.65914 27.60177 22.13046
# Shear Modulus (GPa) = 22.88176 31.61777 27.24977
#
# Velocity S-wave (km/s) = 3.22814 3.79466 3.52280
# Velocity P-wave (km/s) = 4.63481 5.63646 5.16000
#
# Compressibility (1/GPa) = 0.06002710
#
# Stress axis : x y z
#
# Youngs Moduli (GPa) = 84.19873 37.12189 64.53578
#
# Poissons Ratio (x) = -0.06796 0.18940
# Poissons Ratio (y) = -0.15415 -0.25572
# Poissons Ratio (z) = 0.24711 -0.14709
#
# Static dielectric constant tensor:
#      x y z
#    x 2.078970 0.000000 -0.000140 
#    y 0.000000 1.860190 0.000000 
#    z -0.000140 0.000000 1.866130 
# 
# From -- ./inp_files/44665.got.cif
#   From: 2010.05.17/outbox.cif.g08.bks.cpg/sg14_23_cif.got.tgz:44665.got - 2010.06.03 17:49:19.
