data_PCOD9242450
_publ_section_title
;
Structure prediction by ZEFSAII (Michael W. Deem and Ramdas Pophale) SiO2 
 PCOD9242450
Probable space group: P 21/C
;
_chemical_formula_sum "Si O2"
_cell_formula_units_Z 32
_cell_length_a 16.433017
_cell_length_b 9.187579
_cell_length_c 20.871193
_cell_angle_alpha 90.000000
_cell_angle_beta 30.673015
_cell_angle_gamma 90.000000
_cell_volume 1607.508385
_symmetry_space_group_name_H-M "P 21/C"
_symmetry_group_IT_number 14
_symmetry_cell_setting 'monoclinic'
loop_
_space_group_symop_operation_xyz
x,y,z
-x,1/2+y,1/2-z
-x,-y,-z
x,1/2-y,1/2+z
loop_
_atom_site_type_symbol
_atom_site_label
_atom_site_fract_x
_atom_site_fract_y
_atom_site_fract_z
Si Si1 0.211210 0.360971 0.137881
Si Si2 0.680314 0.299197 0.130558
Si Si3 0.774773 0.424994 0.468137
Si Si4 0.028133 0.725028 0.473746
Si Si5 0.961956 0.546626 0.233363
Si Si6 0.630488 0.728119 0.580246
Si Si7 0.906051 0.978754 0.162083
Si Si8 0.142780 0.423389 0.999430
O O1 0.227769 0.420378 0.198650
O O2 0.123236 0.494216 0.160443
O O3 0.098665 0.212958 0.217094
O O4 0.361322 0.307763 0.994280
O O5 0.707032 0.222058 0.044039
O O6 0.825081 0.259454 0.079925
O O7 0.520430 0.247469 0.272902
O O8 0.705206 0.471030 0.107317
O O9 0.833578 0.441602 0.355198
O O10 0.650566 0.555561 0.560213
O O11 0.930797 0.459661 0.406740
O O12 0.094214 0.640166 0.366479
O O13 0.915907 0.620998 0.592227
O O14 0.927691 0.861422 0.517793
O O15 0.004681 0.508924 0.131637
O O16 0.791670 0.787027 0.504575
#
# Coordination Sequence:
#
# PCOD9242450 Si02
#       8
#     4   4   4   4   4   4   4   4
#     4   9  18  31  53  77 107 139 178 226 268 316
#     4  11  22  34  52  80 113 143 175 216 270 328
#     4   9  17  34  54  74 108 139 174 222 268 312
#     4  10  20  33  55  78 105 139 177 225 265 317
#     4   9  17  29  52  81 102 131 177 229 266 300
#     4  10  20  35  54  78 109 144 176 217 272 321
#     4   9  17  34  54  78  99 138 183 217 270 316
#     4  11  20  34  55  84 106 134 183 230 261 309
#
# _framework density 19.906583999999999
#
# number of rings (size 3 to 8) (size 9 to 14) (size 15 to 20)
#    0.000    2.250    1.250    3.375    1.750    0.000 
#    0.000    0.625    0.000    8.250    0.000    0.000 
#    0.000    0.000    0.000    0.000    0.000    0.000 
#
# Total GULP energy -178176.395804 kJ/mol
# GULP energy per Si atom -5568.012369 kJ/mol
# Density = 1.986128 g / cm^3
# Si number density = 19.906584 Si / 1000 Ang^3
#
#
#
# Elastic Constant Matrix: (Units=GPa)
#
#
# Indices 1 2 3 4 5 6 
#
# 1 25.5722 8.4141 9.7381 0.0000 17.9335 0.0000
# 2 8.4141 73.7575 19.3915 0.0000 11.7076 0.0000
# 3 9.7381 19.3915 88.0637 0.0000 22.6412 0.0000
# 4 0.0000 0.0000 0.0000 22.3837 0.0000 5.4311
# 5 17.9335 11.7076 22.6412 0.0000 20.2096 0.0000
# 6 0.0000 0.0000 0.0000 5.4311 0.0000 21.0447
#
#
#
# Elastic Compliance Matrix: (Units=1/GPa)
#
#
# Indices 1 2 3 4 5 6 
#
# 1 0.126015 0.001783 0.020630 0.000000 -0.135968 0.000000
# 2 0.001783 0.015097 -0.001217 0.000000 -0.008965 0.000000
# 3 0.020630 -0.001217 0.019478 0.000000 -0.039423 0.000000
# 4 0.000000 0.000000 0.000000 0.047660 0.000000 -0.012300
# 5 -0.135968 -0.008965 -0.039423 0.000000 0.219496 0.000000
# 6 0.000000 0.000000 0.000000 -0.012300 0.000000 0.050692
#
#
# Mechanical properties :
#
#
# Convention : Reuss Voigt Hill
#
# Bulk Modulus (GPa) = 4.92653 29.16452 17.04552
# Shear Modulus (GPa) = 9.92642 22.71758 16.32200
#
# Velocity S-wave (km/s) = 2.23547 3.38184 2.86655
# Velocity P-wave (km/s) = 3.02379 5.47098 4.42012
#
# Compressibility (1/GPa) = 0.20298283
#
# Stress axis : x y z
#
# Youngs Moduli (GPa) = 7.93558 66.23625 51.34063
#
# Poissons Ratio (x) = -0.11810 -1.05916
# Poissons Ratio (y) = -0.01415 0.06246
# Poissons Ratio (z) = -0.16371 0.08058
#
# Static dielectric constant tensor:
#      x y z
#    x 1.696040 0.000000 0.041600 
#    y 0.000000 1.762720 0.000000 
#    z 0.041600 0.000000 1.749380 
# 
# From -- ./inp_files/69156.got.cif
#   From: 2010.05.17/outbox.cif.g08.bks.cpg/sg14_35_cif.got.tgz:69156.got - 2010.06.03 17:49:19.
