data_PCOD9242929
_publ_section_title
;
Structure prediction by ZEFSAII (Michael W. Deem and Ramdas Pophale) SiO2 
 PCOD9242929
Probable space group: P 21/C
;
_chemical_formula_sum "Si O2"
_cell_formula_units_Z 20
_cell_length_a 8.056006
_cell_length_b 8.699481
_cell_length_c 23.771449
_cell_angle_alpha 90.000000
_cell_angle_beta 147.623126
_cell_angle_gamma 90.000000
_cell_volume 892.106838
_symmetry_space_group_name_H-M "P 21/C"
_symmetry_group_IT_number 14
_symmetry_cell_setting 'monoclinic'
loop_
_space_group_symop_operation_xyz
x,y,z
-x,1/2+y,1/2-z
-x,-y,-z
x,1/2-y,1/2+z
loop_
_atom_site_type_symbol
_atom_site_label
_atom_site_fract_x
_atom_site_fract_y
_atom_site_fract_z
Si Si1 0.337309 0.476528 0.570500
Si Si2 0.059104 0.933176 0.143935
Si Si3 0.133227 0.208627 0.794582
Si Si4 0.410852 0.866387 0.746699
Si Si5 0.827338 0.483951 0.123726
O O1 0.542413 0.630259 0.630069
O O2 0.496043 0.359697 0.660028
O O3 0.000000 0.500000 0.500000
O O4 0.251295 0.433633 0.482311
O O5 0.276743 0.792201 0.186320
O O6 0.975026 0.893339 0.183152
O O7 0.285600 0.077292 0.199160
O O8 0.163345 0.379634 0.826809
O O9 0.898403 0.174558 0.676289
O O10 0.113260 0.980443 0.663221
O O11 0.500000 0.500000 0.000000
#
# Coordination Sequence:
#
# PCOD9242929 Si02
#       5
#     4   4   4   4   4
#     4   9  19  36  56  81 115 153 188 234 292 344
#     4  10  20  36  58  82 113 150 192 241 290 347
#     4  10  22  38  60  87 115 153 198 238 288 353
#     4   9  21  37  55  83 115 148 194 240 288 352
#     4  10  23  41  60  87 121 154 195 245 292 346
#
# _framework density 22.418841
#
# number of rings (size 3 to 8) (size 9 to 14) (size 15 to 20)
#    0.000    2.400    0.000    0.600    0.000   19.200 
#    0.000    2.000    0.000    0.000    0.000    0.000 
#    0.000    0.000    0.000    0.000    0.000    0.000 
#
# Total GULP energy -111618.170399 kJ/mol
# GULP energy per Si atom -5580.908520 kJ/mol
# Density = 2.236781 g / cm^3
# Si number density = 22.418841 Si / 1000 Ang^3
#
#
#
# Elastic Constant Matrix: (Units=GPa)
#
#
# Indices 1 2 3 4 5 6 
#
# 1 72.8289 1.7442 7.4734 0.0000 11.2181 0.0000
# 2 1.7442 57.1915 15.4412 0.0000 0.7692 0.0000
# 3 7.4734 15.4412 149.6964 0.0000 11.6238 0.0000
# 4 0.0000 0.0000 0.0000 28.7676 0.0000 -0.1600
# 5 11.2181 0.7692 11.6238 0.0000 26.7370 0.0000
# 6 0.0000 0.0000 0.0000 -0.1600 0.0000 37.4774
#
#
#
# Elastic Compliance Matrix: (Units=1/GPa)
#
#
# Indices 1 2 3 4 5 6 
#
# 1 0.014695 -0.000304 -0.000232 0.000000 -0.006056 0.000000
# 2 -0.000304 0.017995 -0.001874 0.000000 0.000425 0.000000
# 3 -0.000232 -0.001874 0.007113 0.000000 -0.002941 0.000000
# 4 0.000000 0.000000 0.000000 0.034762 0.000000 0.000148
# 5 -0.006056 0.000425 -0.002941 0.000000 0.041209 0.000000
# 6 0.000000 0.000000 0.000000 0.000148 0.000000 0.026683
#
#
# Mechanical properties :
#
#
# Convention : Reuss Voigt Hill
#
# Bulk Modulus (GPa) = 28.58550 36.55936 32.57243
# Shear Modulus (GPa) = 31.45880 35.60026 33.52953
#
# Velocity S-wave (km/s) = 3.75004 3.98925 3.87149
# Velocity P-wave (km/s) = 5.61504 6.12875 5.87751
#
# Compressibility (1/GPa) = 0.03498277
#
# Stress axis : x y z
#
# Youngs Moduli (GPa) = 68.05168 55.57217 140.57874
#
# Poissons Ratio (x) = 0.01690 0.03262
# Poissons Ratio (y) = 0.02069 0.26343
# Poissons Ratio (z) = 0.01579 0.10414
#
# Static dielectric constant tensor:
#      x y z
#    x 1.867090 0.000000 -0.023620 
#    y 0.000000 1.871490 0.000000 
#    z -0.023620 0.000000 1.864900 
# 
# From -- ./inp_files/22998.got.cif
#   From: 2010.05.17/outbox.cif.g08.bks.cpg/sg14_12_cif.got.tgz:22998.got - 2010.06.03 17:49:19.
