data_PCOD9242007
_publ_section_title
;
Structure prediction by ZEFSAII (Michael W. Deem and Ramdas Pophale) SiO2 
 PCOD9242007
Probable space group: P 21/C
;
_chemical_formula_sum "Si O2"
_cell_formula_units_Z 32
_cell_length_a 8.543478
_cell_length_b 17.483375
_cell_length_c 18.685627
_cell_angle_alpha 90.000000
_cell_angle_beta 145.338097
_cell_angle_gamma 90.000000
_cell_volume 1587.361646
_symmetry_space_group_name_H-M "P 21/C"
_symmetry_group_IT_number 14
_symmetry_cell_setting 'monoclinic'
loop_
_space_group_symop_operation_xyz
x,y,z
-x,1/2+y,1/2-z
-x,-y,-z
x,1/2-y,1/2+z
loop_
_atom_site_type_symbol
_atom_site_label
_atom_site_fract_x
_atom_site_fract_y
_atom_site_fract_z
Si Si1 0.224306 0.045177 0.418372
Si Si2 0.912861 0.343751 0.697162
Si Si3 0.215908 0.016619 0.644661
Si Si4 0.455067 0.358922 0.137139
Si Si5 0.527636 0.068284 0.953395
Si Si6 0.350495 0.303529 0.561506
Si Si7 0.291771 0.038713 0.103764
Si Si8 0.053633 0.185555 0.804834
O O1 0.298983 0.102507 0.511389
O O2 0.113163 0.095272 0.310045
O O3 0.500000 0.000000 0.500000
O O4 0.983832 0.991188 0.361041
O O5 0.784361 0.379292 0.576527
O O6 0.652347 0.333120 0.652377
O O7 0.021510 0.256433 0.737940
O O8 0.377710 0.092544 0.678291
O O9 0.471150 0.956708 0.746773
O O10 0.000000 0.000000 0.500000
O O11 0.364781 0.271573 0.113925
O O12 0.769672 0.351738 0.226668
O O13 0.259922 0.121244 0.854176
O O14 0.500000 0.000000 0.000000
O O15 0.565960 0.021785 0.896042
O O16 0.224651 0.377544 0.549794
O O17 0.197968 0.282219 0.430767
O O18 0.000000 0.000000 0.000000
#
# Coordination Sequence:
#
# PCOD9242007 Si02
#       8
#     4   4   4   4   4   4   4   4
#     4  11  22  36  61  91 124 165 207 261 325 380
#     4  10  20  38  60  93 125 160 215 268 323 383
#     4  10  23  41  58  92 132 165 213 271 319 387
#     4  10  22  36  63  89 120 164 213 256 325 381
#     4  11  22  38  66  94 127 164 217 271 321 382
#     4  10  19  38  65  87 120 170 212 267 312 400
#     4  12  24  41  66  94 129 170 223 266 326 386
#     4  10  20  37  63  95 123 160 216 268 322 387
#
# _framework density 20.159237000000001
#
# number of rings (size 3 to 8) (size 9 to 14) (size 15 to 20)
#    0.000    1.500    5.000    0.750    3.500    1.000 
#    0.000    2.500    0.000    0.000    0.000    0.000 
#    0.000    0.000    0.000    0.000    0.000    0.000 
#
# Total GULP energy -178271.630884 kJ/mol
# GULP energy per Si atom -5570.988465 kJ/mol
# Density = 2.011335 g / cm^3
# Si number density = 20.159237 Si / 1000 Ang^3
#
#
#
# Elastic Constant Matrix: (Units=GPa)
#
#
# Indices 1 2 3 4 5 6 
#
# 1 36.4911 29.0536 23.8294 0.0000 15.9258 0.0000
# 2 29.0536 119.1572 35.5984 0.0000 5.4105 0.0000
# 3 23.8294 35.5984 102.1526 0.0000 17.4658 0.0000
# 4 0.0000 0.0000 0.0000 41.5804 0.0000 -2.4087
# 5 15.9258 5.4105 17.4658 0.0000 22.5809 0.0000
# 6 0.0000 0.0000 0.0000 -2.4087 0.0000 23.1644
#
#
#
# Elastic Compliance Matrix: (Units=1/GPa)
#
#
# Indices 1 2 3 4 5 6 
#
# 1 0.051100 -0.010130 -0.003046 0.000000 -0.031256 0.000000
# 2 -0.010130 0.011378 -0.002717 0.000000 0.006520 0.000000
# 3 -0.003046 -0.002717 0.012639 0.000000 -0.006977 0.000000
# 4 0.000000 0.000000 0.000000 0.024196 0.000000 0.002516
# 5 -0.031256 0.006520 -0.006977 0.000000 0.070164 0.000000
# 6 0.000000 0.000000 0.000000 0.002516 0.000000 0.043431
#
#
# Mechanical properties :
#
#
# Convention : Reuss Voigt Hill
#
# Bulk Modulus (GPa) = 23.07781 48.30707 35.69244
# Shear Modulus (GPa) = 19.29478 28.75308 24.02393
#
# Velocity S-wave (km/s) = 3.09709 3.78073 3.45586
# Velocity P-wave (km/s) = 4.92564 6.56303 5.80238
#
# Compressibility (1/GPa) = 0.04333168
#
# Stress axis : x y z
#
# Youngs Moduli (GPa) = 19.56959 87.89013 79.11754
#
# Poissons Ratio (x) = 0.89035 0.24098
# Poissons Ratio (y) = 0.19824 0.21493
# Poissons Ratio (z) = 0.05961 0.23876
#
# Static dielectric constant tensor:
#      x y z
#    x 1.706500 0.000000 -0.010180 
#    y 0.000000 1.747460 0.000000 
#    z -0.010180 0.000000 1.767770 
# 
# From -- ./inp_files/66037.got.cif
#   From: 2010.05.17/outbox.cif.g08.bks.cpg/sg14_34_cif.got.tgz:66037.got - 2010.06.03 17:49:19.
