data_PCOD9242845
_publ_section_title
;
Structure prediction by ZEFSAII (Michael W. Deem and Ramdas Pophale) SiO2 
 PCOD9242845
Probable space group: P 21/C
;
_chemical_formula_sum "Si O2"
_cell_formula_units_Z 20
_cell_length_a 24.355298
_cell_length_b 5.035747
_cell_length_c 15.999156
_cell_angle_alpha 90.000000
_cell_angle_beta 153.470336
_cell_angle_gamma 90.000000
_cell_volume 876.460900
_symmetry_space_group_name_H-M "P 21/C"
_symmetry_group_IT_number 14
_symmetry_cell_setting 'monoclinic'
loop_
_space_group_symop_operation_xyz
x,y,z
-x,1/2+y,1/2-z
-x,-y,-z
x,1/2-y,1/2+z
loop_
_atom_site_type_symbol
_atom_site_label
_atom_site_fract_x
_atom_site_fract_y
_atom_site_fract_z
Si Si1 0.543572 0.822226 0.196554
Si Si2 0.927745 0.748495 0.436369
Si Si3 0.327633 0.079518 0.978430
Si Si4 0.933865 0.936291 0.131438
Si Si5 0.315547 0.666063 0.635420
O O1 0.635801 0.039883 0.284390
O O2 0.583851 0.778863 0.349061
O O3 0.573163 0.540430 0.196310
O O4 0.406571 0.931055 0.015484
O O5 0.788680 0.771699 0.215598
O O6 0.928419 0.713182 0.536281
O O7 0.000000 0.500000 0.500000
O O8 0.000000 0.000000 0.500000
O O9 0.288101 0.877508 0.998792
O O10 0.975095 0.692285 0.247755
O O11 0.804616 0.066843 0.981067
#
# Coordination Sequence:
#
# PCOD9242845 Si02
#       5
#     4   4   4   4   4
#     4  10  20  35  66  94 122 175 208 268 316 396
#     4  12  28  43  67 101 130 175 224 283 321 393
#     4  10  21  39  65  95 131 162 230 254 329 384
#     4  12  25  45  64  93 135 182 217 267 340 395
#     4  10  20  36  62  92 123 169 216 252 332 378
#
# _framework density 22.819044999999999
#
# number of rings (size 3 to 8) (size 9 to 14) (size 15 to 20)
#    1.200    0.000    2.000    4.800    5.600    0.000 
#    0.000    2.000    0.000    0.000    0.000    0.000 
#    0.000    0.000    0.000    0.000    0.000    0.000 
#
# Total GULP energy -111774.279714 kJ/mol
# GULP energy per Si atom -5588.713986 kJ/mol
# Density = 2.276711 g / cm^3
# Si number density = 22.819045 Si / 1000 Ang^3
#
#
#
# Elastic Constant Matrix: (Units=GPa)
#
#
# Indices 1 2 3 4 5 6 
#
# 1 60.9338 -13.2646 -4.1921 0.0000 12.4730 0.0000
# 2 -13.2646 87.6776 -11.0831 0.0000 -1.4466 0.0000
# 3 -4.1921 -11.0831 60.7101 0.0000 12.0877 0.0000
# 4 0.0000 0.0000 0.0000 -19.2218 0.0000 20.9481
# 5 12.4730 -1.4466 12.0877 0.0000 26.4434 0.0000
# 6 0.0000 0.0000 0.0000 20.9481 0.0000 26.5474
#
#
#
# Elastic Compliance Matrix: (Units=1/GPa)
#
#
# Indices 1 2 3 4 5 6 
#
# 1 0.019670 0.003320 0.004153 0.000000 -0.010995 0.000000
# 2 0.003320 0.012238 0.002906 0.000000 -0.002225 0.000000
# 3 0.004153 0.002906 0.019415 0.000000 -0.010675 0.000000
# 4 0.000000 0.000000 0.000000 -0.027971 0.000000 0.022071
# 5 -0.010995 -0.002225 -0.010675 0.000000 0.047761 0.000000
# 6 0.000000 0.000000 0.000000 0.022071 0.000000 0.020252
#
#
# Mechanical properties :
#
#
# Convention : Reuss Voigt Hill
#
# Bulk Modulus (GPa) = 13.87312 16.91577 15.39444
# Shear Modulus (GPa) = 52.83503 22.61123 37.72313
#
# Velocity S-wave (km/s) = 4.81707 3.15126 4.07030
# Velocity P-wave (km/s) = 6.08537 4.54639 5.37129
#
# Compressibility (1/GPa) = 0.07208185
#
# Stress axis : x y z
#
# Youngs Moduli (GPa) = 50.83797 81.71070 51.50788
#
# Poissons Ratio (x) = -0.27124 -0.21394
# Poissons Ratio (y) = -0.16876 -0.14970
# Poissons Ratio (z) = -0.21115 -0.23748
#
# Static dielectric constant tensor:
#      x y z
#    x 1.871930 0.000000 -0.013470 
#    y 0.000000 1.837070 0.000000 
#    z -0.013470 0.000000 1.872910 
# 
# From -- ./inp_files/62176.got.cif
#   From: 2010.05.17/outbox.cif.g08.bks.cpg/sg14_32_cif.got.tgz:62176.got - 2010.06.03 17:49:19.
