data_PCOD9242622
_publ_section_title
;
Structure prediction by ZEFSAII (Michael W. Deem and Ramdas Pophale) SiO2 
 PCOD9242622
Probable space group: P 21/C
;
_chemical_formula_sum "Si O2"
_cell_formula_units_Z 32
_cell_length_a 29.905129
_cell_length_b 8.453632
_cell_length_c 5.345442
_cell_angle_alpha 90.000000
_cell_angle_beta 102.168089
_cell_angle_gamma 90.000000
_cell_volume 1321.004397
_symmetry_space_group_name_H-M "P 21/C"
_symmetry_group_IT_number 14
_symmetry_cell_setting 'monoclinic'
loop_
_space_group_symop_operation_xyz
x,y,z
-x,1/2+y,1/2-z
-x,-y,-z
x,1/2-y,1/2+z
loop_
_atom_site_type_symbol
_atom_site_label
_atom_site_fract_x
_atom_site_fract_y
_atom_site_fract_z
Si Si1 0.731766 0.651746 0.914116
Si Si2 0.829618 0.536118 0.113765
Si Si3 0.895767 0.154183 0.974750
Si Si4 0.984316 0.831135 0.579538
Si Si5 0.627251 0.850568 0.345595
Si Si6 0.498898 0.681468 0.932033
Si Si7 0.604527 0.307014 0.736178
Si Si8 0.113182 0.134136 0.731199
O O1 0.735522 0.787273 0.133474
O O2 0.775779 0.546588 0.022200
O O3 0.680316 0.591217 0.891470
O O4 0.844452 0.404453 0.330842
O O5 0.852654 0.711966 0.201889
O O6 0.854284 0.508225 0.877488
O O7 0.909049 0.265495 0.225321
O O8 0.910440 0.977778 0.083975
O O9 0.998755 0.708732 0.378325
O O10 0.928816 0.829648 0.505735
O O11 0.000000 0.000000 0.500000
O O12 0.620600 0.767362 0.604616
O O13 0.598813 0.009188 0.281021
O O14 0.519756 0.724084 0.689448
O O15 0.445723 0.730353 0.847321
O O16 0.500000 0.500000 0.000000
O O17 0.628089 0.275079 0.499739
#
# Coordination Sequence:
#
# PCOD9242622 Si02
#       8
#     4   4   4   4   4   4   4   4
#     4  10  20  34  61  96 125 158 209 272 313 362
#     4  12  21  41  70  97 124 171 217 258 309 393
#     4  12  26  40  59  95 136 162 200 260 320 370
#     4  12  27  48  70  99 130 168 215 261 319 376
#     4  10  21  39  62  93 124 161 219 270 315 374
#     4  10  21  40  62  91 129 168 213 270 331 388
#     4  10  21  40  63  89 124 173 218 260 321 392
#     4  12  23  42  75  95 125 170 222 256 306 389
#
# _framework density 24.223994000000001
#
# number of rings (size 3 to 8) (size 9 to 14) (size 15 to 20)
#    0.000    1.000    5.000    1.500    0.000    1.000 
#    0.000   16.250    0.000    0.000    0.000    0.000 
#    0.000    0.000    0.000    0.000    0.000    0.000 
#
# Total GULP energy -178593.378691 kJ/mol
# GULP energy per Si atom -5581.043084 kJ/mol
# Density = 2.416886 g / cm^3
# Si number density = 24.223994 Si / 1000 Ang^3
#
#
#
# Elastic Constant Matrix: (Units=GPa)
#
#
# Indices 1 2 3 4 5 6 
#
# 1 90.0918 45.7966 29.9682 0.0000 2.5413 0.0000
# 2 45.7966 99.6673 47.5946 0.0000 20.2541 0.0000
# 3 29.9682 47.5946 174.3633 0.0000 -15.8422 0.0000
# 4 0.0000 0.0000 0.0000 51.9580 0.0000 2.2016
# 5 2.5413 20.2541 -15.8422 0.0000 19.3839 0.0000
# 6 0.0000 0.0000 0.0000 2.2016 0.0000 24.3302
#
#
#
# Elastic Compliance Matrix: (Units=1/GPa)
#
#
# Indices 1 2 3 4 5 6 
#
# 1 0.015162 -0.008696 0.000446 0.000000 0.007464 0.000000
# 2 -0.008696 0.023852 -0.007753 0.000000 -0.030119 0.000000
# 3 0.000446 -0.007753 0.009188 0.000000 0.015551 0.000000
# 4 0.000000 0.000000 0.000000 0.019320 0.000000 -0.001748
# 5 0.007464 -0.030119 0.015551 0.000000 0.094791 0.000000
# 6 0.000000 0.000000 0.000000 -0.001748 0.000000 0.041259
#
#
# Mechanical properties :
#
#
# Convention : Reuss Voigt Hill
#
# Bulk Modulus (GPa) = 61.74590 67.87126 64.80858
# Shear Modulus (GPa) = 20.74889 35.18528 27.96709
#
# Velocity S-wave (km/s) = 2.92985 3.81530 3.40151
# Velocity P-wave (km/s) = 6.08196 6.89113 6.49915
#
# Compressibility (1/GPa) = 0.01619541
#
# Stress axis : x y z
#
# Youngs Moduli (GPa) = 65.95632 41.92491 108.84271
#
# Poissons Ratio (x) = 0.36460 -0.04855
# Poissons Ratio (y) = 0.57358 0.84381
# Poissons Ratio (z) = -0.02942 0.32503
#
# Static dielectric constant tensor:
#      x y z
#    x 1.970170 0.000000 -0.119920 
#    y 0.000000 2.020130 0.000000 
#    z -0.119920 0.000000 2.198720 
# 
# From -- ./inp_files/4570.got.cif
#   From: 2010.05.17/outbox.cif.g08.bks.cpg/sg14_3_cif.got.tgz:4570.got - 2010.06.03 17:49:19.
