data_PCOD9242848
_publ_section_title
;
Structure prediction by ZEFSAII (Michael W. Deem and Ramdas Pophale) SiO2 
 PCOD9242848
Probable space group: P 21/C
;
_chemical_formula_sum "Si O2"
_cell_formula_units_Z 32
_cell_length_a 13.907893
_cell_length_b 14.569874
_cell_length_c 14.086129
_cell_angle_alpha 90.000000
_cell_angle_beta 149.619385
_cell_angle_gamma 90.000000
_cell_volume 1443.569675
_symmetry_space_group_name_H-M "P 21/C"
_symmetry_group_IT_number 14
_symmetry_cell_setting 'monoclinic'
loop_
_space_group_symop_operation_xyz
x,y,z
-x,1/2+y,1/2-z
-x,-y,-z
x,1/2-y,1/2+z
loop_
_atom_site_type_symbol
_atom_site_label
_atom_site_fract_x
_atom_site_fract_y
_atom_site_fract_z
Si Si1 0.799531 0.715820 0.602905
Si Si2 0.712796 0.974715 0.947666
Si Si3 0.090452 0.744484 0.488131
Si Si4 0.932717 0.540491 0.342841
Si Si5 0.582824 0.903223 0.643773
Si Si6 0.481214 0.914471 0.056395
Si Si7 0.566645 0.237422 0.601511
Si Si8 0.801748 0.783540 0.399389
O O1 0.696504 0.622068 0.486416
O O2 0.652633 0.759982 0.551980
O O3 0.827891 0.777225 0.534112
O O4 0.999694 0.698338 0.825529
O O5 0.596005 0.967515 0.748474
O O6 0.635761 0.052469 0.951771
O O7 0.939699 0.984566 0.122141
O O8 0.016055 0.642435 0.405138
O O9 0.310685 0.739114 0.698482
O O10 0.993820 0.779120 0.503027
O O11 0.000000 0.500000 0.500000
O O12 0.707002 0.549020 0.165658
O O13 0.406553 0.852736 0.441534
O O14 0.692868 0.811593 0.778185
O O15 0.679514 0.871028 0.262617
O O16 0.393239 0.828480 0.924978
O O17 0.500000 0.000000 0.000000
#
# Coordination Sequence:
#
# PCOD9242848 Si02
#       8
#     4   4   4   4   4   4   4   4
#     4  11  21  43  64  89 131 173 214 259 321 384
#     4  10  20  35  68  93 127 167 209 266 324 384
#     4  11  22  42  64  93 123 171 215 262 312 387
#     4   9  18  37  63  88 124 154 200 266 315 358
#     4   8  17  40  62  88 123 162 203 262 320 369
#     4  11  20  40  62  93 133 167 206 270 322 373
#     4  11  22  40  68  89 125 171 213 261 314 387
#     4   9  20  38  62  87 125 167 209 259 316 380
#
# _framework density 22.167269999999998
#
# number of rings (size 3 to 8) (size 9 to 14) (size 15 to 20)
#    0.000    2.000    5.000    0.750    1.750    1.000 
#    4.500    7.500    2.750    0.000    0.000    0.000 
#    0.000    0.000    0.000    0.000    0.000    0.000 
#
# Total GULP energy -178411.435841 kJ/mol
# GULP energy per Si atom -5575.357370 kJ/mol
# Density = 2.211682 g / cm^3
# Si number density = 22.167270 Si / 1000 Ang^3
#
#
#
# Elastic Constant Matrix: (Units=GPa)
#
#
# Indices 1 2 3 4 5 6 
#
# 1 91.8614 25.2498 10.5673 0.0000 -23.4792 0.0000
# 2 25.2498 79.5461 7.0437 0.0000 -9.0933 0.0000
# 3 10.5673 7.0437 90.7453 0.0000 -21.6430 0.0000
# 4 0.0000 0.0000 0.0000 28.7407 0.0000 -5.9631
# 5 -23.4792 -9.0933 -21.6430 0.0000 24.7493 0.0000
# 6 0.0000 0.0000 0.0000 -5.9631 0.0000 30.6448
#
#
#
# Elastic Compliance Matrix: (Units=1/GPa)
#
#
# Indices 1 2 3 4 5 6 
#
# 1 0.015472 -0.003350 0.002104 0.000000 0.015288 0.000000
# 2 -0.003350 0.013850 -0.000290 0.000000 0.001657 0.000000
# 3 0.002104 -0.000290 0.014212 0.000000 0.014319 0.000000
# 4 0.000000 0.000000 0.000000 0.036258 0.000000 0.007055
# 5 0.015288 0.001657 0.014319 0.000000 0.068039 0.000000
# 6 0.000000 0.000000 0.000000 0.007055 0.000000 0.034005
#
#
# Mechanical properties :
#
#
# Convention : Reuss Voigt Hill
#
# Bulk Modulus (GPa) = 24.71343 38.65272 31.68308
# Shear Modulus (GPa) = 25.20240 31.44641 28.32441
#
# Velocity S-wave (km/s) = 3.37548 3.77051 3.57845
# Velocity P-wave (km/s) = 5.13465 6.03576 5.60335
#
# Compressibility (1/GPa) = 0.04046382
#
# Stress axis : x y z
#
# Youngs Moduli (GPa) = 64.63241 72.20331 70.36155
#
# Poissons Ratio (x) = 0.24188 -0.14807
# Poissons Ratio (y) = 0.21652 0.02038
# Poissons Ratio (z) = -0.13602 0.02092
#
# Static dielectric constant tensor:
#      x y z
#    x 1.820990 0.000000 0.011710 
#    y 0.000000 1.785650 0.000000 
#    z 0.011710 0.000000 1.737910 
# 
# From -- ./inp_files/47442.got.cif
#   From: 2010.05.17/outbox.cif.g08.bks.cpg/sg14_24_cif.got.tgz:47442.got - 2010.06.03 17:49:19.
