data_PCOD9242390
_publ_section_title
;
Structure prediction by ZEFSAII (Michael W. Deem and Ramdas Pophale) SiO2 
 PCOD9242390
Probable space group: P 21/C
;
_chemical_formula_sum "Si O2"
_cell_formula_units_Z 20
_cell_length_a 10.051096
_cell_length_b 5.274802
_cell_length_c 20.751572
_cell_angle_alpha 90.000000
_cell_angle_beta 100.925339
_cell_angle_gamma 90.000000
_cell_volume 1080.256237
_symmetry_space_group_name_H-M "P 21/C"
_symmetry_group_IT_number 14
_symmetry_cell_setting 'monoclinic'
loop_
_space_group_symop_operation_xyz
x,y,z
-x,1/2+y,1/2-z
-x,-y,-z
x,1/2-y,1/2+z
loop_
_atom_site_type_symbol
_atom_site_label
_atom_site_fract_x
_atom_site_fract_y
_atom_site_fract_z
Si Si1 0.550920 0.162284 0.350000
Si Si2 0.915488 0.617138 0.229553
Si Si3 0.282240 0.657361 0.864481
Si Si4 0.411069 0.752342 0.004492
Si Si5 0.321997 0.438296 0.259022
O O1 0.620160 0.250538 0.422403
O O2 0.469390 0.371355 0.301475
O O3 0.425672 0.976917 0.358973
O O4 0.655252 0.046694 0.309368
O O5 0.844179 0.531472 0.156274
O O6 0.781282 0.704029 0.256104
O O7 0.991306 0.367836 0.263253
O O8 0.264998 0.874646 0.808997
O O9 0.296855 0.750734 0.938883
O O10 0.500000 0.500000 0.000000
O O11 0.500000 0.000000 0.000000
#
# Coordination Sequence:
#
# PCOD9242390 Si02
#       5
#     4   4   4   4   4
#     4  10  20  32  55  90 125 143 182 234 300 355
#     4  11  23  39  57  82 109 154 205 248 276 327
#     4  10  20  35  58  84 116 152 190 234 286 347
#     4  10  20  34  53  83 122 156 180 220 290 360
#     4  11  19  33  59  88 116 150 185 243 291 343
#
# _framework density 18.514127999999999
#
# number of rings (size 3 to 8) (size 9 to 14) (size 15 to 20)
#    0.000    1.600    6.000    0.000    0.000    0.000 
#    0.000    0.000    0.000    2.400    0.000    0.000 
#    0.000    0.000    0.000    0.000    0.000    0.000 
#
# Total GULP energy -111344.134038 kJ/mol
# GULP energy per Si atom -5567.206702 kJ/mol
# Density = 1.847199 g / cm^3
# Si number density = 18.514128 Si / 1000 Ang^3
#
#
#
# Elastic Constant Matrix: (Units=GPa)
#
#
# Indices 1 2 3 4 5 6 
#
# 1 53.3526 28.4282 54.7480 0.0000 17.7655 0.0000
# 2 28.4282 98.8601 53.4495 0.0000 11.3318 0.0000
# 3 54.7480 53.4495 187.1402 0.0000 -1.2874 0.0000
# 4 0.0000 0.0000 0.0000 17.0063 0.0000 3.5447
# 5 17.7655 11.3318 -1.2874 0.0000 18.6745 0.0000
# 6 0.0000 0.0000 0.0000 3.5447 0.0000 20.1128
#
#
#
# Elastic Compliance Matrix: (Units=1/GPa)
#
#
# Indices 1 2 3 4 5 6 
#
# 1 0.050822 -0.000946 -0.014934 0.000000 -0.048804 0.000000
# 2 -0.000946 0.013130 -0.003524 0.000000 -0.007310 0.000000
# 3 -0.014934 -0.003524 0.010836 0.000000 0.017092 0.000000
# 4 0.000000 0.000000 0.000000 0.061044 0.000000 -0.010758
# 5 -0.048804 -0.007310 0.017092 0.000000 0.105591 0.000000
# 6 0.000000 0.000000 0.000000 -0.010758 0.000000 0.051616
#
#
# Mechanical properties :
#
#
# Convention : Reuss Voigt Hill
#
# Bulk Modulus (GPa) = 27.79166 68.06713 47.92940
# Shear Modulus (GPa) = 14.54161 24.67388 19.60774
#
# Velocity S-wave (km/s) = 2.80560 3.65458 3.25786
# Velocity P-wave (km/s) = 5.05359 7.39275 6.33212
#
# Compressibility (1/GPa) = 0.03598201
#
# Stress axis : x y z
#
# Youngs Moduli (GPa) = 19.67638 76.15875 92.28182
#
# Poissons Ratio (x) = 0.07208 1.37809
# Poissons Ratio (y) = 0.01862 0.32517
# Poissons Ratio (z) = 0.29384 0.26836
#
# Static dielectric constant tensor:
#      x y z
#    x 1.734580 0.000000 -0.007260 
#    y 0.000000 1.734790 0.000000 
#    z -0.007260 0.000000 1.667030 
# 
# From -- ./inp_files/56328.got.cif
#   From: 2010.05.17/outbox.cif.g08.bks.cpg/sg14_29_cif.got.tgz:56328.got - 2010.06.03 17:49:19.
