data_PCOD9242208
_publ_section_title
;
Structure prediction by ZEFSAII (Michael W. Deem and Ramdas Pophale) SiO2 
 PCOD9242208
Probable space group: P 21/C
;
_chemical_formula_sum "Si O2"
_cell_formula_units_Z 32
_cell_length_a 8.189849
_cell_length_b 14.616640
_cell_length_c 11.567854
_cell_angle_alpha 90.000000
_cell_angle_beta 106.988405
_cell_angle_gamma 90.000000
_cell_volume 1324.339767
_symmetry_space_group_name_H-M "P 21/C"
_symmetry_group_IT_number 14
_symmetry_cell_setting 'monoclinic'
loop_
_space_group_symop_operation_xyz
x,y,z
-x,1/2+y,1/2-z
-x,-y,-z
x,1/2-y,1/2+z
loop_
_atom_site_type_symbol
_atom_site_label
_atom_site_fract_x
_atom_site_fract_y
_atom_site_fract_z
Si Si1 0.760990 0.048555 0.543894
Si Si2 0.101501 0.925520 0.188108
Si Si3 0.322673 0.195736 0.115154
Si Si4 0.105684 0.366920 0.006843
Si Si5 0.891128 0.290141 0.769599
Si Si6 0.431932 0.819195 0.644177
Si Si7 0.642982 0.173526 0.040300
Si Si8 0.225698 0.007106 0.972801
O O1 0.774470 0.041297 0.684562
O O2 0.607139 0.110186 0.465966
O O3 0.939019 0.099314 0.542726
O O4 0.768100 0.952076 0.480561
O O5 0.086489 0.816746 0.199550
O O6 0.917527 0.975511 0.154415
O O7 0.160728 0.950801 0.071529
O O8 0.387421 0.171929 0.256554
O O9 0.499298 0.222246 0.088228
O O10 0.191756 0.278539 0.081296
O O11 0.263625 0.106728 0.032553
O O12 0.045532 0.340421 0.864438
O O13 0.724807 0.332746 0.799382
O O14 0.833045 0.301453 0.624830
O O15 0.400631 0.716494 0.591879
O O16 0.635455 0.064135 0.046468
#
# Coordination Sequence:
#
# PCOD9242208 Si02
#       8
#     4   4   4   4   4   4   4   4
#     4  10  22  41  69  92 123 165 212 271 323 372
#     4  11  21  38  68  96 120 164 216 270 324 364
#     4  11  25  41  61  93 132 170 210 256 318 389
#     4  10  22  43  65  95 126 161 219 269 315 381
#     4  10  19  40  65  89 123 159 212 265 315 370
#     4  10  22  39  61  91 124 171 205 253 316 383
#     4  11  22  40  65  88 131 175 206 255 328 384
#     4  11  24  40  62  97 130 162 216 269 312 384
#
# _framework density 24.162983000000001
#
# number of rings (size 3 to 8) (size 9 to 14) (size 15 to 20)
#    0.000    1.500    3.750    1.125    0.000    4.000 
#    2.250    1.250    0.000    0.000    0.000    0.000 
#    0.000    0.000    0.000    0.000    0.000    0.000 
#
# Total GULP energy -178807.492023 kJ/mol
# GULP energy per Si atom -5587.734126 kJ/mol
# Density = 2.410799 g / cm^3
# Si number density = 24.162983 Si / 1000 Ang^3
#
#
#
# Elastic Constant Matrix: (Units=GPa)
#
#
# Indices 1 2 3 4 5 6 
#
# 1 45.2904 18.8121 14.1379 0.0000 6.9784 0.0000
# 2 18.8121 121.0213 22.9949 0.0000 16.4633 0.0000
# 3 14.1379 22.9949 110.0403 0.0000 27.3157 0.0000
# 4 0.0000 0.0000 0.0000 32.3011 0.0000 1.4719
# 5 6.9784 16.4633 27.3157 0.0000 30.8686 0.0000
# 6 0.0000 0.0000 0.0000 1.4719 0.0000 19.3546
#
#
#
# Elastic Compliance Matrix: (Units=1/GPa)
#
#
# Indices 1 2 3 4 5 6 
#
# 1 0.024309 -0.003122 -0.001948 0.000000 -0.002107 0.000000
# 2 -0.003122 0.009377 -0.000631 0.000000 -0.003737 0.000000
# 3 -0.001948 -0.000631 0.011888 0.000000 -0.009743 0.000000
# 4 0.000000 0.000000 0.000000 0.031066 0.000000 -0.002363
# 5 -0.002107 -0.003737 -0.009743 0.000000 0.043487 0.000000
# 6 0.000000 0.000000 0.000000 -0.002363 0.000000 0.051847
#
#
# Mechanical properties :
#
#
# Convention : Reuss Voigt Hill
#
# Bulk Modulus (GPa) = 29.26298 43.13798 36.20048
# Shear Modulus (GPa) = 25.67185 31.19865 28.43525
#
# Velocity S-wave (km/s) = 3.26305 3.59719 3.43419
# Velocity P-wave (km/s) = 5.13163 5.92830 5.54429
#
# Compressibility (1/GPa) = 0.03417288
#
# Stress axis : x y z
#
# Youngs Moduli (GPa) = 41.13668 106.64960 84.11697
#
# Poissons Ratio (x) = 0.33296 0.16385
# Poissons Ratio (y) = 0.12843 0.05305
# Poissons Ratio (z) = 0.08013 0.06726
#
# Static dielectric constant tensor:
#      x y z
#    x 2.000700 0.000000 -0.052030 
#    y 0.000000 1.917380 0.000000 
#    z -0.052030 0.000000 2.016150 
# 
# From -- ./inp_files/25546.got.cif
#   From: 2010.05.17/outbox.cif.g08.bks.cpg/sg14_13_cif.got.tgz:25546.got - 2010.06.03 17:49:19.
