data_PCOD9242773
_publ_section_title
;
Structure prediction by ZEFSAII (Michael W. Deem and Ramdas Pophale) SiO2 
 PCOD9242773
Probable space group: P 21/C
;
_chemical_formula_sum "Si O2"
_cell_formula_units_Z 30
_cell_length_a 5.285378
_cell_length_b 30.738380
_cell_length_c 6.647065
_cell_angle_alpha 90.000000
_cell_angle_beta 100.081189
_cell_angle_gamma 90.000000
_cell_volume 1063.235456
_symmetry_space_group_name_H-M "P 21/C"
_symmetry_group_IT_number 14
_symmetry_cell_setting 'monoclinic'
loop_
_space_group_symop_operation_xyz
x,y,z
-x,1/2+y,1/2-z
-x,-y,-z
x,1/2-y,1/2+z
loop_
_atom_site_type_symbol
_atom_site_label
_atom_site_fract_x
_atom_site_fract_y
_atom_site_fract_z
Si Si1 0.960053 0.030784 0.721094
Si Si2 0.721626 0.286019 0.158341
Si Si3 0.576997 0.084560 0.804681
Si Si4 0.252964 0.447084 0.880829
Si Si5 0.500000 0.500000 0.500000
Si Si6 0.757366 0.830437 0.283235
Si Si7 0.369597 0.811897 0.808546
Si Si8 0.868697 0.645029 0.266553
O O1 0.879342 0.077654 0.800769
O O2 0.014856 0.042481 0.496748
O O3 0.731660 0.993748 0.733200
O O4 0.212973 0.009603 0.847822
O O5 0.465402 0.293940 0.251381
O O6 0.741422 0.234483 0.134982
O O7 0.979417 0.310063 0.264599
O O8 0.661045 0.307453 0.936032
O O9 0.471366 0.064769 0.573084
O O10 0.405782 0.126898 0.799305
O O11 0.552195 0.052765 0.989234
O O12 0.203049 0.405389 0.742011
O O13 0.831849 0.840751 0.527635
O O14 0.666560 0.826141 0.865978
O O15 0.167148 0.847624 0.855202
#
# Coordination Sequence:
#
# PCOD9242773 Si02
#       8
#     4   4   4   4   2   4   4   4
#     4  10  20  36  57  85 121 159 207 261 308 373
#     4  10  20  37  58  88 114 154 195 248 307 370
#     4  10  20  35  60  81 115 158 210 252 304 361
#     4   9  20  34  58  89 114 150 214 257 309 352
#     4  10  22  36  52  82 118 166 200 244 314 374
#     4   9  20  33  60  86 112 148 205 249 292 365
#     4  10  20  36  60  82 120 152 195 242 311 373
#     4   9  19  34  57  88 114 152 191 254 304 361
#
# _framework density 28.215761000000001
#
# number of rings (size 3 to 8) (size 9 to 14) (size 15 to 20)
#    0.000    2.400    0.000    1.600   11.200    0.000 
#    0.000    1.333    0.000    0.000    0.000    0.000 
#    0.000    0.000    0.000    0.000    0.000    0.000 
#
# Total GULP energy -167367.918493 kJ/mol
# GULP energy per Si atom -5578.930616 kJ/mol
# Density = 2.815154 g / cm^3
# Si number density = 28.215761 Si / 1000 Ang^3
#
#
#
# Elastic Constant Matrix: (Units=GPa)
#
#
# Indices 1 2 3 4 5 6 
#
# 1 105.6826 3.7717 28.5480 0.0000 25.7861 0.0000
# 2 3.7717 67.5322 2.2464 0.0000 0.4749 0.0000
# 3 28.5480 2.2464 96.7834 0.0000 10.7449 0.0000
# 4 0.0000 0.0000 0.0000 31.6185 0.0000 -10.1313
# 5 25.7861 0.4749 10.7449 0.0000 41.5979 0.0000
# 6 0.0000 0.0000 0.0000 -10.1313 0.0000 47.4299
#
#
#
# Elastic Compliance Matrix: (Units=1/GPa)
#
#
# Indices 1 2 3 4 5 6 
#
# 1 0.011838 -0.000523 -0.002744 0.000000 -0.006624 0.000000
# 2 -0.000523 0.014843 -0.000213 0.000000 0.000210 0.000000
# 3 -0.002744 -0.000213 0.011281 0.000000 -0.001210 0.000000
# 4 0.000000 0.000000 0.000000 0.033951 0.000000 0.007252
# 5 -0.006624 0.000210 -0.001210 0.000000 0.028456 0.000000
# 6 0.000000 0.000000 0.000000 0.007252 0.000000 0.022633
#
#
# Mechanical properties :
#
#
# Convention : Reuss Voigt Hill
#
# Bulk Modulus (GPa) = 32.25826 37.68113 34.96969
# Shear Modulus (GPa) = 35.63855 39.82473 37.73164
#
# Velocity S-wave (km/s) = 3.55783 3.76098 3.66082
# Velocity P-wave (km/s) = 5.32307 5.67835 5.50358
#
# Compressibility (1/GPa) = 0.03099982
#
# Stress axis : x y z
#
# Youngs Moduli (GPa) = 84.47032 67.37360 88.64304
#
# Poissons Ratio (x) = 0.03526 0.24328
# Poissons Ratio (y) = 0.04420 0.01892
# Poissons Ratio (z) = 0.23183 0.01438
#
# Static dielectric constant tensor:
#      x y z
#    x 1.782530 0.000000 0.217590 
#    y 0.000000 2.231700 0.000000 
#    z 0.217590 0.000000 2.151860 
# 
# From -- ./inp_files/6828.got.cif
#   From: 2010.05.17/outbox.cif.g08.bks.cpg/sg14_4_cif.got.tgz:6828.got - 2010.06.03 17:49:19.
