data_PCOD9242452
_publ_section_title
;
Structure prediction by ZEFSAII (Michael W. Deem and Ramdas Pophale) SiO2 
 PCOD9242452
Probable space group: P 21/C
;
_chemical_formula_sum "Si O2"
_cell_formula_units_Z 24
_cell_length_a 19.103306
_cell_length_b 7.714910
_cell_length_c 10.725800
_cell_angle_alpha 90.000000
_cell_angle_beta 33.965892
_cell_angle_gamma 90.000000
_cell_volume 883.175887
_symmetry_space_group_name_H-M "P 21/C"
_symmetry_group_IT_number 14
_symmetry_cell_setting 'monoclinic'
loop_
_space_group_symop_operation_xyz
x,y,z
-x,1/2+y,1/2-z
-x,-y,-z
x,1/2-y,1/2+z
loop_
_atom_site_type_symbol
_atom_site_label
_atom_site_fract_x
_atom_site_fract_y
_atom_site_fract_z
Si Si1 0.119765 0.030703 0.951799
Si Si2 0.783187 0.043255 0.775443
Si Si3 0.351773 0.595989 0.996852
Si Si4 0.315396 0.383304 0.361749
Si Si5 0.992658 0.358515 0.167573
Si Si6 0.516671 0.302459 0.894283
O O1 0.197172 0.135822 0.946668
O O2 0.214703 0.988427 0.702267
O O3 0.018555 0.171957 0.070534
O O4 0.059185 0.870640 0.115308
O O5 0.691493 0.207808 0.888760
O O6 0.880871 0.077476 0.744023
O O7 0.880045 0.973601 0.529805
O O8 0.704418 0.889253 0.960748
O O9 0.436790 0.444056 0.932671
O O10 0.427291 0.643710 0.761960
O O11 0.362025 0.578797 0.257027
O O12 0.428505 0.265466 0.143054
#
# Coordination Sequence:
#
# PCOD9242452 Si02
#       6
#     4   4   4   4   4   4
#     4  10  20  35  56  81 107 142 183 226 271 332
#     4   9  19  36  57  81 110 145 178 224 278 329
#     4  10  20  33  55  81 108 141 187 226 271 324
#     4   8  17  33  54  72 102 143 177 210 270 324
#     4  10  20  36  58  81 112 146 180 222 278 327
#     4   9  18  35  54  74 105 144 183 229 270 319
#
# _framework density 27.174657
#
# number of rings (size 3 to 8) (size 9 to 14) (size 15 to 20)
#    0.000    2.667    0.000    1.000    0.000    6.000 
#    0.000    1.667    0.000   46.000    0.000    0.000 
#    0.000    0.000    0.000    0.000    0.000    0.000 
#
# Total GULP energy -133823.054100 kJ/mol
# GULP energy per Si atom -5575.960587 kJ/mol
# Density = 2.711281 g / cm^3
# Si number density = 27.174657 Si / 1000 Ang^3
#
#
#
# Elastic Constant Matrix: (Units=GPa)
#
#
# Indices 1 2 3 4 5 6 
#
# 1 40.4523 17.9975 17.4184 0.0000 -13.1592 0.0000
# 2 17.9975 111.3426 42.3606 0.0000 3.8186 0.0000
# 3 17.4184 42.3606 176.2284 0.0000 -8.4757 0.0000
# 4 0.0000 0.0000 0.0000 47.8776 0.0000 -2.7340
# 5 -13.1592 3.8186 -8.4757 0.0000 20.4667 0.0000
# 6 0.0000 0.0000 0.0000 -2.7340 0.0000 26.8025
#
#
#
# Elastic Compliance Matrix: (Units=1/GPa)
#
#
# Indices 1 2 3 4 5 6 
#
# 1 0.035568 -0.006226 -0.000881 0.000000 0.023665 0.000000
# 2 -0.006226 0.011145 -0.002404 0.000000 -0.007078 0.000000
# 3 -0.000881 -0.002404 0.006462 0.000000 0.002558 0.000000
# 4 0.000000 0.000000 0.000000 0.021009 0.000000 0.002143
# 5 0.023665 -0.007078 0.002558 0.000000 0.066456 0.000000
# 6 0.000000 0.000000 0.000000 0.002143 0.000000 0.037529
#
#
# Mechanical properties :
#
#
# Convention : Reuss Voigt Hill
#
# Bulk Modulus (GPa) = 29.27892 53.73067 41.50480
# Shear Modulus (GPa) = 23.97225 35.71250 29.84238
#
# Velocity S-wave (km/s) = 2.97333 3.62910 3.31746
# Velocity P-wave (km/s) = 4.75240 6.11357 5.47545
#
# Compressibility (1/GPa) = 0.03415427
#
# Stress axis : x y z
#
# Youngs Moduli (GPa) = 28.11511 89.72660 154.74079
#
# Poissons Ratio (x) = 0.55861 0.13630
# Poissons Ratio (y) = 0.17504 0.37200
# Poissons Ratio (z) = 0.02477 0.21570
#
# Static dielectric constant tensor:
#      x y z
#    x 2.224010 0.000000 0.058720 
#    y 0.000000 2.162780 0.000000 
#    z 0.058720 0.000000 2.159180 
# 
# From -- ./inp_files/35683.got.cif
#   From: 2010.05.17/outbox.cif.g08.bks.cpg/sg14_18_cif.got.tgz:35683.got - 2010.06.03 17:49:19.
