data_PCOD9242150
_publ_section_title
;
Structure prediction by ZEFSAII (Michael W. Deem and Ramdas Pophale) SiO2 
 PCOD9242150
Probable space group: P 21/C
;
_chemical_formula_sum "Si O2"
_cell_formula_units_Z 20
_cell_length_a 10.271319
_cell_length_b 12.639378
_cell_length_c 8.745416
_cell_angle_alpha 90.000000
_cell_angle_beta 136.664505
_cell_angle_gamma 90.000000
_cell_volume 779.160315
_symmetry_space_group_name_H-M "P 21/C"
_symmetry_group_IT_number 14
_symmetry_cell_setting 'monoclinic'
loop_
_space_group_symop_operation_xyz
x,y,z
-x,1/2+y,1/2-z
-x,-y,-z
x,1/2-y,1/2+z
loop_
_atom_site_type_symbol
_atom_site_label
_atom_site_fract_x
_atom_site_fract_y
_atom_site_fract_z
Si Si1 0.928231 0.716166 0.391085
Si Si2 0.603557 0.412479 0.700574
Si Si3 0.622448 0.939801 0.474513
Si Si4 0.803863 0.881283 0.087176
Si Si5 0.740265 0.125812 0.012490
O O1 0.918312 0.682061 0.557316
O O2 0.123552 0.695290 0.472523
O O3 0.775298 0.637185 0.179073
O O4 0.862885 0.835483 0.301348
O O5 0.500000 0.500000 0.500000
O O6 0.706200 0.473579 0.926004
O O7 0.421293 0.357689 0.620342
O O8 0.719195 0.347643 0.673757
O O9 0.465401 0.878022 0.241406
O O10 0.500000 0.000000 0.500000
O O11 0.823045 0.005877 0.079045
#
# Coordination Sequence:
#
# PCOD9242150 Si02
#       5
#     4   4   4   4   4
#     4  12  24  42  65  95 129 168 215 265 315 375
#     4   8  18  40  64  88 122 160 210 253 313 374
#     4  10  19  39  68  88 119 170 203 259 321 369
#     4  10  23  41  63  94 130 164 212 266 311 377
#     4  10  23  45  65  93 130 167 217 256 316 386
#
# _framework density 25.668657
#
# number of rings (size 3 to 8) (size 9 to 14) (size 15 to 20)
#    0.000    2.400    4.000    0.600    8.400    0.800 
#    3.600    2.000    0.000    0.000    0.000    0.000 
#    0.000    0.000    0.000    0.000    0.000    0.000 
#
# Total GULP energy -111938.232251 kJ/mol
# GULP energy per Si atom -5596.911613 kJ/mol
# Density = 2.561023 g / cm^3
# Si number density = 25.668657 Si / 1000 Ang^3
#
#
#
# Elastic Constant Matrix: (Units=GPa)
#
#
# Indices 1 2 3 4 5 6 
#
# 1 130.4566 14.0429 29.8131 0.0000 -21.0627 0.0000
# 2 14.0429 75.4523 17.7289 0.0000 -11.1403 0.0000
# 3 29.8131 17.7289 76.1851 0.0000 -14.7784 0.0000
# 4 0.0000 0.0000 0.0000 31.6145 0.0000 15.3238
# 5 -21.0627 -11.1403 -14.7784 0.0000 39.2227 0.0000
# 6 0.0000 0.0000 0.0000 15.3238 0.0000 -32.4329
#
#
#
# Elastic Compliance Matrix: (Units=1/GPa)
#
#
# Indices 1 2 3 4 5 6 
#
# 1 0.008916 -0.000495 -0.002667 0.000000 0.003642 0.000000
# 2 -0.000495 0.014376 -0.002601 0.000000 0.002837 0.000000
# 3 -0.002667 -0.002601 0.015486 0.000000 0.003663 0.000000
# 4 0.000000 0.000000 0.000000 0.025737 0.000000 0.012160
# 5 0.003642 0.002837 0.003663 0.000000 0.029638 0.000000
# 6 0.000000 0.000000 0.000000 0.012160 0.000000 -0.025088
#
#
# Mechanical properties :
#
#
# Convention : Reuss Voigt Hill
#
# Bulk Modulus (GPa) = 36.69667 45.02930 40.86298
# Shear Modulus (GPa) = 55.75650 22.38145 39.06897
#
# Velocity S-wave (km/s) = 4.66570 2.95606 3.90558
# Velocity P-wave (km/s) = 6.58425 5.40663 6.02429
#
# Compressibility (1/GPa) = 0.02725043
#
# Stress axis : x y z
#
# Youngs Moduli (GPa) = 112.15362 69.56207 64.57550
#
# Poissons Ratio (x) = 0.03443 0.17225
# Poissons Ratio (y) = 0.05551 0.16798
# Poissons Ratio (z) = 0.29916 0.18095
#
# Static dielectric constant tensor:
#      x y z
#    x 2.067520 0.000000 0.026420 
#    y 0.000000 2.072450 0.000000 
#    z 0.026420 0.000000 2.014910 
# 
# From -- ./inp_files/9247.got.cif
#   From: 2010.05.17/outbox.cif.g08.bks.cpg/sg14_5_cif.got.tgz:9247.got - 2010.06.03 17:49:19.
