data_PCOD9242421
_publ_section_title
;
Structure prediction by ZEFSAII (Michael W. Deem and Ramdas Pophale) SiO2 
 PCOD9242421
Probable space group: P 21/C
;
_chemical_formula_sum "Si O2"
_cell_formula_units_Z 24
_cell_length_a 13.271780
_cell_length_b 20.760409
_cell_length_c 5.048446
_cell_angle_alpha 90.000000
_cell_angle_beta 73.438258
_cell_angle_gamma 90.000000
_cell_volume 1333.278444
_symmetry_space_group_name_H-M "P 21/C"
_symmetry_group_IT_number 14
_symmetry_cell_setting 'monoclinic'
loop_
_space_group_symop_operation_xyz
x,y,z
-x,1/2+y,1/2-z
-x,-y,-z
x,1/2-y,1/2+z
loop_
_atom_site_type_symbol
_atom_site_label
_atom_site_fract_x
_atom_site_fract_y
_atom_site_fract_z
Si Si1 0.514675 0.413612 0.241266
Si Si2 0.858002 0.791084 0.178244
Si Si3 0.142578 0.502316 0.633858
Si Si4 0.624666 0.042479 0.157119
Si Si5 0.069886 0.426797 0.172015
Si Si6 0.607605 0.709261 0.884701
O O1 0.431824 0.472646 0.306366
O O2 0.562750 0.411943 0.497977
O O3 0.456702 0.351117 0.174357
O O4 0.606930 0.431916 0.966010
O O5 0.881619 0.733150 0.365515
O O6 0.915459 0.854466 0.239194
O O7 0.732592 0.804550 0.279550
O O8 0.256651 0.533167 0.524825
O O9 0.114186 0.472279 0.371373
O O10 0.051673 0.553406 0.776656
O O11 0.133017 0.445630 0.859309
O O12 0.585532 0.768119 0.699308
#
# Coordination Sequence:
#
# PCOD9242421 Si02
#       6
#     4   4   4   4   4   4
#     4  10  20  33  51  75 103 134 168 208 253 300
#     4  10  20  33  52  76 102 134 168 208 255 302
#     4  10  20  34  54  79 104 134 168 211 260 305
#     4  10  20  33  52  77 103 133 167 209 256 300
#     4  10  20  34  54  78 105 134 168 211 259 307
#     4  10  20  33  51  74 101 134 169 208 253 301
#
# _framework density 18.000741000000001
#
# number of rings (size 3 to 8) (size 9 to 14) (size 15 to 20)
#    0.000    2.000    0.000    4.000    0.000    5.333 
#    0.000    0.000    0.000    6.000    0.000    0.000 
#    0.000    0.000    0.000    0.000    0.000    0.000 
#
# Total GULP energy -133953.034101 kJ/mol
# GULP energy per Si atom -5581.376421 kJ/mol
# Density = 1.795977 g / cm^3
# Si number density = 18.000741 Si / 1000 Ang^3
#
#
#
# Elastic Constant Matrix: (Units=GPa)
#
#
# Indices 1 2 3 4 5 6 
#
# 1 56.6674 33.7151 22.2949 0.0000 -3.8003 0.0000
# 2 33.7151 57.7405 -8.5667 0.0000 -7.8852 0.0000
# 3 22.2949 -8.5667 66.2752 0.0000 3.7552 0.0000
# 4 0.0000 0.0000 0.0000 18.1523 0.0000 10.4423
# 5 -3.8003 -7.8852 3.7552 0.0000 21.8935 0.0000
# 6 0.0000 0.0000 0.0000 10.4423 0.0000 24.3250
#
#
#
# Elastic Compliance Matrix: (Units=1/GPa)
#
#
# Indices 1 2 3 4 5 6 
#
# 1 0.039194 -0.025258 -0.016480 0.000000 0.000533 0.000000
# 2 -0.025258 0.034759 0.012652 0.000000 0.005965 0.000000
# 3 -0.016480 0.012652 0.022389 0.000000 -0.002144 0.000000
# 4 0.000000 0.000000 0.000000 0.073155 0.000000 -0.031404
# 5 0.000533 0.005965 -0.002144 0.000000 0.048284 0.000000
# 6 0.000000 0.000000 0.000000 -0.031404 0.000000 0.054591
#
#
# Mechanical properties :
#
#
# Convention : Reuss Voigt Hill
#
# Bulk Modulus (GPa) = 26.19870 30.61884 28.40877
# Shear Modulus (GPa) = 14.56591 21.75681 18.16136
#
# Velocity S-wave (km/s) = 2.84770 3.48035 3.17980
# Velocity P-wave (km/s) = 5.03968 5.76170 5.41274
#
# Compressibility (1/GPa) = 0.03816984
#
# Stress axis : x y z
#
# Youngs Moduli (GPa) = 25.51426 28.76978 44.66445
#
# Poissons Ratio (x) = 0.72666 0.73606
# Poissons Ratio (y) = 0.64443 -0.56508
# Poissons Ratio (z) = 0.42047 -0.36398
#
# Static dielectric constant tensor:
#      x y z
#    x 1.595320 0.000000 0.006120 
#    y 0.000000 1.604060 0.000000 
#    z 0.006120 0.000000 1.617690 
# 
# From -- ./inp_files/2650.got.cif
#   From: 2010.05.17/outbox.cif.g08.bks.cpg/sg14_2_cif.got.tgz:2650.got - 2010.06.03 17:49:19.
