data_PCOD9242608
_publ_section_title
;
Structure prediction by ZEFSAII (Michael W. Deem and Ramdas Pophale) SiO2 
 PCOD9242608
Probable space group: P 21/C
;
_chemical_formula_sum "Si O2"
_cell_formula_units_Z 28
_cell_length_a 7.069244
_cell_length_b 7.555536
_cell_length_c 22.799096
_cell_angle_alpha 90.000000
_cell_angle_beta 59.812057
_cell_angle_gamma 90.000000
_cell_volume 1052.594042
_symmetry_space_group_name_H-M "P 21/C"
_symmetry_group_IT_number 14
_symmetry_cell_setting 'monoclinic'
loop_
_space_group_symop_operation_xyz
x,y,z
-x,1/2+y,1/2-z
-x,-y,-z
x,1/2-y,1/2+z
loop_
_atom_site_type_symbol
_atom_site_label
_atom_site_fract_x
_atom_site_fract_y
_atom_site_fract_z
Si Si1 0.543705 0.005688 0.254077
Si Si2 0.292256 0.827391 0.660865
Si Si3 0.210418 0.878794 0.002323
Si Si4 0.619550 0.734743 0.014326
Si Si5 0.409946 0.756969 0.860013
Si Si6 0.991106 0.941103 0.152259
Si Si7 0.158737 0.163827 0.631934
O O1 0.368047 0.900932 0.320046
O O2 0.761128 0.883314 0.214781
O O3 0.625984 0.157928 0.286073
O O4 0.529556 0.078515 0.191132
O O5 0.504972 0.857892 0.586628
O O6 0.184789 0.643903 0.659740
O O7 0.111919 0.977864 0.671487
O O8 0.417841 0.801762 0.005611
O O9 0.220650 0.789014 0.937223
O O10 0.022247 0.873305 0.080787
O O11 0.259302 0.086634 0.985064
O O12 0.770140 0.624841 0.946502
O O13 0.626393 0.718813 0.863998
O O14 0.018771 0.155014 0.150509
#
# Coordination Sequence:
#
# PCOD9242608 Si02
#       7
#     4   4   4   4   4   4   4
#     4  11  26  38  59  92 122 168 195 248 311 368
#     4  10  20  34  59  90 119 154 193 253 298 356
#     4   8  16  34  63  83 116 158 200 252 288 360
#     4   8  14  30  59  91 111 150 197 247 300 341
#     4  10  22  40  57  87 121 161 202 234 301 373
#     4  10  22  41  62  92 118 155 206 254 311 335
#     4   9  19  37  63  90 117 152 202 251 293 360
#
# _framework density 26.600944999999999
#
# number of rings (size 3 to 8) (size 9 to 14) (size 15 to 20)
#    0.000    2.571    0.000    3.000    8.000    1.714 
#    2.571    0.000    0.000    0.857    0.000    0.000 
#    0.000    0.000    0.000    0.000    0.000    0.000 
#
# Total GULP energy -156486.046589 kJ/mol
# GULP energy per Si atom -5588.787378 kJ/mol
# Density = 2.654040 g / cm^3
# Si number density = 26.600945 Si / 1000 Ang^3
#
#
#
# Elastic Constant Matrix: (Units=GPa)
#
#
# Indices 1 2 3 4 5 6 
#
# 1 40.4788 5.5904 26.4885 0.0000 9.7617 0.0000
# 2 5.5904 66.0057 33.5004 0.0000 -3.4999 0.0000
# 3 26.4885 33.5004 177.2862 0.0000 9.8234 0.0000
# 4 0.0000 0.0000 0.0000 48.4950 0.0000 4.0425
# 5 9.7617 -3.4999 9.8234 0.0000 30.2391 0.0000
# 6 0.0000 0.0000 0.0000 4.0425 0.0000 28.4359
#
#
#
# Elastic Compliance Matrix: (Units=1/GPa)
#
#
# Indices 1 2 3 4 5 6 
#
# 1 0.029299 -0.001039 -0.003718 0.000000 -0.008371 0.000000
# 2 -0.001039 0.017070 -0.003257 0.000000 0.003369 0.000000
# 3 -0.003718 -0.003257 0.006890 0.000000 -0.001415 0.000000
# 4 0.000000 0.000000 0.000000 0.020868 0.000000 -0.002967
# 5 -0.008371 0.003369 -0.001415 0.000000 0.036622 0.000000
# 6 0.000000 0.000000 0.000000 -0.002967 0.000000 0.035588
#
#
# Mechanical properties :
#
#
# Convention : Reuss Voigt Hill
#
# Bulk Modulus (GPa) = 26.85820 46.10326 36.48073
# Shear Modulus (GPa) = 28.60835 35.98012 32.29423
#
# Velocity S-wave (km/s) = 3.28298 3.68174 3.48807
# Velocity P-wave (km/s) = 4.94866 5.95338 5.47412
#
# Compressibility (1/GPa) = 0.03723258
#
# Stress axis : x y z
#
# Youngs Moduli (GPa) = 34.13074 58.58269 145.13962
#
# Poissons Ratio (x) = 0.06084 0.53956
# Poissons Ratio (y) = 0.03545 0.47273
# Poissons Ratio (z) = 0.12688 0.19081
#
# Static dielectric constant tensor:
#      x y z
#    x 2.100270 0.000000 -0.014160 
#    y 0.000000 2.161990 0.000000 
#    z -0.014160 0.000000 2.039930 
# 
# From -- ./inp_files/64522.got.cif
#   From: 2010.05.17/outbox.cif.g08.bks.cpg/sg14_33_cif.got.tgz:64522.got - 2010.06.03 17:49:19.
