data_PCOD9242146
_publ_section_title
;
Structure prediction by ZEFSAII (Michael W. Deem and Ramdas Pophale) SiO2 
 PCOD9242146
Probable space group: P 21/C
;
_chemical_formula_sum "Si O2"
_cell_formula_units_Z 32
_cell_length_a 10.517723
_cell_length_b 24.350305
_cell_length_c 11.714513
_cell_angle_alpha 90.000000
_cell_angle_beta 153.379550
_cell_angle_gamma 90.000000
_cell_volume 1344.324732
_symmetry_space_group_name_H-M "P 21/C"
_symmetry_group_IT_number 14
_symmetry_cell_setting 'monoclinic'
loop_
_space_group_symop_operation_xyz
x,y,z
-x,1/2+y,1/2-z
-x,-y,-z
x,1/2-y,1/2+z
loop_
_atom_site_type_symbol
_atom_site_label
_atom_site_fract_x
_atom_site_fract_y
_atom_site_fract_z
Si Si1 0.342622 0.992592 0.558511
Si Si2 0.840271 0.904034 0.470268
Si Si3 0.527024 0.841216 0.421205
Si Si4 0.807088 0.856811 0.203472
Si Si5 0.309933 0.391352 0.633472
Si Si6 0.093466 0.208578 0.085582
Si Si7 0.227260 0.945854 0.229912
Si Si8 0.213130 0.683949 0.193179
O O1 0.161685 0.033045 0.491754
O O2 0.636959 0.025467 0.770659
O O3 0.422227 0.931710 0.662909
O O4 0.223892 0.985582 0.335662
O O5 0.658491 0.868663 0.414623
O O6 0.133334 0.870425 0.700777
O O7 0.742435 0.894701 0.261527
O O8 0.739307 0.802280 0.661712
O O9 0.430895 0.893800 0.420757
O O10 0.227904 0.812988 0.153893
O O11 0.819966 0.889916 0.097777
O O12 0.548596 0.813267 0.979246
O O13 0.105694 0.828744 0.477625
O O14 0.283463 0.328454 0.652904
O O15 0.081911 0.420998 0.532927
O O16 0.010489 0.267050 0.961487
#
# Coordination Sequence:
#
# PCOD9242146 Si02
#       8
#     4   4   4   4   4   4   4   4
#     4  10  19  39  67  96 131 165 212 272 326 389
#     4   9  24  42  63  95 131 173 213 262 323 392
#     4  10  21  39  65  96 125 157 210 269 327 386
#     4  10  25  44  62  91 130 174 217 258 317 391
#     4  11  23  39  66  95 134 167 215 272 324 394
#     4  11  23  39  68  95 121 165 217 274 334 374
#     4   9  20  37  61 101 126 161 206 267 334 372
#     4  10  24  45  60  92 126 172 224 265 319 381
#
# _framework density 23.803774000000001
#
# number of rings (size 3 to 8) (size 9 to 14) (size 15 to 20)
#    0.750    1.250    1.250    1.125    3.500    3.500 
#    0.000    1.250    0.000    0.000    0.000    0.000 
#    0.000    0.000    0.000    0.000    0.000    0.000 
#
# Total GULP energy -178200.399033 kJ/mol
# GULP energy per Si atom -5568.762470 kJ/mol
# Density = 2.374960 g / cm^3
# Si number density = 23.803774 Si / 1000 Ang^3
#
#
#
# Elastic Constant Matrix: (Units=GPa)
#
#
# Indices 1 2 3 4 5 6 
#
# 1 48.2661 8.5308 5.9933 0.0000 -4.1366 0.0000
# 2 8.5308 87.3800 10.0819 0.0000 14.9265 0.0000
# 3 5.9933 10.0819 69.6629 0.0000 17.9954 0.0000
# 4 0.0000 0.0000 0.0000 28.3481 0.0000 1.5712
# 5 -4.1366 14.9265 17.9954 0.0000 23.7555 0.0000
# 6 0.0000 0.0000 0.0000 1.5712 0.0000 26.3737
#
#
#
# Elastic Compliance Matrix: (Units=1/GPa)
#
#
# Indices 1 2 3 4 5 6 
#
# 1 0.022516 -0.003272 -0.003739 0.000000 0.008809 0.000000
# 2 -0.003272 0.013300 0.000824 0.000000 -0.009551 0.000000
# 3 -0.003739 0.000824 0.018474 0.000000 -0.015164 0.000000
# 4 0.000000 0.000000 0.000000 0.035393 0.000000 -0.002109
# 5 0.008809 -0.009551 -0.015164 0.000000 0.061117 0.000000
# 6 0.000000 0.000000 0.000000 -0.002109 0.000000 0.038042
#
#
# Mechanical properties :
#
#
# Convention : Reuss Voigt Hill
#
# Bulk Modulus (GPa) = 23.85691 28.28010 26.06851
# Shear Modulus (GPa) = 23.23543 27.74232 25.48887
#
# Velocity S-wave (km/s) = 3.12769 3.41759 3.27584
# Velocity P-wave (km/s) = 4.80493 5.24209 5.02826
#
# Compressibility (1/GPa) = 0.04191657
#
# Stress axis : x y z
#
# Youngs Moduli (GPa) = 44.41293 75.18747 54.12899
#
# Poissons Ratio (x) = 0.24598 0.20240
# Poissons Ratio (y) = 0.14530 -0.04459
# Poissons Ratio (z) = 0.16607 -0.06194
#
# Static dielectric constant tensor:
#      x y z
#    x 1.907270 0.000000 0.023390 
#    y 0.000000 2.065170 0.000000 
#    z 0.023390 0.000000 1.923360 
# 
# From -- ./inp_files/30823.got.cif
#   From: 2010.05.17/outbox.cif.g08.bks.cpg/sg14_16_cif.got.tgz:30823.got - 2010.06.03 17:49:19.
