data_PCOD9242285
_publ_section_title
;
Structure prediction by ZEFSAII (Michael W. Deem and Ramdas Pophale) SiO2 
 PCOD9242285
Probable space group: P 21/C
;
_chemical_formula_sum "Si O2"
_cell_formula_units_Z 28
_cell_length_a 10.695886
_cell_length_b 9.203092
_cell_length_c 18.066074
_cell_angle_alpha 90.000000
_cell_angle_beta 135.426844
_cell_angle_gamma 90.000000
_cell_volume 1248.072088
_symmetry_space_group_name_H-M "P 21/C"
_symmetry_group_IT_number 14
_symmetry_cell_setting 'monoclinic'
loop_
_space_group_symop_operation_xyz
x,y,z
-x,1/2+y,1/2-z
-x,-y,-z
x,1/2-y,1/2+z
loop_
_atom_site_type_symbol
_atom_site_label
_atom_site_fract_x
_atom_site_fract_y
_atom_site_fract_z
Si Si1 0.170734 0.213260 0.192948
Si Si2 0.040664 0.467556 0.236204
Si Si3 0.790741 0.962161 0.407047
Si Si4 0.655942 0.599778 0.096410
Si Si5 0.751232 0.305566 0.780209
Si Si6 0.632906 0.751378 0.947013
Si Si7 0.049650 0.056747 0.913016
O O1 0.062796 0.311100 0.207227
O O2 0.238609 0.328611 0.162147
O O3 0.321977 0.136444 0.307305
O O4 0.039412 0.094985 0.100732
O O5 0.154563 0.580712 0.236013
O O6 0.838464 0.519427 0.153142
O O7 0.089201 0.465106 0.342589
O O8 0.717762 0.898509 0.452061
O O9 0.708409 0.106271 0.337140
O O10 0.000000 0.000000 0.500000
O O11 0.500000 0.500000 0.000000
O O12 0.636614 0.742401 0.037448
O O13 0.566416 0.258041 0.666541
O O14 0.894676 0.178610 0.853994
O O15 0.766067 0.880010 0.977500
#
# Coordination Sequence:
#
# PCOD9242285 Si02
#       7
#     4   4   4   4   4   4   4
#     4  10  22  40  67  98 132 177 226 272 337 415
#     4  10  19  42  62  92 140 176 213 276 343 400
#     4  11  24  49  68  89 138 187 225 277 349 402
#     4  11  22  39  68 100 134 178 221 279 345 406
#     4  11  24  42  67  97 134 180 225 283 333 412
#     4  12  23  41  69  98 130 177 225 279 338 401
#     4  11  20  40  66  97 132 171 223 284 328 396
#
# _framework density 22.434598999999999
#
# number of rings (size 3 to 8) (size 9 to 14) (size 15 to 20)
#    0.000    1.143    4.286    3.429    0.000    3.429 
#    7.714    0.000    0.000    0.000    0.000    0.000 
#    0.000    0.000    0.000    0.000    0.000    0.000 
#
# Total GULP energy -156475.734121 kJ/mol
# GULP energy per Si atom -5588.419076 kJ/mol
# Density = 2.238354 g / cm^3
# Si number density = 22.434599 Si / 1000 Ang^3
#
#
#
# Elastic Constant Matrix: (Units=GPa)
#
#
# Indices 1 2 3 4 5 6 
#
# 1 48.6729 4.5913 11.6202 0.0000 1.5773 0.0000
# 2 4.5913 74.0134 -4.7457 0.0000 10.4483 0.0000
# 3 11.6202 -4.7457 88.6891 0.0000 23.1685 0.0000
# 4 0.0000 0.0000 0.0000 47.7180 0.0000 0.2903
# 5 1.5773 10.4483 23.1685 0.0000 41.4145 0.0000
# 6 0.0000 0.0000 0.0000 0.2903 0.0000 17.0401
#
#
#
# Elastic Compliance Matrix: (Units=1/GPa)
#
#
# Indices 1 2 3 4 5 6 
#
# 1 0.021447 -0.001747 -0.003285 0.000000 0.001462 0.000000
# 2 -0.001747 0.014449 0.002269 0.000000 -0.004848 0.000000
# 3 -0.003285 0.002269 0.013988 0.000000 -0.008273 0.000000
# 4 0.000000 0.000000 0.000000 0.020959 0.000000 -0.000357
# 5 0.001462 -0.004848 -0.008273 0.000000 0.029942 0.000000
# 6 0.000000 0.000000 0.000000 -0.000357 0.000000 0.058691
#
#
# Mechanical properties :
#
#
# Convention : Reuss Voigt Hill
#
# Bulk Modulus (GPa) = 22.54490 26.03411 24.28950
# Shear Modulus (GPa) = 27.81021 34.56183 31.18602
#
# Velocity S-wave (km/s) = 3.52463 3.92925 3.73243
# Velocity P-wave (km/s) = 5.16091 5.67583 5.42448
#
# Compressibility (1/GPa) = 0.04435594
#
# Stress axis : x y z
#
# Youngs Moduli (GPa) = 46.62625 69.20755 71.48834
#
# Poissons Ratio (x) = 0.12094 0.23487
# Poissons Ratio (y) = 0.08148 -0.16218
# Poissons Ratio (z) = 0.15319 -0.15700
#
# Static dielectric constant tensor:
#      x y z
#    x 1.860710 0.000000 -0.050420 
#    y 0.000000 1.873920 0.000000 
#    z -0.050420 0.000000 1.857300 
# 
# From -- ./inp_files/67075.got.cif
#   From: 2010.05.17/outbox.cif.g08.bks.cpg/sg14_34_cif.got.tgz:67075.got - 2010.06.03 17:49:19.
