data_PCOD9242883
_publ_section_title
;
Structure prediction by ZEFSAII (Michael W. Deem and Ramdas Pophale) SiO2 
 PCOD9242883
Probable space group: P 21/C
;
_chemical_formula_sum "Si O2"
_cell_formula_units_Z 32
_cell_length_a 12.955290
_cell_length_b 12.471071
_cell_length_c 10.369632
_cell_angle_alpha 90.000000
_cell_angle_beta 71.383741
_cell_angle_gamma 90.000000
_cell_volume 1587.723853
_symmetry_space_group_name_H-M "P 21/C"
_symmetry_group_IT_number 14
_symmetry_cell_setting 'monoclinic'
loop_
_space_group_symop_operation_xyz
x,y,z
-x,1/2+y,1/2-z
-x,-y,-z
x,1/2-y,1/2+z
loop_
_atom_site_type_symbol
_atom_site_label
_atom_site_fract_x
_atom_site_fract_y
_atom_site_fract_z
Si Si1 0.682358 0.269126 0.581128
Si Si2 0.424063 0.849486 0.616699
Si Si3 0.870057 0.432711 0.510351
Si Si4 0.168241 0.936959 0.471855
Si Si5 0.337996 0.428182 0.045892
Si Si6 0.006870 0.528521 0.802021
Si Si7 0.153905 0.220468 0.697085
Si Si8 0.908085 0.840232 0.018673
O O1 0.609520 0.296463 0.734721
O O2 0.614765 0.228209 0.484442
O O3 0.758982 0.372172 0.528297
O O4 0.767524 0.172853 0.573415
O O5 0.550779 0.878321 0.551694
O O6 0.364449 0.964939 0.618931
O O7 0.927604 0.471476 0.356174
O O8 0.861250 0.545110 0.588524
O O9 0.961281 0.356314 0.539168
O O10 0.094432 0.965259 0.380192
O O11 0.258924 0.026490 0.465945
O O12 0.083154 0.938405 0.626703
O O13 0.270028 0.337617 0.146395
O O14 0.936237 0.637200 0.821727
O O15 0.146879 0.312562 0.594134
O O16 0.120514 0.243937 0.857279
#
# Coordination Sequence:
#
# PCOD9242883 Si02
#       8
#     4   4   4   4   4   4   4   4
#     4  11  21  36  60  84 113 154 200 241 286 344
#     4  10  22  39  60  85 111 150 199 245 293 339
#     4  10  21  36  54  82 121 153 185 235 286 342
#     4   9  18  33  58  88 117 150 188 236 290 348
#     4   9  20  39  60  80 114 152 190 242 295 340
#     4   9  18  32  54  87 119 147 186 228 285 356
#     4  10  20  36  56  81 111 150 188 228 282 347
#     4  10  22  35  54  82 114 148 184 225 285 350
#
# _framework density 20.154637999999998
#
# number of rings (size 3 to 8) (size 9 to 14) (size 15 to 20)
#    0.000    2.250    0.000    2.250    0.000   10.000 
#    0.000    1.250    0.000    8.250    0.000    0.000 
#    0.000    0.000    0.000    0.000    0.000    0.000 
#
# Total GULP energy -178551.879757 kJ/mol
# GULP energy per Si atom -5579.746242 kJ/mol
# Density = 2.010877 g / cm^3
# Si number density = 20.154638 Si / 1000 Ang^3
#
#
#
# Elastic Constant Matrix: (Units=GPa)
#
#
# Indices 1 2 3 4 5 6 
#
# 1 102.5209 25.9224 44.0892 0.0000 -8.8610 0.0000
# 2 25.9224 60.5967 35.4050 0.0000 -8.4068 0.0000
# 3 44.0892 35.4050 114.3143 0.0000 -3.1267 0.0000
# 4 0.0000 0.0000 0.0000 26.7785 0.0000 -5.1734
# 5 -8.8610 -8.4068 -3.1267 0.0000 19.9214 0.0000
# 6 0.0000 0.0000 0.0000 -5.1734 0.0000 28.5667
#
#
#
# Elastic Compliance Matrix: (Units=1/GPa)
#
#
# Indices 1 2 3 4 5 6 
#
# 1 0.012395 -0.002486 -0.003905 0.000000 0.003851 0.000000
# 2 -0.002486 0.021847 -0.005610 0.000000 0.007233 0.000000
# 3 -0.003905 -0.005610 0.011930 0.000000 -0.002232 0.000000
# 4 0.000000 0.000000 0.000000 0.038697 0.000000 0.007008
# 5 0.003851 0.007233 -0.002232 0.000000 0.054612 0.000000
# 6 0.000000 0.000000 0.000000 0.007008 0.000000 0.036275
#
#
# Mechanical properties :
#
#
# Convention : Reuss Voigt Hill
#
# Bulk Modulus (GPa) = 45.10569 54.25168 49.67868
# Shear Modulus (GPa) = 24.13713 26.52101 25.32907
#
# Velocity S-wave (km/s) = 3.46439 3.63144 3.54889
# Velocity P-wave (km/s) = 6.19927 6.67527 6.44167
#
# Compressibility (1/GPa) = 0.02217015
#
# Stress axis : x y z
#
# Youngs Moduli (GPa) = 80.67715 45.77236 83.82010
#
# Poissons Ratio (x) = 0.11381 0.32733
# Poissons Ratio (y) = 0.20060 0.47020
# Poissons Ratio (z) = 0.31506 0.25677
#
# Static dielectric constant tensor:
#      x y z
#    x 1.692150 0.000000 0.013720 
#    y 0.000000 1.793090 0.000000 
#    z 0.013720 0.000000 1.774960 
# 
# From -- ./inp_files/29353.got.cif
#   From: 2010.05.17/outbox.cif.g08.bks.cpg/sg14_15_cif.got.tgz:29353.got - 2010.06.03 17:49:19.
