data_PCOD9242110
_publ_section_title
;
Structure prediction by ZEFSAII (Michael W. Deem and Ramdas Pophale) SiO2 
 PCOD9242110
Probable space group: P 21/C
;
_chemical_formula_sum "Si O2"
_cell_formula_units_Z 28
_cell_length_a 8.771586
_cell_length_b 17.180233
_cell_length_c 11.755474
_cell_angle_alpha 90.000000
_cell_angle_beta 142.793307
_cell_angle_gamma 90.000000
_cell_volume 1071.227360
_symmetry_space_group_name_H-M "P 21/C"
_symmetry_group_IT_number 14
_symmetry_cell_setting 'monoclinic'
loop_
_space_group_symop_operation_xyz
x,y,z
-x,1/2+y,1/2-z
-x,-y,-z
x,1/2-y,1/2+z
loop_
_atom_site_type_symbol
_atom_site_label
_atom_site_fract_x
_atom_site_fract_y
_atom_site_fract_z
Si Si1 0.773970 0.206106 0.744767
Si Si2 0.032032 0.408148 0.510146
Si Si3 0.234332 0.552275 0.097017
Si Si4 0.248165 0.340359 0.846310
Si Si5 0.265925 0.873980 0.854321
Si Si6 0.490526 0.095472 0.780870
Si Si7 0.957859 0.694496 0.899660
O O1 0.001053 0.141205 0.875771
O O2 0.506809 0.161780 0.568641
O O3 0.718342 0.279899 0.627291
O O4 0.869803 0.258589 0.908895
O O5 0.765377 0.378493 0.404956
O O6 0.000000 0.500000 0.500000
O O7 0.254529 0.379496 0.724491
O O8 0.327281 0.595411 0.266003
O O9 0.425471 0.484469 0.178243
O O10 0.000000 0.500000 0.000000
O O11 0.122362 0.621192 0.953719
O O12 0.156400 0.252904 0.760408
O O13 0.027369 0.385975 0.783110
O O14 0.450497 0.917499 0.050313
O O15 0.268244 0.158307 0.657919
#
# Coordination Sequence:
#
# PCOD9242110 Si02
#       7
#     4   4   4   4   4   4   4
#     4  10  21  38  63  84 116 156 199 251 295 362
#     4  10  24  43  57  87 121 162 201 242 310 364
#     4   9  19  33  57  90 119 153 196 245 296 353
#     4  10  21  40  63  86 120 155 197 255 297 356
#     4  10  20  37  60  90 116 156 200 244 302 352
#     4  10  19  39  65  82 126 159 196 256 290 358
#     4   9  19  38  58  95 115 149 206 242 301 353
#
# _framework density 26.138241000000001
#
# number of rings (size 3 to 8) (size 9 to 14) (size 15 to 20)
#    0.000    2.286    1.429    0.429    6.000    0.571 
#    7.714    2.857    0.000    0.000    0.000    0.000 
#    0.000    0.000    0.000    0.000    0.000    0.000 
#
# Total GULP energy -156043.401401 kJ/mol
# GULP energy per Si atom -5572.978621 kJ/mol
# Density = 2.607875 g / cm^3
# Si number density = 26.138241 Si / 1000 Ang^3
#
#
#
# Elastic Constant Matrix: (Units=GPa)
#
#
# Indices 1 2 3 4 5 6 
#
# 1 34.2063 4.7140 9.5366 0.0000 7.4430 0.0000
# 2 4.7140 163.0889 27.9021 0.0000 4.6342 0.0000
# 3 9.5366 27.9021 138.8625 0.0000 -2.1671 0.0000
# 4 0.0000 0.0000 0.0000 38.5131 0.0000 4.5622
# 5 7.4430 4.6342 -2.1671 0.0000 35.7474 0.0000
# 6 0.0000 0.0000 0.0000 4.5622 0.0000 27.3583
#
#
#
# Elastic Compliance Matrix: (Units=1/GPa)
#
#
# Indices 1 2 3 4 5 6 
#
# 1 0.031330 -0.000344 -0.002186 0.000000 -0.006611 0.000000
# 2 -0.000344 0.006383 -0.001272 0.000000 -0.000833 0.000000
# 3 -0.002186 -0.001272 0.007624 0.000000 0.001082 0.000000
# 4 0.000000 0.000000 0.000000 0.026488 0.000000 -0.004417
# 5 -0.006611 -0.000833 0.001082 0.000000 0.029524 0.000000
# 6 0.000000 0.000000 0.000000 -0.004417 0.000000 0.037289
#
#
# Mechanical properties :
#
#
# Convention : Reuss Voigt Hill
#
# Bulk Modulus (GPa) = 26.50156 46.71811 36.60983
# Shear Modulus (GPa) = 31.48252 39.92409 35.70331
#
# Velocity S-wave (km/s) = 3.47430 3.91246 3.69987
# Velocity P-wave (km/s) = 5.12400 6.19048 5.68232
#
# Compressibility (1/GPa) = 0.03773362
#
# Stress axis : x y z
#
# Youngs Moduli (GPa) = 31.91866 156.67013 131.16585
#
# Poissons Ratio (x) = 0.05386 0.28669
# Poissons Ratio (y) = 0.01097 0.16683
# Poissons Ratio (z) = 0.06976 0.19927
#
# Static dielectric constant tensor:
#      x y z
#    x 2.422190 0.000000 -0.174270 
#    y 0.000000 2.164030 0.000000 
#    z -0.174270 0.000000 2.235790 
# 
# From -- ./inp_files/45323.got.cif
#   From: 2010.05.17/outbox.cif.g08.bks.cpg/sg14_23_cif.got.tgz:45323.got - 2010.06.03 17:49:19.
