data_PCOD9242206
_publ_section_title
;
Structure prediction by ZEFSAII (Michael W. Deem and Ramdas Pophale) SiO2 
 PCOD9242206
Probable space group: P 21/C
;
_chemical_formula_sum "Si O2"
_cell_formula_units_Z 24
_cell_length_a 11.288364
_cell_length_b 11.750225
_cell_length_c 18.850337
_cell_angle_alpha 90.000000
_cell_angle_beta 25.963998
_cell_angle_gamma 90.000000
_cell_volume 1094.657642
_symmetry_space_group_name_H-M "P 21/C"
_symmetry_group_IT_number 14
_symmetry_cell_setting 'monoclinic'
loop_
_space_group_symop_operation_xyz
x,y,z
-x,1/2+y,1/2-z
-x,-y,-z
x,1/2-y,1/2+z
loop_
_atom_site_type_symbol
_atom_site_label
_atom_site_fract_x
_atom_site_fract_y
_atom_site_fract_z
Si Si1 0.079259 0.104658 0.681537
Si Si2 0.401944 0.758173 0.610051
Si Si3 0.023805 0.816652 0.943201
Si Si4 0.686840 0.453662 0.613294
Si Si5 0.331451 0.024877 0.020546
Si Si6 0.167968 0.065501 0.470317
O O1 0.376571 0.153514 0.538830
O O2 0.086228 0.055132 0.596911
O O3 0.841622 0.202978 0.805921
O O4 0.971456 0.011703 0.795374
O O5 0.251010 0.803085 0.760836
O O6 0.597244 0.655429 0.531237
O O7 0.152836 0.841672 0.950477
O O8 0.856773 0.700661 0.031768
O O9 0.867681 0.933365 0.011633
O O10 0.565482 0.449252 0.600317
O O11 0.470344 0.473298 0.791207
O O12 0.500000 0.000000 0.000000
O O13 0.000000 0.000000 0.500000
#
# Coordination Sequence:
#
# PCOD9242206 Si02
#       6
#     4   4   4   4   4   4
#     4  10  21  39  62  91 121 170 215 254 320 385
#     4  10  19  40  65  84 123 174 209 251 321 390
#     4  10  23  40  67  93 124 176 211 263 328 379
#     4  11  22  41  63  96 130 161 223 268 310 388
#     4  10  21  39  63  92 130 168 210 258 319 387
#     4  11  22  37  67  91 125 171 214 264 321 383
#
# _framework density 21.924662999999999
#
# number of rings (size 3 to 8) (size 9 to 14) (size 15 to 20)
#    0.000    1.667    1.667    5.000    2.333    0.000 
#    9.000    3.333    0.000    0.000    0.000    0.000 
#    0.000    0.000    0.000    0.000    0.000    0.000 
#
# Total GULP energy -133850.966376 kJ/mol
# GULP energy per Si atom -5577.123599 kJ/mol
# Density = 2.187476 g / cm^3
# Si number density = 21.924663 Si / 1000 Ang^3
#
#
#
# Elastic Constant Matrix: (Units=GPa)
#
#
# Indices 1 2 3 4 5 6 
#
# 1 35.2135 -0.3789 -2.0445 0.0000 -0.1059 0.0000
# 2 -0.3789 81.7641 57.9647 0.0000 3.4006 0.0000
# 3 -2.0445 57.9647 146.6207 0.0000 -1.5467 0.0000
# 4 0.0000 0.0000 0.0000 52.8657 0.0000 11.6696
# 5 -0.1059 3.4006 -1.5467 0.0000 20.4236 0.0000
# 6 0.0000 0.0000 0.0000 11.6696 0.0000 9.7416
#
#
#
# Elastic Compliance Matrix: (Units=1/GPa)
#
#
# Indices 1 2 3 4 5 6 
#
# 1 0.028425 -0.000222 0.000487 0.000000 0.000221 0.000000
# 2 -0.000222 0.017225 -0.006849 0.000000 -0.003388 0.000000
# 3 0.000487 -0.006849 0.009554 0.000000 0.001866 0.000000
# 4 0.000000 0.000000 0.000000 0.025716 0.000000 -0.030806
# 5 0.000221 -0.003388 0.001866 0.000000 0.049670 0.000000
# 6 0.000000 0.000000 0.000000 -0.030806 0.000000 0.139556
#
#
# Mechanical properties :
#
#
# Convention : Reuss Voigt Hill
#
# Bulk Modulus (GPa) = 23.78947 41.63122 32.71034
# Shear Modulus (GPa) = 16.81652 30.47664 23.64658
#
# Velocity S-wave (km/s) = 2.77251 3.73240 3.28767
# Velocity P-wave (km/s) = 4.59599 6.13220 5.41881
#
# Compressibility (1/GPa) = 0.04203541
#
# Stress axis : x y z
#
# Youngs Moduli (GPa) = 35.18063 58.05384 104.66456
#
# Poissons Ratio (x) = 0.01292 -0.05093
# Poissons Ratio (y) = 0.00783 0.71681
# Poissons Ratio (z) = -0.01712 0.39759
#
# Static dielectric constant tensor:
#      x y z
#    x 2.119420 0.000000 0.053790 
#    y 0.000000 1.877350 0.000000 
#    z 0.053790 0.000000 1.906260 
# 
# From -- ./inp_files/73900.got.cif
#   From: 2010.05.17/outbox.cif.g08.bks.cpg/sg14_37_cif.got.tgz:73900.got - 2010.06.03 17:49:19.
