data_PCOD9242596
_publ_section_title
;
Structure prediction by ZEFSAII (Michael W. Deem and Ramdas Pophale) SiO2 
 PCOD9242596
Probable space group: P 21/C
;
_chemical_formula_sum "Si O2"
_cell_formula_units_Z 28
_cell_length_a 24.476635
_cell_length_b 6.172731
_cell_length_c 16.315152
_cell_angle_alpha 90.000000
_cell_angle_beta 35.129600
_cell_angle_gamma 90.000000
_cell_volume 1418.440299
_symmetry_space_group_name_H-M "P 21/C"
_symmetry_group_IT_number 14
_symmetry_cell_setting 'monoclinic'
loop_
_space_group_symop_operation_xyz
x,y,z
-x,1/2+y,1/2-z
-x,-y,-z
x,1/2-y,1/2+z
loop_
_atom_site_type_symbol
_atom_site_label
_atom_site_fract_x
_atom_site_fract_y
_atom_site_fract_z
Si Si1 0.870077 0.239409 0.367533
Si Si2 0.079644 0.428738 0.837341
Si Si3 0.530458 0.694442 0.401425
Si Si4 0.355664 0.582536 0.148749
Si Si5 0.709052 0.030895 0.651329
Si Si6 0.034249 0.542015 0.609330
Si Si7 0.189670 0.273597 0.336401
O O1 0.886949 0.392823 0.269261
O O2 0.773885 0.105663 0.496274
O O3 0.881309 0.371626 0.437585
O O4 0.960277 0.081799 0.257148
O O5 0.170926 0.364925 0.778769
O O6 0.028101 0.227542 0.856071
O O7 0.000000 0.500000 0.000000
O O8 0.500000 0.500000 0.500000
O O9 0.430544 0.798395 0.496678
O O10 0.612364 0.592514 0.244553
O O11 0.585836 0.886003 0.381070
O O12 0.323013 0.760400 0.255772
O O13 0.262828 0.466705 0.228200
O O14 0.770341 0.874621 0.637764
O O15 0.087854 0.379184 0.483102
#
# Coordination Sequence:
#
# PCOD9242596 Si02
#       7
#     4   4   4   4   4   4   4
#     4  12  23  36  57  80 117 166 205 251 301 359
#     4  12  26  38  54  82 120 163 210 249 300 357
#     4   8  16  31  53  91 122 141 183 249 307 357
#     4   9  17  32  58  83 128 144 187 251 303 355
#     4  10  20  34  58  87 123 148 200 247 306 370
#     4  12  23  40  57  79 121 163 204 248 297 349
#     4  11  22  36  57  85 121 161 203 253 304 361
#
# _framework density 19.739991
#
# number of rings (size 3 to 8) (size 9 to 14) (size 15 to 20)
#    0.000    1.429    4.286    2.143    0.000    0.000 
#    0.000    0.000    0.000    0.000    0.000    0.000 
#  355.714    0.000    0.000    0.000    0.000    0.857 
#
# Total GULP energy -156047.004112 kJ/mol
# GULP energy per Si atom -5573.107290 kJ/mol
# Density = 1.969506 g / cm^3
# Si number density = 19.739991 Si / 1000 Ang^3
#
#
#
# Elastic Constant Matrix: (Units=GPa)
#
#
# Indices 1 2 3 4 5 6 
#
# 1 33.7213 14.2642 23.1573 0.0000 4.4009 0.0000
# 2 14.2642 84.1070 41.0716 0.0000 -5.2930 0.0000
# 3 23.1573 41.0716 117.8648 0.0000 -25.2932 0.0000
# 4 0.0000 0.0000 0.0000 54.4210 0.0000 -7.8528
# 5 4.4009 -5.2930 -25.2932 0.0000 19.7705 0.0000
# 6 0.0000 0.0000 0.0000 -7.8528 0.0000 23.5372
#
#
#
# Elastic Compliance Matrix: (Units=1/GPa)
#
#
# Indices 1 2 3 4 5 6 
#
# 1 0.043803 -0.002475 -0.013754 0.000000 -0.028010 0.000000
# 2 -0.002475 0.014647 -0.005042 0.000000 -0.001979 0.000000
# 3 -0.013754 -0.005042 0.018349 0.000000 0.025186 0.000000
# 4 0.000000 0.000000 0.000000 0.019305 0.000000 0.006441
# 5 -0.028010 -0.001979 0.025186 0.000000 0.088507 0.000000
# 6 0.000000 0.000000 0.000000 0.006441 0.000000 0.044635
#
#
# Mechanical properties :
#
#
# Convention : Reuss Voigt Hill
#
# Bulk Modulus (GPa) = 29.19268 43.63103 36.41186
# Shear Modulus (GPa) = 17.65497 30.02573 23.84035
#
# Velocity S-wave (km/s) = 2.99386 3.90431 3.47899
# Velocity P-wave (km/s) = 5.17413 6.51734 5.88419
#
# Compressibility (1/GPa) = 0.03425516
#
# Stress axis : x y z
#
# Youngs Moduli (GPa) = 22.82959 68.27279 54.50034
#
# Poissons Ratio (x) = 0.16896 0.74962
# Poissons Ratio (y) = 0.05650 0.27481
# Poissons Ratio (z) = 0.31401 0.34426
#
# Static dielectric constant tensor:
#      x y z
#    x 0.864380 0.000000 -0.468520 
#    y 0.000000 1.672400 0.000000 
#    z -0.468520 0.000000 1.469550 
# 
# From -- ./inp_files/48214.got.cif
#   From: 2010.05.17/outbox.cif.g08.bks.cpg/sg14_25_cif.got.tgz:48214.got - 2010.06.03 17:49:19.
