data_PCOD9242159
_publ_section_title
;
Structure prediction by ZEFSAII (Michael W. Deem and Ramdas Pophale) SiO2 
 PCOD9242159
Probable space group: P 21/C
;
_chemical_formula_sum "Si O2"
_cell_formula_units_Z 28
_cell_length_a 8.505833
_cell_length_b 17.098395
_cell_length_c 15.517294
_cell_angle_alpha 90.000000
_cell_angle_beta 137.469799
_cell_angle_gamma 90.000000
_cell_volume 1525.531648
_symmetry_space_group_name_H-M "P 21/C"
_symmetry_group_IT_number 14
_symmetry_cell_setting 'monoclinic'
loop_
_space_group_symop_operation_xyz
x,y,z
-x,1/2+y,1/2-z
-x,-y,-z
x,1/2-y,1/2+z
loop_
_atom_site_type_symbol
_atom_site_label
_atom_site_fract_x
_atom_site_fract_y
_atom_site_fract_z
Si Si1 0.249026 0.169925 0.263909
Si Si2 0.748586 0.522883 0.638893
Si Si3 0.759956 0.379981 0.904204
Si Si4 0.602146 0.550004 0.860775
Si Si5 0.807820 0.848978 0.305149
Si Si6 0.084843 0.491234 0.630982
Si Si7 0.952449 0.890389 0.641683
O O1 0.515022 0.153449 0.339774
O O2 0.195550 0.257760 0.215026
O O3 0.101574 0.101284 0.158315
O O4 0.176039 0.158875 0.335011
O O5 0.500000 0.500000 0.500000
O O6 0.743408 0.598403 0.697287
O O7 0.906591 0.535418 0.619815
O O8 0.877860 0.452929 0.743191
O O9 0.722084 0.472164 0.870578
O O10 0.887822 0.349305 0.868421
O O11 0.941278 0.371483 0.055176
O O12 0.634985 0.623204 0.811040
O O13 0.334852 0.526665 0.756488
O O14 0.742189 0.567984 0.004511
O O15 0.000000 0.500000 0.500000
#
# Coordination Sequence:
#
# PCOD9242159 Si02
#       7
#     4   4   4   4   4   4   4
#     4  10  25  38  61  93 131 157 203 268 310 366
#     4  11  22  36  64  88 123 166 205 251 313 381
#     4  10  20  40  69  85 119 163 210 259 298 376
#     4  10  19  39  71  86 114 162 219 255 297 375
#     4  11  21  41  60  93 122 159 205 263 321 351
#     4  10  23  40  62  92 124 166 211 252 308 380
#     4  10  20  41  63  93 114 163 215 248 301 375
#
# _framework density 18.354254999999998
#
# number of rings (size 3 to 8) (size 9 to 14) (size 15 to 20)
#    0.000    1.714    2.857    1.714    4.000    5.143 
#    7.714    0.000    0.000    0.000    0.000    0.000 
#    0.000    0.000    0.000    0.000    0.000    0.000 
#
# Total GULP energy -156004.220516 kJ/mol
# GULP energy per Si atom -5571.579304 kJ/mol
# Density = 1.831248 g / cm^3
# Si number density = 18.354255 Si / 1000 Ang^3
#
#
#
# Elastic Constant Matrix: (Units=GPa)
#
#
# Indices 1 2 3 4 5 6 
#
# 1 110.1922 33.0410 56.3761 0.0000 -4.6152 0.0000
# 2 33.0410 85.2987 27.5777 0.0000 -6.2255 0.0000
# 3 56.3761 27.5777 113.1440 0.0000 -7.9918 0.0000
# 4 0.0000 0.0000 0.0000 15.9203 0.0000 -9.4963
# 5 -4.6152 -6.2255 -7.9918 0.0000 30.8021 0.0000
# 6 0.0000 0.0000 0.0000 -9.4963 0.0000 16.6724
#
#
#
# Elastic Compliance Matrix: (Units=1/GPa)
#
#
# Indices 1 2 3 4 5 6 
#
# 1 0.012927 -0.003185 -0.005678 0.000000 -0.000180 0.000000
# 2 -0.003185 0.013610 -0.001599 0.000000 0.001859 0.000000
# 3 -0.005678 -0.001599 0.012198 0.000000 0.001991 0.000000
# 4 0.000000 0.000000 0.000000 0.095134 0.000000 0.054186
# 5 -0.000180 0.001859 0.001991 0.000000 0.033331 0.000000
# 6 0.000000 0.000000 0.000000 0.054186 0.000000 0.090843
#
#
# Mechanical properties :
#
#
# Convention : Reuss Voigt Hill
#
# Bulk Modulus (GPa) = 56.14344 60.29161 58.21752
# Shear Modulus (GPa) = 17.54984 25.45497 21.50240
#
# Velocity S-wave (km/s) = 3.09556 3.72811 3.42646
# Velocity P-wave (km/s) = 6.59028 7.17300 6.88781
#
# Compressibility (1/GPa) = 0.01781152
#
# Stress axis : x y z
#
# Youngs Moduli (GPa) = 77.35555 73.47614 81.98287
#
# Poissons Ratio (x) = 0.23402 0.46547
# Poissons Ratio (y) = 0.24638 0.13109
# Poissons Ratio (z) = 0.43920 0.11749
#
# Static dielectric constant tensor:
#      x y z
#    x 1.649510 0.000000 -0.051760 
#    y 0.000000 1.607300 0.000000 
#    z -0.051760 0.000000 1.577120 
# 
# From -- ./inp_files/41809.got.cif
#   From: 2010.05.17/outbox.cif.g08.bks.cpg/sg14_21_cif.got.tgz:41809.got - 2010.06.03 17:49:19.
