data_PCOD9242674
_publ_section_title
;
Structure prediction by ZEFSAII (Michael W. Deem and Ramdas Pophale) SiO2 
 PCOD9242674
Probable space group: P 21/C
;
_chemical_formula_sum "Si O2"
_cell_formula_units_Z 32
_cell_length_a 23.433788
_cell_length_b 12.737988
_cell_length_c 17.278490
_cell_angle_alpha 90.000000
_cell_angle_beta 19.328122
_cell_angle_gamma 90.000000
_cell_volume 1707.055764
_symmetry_space_group_name_H-M "P 21/C"
_symmetry_group_IT_number 14
_symmetry_cell_setting 'monoclinic'
loop_
_space_group_symop_operation_xyz
x,y,z
-x,1/2+y,1/2-z
-x,-y,-z
x,1/2-y,1/2+z
loop_
_atom_site_type_symbol
_atom_site_label
_atom_site_fract_x
_atom_site_fract_y
_atom_site_fract_z
Si Si1 0.911316 0.770679 0.002450
Si Si2 0.964092 0.030923 0.246228
Si Si3 0.267487 0.602896 0.297964
Si Si4 0.420989 0.549618 0.482685
Si Si5 0.771695 0.549592 0.131976
Si Si6 0.261162 0.770722 0.652608
Si Si7 0.398373 0.102954 0.536183
Si Si8 0.615270 0.469123 0.095044
O O1 0.080135 0.764327 0.839744
O O2 0.865192 0.659757 0.024882
O O3 0.748717 0.811541 0.260572
O O4 0.949143 0.859214 0.888958
O O5 0.889508 0.024670 0.427791
O O6 0.802474 0.016232 0.395053
O O7 0.100175 0.937996 0.056964
O O8 0.232675 0.688402 0.276626
O O9 0.335137 0.499979 0.164863
O O10 0.419517 0.637255 0.160955
O O11 0.593659 0.566934 0.312696
O O12 0.280205 0.500027 0.719800
O O13 0.354712 0.659814 0.535388
O O14 0.475887 0.475393 0.341404
O O15 0.374664 0.859261 0.463449
O O16 0.414423 0.062050 0.428450
#
# Coordination Sequence:
#
# PCOD9242674 Si02
#       8
#     4   4   4   4   4   4   4   4
#     4  10  20  35  56  82 112 146 184 228 278 328
#     4   9  19  36  56  79 109 145 185 229 276 327
#     4   9  17  31  54  82 108 137 178 226 273 324
#     4  10  22  39  56  78 112 150 185 224 273 328
#     4  10  22  39  56  78 112 150 185 224 273 328
#     4  10  20  35  56  82 112 146 184 228 278 328
#     4   9  17  31  54  82 108 137 178 226 273 324
#     4   9  19  36  56  79 109 145 185 229 276 327
#
# _framework density 18.745726000000001
#
# number of rings (size 3 to 8) (size 9 to 14) (size 15 to 20)
#    0.000    2.500    0.000    1.500    0.000    7.500 
#    0.000    2.500    0.000    0.000    0.000    0.000 
#    0.000    0.000    0.000    0.000    0.000    0.000 
#
# Total GULP energy -178569.893384 kJ/mol
# GULP energy per Si atom -5580.309168 kJ/mol
# Density = 1.870306 g / cm^3
# Si number density = 18.745726 Si / 1000 Ang^3
#
#
#
# Elastic Constant Matrix: (Units=GPa)
#
#
# Indices 1 2 3 4 5 6 
#
# 1 84.1354 44.2675 52.1101 0.0000 24.4303 0.0000
# 2 44.2675 86.1973 46.0161 0.0000 4.6885 0.0000
# 3 52.1101 46.0161 102.5005 0.0000 25.2777 0.0000
# 4 0.0000 0.0000 0.0000 25.0298 0.0000 -5.7724
# 5 24.4303 4.6885 25.2777 0.0000 22.7988 0.0000
# 6 0.0000 0.0000 0.0000 -5.7724 0.0000 27.1660
#
#
#
# Elastic Compliance Matrix: (Units=1/GPa)
#
#
# Indices 1 2 3 4 5 6 
#
# 1 0.025522 -0.010365 -0.002895 0.000000 -0.022008 0.000000
# 2 -0.010365 0.020117 -0.007543 0.000000 0.015333 0.000000
# 3 -0.002895 -0.007543 0.018534 0.000000 -0.015896 0.000000
# 4 0.000000 0.000000 0.000000 0.042011 0.000000 0.008927
# 5 -0.022008 0.015333 -0.015896 0.000000 0.081916 0.000000
# 6 0.000000 0.000000 0.000000 0.008927 0.000000 0.038708
#
#
# Mechanical properties :
#
#
# Convention : Reuss Voigt Hill
#
# Bulk Modulus (GPa) = 44.31015 61.95785 53.13400
# Shear Modulus (GPa) = 18.12012 23.69489 20.90751
#
# Velocity S-wave (km/s) = 3.11244 3.55916 3.34327
# Velocity P-wave (km/s) = 6.05022 7.07203 6.58098
#
# Compressibility (1/GPa) = 0.02256819
#
# Stress axis : x y z
#
# Youngs Moduli (GPa) = 39.18154 49.70894 53.95402
#
# Poissons Ratio (x) = 0.51522 0.15619
# Poissons Ratio (y) = 0.40611 0.40698
# Poissons Ratio (z) = 0.11342 0.37496
#
# Static dielectric constant tensor:
#      x y z
#    x 1.639800 0.000000 0.012830 
#    y 0.000000 1.637750 0.000000 
#    z 0.012830 0.000000 1.644430 
# 
# From -- ./inp_files/61999.got.cif
#   From: 2010.05.17/outbox.cif.g08.bks.cpg/sg14_31_cif.got.tgz:61999.got - 2010.06.03 17:49:19.
