data_PCOD9242582
_publ_section_title
;
Structure prediction by ZEFSAII (Michael W. Deem and Ramdas Pophale) SiO2 
 PCOD9242582
Probable space group: P 21/C
;
_chemical_formula_sum "Si O2"
_cell_formula_units_Z 24
_cell_length_a 10.620264
_cell_length_b 9.669927
_cell_length_c 13.528647
_cell_angle_alpha 90.000000
_cell_angle_beta 37.162664
_cell_angle_gamma 90.000000
_cell_volume 839.280797
_symmetry_space_group_name_H-M "P 21/C"
_symmetry_group_IT_number 14
_symmetry_cell_setting 'monoclinic'
loop_
_space_group_symop_operation_xyz
x,y,z
-x,1/2+y,1/2-z
-x,-y,-z
x,1/2-y,1/2+z
loop_
_atom_site_type_symbol
_atom_site_label
_atom_site_fract_x
_atom_site_fract_y
_atom_site_fract_z
Si Si1 0.227853 0.403141 0.234947
Si Si2 0.750155 0.041251 0.760049
Si Si3 0.295995 0.589099 0.023930
Si Si4 0.655318 0.660574 0.145924
Si Si5 0.281890 0.352563 0.556886
Si Si6 0.170096 0.779633 0.940661
O O1 0.455873 0.386449 0.139886
O O2 0.026152 0.378660 0.426608
O O3 0.237590 0.550403 0.171896
O O4 0.233364 0.284324 0.148513
O O5 0.709233 0.901876 0.719960
O O6 0.139648 0.842384 0.377580
O O7 0.525757 0.111484 0.916597
O O8 0.825286 0.982775 0.819762
O O9 0.255264 0.461169 0.977918
O O10 0.185248 0.714332 0.041115
O O11 0.735782 0.803721 0.045837
O O12 0.403813 0.660099 0.285246
#
# Coordination Sequence:
#
# PCOD9242582 Si02
#       6
#     4   4   4   4   4   4
#     4  10  20  35  58  84 118 161 205 253 315 376
#     4   9  18  34  56  82 117 158 204 256 311 371
#     4   9  20  38  56  82 121 159 201 257 312 370
#     4   9  18  34  57  82 115 158 202 251 312 372
#     4   9  18  33  54  81 116 157 197 253 320 366
#     4  10  20  34  57  86 115 156 211 256 306 377
#
# _framework density 28.59591
#
# number of rings (size 3 to 8) (size 9 to 14) (size 15 to 20)
#    0.000    2.667    0.000    1.000    0.000    2.667 
#    0.000    0.000    0.000   36.000    0.000    0.000 
#    0.000    0.000    0.000    0.000    0.000    0.000 
#
# Total GULP energy -134306.297234 kJ/mol
# GULP energy per Si atom -5596.095718 kJ/mol
# Density = 2.853082 g / cm^3
# Si number density = 28.595910 Si / 1000 Ang^3
#
#
#
# Elastic Constant Matrix: (Units=GPa)
#
#
# Indices 1 2 3 4 5 6 
#
# 1 100.6933 51.2377 69.4804 0.0000 5.8510 0.0000
# 2 51.2377 119.3893 73.4923 0.0000 23.0978 0.0000
# 3 69.4804 73.4923 169.7674 0.0000 6.3761 0.0000
# 4 0.0000 0.0000 0.0000 55.2556 0.0000 11.4725
# 5 5.8510 23.0978 6.3761 0.0000 35.9798 0.0000
# 6 0.0000 0.0000 0.0000 11.4725 0.0000 40.9332
#
#
#
# Elastic Compliance Matrix: (Units=1/GPa)
#
#
# Indices 1 2 3 4 5 6 
#
# 1 0.014913 -0.003790 -0.004493 0.000000 0.000804 0.000000
# 2 -0.003790 0.014121 -0.004273 0.000000 -0.007692 0.000000
# 3 -0.004493 -0.004273 0.009512 0.000000 0.001788 0.000000
# 4 0.000000 0.000000 0.000000 0.019216 0.000000 -0.005386
# 5 0.000804 -0.007692 0.001788 0.000000 0.032283 0.000000
# 6 0.000000 0.000000 0.000000 -0.005386 0.000000 0.025939
#
#
# Mechanical properties :
#
#
# Convention : Reuss Voigt Hill
#
# Bulk Modulus (GPa) = 74.43789 86.47454 80.45622
# Shear Modulus (GPa) = 34.34663 39.47636 36.91150
#
# Velocity S-wave (km/s) = 3.46945 3.71952 3.59666
# Velocity P-wave (km/s) = 6.49130 6.98229 6.74126
#
# Compressibility (1/GPa) = 0.01343402
#
# Stress axis : x y z
#
# Youngs Moduli (GPa) = 67.05436 70.81740 105.13222
#
# Poissons Ratio (x) = 0.26840 0.47236
# Poissons Ratio (y) = 0.25414 0.44922
# Poissons Ratio (z) = 0.30128 0.30259
#
# Static dielectric constant tensor:
#      x y z
#    x 2.245450 0.000000 0.043160 
#    y 0.000000 2.226970 0.000000 
#    z 0.043160 0.000000 2.247210 
# 
# From -- ./inp_files/57663.got.cif
#   From: 2010.05.17/outbox.cif.g08.bks.cpg/sg14_29_cif.got.tgz:57663.got - 2010.06.03 17:49:19.
