data_PCOD9242691
_publ_section_title
;
Structure prediction by ZEFSAII (Michael W. Deem and Ramdas Pophale) SiO2 
 PCOD9242691
Probable space group: P 21/C
;
_chemical_formula_sum "Si O2"
_cell_formula_units_Z 28
_cell_length_a 25.285873
_cell_length_b 10.038779
_cell_length_c 8.323304
_cell_angle_alpha 90.000000
_cell_angle_beta 136.626547
_cell_angle_gamma 90.000000
_cell_volume 1450.954426
_symmetry_space_group_name_H-M "P 21/C"
_symmetry_group_IT_number 14
_symmetry_cell_setting 'monoclinic'
loop_
_space_group_symop_operation_xyz
x,y,z
-x,1/2+y,1/2-z
-x,-y,-z
x,1/2-y,1/2+z
loop_
_atom_site_type_symbol
_atom_site_label
_atom_site_fract_x
_atom_site_fract_y
_atom_site_fract_z
Si Si1 0.080344 0.437901 0.118668
Si Si2 0.357036 0.586781 0.931288
Si Si3 0.531686 0.894388 0.198169
Si Si4 0.890099 0.107207 0.824362
Si Si5 0.819961 0.150209 0.012839
Si Si6 0.553647 0.182715 0.676817
Si Si7 0.932789 0.661517 0.273335
O O1 0.144334 0.551753 0.275308
O O2 0.097940 0.309141 0.266224
O O3 0.071828 0.384741 0.920072
O O4 0.000000 0.500000 0.000000
O O5 0.266945 0.611300 0.717752
O O6 0.395927 0.604417 0.841807
O O7 0.384182 0.446002 0.065910
O O8 0.393888 0.701657 0.126494
O O9 0.481286 0.896368 0.250117
O O10 0.515404 0.753523 0.076629
O O11 0.500000 0.000000 0.000000
O O12 0.871251 0.128233 0.968224
O O13 0.831053 0.198733 0.595598
O O14 0.889953 0.952088 0.780346
O O15 0.976749 0.158276 0.978016
#
# Coordination Sequence:
#
# PCOD9242691 Si02
#       7
#     4   4   4   4   4   4   4
#     4  12  23  39  60  83 115 155 200 244 294 355
#     4  10  20  35  56  88 119 148 188 242 294 343
#     4   9  18  34  58  85 112 153 194 232 282 353
#     4  11  22  37  60  84 113 150 197 246 299 348
#     4  12  23  37  59  90 121 154 194 252 305 350
#     4   9  18  35  59  84 116 152 193 233 282 353
#     4  11  23  39  60  83 109 151 204 250 287 349
#
# _framework density 19.297642
#
# number of rings (size 3 to 8) (size 9 to 14) (size 15 to 20)
#    0.000    1.429    2.857    3.000    2.000    0.000 
#    0.000    2.857    0.000    3.429    0.000    0.000 
#    0.000    0.000    0.000    0.000    0.000    0.000 
#
# Total GULP energy -156348.964159 kJ/mol
# GULP energy per Si atom -5583.891577 kJ/mol
# Density = 1.925372 g / cm^3
# Si number density = 19.297642 Si / 1000 Ang^3
#
#
#
# Elastic Constant Matrix: (Units=GPa)
#
#
# Indices 1 2 3 4 5 6 
#
# 1 43.6586 20.7691 18.8150 0.0000 -17.4252 0.0000
# 2 20.7691 73.7312 21.6346 0.0000 5.4456 0.0000
# 3 18.8150 21.6346 91.6696 0.0000 14.1492 0.0000
# 4 0.0000 0.0000 0.0000 38.1444 0.0000 -5.6910
# 5 -17.4252 5.4456 14.1492 0.0000 41.0671 0.0000
# 6 0.0000 0.0000 0.0000 -5.6910 0.0000 25.9148
#
#
#
# Elastic Compliance Matrix: (Units=1/GPa)
#
#
# Indices 1 2 3 4 5 6 
#
# 1 0.040431 -0.010286 -0.009219 0.000000 0.021696 0.000000
# 2 -0.010286 0.017213 -0.000977 0.000000 -0.006310 0.000000
# 3 -0.009219 -0.000977 0.014380 0.000000 -0.008737 0.000000
# 4 0.000000 0.000000 0.000000 0.027104 0.000000 0.005952
# 5 0.021696 -0.006310 -0.008737 0.000000 0.037403 0.000000
# 6 0.000000 0.000000 0.000000 0.005952 0.000000 0.039895
#
#
# Mechanical properties :
#
#
# Convention : Reuss Voigt Hill
#
# Bulk Modulus (GPa) = 32.19721 36.83295 34.51508
# Shear Modulus (GPa) = 21.95446 30.88131 26.41789
#
# Velocity S-wave (km/s) = 3.37660 4.00467 3.70397
# Velocity P-wave (km/s) = 5.65002 6.36485 6.01806
#
# Compressibility (1/GPa) = 0.03105859
#
# Stress axis : x y z
#
# Youngs Moduli (GPa) = 24.73372 58.09575 69.54010
#
# Poissons Ratio (x) = 0.59757 0.64112
# Poissons Ratio (y) = 0.25441 0.06796
# Poissons Ratio (z) = 0.22803 0.05677
#
# Static dielectric constant tensor:
#      x y z
#    x 1.654090 0.000000 -0.023310 
#    y 0.000000 1.710070 0.000000 
#    z -0.023310 0.000000 1.679400 
# 
# From -- ./inp_files/17550.got.cif
#   From: 2010.05.17/outbox.cif.g08.bks.cpg/sg14_9_cif.got.tgz:17550.got - 2010.06.03 17:49:19.
