data_PCOD9242571
_publ_section_title
;
Structure prediction by ZEFSAII (Michael W. Deem and Ramdas Pophale) SiO2 
 PCOD9242571
Probable space group: P 21/C
;
_chemical_formula_sum "Si O2"
_cell_formula_units_Z 20
_cell_length_a 7.784420
_cell_length_b 10.072129
_cell_length_c 13.189081
_cell_angle_alpha 90.000000
_cell_angle_beta 47.703418
_cell_angle_gamma 90.000000
_cell_volume 764.893216
_symmetry_space_group_name_H-M "P 21/C"
_symmetry_group_IT_number 14
_symmetry_cell_setting 'monoclinic'
loop_
_space_group_symop_operation_xyz
x,y,z
-x,1/2+y,1/2-z
-x,-y,-z
x,1/2-y,1/2+z
loop_
_atom_site_type_symbol
_atom_site_label
_atom_site_fract_x
_atom_site_fract_y
_atom_site_fract_z
Si Si1 0.113192 0.832290 0.938542
Si Si2 0.173360 0.571982 0.772695
Si Si3 0.139647 0.192363 0.758536
Si Si4 0.392873 0.156701 0.299003
Si Si5 0.671830 0.843386 0.002818
O O1 0.142754 0.699762 0.857462
O O2 0.357298 0.900364 0.822879
O O3 0.061209 0.795506 0.075753
O O4 0.890833 0.904178 0.976905
O O5 0.961204 0.580013 0.776435
O O6 0.205074 0.447381 0.833981
O O7 0.418745 0.590198 0.613692
O O8 0.360232 0.206029 0.746689
O O9 0.221183 0.308419 0.648476
O O10 0.368023 0.202201 0.423529
#
# Coordination Sequence:
#
# PCOD9242571 Si02
#       5
#     4   4   4   4   4
#     4   9  20  37  58  84 115 145 187 234 277 334
#     4  10  21  39  60  82 114 152 186 229 283 333
#     4  10  20  34  56  86 114 144 188 232 272 330
#     4  10  21  39  60  82 114 152 186 229 283 333
#     4   9  20  37  58  84 115 145 187 234 277 334
#
# _framework density 26.147441000000001
#
# number of rings (size 3 to 8) (size 9 to 14) (size 15 to 20)
#    0.000    2.400    0.000    1.200    0.000   11.200 
#    0.000   16.000    0.000   31.200    0.000    0.000 
#    0.000    0.000    0.000    0.000    0.000    0.000 
#
# Total GULP energy -111491.124671 kJ/mol
# GULP energy per Si atom -5574.556234 kJ/mol
# Density = 2.608793 g / cm^3
# Si number density = 26.147441 Si / 1000 Ang^3
#
#
#
# Elastic Constant Matrix: (Units=GPa)
#
#
# Indices 1 2 3 4 5 6 
#
# 1 64.6424 5.0947 23.1520 0.0000 -15.5776 0.0000
# 2 5.0947 83.0749 19.2901 0.0000 2.0222 0.0000
# 3 23.1520 19.2901 142.6852 0.0000 11.0514 0.0000
# 4 0.0000 0.0000 0.0000 42.1151 0.0000 -0.1830
# 5 -15.5776 2.0222 11.0514 0.0000 56.3220 0.0000
# 6 0.0000 0.0000 0.0000 -0.1830 0.0000 43.0642
#
#
#
# Elastic Compliance Matrix: (Units=1/GPa)
#
#
# Indices 1 2 3 4 5 6 
#
# 1 0.018054 -0.000478 -0.003303 0.000000 0.005659 0.000000
# 2 -0.000478 0.012441 -0.001584 0.000000 -0.000268 0.000000
# 3 -0.003303 -0.001584 0.007946 0.000000 -0.002416 0.000000
# 4 0.000000 0.000000 0.000000 0.023745 0.000000 0.000101
# 5 0.005659 -0.000268 -0.002416 0.000000 0.019804 0.000000
# 6 0.000000 0.000000 0.000000 0.000101 0.000000 0.023222
#
#
# Mechanical properties :
#
#
# Convention : Reuss Voigt Hill
#
# Bulk Modulus (GPa) = 36.08647 42.83067 39.45857
# Shear Modulus (GPa) = 39.94340 44.49132 42.21736
#
# Velocity S-wave (km/s) = 3.91272 4.12947 4.02255
# Velocity P-wave (km/s) = 5.85180 6.25721 6.05790
#
# Compressibility (1/GPa) = 0.02771122
#
# Stress axis : x y z
#
# Youngs Moduli (GPa) = 55.38923 80.38017 125.85586
#
# Poissons Ratio (x) = 0.03842 0.41571
# Poissons Ratio (y) = 0.02647 0.19931
# Poissons Ratio (z) = 0.18296 0.12729
#
# Static dielectric constant tensor:
#      x y z
#    x 2.087990 0.000000 -0.009520 
#    y 0.000000 2.194070 0.000000 
#    z -0.009520 0.000000 2.032210 
# 
# From -- ./inp_files/23738.got.cif
#   From: 2010.05.17/outbox.cif.g08.bks.cpg/sg14_12_cif.got.tgz:23738.got - 2010.06.03 17:49:19.
