data_PCOD9242175
_publ_section_title
;
Structure prediction by ZEFSAII (Michael W. Deem and Ramdas Pophale) SiO2 
 PCOD9242175
Probable space group: P 21/C
;
_chemical_formula_sum "Si O2"
_cell_formula_units_Z 32
_cell_length_a 23.802124
_cell_length_b 7.166041
_cell_length_c 24.137506
_cell_angle_alpha 90.000000
_cell_angle_beta 17.608959
_cell_angle_gamma 90.000000
_cell_volume 1245.489168
_symmetry_space_group_name_H-M "P 21/C"
_symmetry_group_IT_number 14
_symmetry_cell_setting 'monoclinic'
loop_
_space_group_symop_operation_xyz
x,y,z
-x,1/2+y,1/2-z
-x,-y,-z
x,1/2-y,1/2+z
loop_
_atom_site_type_symbol
_atom_site_label
_atom_site_fract_x
_atom_site_fract_y
_atom_site_fract_z
Si Si1 0.167351 0.436598 0.194713
Si Si2 0.058555 0.741952 0.715077
Si Si3 0.159992 0.968423 0.515088
Si Si4 0.674678 0.128389 0.352264
Si Si5 0.487492 0.937634 0.684480
Si Si6 0.862329 0.482954 0.563686
Si Si7 0.450177 0.874077 0.848448
Si Si8 0.038251 0.895877 0.406528
O O1 0.071589 0.570208 0.239647
O O2 0.295716 0.566732 0.112946
O O3 0.027126 0.381160 0.375239
O O4 0.329984 0.330159 0.010020
O O5 0.231351 0.605205 0.568177
O O6 0.876575 0.644116 0.909416
O O7 0.088608 0.801530 0.622694
O O8 0.378687 0.992063 0.294222
O O9 0.032608 0.996773 0.581176
O O10 0.741009 0.344193 0.297266
O O11 0.500000 0.000000 0.500000
O O12 0.814901 0.073840 0.170544
O O13 0.453336 0.876850 0.779025
O O14 0.315388 0.924200 0.805208
O O15 0.515708 0.161582 0.664536
O O16 0.917973 0.702292 0.511703
O O17 0.000000 0.000000 0.500000
#
# Coordination Sequence:
#
# PCOD9242175 Si02
#       8
#     4   4   4   4   4   4   4   4
#     4  10  19  40  61  95 125 172 225 280 334 410
#     4  11  25  40  70  99 137 183 230 282 359 423
#     4  12  24  46  68  98 141 186 226 291 357 419
#     4  11  22  43  74  98 131 186 247 285 343 431
#     4  11  22  39  66  95 133 175 230 281 348 421
#     4  11  22  41  73  90 135 189 230 284 347 419
#     4  11  23  40  64 100 135 176 224 283 349 416
#     4  11  25  46  67 100 146 180 231 298 372 413
#
# _framework density 25.692716000000001
#
# number of rings (size 3 to 8) (size 9 to 14) (size 15 to 20)
#    0.000    1.000    7.500    1.500    3.500    1.000 
#    2.250    0.625    0.000    0.000    0.000    0.000 
#    0.000    0.000    0.000    0.000    0.000    0.000 
#
# Total GULP energy -178386.425980 kJ/mol
# GULP energy per Si atom -5574.575812 kJ/mol
# Density = 2.563424 g / cm^3
# Si number density = 25.692716 Si / 1000 Ang^3
#
#
#
# Elastic Constant Matrix: (Units=GPa)
#
#
# Indices 1 2 3 4 5 6 
#
# 1 165.4268 37.3711 28.8772 0.0000 24.3471 0.0000
# 2 37.3711 93.6883 25.0664 0.0000 -6.6265 0.0000
# 3 28.8772 25.0664 146.1038 0.0000 1.7242 0.0000
# 4 0.0000 0.0000 0.0000 33.6171 0.0000 6.9551
# 5 24.3471 -6.6265 1.7242 0.0000 39.9709 0.0000
# 6 0.0000 0.0000 0.0000 6.9551 0.0000 28.3011
#
#
#
# Elastic Compliance Matrix: (Units=1/GPa)
#
#
# Indices 1 2 3 4 5 6 
#
# 1 0.007685 -0.003187 -0.000911 0.000000 -0.005170 0.000000
# 2 -0.003187 0.012661 -0.001591 0.000000 0.004109 0.000000
# 3 -0.000911 -0.001591 0.007298 0.000000 -0.000024 0.000000
# 4 0.000000 0.000000 0.000000 0.031340 0.000000 -0.007702
# 5 -0.005170 0.004109 -0.000024 0.000000 0.028850 0.000000
# 6 0.000000 0.000000 0.000000 -0.007702 0.000000 0.037227
#
#
# Mechanical properties :
#
#
# Convention : Reuss Voigt Hill
#
# Bulk Modulus (GPa) = 61.47928 65.31647 63.39788
# Shear Modulus (GPa) = 35.24568 41.30477 38.27522
#
# Velocity S-wave (km/s) = 3.70782 4.01389 3.86389
# Velocity P-wave (km/s) = 6.50471 6.85268 6.68096
#
# Compressibility (1/GPa) = 0.01626564
#
# Stress axis : x y z
#
# Youngs Moduli (GPa) = 130.12377 78.98057 137.02915
#
# Poissons Ratio (x) = 0.25174 0.12484
# Poissons Ratio (y) = 0.41475 0.21798
# Poissons Ratio (z) = 0.11855 0.12564
#
# Static dielectric constant tensor:
#      x y z
#    x 2.034880 0.000000 -0.125600 
#    y 0.000000 2.190250 0.000000 
#    z -0.125600 0.000000 2.232210 
# 
# From -- ./inp_files/74914.got.cif
#   From: 2010.05.17/outbox.cif.g08.bks.cpg/sg14_38_cif.got.tgz:74914.got - 2010.06.03 17:49:19.
