data_PCOD9242693
_publ_section_title
;
Structure prediction by ZEFSAII (Michael W. Deem and Ramdas Pophale) SiO2 
 PCOD9242693
Probable space group: P 21/C
;
_chemical_formula_sum "Si O2"
_cell_formula_units_Z 24
_cell_length_a 16.963449
_cell_length_b 5.116782
_cell_length_c 18.686095
_cell_angle_alpha 90.000000
_cell_angle_beta 143.478155
_cell_angle_gamma 90.000000
_cell_volume 965.252431
_symmetry_space_group_name_H-M "P 21/C"
_symmetry_group_IT_number 14
_symmetry_cell_setting 'monoclinic'
loop_
_space_group_symop_operation_xyz
x,y,z
-x,1/2+y,1/2-z
-x,-y,-z
x,1/2-y,1/2+z
loop_
_atom_site_type_symbol
_atom_site_label
_atom_site_fract_x
_atom_site_fract_y
_atom_site_fract_z
Si Si1 0.089716 0.491210 0.234831
Si Si2 0.940751 0.998810 0.117490
Si Si3 0.686518 0.187891 0.441378
Si Si4 0.317618 0.128025 0.421358
Si Si5 0.617967 0.669726 0.759296
Si Si6 0.629713 0.325723 0.179520
O O1 0.210469 0.586432 0.504235
O O2 0.024204 0.241458 0.150029
O O3 0.049589 0.495097 0.289185
O O4 0.242557 0.399427 0.352798
O O5 0.015150 0.738799 0.146891
O O6 0.542403 0.314478 0.349964
O O7 0.733847 0.032301 0.547107
O O8 0.670505 0.964606 0.369618
O O9 0.472102 0.175617 0.548556
O O10 0.304823 0.939979 0.343763
O O11 0.660571 0.462539 0.729464
O O12 0.654317 0.959071 0.759404
#
# Coordination Sequence:
#
# PCOD9242693 Si02
#       6
#     4   4   4   4   4   4
#     4  10  20  35  56  89 124 160 206 270 326 372
#     4  10  21  34  56  89 125 158 207 270 326 369
#     4  11  22  40  67  96 130 174 221 272 328 395
#     4  10  21  39  66  93 128 171 220 268 328 393
#     4  11  24  40  61  94 134 170 211 263 332 396
#     4  10  24  40  60  95 133 172 211 266 332 398
#
# _framework density 24.863962999999998
#
# number of rings (size 3 to 8) (size 9 to 14) (size 15 to 20)
#    0.000    1.667    0.000    6.000    0.000   15.333 
#    0.000    0.000    0.000    6.000    0.000    0.000 
#    0.000   10.667    0.000    0.000    0.000    0.000 
#
# Total GULP energy -134221.154084 kJ/mol
# GULP energy per Si atom -5592.548087 kJ/mol
# Density = 2.480737 g / cm^3
# Si number density = 24.863963 Si / 1000 Ang^3
#
#
#
# Elastic Constant Matrix: (Units=GPa)
#
#
# Indices 1 2 3 4 5 6 
#
# 1 62.2078 44.7178 59.0882 0.0000 -2.8680 0.0000
# 2 44.7178 200.8584 54.9934 0.0000 16.5719 0.0000
# 3 59.0882 54.9934 88.5459 0.0000 -7.6501 0.0000
# 4 0.0000 0.0000 0.0000 41.4557 0.0000 9.3926
# 5 -2.8680 16.5719 -7.6501 0.0000 21.1725 0.0000
# 6 0.0000 0.0000 0.0000 9.3926 0.0000 33.7450
#
#
#
# Elastic Compliance Matrix: (Units=1/GPa)
#
#
# Indices 1 2 3 4 5 6 
#
# 1 0.044825 -0.001766 -0.029079 0.000000 -0.003053 0.000000
# 2 -0.001766 0.006988 -0.003773 0.000000 -0.007072 0.000000
# 3 -0.029079 -0.003773 0.034019 0.000000 0.011306 0.000000
# 4 0.000000 0.000000 0.000000 0.025746 0.000000 -0.007166
# 5 -0.003053 -0.007072 0.011306 0.000000 0.056438 0.000000
# 6 0.000000 0.000000 0.000000 -0.007166 0.000000 0.031629
#
#
# Mechanical properties :
#
#
# Convention : Reuss Voigt Hill
#
# Bulk Modulus (GPa) = 60.25689 74.35677 67.30683
# Shear Modulus (GPa) = 18.22072 32.12880 25.17476
#
# Velocity S-wave (km/s) = 2.71000 3.59860 3.18543
# Velocity P-wave (km/s) = 5.83775 6.87291 6.37637
#
# Compressibility (1/GPa) = 0.01659561
#
# Stress axis : x y z
#
# Youngs Moduli (GPa) = 22.30898 143.09743 29.39552
#
# Poissons Ratio (x) = 0.25270 0.85481
# Poissons Ratio (y) = 0.03940 0.11090
# Poissons Ratio (z) = 0.64873 0.53988
#
# Static dielectric constant tensor:
#      x y z
#    x 2.001910 0.000000 0.024790 
#    y 0.000000 1.994510 0.000000 
#    z 0.024790 0.000000 1.996630 
# 
# From -- ./inp_files/60903.got.cif
#   From: 2010.05.17/outbox.cif.g08.bks.cpg/sg14_31_cif.got.tgz:60903.got - 2010.06.03 17:49:19.
