data_PCOD9242783
_publ_section_title
;
Structure prediction by ZEFSAII (Michael W. Deem and Ramdas Pophale) SiO2 
 PCOD9242783
Probable space group: P 21/C
;
_chemical_formula_sum "Si O2"
_cell_formula_units_Z 32
_cell_length_a 12.287994
_cell_length_b 8.307980
_cell_length_c 32.856346
_cell_angle_alpha 90.000000
_cell_angle_beta 152.462557
_cell_angle_gamma 90.000000
_cell_volume 1550.765252
_symmetry_space_group_name_H-M "P 21/C"
_symmetry_group_IT_number 14
_symmetry_cell_setting 'monoclinic'
loop_
_space_group_symop_operation_xyz
x,y,z
-x,1/2+y,1/2-z
-x,-y,-z
x,1/2-y,1/2+z
loop_
_atom_site_type_symbol
_atom_site_label
_atom_site_fract_x
_atom_site_fract_y
_atom_site_fract_z
Si Si1 0.976479 0.852452 0.163150
Si Si2 0.505282 0.806927 0.220156
Si Si3 0.205864 0.961509 0.736281
Si Si4 0.317092 0.228192 0.079193
Si Si5 0.257817 0.172479 0.828908
Si Si6 0.560625 0.945724 0.668912
Si Si7 0.258642 0.500827 0.487190
Si Si8 0.189397 0.388794 0.619526
O O1 0.911210 0.822868 0.188474
O O2 0.783509 0.943659 0.072566
O O3 0.025600 0.673852 0.162832
O O4 0.211326 0.960235 0.238183
O O5 0.463970 0.674426 0.171444
O O6 0.602898 0.720063 0.292380
O O7 0.715649 0.918075 0.272700
O O8 0.290125 0.929099 0.154073
O O9 0.439781 0.864285 0.828031
O O10 0.139881 0.068615 0.753548
O O11 0.373244 0.416525 0.096115
O O12 0.148334 0.174529 0.060236
O O13 0.244255 0.152732 0.012419
O O14 0.343579 0.338718 0.836806
O O15 0.494019 0.084513 0.922549
O O16 0.045264 0.614410 0.431528
#
# Coordination Sequence:
#
# PCOD9242783 Si02
#       8
#     4   4   4   4   4   4   4   4
#     4  11  20  38  64  86 116 159 203 245 292 343
#     4  10  20  35  60  91 112 146 198 252 283 354
#     4   8  19  36  59  85 115 148 198 241 285 346
#     4   9  20  38  57  82 121 155 186 237 298 354
#     4  10  21  39  61  87 121 157 196 245 301 351
#     4  10  20  40  61  91 115 155 204 245 287 357
#     4  11  23  39  56  89 124 157 191 247 299 355
#     4  11  21  37  62  86 120 156 195 237 306 351
#
# _framework density 20.634975000000001
#
# number of rings (size 3 to 8) (size 9 to 14) (size 15 to 20)
#    0.000    2.000    1.250    3.000    3.500    0.000 
#    2.250    1.875    0.000    0.000    0.000    0.000 
#    0.000    0.000    0.000    0.000    0.000    0.000 
#
# Total GULP energy -178697.197431 kJ/mol
# GULP energy per Si atom -5584.287420 kJ/mol
# Density = 2.058801 g / cm^3
# Si number density = 20.634975 Si / 1000 Ang^3
#
#
#
# Elastic Constant Matrix: (Units=GPa)
#
#
# Indices 1 2 3 4 5 6 
#
# 1 39.8805 4.8748 -10.7240 0.0000 -9.5872 0.0000
# 2 4.8748 105.0147 14.2615 0.0000 -3.5815 0.0000
# 3 -10.7240 14.2615 36.6525 0.0000 -3.8183 0.0000
# 4 0.0000 0.0000 0.0000 15.5921 0.0000 -4.9705
# 5 -9.5872 -3.5815 -3.8183 0.0000 23.4086 0.0000
# 6 0.0000 0.0000 0.0000 -4.9705 0.0000 20.8914
#
#
#
# Elastic Compliance Matrix: (Units=1/GPa)
#
#
# Indices 1 2 3 4 5 6 
#
# 1 0.032147 -0.002614 0.011956 0.000000 0.014716 0.000000
# 2 -0.002614 0.010286 -0.004796 0.000000 -0.000279 0.000000
# 3 0.011956 -0.004796 0.033653 0.000000 0.009652 0.000000
# 4 0.000000 0.000000 0.000000 0.069399 0.000000 0.016511
# 5 0.014716 -0.000279 0.009652 0.000000 0.050278 0.000000
# 6 0.000000 0.000000 0.000000 0.016511 0.000000 0.051795
#
#
# Mechanical properties :
#
#
# Convention : Reuss Voigt Hill
#
# Bulk Modulus (GPa) = 11.74015 22.04138 16.89077
# Shear Modulus (GPa) = 18.73651 23.52077 21.12864
#
# Velocity S-wave (km/s) = 3.01657 3.37983 3.20335
# Velocity P-wave (km/s) = 4.22312 5.09271 4.67816
#
# Compressibility (1/GPa) = 0.08517780
#
# Stress axis : x y z
#
# Youngs Moduli (GPa) = 31.10681 97.22299 29.71494
#
# Poissons Ratio (x) = 0.25415 -0.35527
# Poissons Ratio (y) = 0.08132 0.14252
# Poissons Ratio (z) = -0.37191 0.46629
#
# Static dielectric constant tensor:
#      x y z
#    x 1.751140 0.000000 0.002350 
#    y 0.000000 1.738520 0.000000 
#    z 0.002350 0.000000 1.706460 
# 
# From -- ./inp_files/79963.got.cif
#   From: 2010.05.17/outbox.cif.g08.bks.cpg/sg14_40_cif.got.tgz:79963.got - 2010.06.03 17:49:19.
