data_PCOD9242755
_publ_section_title
;
Structure prediction by ZEFSAII (Michael W. Deem and Ramdas Pophale) SiO2 
 PCOD9242755
Probable space group: P 21/C
;
_chemical_formula_sum "Si O2"
_cell_formula_units_Z 32
_cell_length_a 20.438786
_cell_length_b 13.815076
_cell_length_c 7.925799
_cell_angle_alpha 90.000000
_cell_angle_beta 36.998170
_cell_angle_gamma 90.000000
_cell_volume 1346.778100
_symmetry_space_group_name_H-M "P 21/C"
_symmetry_group_IT_number 14
_symmetry_cell_setting 'monoclinic'
loop_
_space_group_symop_operation_xyz
x,y,z
-x,1/2+y,1/2-z
-x,-y,-z
x,1/2-y,1/2+z
loop_
_atom_site_type_symbol
_atom_site_label
_atom_site_fract_x
_atom_site_fract_y
_atom_site_fract_z
Si Si1 0.790280 0.569277 0.076901
Si Si2 0.702019 0.747609 0.421659
Si Si3 0.922060 0.850000 0.911569
Si Si4 0.574953 0.117477 0.721619
Si Si5 0.009897 0.660035 0.585338
Si Si6 0.599950 0.037788 0.036846
Si Si7 0.200247 0.533972 0.306549
Si Si8 0.457490 0.321194 0.970294
O O1 0.724322 0.670358 0.225469
O O2 0.720314 0.497003 0.334350
O O3 0.912089 0.597863 0.870449
O O4 0.788470 0.520606 0.897839
O O5 0.821425 0.789595 0.202597
O O6 0.621754 0.832536 0.527991
O O7 0.630498 0.690029 0.702471
O O8 0.002814 0.868785 0.902179
O O9 0.864593 0.947793 0.959715
O O10 0.980944 0.773425 0.667816
O O11 0.681256 0.078697 0.402308
O O12 0.530752 0.226017 0.790704
O O13 0.475232 0.049498 0.873112
O O14 0.602743 0.105604 0.863793
O O15 0.119685 0.624115 0.443423
O O16 0.539321 0.091459 0.311247
#
# Coordination Sequence:
#
# PCOD9242755 Si02
#       8
#     4   4   4   4   4   4   4   4
#     4   9  18  35  57  82 112 146 203 234 286 339
#     4  11  21  34  59  89 120 154 197 250 283 355
#     4  10  20  37  63  89 113 150 205 247 292 345
#     4  10  21  37  56  86 120 160 198 232 304 361
#     4  10  21  39  63  91 111 153 200 250 292 355
#     4  10  20  35  59  82 118 159 194 242 293 362
#     4  10  20  39  62  85 116 165 197 237 297 370
#     4  12  21  36  55  88 123 156 199 242 300 350
#
# _framework density 23.76041
#
# number of rings (size 3 to 8) (size 9 to 14) (size 15 to 20)
#    0.000    1.750    2.500    4.500    1.750    0.500 
#    6.750    0.625    0.000    3.000    0.000    0.000 
#    0.000    0.000    0.000    0.000    0.000    0.000 
#
# Total GULP energy -178526.661784 kJ/mol
# GULP energy per Si atom -5578.958181 kJ/mol
# Density = 2.370633 g / cm^3
# Si number density = 23.760410 Si / 1000 Ang^3
#
#
#
# Elastic Constant Matrix: (Units=GPa)
#
#
# Indices 1 2 3 4 5 6 
#
# 1 35.7979 2.0320 8.9665 0.0000 -15.0744 0.0000
# 2 2.0320 82.2650 13.7849 0.0000 -1.5224 0.0000
# 3 8.9665 13.7849 39.9103 0.0000 -12.9875 0.0000
# 4 0.0000 0.0000 0.0000 45.3682 0.0000 -5.1885
# 5 -15.0744 -1.5224 -12.9875 0.0000 23.4755 0.0000
# 6 0.0000 0.0000 0.0000 -5.1885 0.0000 18.9993
#
#
#
# Elastic Compliance Matrix: (Units=1/GPa)
#
#
# Indices 1 2 3 4 5 6 
#
# 1 0.038318 -0.000401 -0.000575 0.000000 0.024261 0.000000
# 2 -0.000401 0.012983 -0.005127 0.000000 -0.002252 0.000000
# 3 -0.000575 -0.005127 0.032596 0.000000 0.017332 0.000000
# 4 0.000000 0.000000 0.000000 0.022752 0.000000 0.006213
# 5 0.024261 -0.002252 0.017332 0.000000 0.067618 0.000000
# 6 0.000000 0.000000 0.000000 0.006213 0.000000 0.054330
#
#
# Mechanical properties :
#
#
# Convention : Reuss Voigt Hill
#
# Bulk Modulus (GPa) = 13.94894 23.05999 18.50446
# Shear Modulus (GPa) = 18.88917 26.44792 22.66854
#
# Velocity S-wave (km/s) = 2.82261 3.33995 3.09212
# Velocity P-wave (km/s) = 4.06278 4.95983 4.53355
#
# Compressibility (1/GPa) = 0.07169005
#
# Stress axis : x y z
#
# Youngs Moduli (GPa) = 26.09772 77.02260 30.67832
#
# Poissons Ratio (x) = 0.03090 0.01765
# Poissons Ratio (y) = 0.01047 0.15729
# Poissons Ratio (z) = 0.01501 0.39490
#
# Static dielectric constant tensor:
#      x y z
#    x 1.942560 0.000000 0.070850 
#    y 0.000000 1.948330 0.000000 
#    z 0.070850 0.000000 1.954920 
# 
# From -- ./inp_files/16272.got.cif
#   From: 2010.05.17/outbox.cif.g08.bks.cpg/sg14_9_cif.got.tgz:16272.got - 2010.06.03 17:49:19.
