data_PCOD9242432
_publ_section_title
;
Structure prediction by ZEFSAII (Michael W. Deem and Ramdas Pophale) SiO2 
 PCOD9242432
Probable space group: P 21/C
;
_chemical_formula_sum "Si O2"
_cell_formula_units_Z 24
_cell_length_a 18.981491
_cell_length_b 10.813820
_cell_length_c 13.808948
_cell_angle_alpha 90.000000
_cell_angle_beta 21.008817
_cell_angle_gamma 90.000000
_cell_volume 1016.186166
_symmetry_space_group_name_H-M "P 21/C"
_symmetry_group_IT_number 14
_symmetry_cell_setting 'monoclinic'
loop_
_space_group_symop_operation_xyz
x,y,z
-x,1/2+y,1/2-z
-x,-y,-z
x,1/2-y,1/2+z
loop_
_atom_site_type_symbol
_atom_site_label
_atom_site_fract_x
_atom_site_fract_y
_atom_site_fract_z
Si Si1 0.437165 0.218213 0.690351
Si Si2 0.084659 0.388922 0.107068
Si Si3 0.127280 0.835260 0.520526
Si Si4 0.788746 0.641926 0.327656
Si Si5 0.258906 0.625309 0.592854
Si Si6 0.501804 0.306093 0.904260
O O1 0.640223 0.265098 0.476472
O O2 0.463521 0.138133 0.559620
O O3 0.304859 0.336652 0.828056
O O4 0.315028 0.155397 0.932986
O O5 0.078732 0.534984 0.136473
O O6 0.969473 0.294962 0.324226
O O7 0.963040 0.367348 0.163924
O O8 0.353722 0.807693 0.250622
O O9 0.019712 0.854649 0.555849
O O10 0.719960 0.507078 0.382730
O O11 0.699229 0.752243 0.380929
O O12 0.389994 0.625517 0.323453
#
# Coordination Sequence:
#
# PCOD9242432 Si02
#       6
#     4   4   4   4   4   4
#     4  10  20  33  52  78 104 132 170 215 259 303
#     4   9  18  33  52  74 103 137 171 210 257 307
#     4   9  18  33  52  74 103 137 171 210 257 307
#     4   9  19  35  52  72 102 138 172 208 254 308
#     4   9  19  35  52  72 102 138 172 208 254 308
#     4  10  20  33  52  78 104 132 170 215 259 303
#
# _framework density 23.617719999999998
#
# number of rings (size 3 to 8) (size 9 to 14) (size 15 to 20)
#    0.000    2.667    0.000    1.000    0.000    4.667 
#    0.000    3.333    0.000    0.000    0.000   32.667 
#    0.000    0.000    0.000    0.000    0.000    0.000 
#
# Total GULP energy -133737.544569 kJ/mol
# GULP energy per Si atom -5572.397690 kJ/mol
# Density = 2.356396 g / cm^3
# Si number density = 23.617720 Si / 1000 Ang^3
#
#
#
# Elastic Constant Matrix: (Units=GPa)
#
#
# Indices 1 2 3 4 5 6 
#
# 1 80.9507 -5.7654 -0.0651 0.0000 6.0551 0.0000
# 2 -5.7654 31.4847 17.7146 0.0000 -6.0876 0.0000
# 3 -0.0651 17.7146 81.6584 0.0000 -18.4571 0.0000
# 4 0.0000 0.0000 0.0000 17.6791 0.0000 2.2850
# 5 6.0551 -6.0876 -18.4571 0.0000 47.5767 0.0000
# 6 0.0000 0.0000 0.0000 2.2850 0.0000 21.4702
#
#
#
# Elastic Compliance Matrix: (Units=1/GPa)
#
#
# Indices 1 2 3 4 5 6 
#
# 1 0.012654 0.002509 -0.000905 0.000000 -0.001641 0.000000
# 2 0.002509 0.036806 -0.007662 0.000000 0.001418 0.000000
# 3 -0.000905 -0.007662 0.015030 0.000000 0.004966 0.000000
# 4 0.000000 0.000000 0.000000 0.057353 0.000000 -0.006104
# 5 -0.001641 0.001418 0.004966 0.000000 0.023335 0.000000
# 6 0.000000 0.000000 0.000000 -0.006104 0.000000 0.047226
#
#
# Mechanical properties :
#
#
# Convention : Reuss Voigt Hill
#
# Bulk Modulus (GPa) = 19.09349 24.20690 21.65019
# Shear Modulus (GPa) = 22.52479 29.49252 26.00866
#
# Velocity S-wave (km/s) = 3.09159 3.53759 3.32209
# Velocity P-wave (km/s) = 4.56573 5.19209 4.88895
#
# Compressibility (1/GPa) = 0.05237387
#
# Stress axis : x y z
#
# Youngs Moduli (GPa) = 79.02714 27.16944 66.53370
#
# Poissons Ratio (x) = -0.06817 0.06022
# Poissons Ratio (y) = -0.19829 0.50979
# Poissons Ratio (z) = 0.07152 0.20818
#
# Static dielectric constant tensor:
#      x y z
#    x 1.970440 0.000000 0.130330 
#    y 0.000000 1.821050 0.000000 
#    z 0.130330 0.000000 2.051950 
# 
# From -- ./inp_files/39257.got.cif
#   From: 2010.05.17/outbox.cif.g08.bks.cpg/sg14_20_cif.got.tgz:39257.got - 2010.06.03 17:49:19.
