data_PCOD9242941
_publ_section_title
;
Structure prediction by ZEFSAII (Michael W. Deem and Ramdas Pophale) SiO2 
 PCOD9242941
Probable space group: P 21/C
;
_chemical_formula_sum "Si O2"
_cell_formula_units_Z 32
_cell_length_a 9.065508
_cell_length_b 14.174349
_cell_length_c 13.058866
_cell_angle_alpha 90.000000
_cell_angle_beta 96.426112
_cell_angle_gamma 90.000000
_cell_volume 1667.490848
_symmetry_space_group_name_H-M "P 21/C"
_symmetry_group_IT_number 14
_symmetry_cell_setting 'monoclinic'
loop_
_space_group_symop_operation_xyz
x,y,z
-x,1/2+y,1/2-z
-x,-y,-z
x,1/2-y,1/2+z
loop_
_atom_site_type_symbol
_atom_site_label
_atom_site_fract_x
_atom_site_fract_y
_atom_site_fract_z
Si Si1 0.815525 0.715286 0.308425
Si Si2 0.380703 0.636560 0.719564
Si Si3 0.444394 0.294882 0.874624
Si Si4 0.663443 0.063879 0.113924
Si Si5 0.699106 0.057704 0.338832
Si Si6 0.852235 0.291909 0.740766
Si Si7 0.321362 0.452942 0.587224
Si Si8 0.633988 0.631504 0.909568
O O1 0.702133 0.701645 0.205582
O O2 0.788734 0.626808 0.381984
O O3 0.758835 0.807015 0.363486
O O4 0.981352 0.722773 0.280762
O O5 0.473755 0.695664 0.641496
O O6 0.236671 0.698858 0.734896
O O7 0.334772 0.536342 0.671192
O O8 0.487223 0.629831 0.826567
O O9 0.558457 0.374288 0.843110
O O10 0.406867 0.319667 0.987444
O O11 0.681821 0.010594 0.224541
O O12 0.758710 0.157578 0.141984
O O13 0.489383 0.086946 0.088502
O O14 0.716057 0.001624 0.023593
O O15 0.834612 0.130450 0.331447
O O16 0.693745 0.975782 0.421208
#
# Coordination Sequence:
#
# PCOD9242941 Si02
#       8
#     4   4   4   4   4   4   4   4
#     4  11  23  38  50  84 122 145 180 232 274 346
#     4  10  20  36  58  85 106 146 186 237 274 326
#     4  10  21  35  59  81 108 145 188 236 281 316
#     4   9  19  36  60  82 108 141 189 236 273 320
#     4   9  18  40  56  80 106 144 189 236 271 320
#     4   9  21  40  53  78 124 143 175 231 282 333
#     4  11  20  34  62  85 108 143 192 230 283 319
#     4  11  21  35  61  82 108 145 195 232 277 323
#
# _framework density 19.190508999999999
#
# number of rings (size 3 to 8) (size 9 to 14) (size 15 to 20)
#    0.750    1.250    2.500    1.125    5.250    1.500 
#    2.250    0.625    0.000    0.000    0.000    0.000 
#    0.000    0.000    0.000    0.000    0.000    0.000 
#
# Total GULP energy -178489.770667 kJ/mol
# GULP energy per Si atom -5577.805333 kJ/mol
# Density = 1.914683 g / cm^3
# Si number density = 19.190509 Si / 1000 Ang^3
#
#
#
# Elastic Constant Matrix: (Units=GPa)
#
#
# Indices 1 2 3 4 5 6 
#
# 1 117.9936 34.5799 11.3242 0.0000 -20.3419 0.0000
# 2 34.5799 70.2266 -8.9055 0.0000 -0.4485 0.0000
# 3 11.3242 -8.9055 38.6890 0.0000 -10.1064 0.0000
# 4 0.0000 0.0000 0.0000 17.9632 0.0000 -4.8349
# 5 -20.3419 -0.4485 -10.1064 0.0000 11.1167 0.0000
# 6 0.0000 0.0000 0.0000 -4.8349 0.0000 15.3250
#
#
#
# Elastic Compliance Matrix: (Units=1/GPa)
#
#
# Indices 1 2 3 4 5 6 
#
# 1 0.015557 -0.007284 0.001481 0.000000 0.029519 0.000000
# 2 -0.007284 0.018276 0.004000 0.000000 -0.008955 0.000000
# 3 0.001481 0.004000 0.035520 0.000000 0.035163 0.000000
# 4 0.000000 0.000000 0.000000 0.060835 0.000000 0.019193
# 5 0.029519 -0.008955 0.035163 0.000000 0.175576 0.000000
# 6 0.000000 0.000000 0.000000 0.019193 0.000000 0.071308
#
#
# Mechanical properties :
#
#
# Convention : Reuss Voigt Hill
#
# Bulk Modulus (GPa) = 15.21010 33.43407 24.32208
# Shear Modulus (GPa) = 12.41947 21.54167 16.98057
#
# Velocity S-wave (km/s) = 2.54671 3.35403 2.97786
# Velocity P-wave (km/s) = 4.07317 5.69731 4.95228
#
# Compressibility (1/GPa) = 0.06574577
#
# Stress axis : x y z
#
# Youngs Moduli (GPa) = 64.28166 54.71592 28.15347
#
# Poissons Ratio (x) = 0.39854 -0.04169
# Poissons Ratio (y) = 0.46822 -0.11260
# Poissons Ratio (z) = -0.09520 -0.21884
#
# Static dielectric constant tensor:
#      x y z
#    x 1.631700 0.000000 -0.007120 
#    y 0.000000 1.687910 0.000000 
#    z -0.007120 0.000000 1.694870 
# 
# From -- ./inp_files/40975.got.cif
#   From: 2010.05.17/outbox.cif.g08.bks.cpg/sg14_21_cif.got.tgz:40975.got - 2010.06.03 17:49:19.
