data_PCOD9242302
_publ_section_title
;
Structure prediction by ZEFSAII (Michael W. Deem and Ramdas Pophale) SiO2 
 PCOD9242302
Probable space group: P 21/C
;
_chemical_formula_sum "Si O2"
_cell_formula_units_Z 24
_cell_length_a 8.540691
_cell_length_b 9.789718
_cell_length_c 13.617837
_cell_angle_alpha 90.000000
_cell_angle_beta 104.394731
_cell_angle_gamma 90.000000
_cell_volume 1102.855186
_symmetry_space_group_name_H-M "P 21/C"
_symmetry_group_IT_number 14
_symmetry_cell_setting 'monoclinic'
loop_
_space_group_symop_operation_xyz
x,y,z
-x,1/2+y,1/2-z
-x,-y,-z
x,1/2-y,1/2+z
loop_
_atom_site_type_symbol
_atom_site_label
_atom_site_fract_x
_atom_site_fract_y
_atom_site_fract_z
Si Si1 0.831249 0.504739 0.913534
Si Si2 0.648307 0.699891 0.032422
Si Si3 0.715279 0.248364 0.986278
Si Si4 0.184411 0.406547 0.756286
Si Si5 0.187368 0.451064 0.536338
Si Si6 0.966830 0.173062 0.695581
O O1 0.881712 0.584698 0.823480
O O2 0.712139 0.594678 0.961245
O O3 0.758647 0.352539 0.904457
O O4 0.000000 0.500000 0.000000
O O5 0.682393 0.634804 0.144373
O O6 0.458256 0.720984 0.994770
O O7 0.751491 0.839269 0.032282
O O8 0.854620 0.274934 0.088874
O O9 0.715828 0.091273 0.956547
O O10 0.217944 0.384298 0.647344
O O11 0.134332 0.563696 0.759427
O O12 0.035132 0.306098 0.759211
O O13 0.000000 0.500000 0.500000
#
# Coordination Sequence:
#
# PCOD9242302 Si02
#       6
#     4   4   4   4   4   4
#     4  10  19  42  68  90 127 179 224 262 338 402
#     4  12  24  45  68  99 141 174 229 285 344 395
#     4  11  24  44  69  96 135 184 216 292 350 388
#     4  12  25  42  71 107 130 181 239 276 328 415
#     4  12  24  47  71  97 141 182 227 280 340 409
#     4  11  24  42  71  99 133 185 231 275 334 408
#
# _framework density 21.761693999999999
#
# number of rings (size 3 to 8) (size 9 to 14) (size 15 to 20)
#    0.000    0.667    6.667    3.000    2.333    0.000 
#    6.000    0.000    0.000    0.000    0.000    0.000 
#    0.000    0.000    0.000    0.000    0.000    0.000 
#
# Total GULP energy -134132.769695 kJ/mol
# GULP energy per Si atom -5588.865404 kJ/mol
# Density = 2.171216 g / cm^3
# Si number density = 21.761694 Si / 1000 Ang^3
#
#
#
# Elastic Constant Matrix: (Units=GPa)
#
#
# Indices 1 2 3 4 5 6 
#
# 1 74.0133 4.8108 -3.4195 0.0000 -6.5855 0.0000
# 2 4.8108 109.9048 -4.5103 0.0000 3.2675 0.0000
# 3 -3.4195 -4.5103 47.2586 0.0000 -3.4708 0.0000
# 4 0.0000 0.0000 0.0000 31.6268 0.0000 -9.6254
# 5 -6.5855 3.2675 -3.4708 0.0000 17.4328 0.0000
# 6 0.0000 0.0000 0.0000 -9.6254 0.0000 35.9889
#
#
#
# Elastic Compliance Matrix: (Units=1/GPa)
#
#
# Indices 1 2 3 4 5 6 
#
# 1 0.014134 -0.000733 0.001375 0.000000 0.005750 0.000000
# 2 -0.000733 0.009215 0.000689 0.000000 -0.001867 0.000000
# 3 0.001375 0.000689 0.021671 0.000000 0.004705 0.000000
# 4 0.000000 0.000000 0.000000 0.034420 0.000000 0.009206
# 5 0.005750 -0.001867 0.004705 0.000000 0.060822 0.000000
# 6 0.000000 0.000000 0.000000 0.009206 0.000000 0.030248
#
#
# Mechanical properties :
#
#
# Convention : Reuss Voigt Hill
#
# Bulk Modulus (GPa) = 20.97239 24.99321 22.98280
# Shear Modulus (GPa) = 27.21202 32.62942 29.92072
#
# Velocity S-wave (km/s) = 3.54001 3.87641 3.71202
# Velocity P-wave (km/s) = 5.13489 5.61652 5.38110
#
# Compressibility (1/GPa) = 0.04768175
#
# Stress axis : x y z
#
# Youngs Moduli (GPa) = 70.75173 108.52267 46.14472
#
# Poissons Ratio (x) = 0.07957 -0.06345
# Poissons Ratio (y) = 0.05188 -0.03181
# Poissons Ratio (z) = -0.09729 -0.07480
#
# Static dielectric constant tensor:
#      x y z
#    x 1.907400 0.000000 -0.202680 
#    y 0.000000 1.831960 0.000000 
#    z -0.202680 0.000000 2.038070 
# 
# From -- ./inp_files/39058.got.cif
#   From: 2010.05.17/outbox.cif.g08.bks.cpg/sg14_20_cif.got.tgz:39058.got - 2010.06.03 17:49:19.
