data_PCOD9242476
_publ_section_title
;
Structure prediction by ZEFSAII (Michael W. Deem and Ramdas Pophale) SiO2 
 PCOD9242476
Probable space group: P 21/C
;
_chemical_formula_sum "Si O2"
_cell_formula_units_Z 28
_cell_length_a 12.079973
_cell_length_b 12.728583
_cell_length_c 10.615886
_cell_angle_alpha 90.000000
_cell_angle_beta 37.252355
_cell_angle_gamma 90.000000
_cell_volume 988.079986
_symmetry_space_group_name_H-M "P 21/C"
_symmetry_group_IT_number 14
_symmetry_cell_setting 'monoclinic'
loop_
_space_group_symop_operation_xyz
x,y,z
-x,1/2+y,1/2-z
-x,-y,-z
x,1/2-y,1/2+z
loop_
_atom_site_type_symbol
_atom_site_label
_atom_site_fract_x
_atom_site_fract_y
_atom_site_fract_z
Si Si1 0.274065 0.043775 0.329955
Si Si2 0.935405 0.420209 0.805404
Si Si3 0.254028 0.657878 0.678778
Si Si4 0.605957 0.118186 0.202503
Si Si5 0.789434 0.940843 0.154057
Si Si6 0.096422 0.231125 0.347947
Si Si7 0.543640 0.181771 0.647726
O O1 0.084978 0.010447 0.571219
O O2 0.311679 0.943856 0.206356
O O3 0.434192 0.066872 0.284840
O O4 0.232078 0.147647 0.289059
O O5 0.025287 0.453282 0.594131
O O6 0.725559 0.386748 0.985776
O O7 0.040888 0.319894 0.765839
O O8 0.234391 0.621063 0.549440
O O9 0.413659 0.741559 0.507489
O O10 0.086674 0.717408 0.898788
O O11 0.550257 0.239903 0.260922
O O12 0.679971 0.051803 0.253268
O O13 0.830296 0.850417 0.220125
O O14 0.642963 0.878525 0.198062
#
# Coordination Sequence:
#
# PCOD9242476 Si02
#       7
#     4   4   4   4   4   4   4
#     4  11  19  35  61  95 120 145 197 262 305 341
#     4  11  23  38  59  88 123 159 192 246 302 352
#     4   9  19  35  56  88 121 145 190 255 298 341
#     4  10  20  33  59  86 120 153 197 240 299 346
#     4  12  21  39  59  87 120 162 197 240 302 359
#     4  11  21  37  61  92 123 151 203 247 298 354
#     4  10  22  38  56  85 124 157 192 241 299 357
#
# _framework density 28.337786000000001
#
# number of rings (size 3 to 8) (size 9 to 14) (size 15 to 20)
#    0.857    0.571    4.286    3.857    0.000    1.143 
#    0.000    0.714    0.000    0.857    0.000    0.000 
#    0.000    0.000    0.000    0.000    0.000    0.000 
#
# Total GULP energy -156696.539160 kJ/mol
# GULP energy per Si atom -5596.304970 kJ/mol
# Density = 2.827329 g / cm^3
# Si number density = 28.337786 Si / 1000 Ang^3
#
#
#
# Elastic Constant Matrix: (Units=GPa)
#
#
# Indices 1 2 3 4 5 6 
#
# 1 96.3374 28.2737 4.4816 0.0000 7.7367 0.0000
# 2 28.2737 141.5307 16.2652 0.0000 -4.3511 0.0000
# 3 4.4816 16.2652 53.1263 0.0000 -8.3870 0.0000
# 4 0.0000 0.0000 0.0000 24.1754 0.0000 -3.6117
# 5 7.7367 -4.3511 -8.3870 0.0000 47.3293 0.0000
# 6 0.0000 0.0000 0.0000 -3.6117 0.0000 52.6642
#
#
#
# Elastic Compliance Matrix: (Units=1/GPa)
#
#
# Indices 1 2 3 4 5 6 
#
# 1 0.011239 -0.002242 -0.000601 0.000000 -0.002150 0.000000
# 2 -0.002242 0.007774 -0.002079 0.000000 0.000713 0.000000
# 3 -0.000601 -0.002079 0.020057 0.000000 0.003461 0.000000
# 4 0.000000 0.000000 0.000000 0.041793 0.000000 0.002866
# 5 -0.002150 0.000713 0.003461 0.000000 0.022159 0.000000
# 6 0.000000 0.000000 0.000000 0.002866 0.000000 0.019185
#
#
# Mechanical properties :
#
#
# Convention : Reuss Voigt Hill
#
# Bulk Modulus (GPa) = 34.21574 43.22616 38.72095
# Shear Modulus (GPa) = 35.26305 40.96537 38.11421
#
# Velocity S-wave (km/s) = 3.53141 3.80624 3.67140
# Velocity P-wave (km/s) = 5.35987 5.88249 5.62725
#
# Compressibility (1/GPa) = 0.02922632
#
# Stress axis : x y z
#
# Youngs Moduli (GPa) = 88.97706 128.62853 49.85899
#
# Poissons Ratio (x) = 0.28841 0.02996
# Poissons Ratio (y) = 0.19951 0.10363
# Poissons Ratio (z) = 0.05347 0.26735
#
# Static dielectric constant tensor:
#      x y z
#    x 2.227380 0.000000 -0.004930 
#    y 0.000000 2.290120 0.000000 
#    z -0.004930 0.000000 2.127000 
# 
# From -- ./inp_files/47343.got.cif
#   From: 2010.05.17/outbox.cif.g08.bks.cpg/sg14_24_cif.got.tgz:47343.got - 2010.06.03 17:49:19.
