data_PCOD9242459
_publ_section_title
;
Structure prediction by ZEFSAII (Michael W. Deem and Ramdas Pophale) SiO2 
 PCOD9242459
Probable space group: P 21/C
;
_chemical_formula_sum "Si O2"
_cell_formula_units_Z 24
_cell_length_a 12.618072
_cell_length_b 17.910241
_cell_length_c 4.840388
_cell_angle_alpha 90.000000
_cell_angle_beta 88.573768
_cell_angle_gamma 90.000000
_cell_volume 1093.553515
_symmetry_space_group_name_H-M "P 21/C"
_symmetry_group_IT_number 14
_symmetry_cell_setting 'monoclinic'
loop_
_space_group_symop_operation_xyz
x,y,z
-x,1/2+y,1/2-z
-x,-y,-z
x,1/2-y,1/2+z
loop_
_atom_site_type_symbol
_atom_site_label
_atom_site_fract_x
_atom_site_fract_y
_atom_site_fract_z
Si Si1 0.631905 0.135147 0.314235
Si Si2 0.852001 0.201843 0.101791
Si Si3 0.490198 0.144541 0.785743
Si Si4 0.279000 0.117013 0.976659
Si Si5 0.079031 0.199115 0.233839
Si Si6 0.343477 0.031187 0.501405
O O1 0.743569 0.165380 0.202859
O O2 0.565717 0.182190 0.550387
O O3 0.657507 0.056165 0.454914
O O4 0.557860 0.127922 0.051271
O O5 0.853004 0.278906 0.279310
O O6 0.963749 0.164464 0.175144
O O7 0.447325 0.070000 0.630642
O O8 0.374569 0.174860 0.889777
O O9 0.178633 0.152704 0.125768
O O10 0.329769 0.058925 0.191944
O O11 0.254929 0.071311 0.699874
O O12 0.084081 0.225086 0.548744
#
# Coordination Sequence:
#
# PCOD9242459 Si02
#       6
#     4   4   4   4   4   4
#     4  12  20  35  59  83 110 156 177 216 282 325
#     4  10  23  42  58  79 106 145 193 231 263 328
#     4  10  20  33  56  83 114 144 178 214 271 329
#     4  10  20  35  54  85 112 136 182 235 262 317
#     4  10  21  40  63  75 102 151 192 224 274 331
#     4  10  20  33  56  86 116 142 182 218 272 334
#
# _framework density 21.946802999999999
#
# number of rings (size 3 to 8) (size 9 to 14) (size 15 to 20)
#    1.000    0.667    1.667    4.000    0.000    0.000 
#    0.000    6.667    0.000    0.000    0.000    0.000 
#    0.000    0.000    0.000    0.000    0.000    0.000 
#
# Total GULP energy -133852.637257 kJ/mol
# GULP energy per Si atom -5577.193219 kJ/mol
# Density = 2.189685 g / cm^3
# Si number density = 21.946803 Si / 1000 Ang^3
#
#
#
# Elastic Constant Matrix: (Units=GPa)
#
#
# Indices 1 2 3 4 5 6 
#
# 1 144.6117 17.8398 1.6831 0.0000 -36.4705 0.0000
# 2 17.8398 15.3580 -9.2851 0.0000 -5.0605 0.0000
# 3 1.6831 -9.2851 91.2165 0.0000 -18.4940 0.0000
# 4 0.0000 0.0000 0.0000 33.8883 0.0000 -27.8183
# 5 -36.4705 -5.0605 -18.4940 0.0000 41.1079 0.0000
# 6 0.0000 0.0000 0.0000 -27.8183 0.0000 44.4842
#
#
#
# Elastic Compliance Matrix: (Units=1/GPa)
#
#
# Indices 1 2 3 4 5 6 
#
# 1 0.010008 -0.008616 0.000576 0.000000 0.008078 0.000000
# 2 -0.008616 0.083622 0.010133 0.000000 0.007209 0.000000
# 3 0.000576 0.010133 0.013579 0.000000 0.007867 0.000000
# 4 0.000000 0.000000 0.000000 0.060635 0.000000 0.037919
# 5 0.008078 0.007209 0.007867 0.000000 0.035920 0.000000
# 6 0.000000 0.000000 0.000000 0.037919 0.000000 0.046192
#
#
# Mechanical properties :
#
#
# Convention : Reuss Voigt Hill
#
# Bulk Modulus (GPa) = 8.97706 30.18466 19.58086
# Shear Modulus (GPa) = 17.67391 39.95929 28.81660
#
# Velocity S-wave (km/s) = 2.84087 4.27164 3.62749
# Velocity P-wave (km/s) = 3.85487 6.17354 5.14648
#
# Compressibility (1/GPa) = 0.11139501
#
# Stress axis : x y z
#
# Youngs Moduli (GPa) = 99.91525 11.95858 73.64411
#
# Poissons Ratio (x) = 0.10303 -0.04243
# Poissons Ratio (y) = 0.86085 -0.74621
# Poissons Ratio (z) = -0.05756 -0.12117
#
# Static dielectric constant tensor:
#      x y z
#    x 1.897490 0.000000 -0.052890 
#    y 0.000000 1.833160 0.000000 
#    z -0.052890 0.000000 1.802080 
# 
# From -- ./inp_files/2781.got.cif
#   From: 2010.05.17/outbox.cif.g08.bks.cpg/sg14_2_cif.got.tgz:2781.got - 2010.06.03 17:49:19.
