data_PCOD9242343
_publ_section_title
;
Structure prediction by ZEFSAII (Michael W. Deem and Ramdas Pophale) SiO2 
 PCOD9242343
Probable space group: P 21/C
;
_chemical_formula_sum "Si O2"
_cell_formula_units_Z 28
_cell_length_a 14.176315
_cell_length_b 9.816320
_cell_length_c 11.186311
_cell_angle_alpha 90.000000
_cell_angle_beta 139.359059
_cell_angle_gamma 90.000000
_cell_volume 1013.890593
_symmetry_space_group_name_H-M "P 21/C"
_symmetry_group_IT_number 14
_symmetry_cell_setting 'monoclinic'
loop_
_space_group_symop_operation_xyz
x,y,z
-x,1/2+y,1/2-z
-x,-y,-z
x,1/2-y,1/2+z
loop_
_atom_site_type_symbol
_atom_site_label
_atom_site_fract_x
_atom_site_fract_y
_atom_site_fract_z
Si Si1 0.599277 0.951583 0.972876
Si Si2 0.056399 0.974689 0.226403
Si Si3 0.188313 0.271920 0.438120
Si Si4 0.389784 0.508998 0.074589
Si Si5 0.850043 0.858708 0.341804
Si Si6 0.888069 0.203924 0.955758
Si Si7 0.436592 0.707074 0.915477
O O1 0.670229 0.868243 0.927512
O O2 0.475574 0.024597 0.778073
O O3 0.510832 0.852947 0.976715
O O4 0.747552 0.979004 0.190614
O O5 0.216927 0.997270 0.431801
O O6 0.088078 0.901002 0.131248
O O7 0.959289 0.112198 0.129805
O O8 0.952948 0.868425 0.191566
O O9 0.193495 0.240761 0.298447
O O10 0.185037 0.191951 0.559700
O O11 0.459176 0.399904 0.050283
O O12 0.407723 0.652225 0.020977
O O13 0.024149 0.841526 0.495364
O O14 0.716713 0.218321 0.801561
#
# Coordination Sequence:
#
# PCOD9242343 Si02
#       7
#     4   4   4   4   4   4   4
#     4  10  20  30  56  80 116 140 180 228 286 324
#     4   9  17  31  53  79 107 138 184 236 274 318
#     4   9  19  33  53  78 106 143 180 222 273 328
#     4  10  20  34  54  83 114 145 188 237 282 329
#     4   9  19  33  53  78 106 143 180 222 273 328
#     4   9  17  31  53  79 107 138 184 236 274 318
#     4  10  20  34  54  83 114 145 188 237 282 329
#
# _framework density 27.616389999999999
#
# number of rings (size 3 to 8) (size 9 to 14) (size 15 to 20)
#    0.857    1.714    0.000    2.571    2.000    4.571 
#    0.000    0.000    0.000    4.286    0.000    0.000 
#    0.000    0.000    0.000    0.000    0.000    0.000 
#
# Total GULP energy -155915.624321 kJ/mol
# GULP energy per Si atom -5568.415154 kJ/mol
# Density = 2.755353 g / cm^3
# Si number density = 27.616390 Si / 1000 Ang^3
#
#
#
# Elastic Constant Matrix: (Units=GPa)
#
#
# Indices 1 2 3 4 5 6 
#
# 1 122.9275 20.4569 89.0178 0.0000 2.7861 0.0000
# 2 20.4569 54.2901 47.9586 0.0000 -4.9389 0.0000
# 3 89.0178 47.9586 206.9390 0.0000 20.9540 0.0000
# 4 0.0000 0.0000 0.0000 38.3584 0.0000 10.3583
# 5 2.7861 -4.9389 20.9540 0.0000 62.3631 0.0000
# 6 0.0000 0.0000 0.0000 10.3583 0.0000 24.8192
#
#
#
# Elastic Compliance Matrix: (Units=1/GPa)
#
#
# Indices 1 2 3 4 5 6 
#
# 1 0.011911 0.000340 -0.005333 0.000000 0.001287 0.000000
# 2 0.000340 0.024058 -0.006121 0.000000 0.003947 0.000000
# 3 -0.005333 -0.006121 0.008872 0.000000 -0.003227 0.000000
# 4 0.000000 0.000000 0.000000 0.029381 0.000000 -0.012262
# 5 0.001287 0.003947 -0.003227 0.000000 0.017375 0.000000
# 6 0.000000 0.000000 0.000000 -0.012262 0.000000 0.045409
#
#
# Mechanical properties :
#
#
# Convention : Reuss Voigt Hill
#
# Bulk Modulus (GPa) = 44.22416 77.66924 60.94670
# Shear Modulus (GPa) = 29.98123 40.22302 35.10213
#
# Velocity S-wave (km/s) = 3.29847 3.82054 3.56906
# Velocity P-wave (km/s) = 5.52766 6.90271 6.25310
#
# Compressibility (1/GPa) = 0.02261208
#
# Stress axis : x y z
#
# Youngs Moduli (GPa) = 83.95761 41.56617 112.71877
#
# Poissons Ratio (x) = -0.01412 0.60108
# Poissons Ratio (y) = -0.02852 0.68998
# Poissons Ratio (z) = 0.44771 0.25444
#
# Static dielectric constant tensor:
#      x y z
#    x 2.149480 0.000000 0.041210 
#    y 0.000000 2.512320 0.000000 
#    z 0.041210 0.000000 2.249800 
# 
# From -- ./inp_files/32621.got.cif
#   From: 2010.05.17/outbox.cif.g08.bks.cpg/sg14_17_cif.got.tgz:32621.got - 2010.06.03 17:49:19.
