data_PCOD9242271
_publ_section_title
;
Structure prediction by ZEFSAII (Michael W. Deem and Ramdas Pophale) SiO2 
 PCOD9242271
Probable space group: P 21/C
;
_chemical_formula_sum "Si O2"
_cell_formula_units_Z 24
_cell_length_a 14.019299
_cell_length_b 11.847760
_cell_length_c 10.058158
_cell_angle_alpha 90.000000
_cell_angle_beta 145.324950
_cell_angle_gamma 90.000000
_cell_volume 950.458842
_symmetry_space_group_name_H-M "P 21/C"
_symmetry_group_IT_number 14
_symmetry_cell_setting 'monoclinic'
loop_
_space_group_symop_operation_xyz
x,y,z
-x,1/2+y,1/2-z
-x,-y,-z
x,1/2-y,1/2+z
loop_
_atom_site_type_symbol
_atom_site_label
_atom_site_fract_x
_atom_site_fract_y
_atom_site_fract_z
Si Si1 0.579353 0.540142 0.771846
Si Si2 0.666630 0.295744 0.644072
Si Si3 0.673728 0.709802 0.116697
Si Si4 0.119841 0.413938 0.058029
Si Si5 0.637676 0.532953 0.267706
Si Si6 0.833845 0.195666 0.068104
O O1 0.570588 0.408379 0.487426
O O2 0.742953 0.519943 0.872720
O O3 0.483337 0.443578 0.744849
O O4 0.642540 0.637768 0.947959
O O5 0.510358 0.237726 0.537600
O O6 0.735959 0.252441 0.582419
O O7 0.815955 0.275635 0.920259
O O8 0.782975 0.823276 0.237692
O O9 0.743121 0.629542 0.315709
O O10 0.000000 0.500000 0.000000
O O11 0.011094 0.340434 0.830206
O O12 0.749390 0.424879 0.431443
O O13 0.500000 0.500000 0.000000
#
# Coordination Sequence:
#
# PCOD9242271 Si02
#       6
#     4   4   4   4   4   4
#     4   9  20  42  72 102 142 191 252 306 369 425
#     4  10  19  41  69 102 139 189 250 296 351 432
#     4  10  20  44  75 100 137 200 243 303 371 444
#     4  11  27  45  61 106 160 192 232 299 385 445
#     4   9  17  41  71 104 131 179 261 299 350 436
#     4  11  23  42  67 107 149 185 246 302 363 440
#
# _framework density 25.250964
#
# number of rings (size 3 to 8) (size 9 to 14) (size 15 to 20)
#    0.000    2.000    5.000    0.000    2.333    2.667 
#    3.000    7.500    0.000    0.000    0.000    0.000 
#    0.000    0.000    0.000    0.000    0.000    0.000 
#
# Total GULP energy -134026.249823 kJ/mol
# GULP energy per Si atom -5584.427076 kJ/mol
# Density = 2.519349 g / cm^3
# Si number density = 25.250964 Si / 1000 Ang^3
#
#
#
# Elastic Constant Matrix: (Units=GPa)
#
#
# Indices 1 2 3 4 5 6 
#
# 1 129.3907 44.9133 42.6572 0.0000 -24.5607 0.0000
# 2 44.9133 104.8231 53.2739 0.0000 -13.5074 0.0000
# 3 42.6572 53.2739 160.4071 0.0000 -15.0856 0.0000
# 4 0.0000 0.0000 0.0000 57.5774 0.0000 -0.2867
# 5 -24.5607 -13.5074 -15.0856 0.0000 31.7677 0.0000
# 6 0.0000 0.0000 0.0000 -0.2867 0.0000 39.8689
#
#
#
# Elastic Compliance Matrix: (Units=1/GPa)
#
#
# Indices 1 2 3 4 5 6 
#
# 1 0.010335 -0.003048 -0.001158 0.000000 0.006144 0.000000
# 2 -0.003048 0.012698 -0.003266 0.000000 0.001492 0.000000
# 3 -0.001158 -0.003266 0.007759 0.000000 0.001400 0.000000
# 4 0.000000 0.000000 0.000000 0.017369 0.000000 0.000125
# 5 0.006144 0.001492 0.001400 0.000000 0.037528 0.000000
# 6 0.000000 0.000000 0.000000 0.000125 0.000000 0.025083
#
#
# Mechanical properties :
#
#
# Convention : Reuss Voigt Hill
#
# Bulk Modulus (GPa) = 63.10553 75.14555 69.12554
# Shear Modulus (GPa) = 38.16864 42.76123 40.46494
#
# Velocity S-wave (km/s) = 3.89211 4.11962 4.00748
# Velocity P-wave (km/s) = 6.72634 7.24240 6.98914
#
# Compressibility (1/GPa) = 0.01584647
#
# Stress axis : x y z
#
# Youngs Moduli (GPa) = 96.76309 78.75242 128.88798
#
# Poissons Ratio (x) = 0.24001 0.14929
# Poissons Ratio (y) = 0.29490 0.42101
# Poissons Ratio (z) = 0.11208 0.25724
#
# Static dielectric constant tensor:
#      x y z
#    x 2.040980 0.000000 -0.041260 
#    y 0.000000 2.164390 0.000000 
#    z -0.041260 0.000000 1.999440 
# 
# From -- ./inp_files/16321.got.cif
#   From: 2010.05.17/outbox.cif.g08.bks.cpg/sg14_9_cif.got.tgz:16321.got - 2010.06.03 17:49:19.
