data_PCOD9242096
_publ_section_title
;
Structure prediction by ZEFSAII (Michael W. Deem and Ramdas Pophale) SiO2 
 PCOD9242096
Probable space group: P 21/C
;
_chemical_formula_sum "Si O2"
_cell_formula_units_Z 32
_cell_length_a 12.076172
_cell_length_b 19.688835
_cell_length_c 9.533138
_cell_angle_alpha 90.000000
_cell_angle_beta 131.915627
_cell_angle_gamma 90.000000
_cell_volume 1686.683656
_symmetry_space_group_name_H-M "P 21/C"
_symmetry_group_IT_number 14
_symmetry_cell_setting 'monoclinic'
loop_
_space_group_symop_operation_xyz
x,y,z
-x,1/2+y,1/2-z
-x,-y,-z
x,1/2-y,1/2+z
loop_
_atom_site_type_symbol
_atom_site_label
_atom_site_fract_x
_atom_site_fract_y
_atom_site_fract_z
Si Si1 0.587357 0.431862 0.031632
Si Si2 0.494944 0.819973 0.174094
Si Si3 0.173571 0.505821 0.954302
Si Si4 0.115655 0.112318 0.175776
Si Si5 0.363418 0.448715 0.355100
Si Si6 0.852338 0.542603 0.601483
Si Si7 0.397560 0.194572 0.417205
Si Si8 0.781974 0.109537 0.964713
O O1 0.472355 0.371772 0.910347
O O2 0.500000 0.500000 0.000000
O O3 0.695084 0.447669 0.995079
O O4 0.689435 0.408513 0.247197
O O5 0.572023 0.888524 0.184506
O O6 0.543745 0.759944 0.113447
O O7 0.551421 0.803601 0.378108
O O8 0.319300 0.837900 0.035116
O O9 0.162248 0.441079 0.837985
O O10 0.014991 0.542997 0.810600
O O11 0.230414 0.483026 0.153448
O O12 0.223362 0.176969 0.265107
O O13 0.128069 0.071608 0.038979
O O14 0.946121 0.133038 0.061826
O O15 0.500000 0.500000 0.500000
O O16 0.281027 0.422693 0.425623
O O17 0.804237 0.463406 0.556728
#
# Coordination Sequence:
#
# PCOD9242096 Si02
#       8
#     4   4   4   4   4   4   4   4
#     4  11  18  35  65  95 123 161 212 268 319 378
#     4  11  25  46  61  92 128 176 217 268 323 391
#     4  11  20  38  61  98 129 164 204 269 328 375
#     4  11  20  39  69  96 124 171 212 269 322 390
#     4  12  25  39  62  97 137 168 212 274 328 380
#     4  11  21  36  65 101 130 161 210 263 334 388
#     4  11  25  41  65  89 130 171 222 264 320 392
#     4  10  19  39  63  94 127 158 211 266 324 381
#
# _framework density 18.972141000000001
#
# number of rings (size 3 to 8) (size 9 to 14) (size 15 to 20)
#    0.000    1.000    6.250    1.875    3.500    0.000 
#    0.000    3.750    0.000    0.000    0.000    0.000 
#    0.000    0.000    0.000    0.000    0.000    0.000 
#
# Total GULP energy -178714.635738 kJ/mol
# GULP energy per Si atom -5584.832367 kJ/mol
# Density = 1.892896 g / cm^3
# Si number density = 18.972141 Si / 1000 Ang^3
#
#
#
# Elastic Constant Matrix: (Units=GPa)
#
#
# Indices 1 2 3 4 5 6 
#
# 1 141.8291 36.0610 44.7733 0.0000 11.8421 0.0000
# 2 36.0610 68.4348 27.9329 0.0000 -1.7895 0.0000
# 3 44.7733 27.9329 86.9163 0.0000 8.5921 0.0000
# 4 0.0000 0.0000 0.0000 14.0845 0.0000 -5.4879
# 5 11.8421 -1.7895 8.5921 0.0000 32.0406 0.0000
# 6 0.0000 0.0000 0.0000 -5.4879 0.0000 42.5795
#
#
#
# Elastic Compliance Matrix: (Units=1/GPa)
#
#
# Indices 1 2 3 4 5 6 
#
# 1 0.009243 -0.003577 -0.003343 0.000000 -0.002719 0.000000
# 2 -0.003577 0.018393 -0.004418 0.000000 0.003534 0.000000
# 3 -0.003343 -0.004418 0.014946 0.000000 -0.003019 0.000000
# 4 0.000000 0.000000 0.000000 0.074754 0.000000 0.009635
# 5 -0.002719 0.003534 -0.003019 0.000000 0.033223 0.000000
# 6 0.000000 0.000000 0.000000 0.009635 0.000000 0.024727
#
#
# Mechanical properties :
#
#
# Convention : Reuss Voigt Hill
#
# Bulk Modulus (GPa) = 50.23629 57.19052 53.71340
# Shear Modulus (GPa) = 24.43855 30.30179 27.37017
#
# Velocity S-wave (km/s) = 3.59294 4.00080 3.80234
# Velocity P-wave (km/s) = 6.61429 7.17996 6.90292
#
# Compressibility (1/GPa) = 0.01990593
#
# Stress axis : x y z
#
# Youngs Moduli (GPa) = 108.19575 54.36882 66.90976
#
# Poissons Ratio (x) = 0.19447 0.22366
# Poissons Ratio (y) = 0.38701 0.29559
# Poissons Ratio (z) = 0.36167 0.24019
#
# Static dielectric constant tensor:
#      x y z
#    x 1.697850 0.000000 -0.003250 
#    y 0.000000 1.640510 0.000000 
#    z -0.003250 0.000000 1.682360 
# 
# From -- ./inp_files/14345.got.cif
#   From: 2010.05.17/outbox.cif.g08.bks.cpg/sg14_8_cif.got.tgz:14345.got - 2010.06.03 17:49:19.
