data_PCOD9242113
_publ_section_title
;
Structure prediction by ZEFSAII (Michael W. Deem and Ramdas Pophale) SiO2 
 PCOD9242113
Probable space group: P 21/C
;
_chemical_formula_sum "Si O2"
_cell_formula_units_Z 32
_cell_length_a 19.604941
_cell_length_b 13.051435
_cell_length_c 13.128380
_cell_angle_alpha 90.000000
_cell_angle_beta 25.728968
_cell_angle_gamma 90.000000
_cell_volume 1458.274687
_symmetry_space_group_name_H-M "P 21/C"
_symmetry_group_IT_number 14
_symmetry_cell_setting 'monoclinic'
loop_
_space_group_symop_operation_xyz
x,y,z
-x,1/2+y,1/2-z
-x,-y,-z
x,1/2-y,1/2+z
loop_
_atom_site_type_symbol
_atom_site_label
_atom_site_fract_x
_atom_site_fract_y
_atom_site_fract_z
Si Si1 0.306521 0.352798 0.631214
Si Si2 0.353618 0.621408 0.840336
Si Si3 0.700114 0.078380 0.811518
Si Si4 0.235474 0.212635 0.913853
Si Si5 0.887458 0.139988 0.167253
Si Si6 0.404602 0.382843 0.826484
Si Si7 0.234519 0.060420 0.758961
Si Si8 0.981196 0.834640 0.625479
O O1 0.478581 0.331087 0.354924
O O2 0.339257 0.459158 0.644858
O O3 0.235786 0.276875 0.809294
O O4 0.179240 0.364431 0.714816
O O5 0.335935 0.638769 0.743702
O O6 0.349321 0.497056 0.862354
O O7 0.218289 0.665940 0.093116
O O8 0.886638 0.081665 0.569789
O O9 0.590044 0.118336 0.050793
O O10 0.327785 0.288346 0.867387
O O11 0.289735 0.102035 0.795104
O O12 0.071012 0.189929 0.189848
O O13 0.782498 0.060349 0.241734
O O14 0.940305 0.234755 0.028771
O O15 0.052558 0.093499 0.984866
O O16 0.342582 0.388060 0.025662
#
# Coordination Sequence:
#
# PCOD9242113 Si02
#       8
#     4   4   4   4   4   4   4   4
#     4  11  22  42  63  91 124 164 204 260 315 368
#     4  10  20  39  69  89 118 162 213 258 303 373
#     4  11  22  40  64  94 123 159 208 261 311 373
#     4  12  20  37  62  90 122 162 212 243 315 368
#     4  10  21  38  58  91 124 160 210 253 303 370
#     4  10  19  39  65  91 116 165 213 251 307 377
#     4  10  21  37  63  90 124 164 207 261 307 368
#     4  12  26  37  60  94 129 164 201 263 316 367
#
# _framework density 21.943740999999999
#
# number of rings (size 3 to 8) (size 9 to 14) (size 15 to 20)
#    0.000    1.250    5.000    1.875    0.000    3.000 
#    0.000    0.000    0.000    7.500    0.000    0.000 
#    0.000    0.000    0.000    0.000    0.000    0.000 
#
# Total GULP energy -178458.792801 kJ/mol
# GULP energy per Si atom -5576.837275 kJ/mol
# Density = 2.189380 g / cm^3
# Si number density = 21.943741 Si / 1000 Ang^3
#
#
#
# Elastic Constant Matrix: (Units=GPa)
#
#
# Indices 1 2 3 4 5 6 
#
# 1 45.6813 11.0337 43.1638 0.0000 9.4714 0.0000
# 2 11.0337 35.9477 7.3954 0.0000 14.5141 0.0000
# 3 43.1638 7.3954 195.8334 0.0000 27.0547 0.0000
# 4 0.0000 0.0000 0.0000 30.6662 0.0000 -1.0423
# 5 9.4714 14.5141 27.0547 0.0000 32.3733 0.0000
# 6 0.0000 0.0000 0.0000 -1.0423 0.0000 25.8163
#
#
#
# Elastic Compliance Matrix: (Units=1/GPa)
#
#
# Indices 1 2 3 4 5 6 
#
# 1 0.029684 -0.007849 -0.006255 0.000000 0.000062 0.000000
# 2 -0.007849 0.036192 0.002586 0.000000 -0.016091 0.000000
# 3 -0.006255 0.002586 0.007116 0.000000 -0.005277 0.000000
# 4 0.000000 0.000000 0.000000 0.032654 0.000000 0.001318
# 5 0.000062 -0.016091 -0.005277 0.000000 0.042496 0.000000
# 6 0.000000 0.000000 0.000000 0.001318 0.000000 0.038788
#
#
# Mechanical properties :
#
#
# Convention : Reuss Voigt Hill
#
# Bulk Modulus (GPa) = 20.01713 44.51648 32.26681
# Shear Modulus (GPa) = 22.06350 32.16247 27.11299
#
# Velocity S-wave (km/s) = 3.17434 3.83257 3.51888
# Velocity P-wave (km/s) = 4.75153 6.31787 5.58984
#
# Compressibility (1/GPa) = 0.04995721
#
# Stress axis : x y z
#
# Youngs Moduli (GPa) = 33.68822 27.63017 140.52192
#
# Poissons Ratio (x) = 0.21688 0.87893
# Poissons Ratio (y) = 0.26443 -0.36344
# Poissons Ratio (z) = 0.21071 -0.07146
#
# Static dielectric constant tensor:
#      x y z
#    x 1.849330 0.000000 -0.013740 
#    y 0.000000 1.872860 0.000000 
#    z -0.013740 0.000000 1.819780 
# 
# From -- ./inp_files/34218.got.cif
#   From: 2010.05.17/outbox.cif.g08.bks.cpg/sg14_18_cif.got.tgz:34218.got - 2010.06.03 17:49:19.
