data_PCOD9242154
_publ_section_title
;
Structure prediction by ZEFSAII (Michael W. Deem and Ramdas Pophale) SiO2 
 PCOD9242154
Probable space group: P 21/C
;
_chemical_formula_sum "Si O2"
_cell_formula_units_Z 24
_cell_length_a 15.009597
_cell_length_b 12.884702
_cell_length_c 9.523748
_cell_angle_alpha 90.000000
_cell_angle_beta 30.261634
_cell_angle_gamma 90.000000
_cell_volume 928.192836
_symmetry_space_group_name_H-M "P 21/C"
_symmetry_group_IT_number 14
_symmetry_cell_setting 'monoclinic'
loop_
_space_group_symop_operation_xyz
x,y,z
-x,1/2+y,1/2-z
-x,-y,-z
x,1/2-y,1/2+z
loop_
_atom_site_type_symbol
_atom_site_label
_atom_site_fract_x
_atom_site_fract_y
_atom_site_fract_z
Si Si1 0.939312 0.387571 0.534115
Si Si2 0.473422 0.625311 0.257982
Si Si3 0.185183 0.051132 0.197162
Si Si4 0.055663 0.834572 0.676351
Si Si5 0.222241 0.063655 0.450455
Si Si6 0.622536 0.298820 0.890905
O O1 0.977558 0.312308 0.613784
O O2 0.000000 0.500000 0.500000
O O3 0.729696 0.397398 0.799713
O O4 0.058305 0.370056 0.234032
O O5 0.311761 0.541998 0.471917
O O6 0.624428 0.575527 0.146400
O O7 0.434917 0.728319 0.402832
O O8 0.507416 0.665651 0.054234
O O9 0.121365 0.136318 0.170683
O O10 0.269699 0.094491 0.226503
O O11 0.000000 0.000000 0.500000
O O12 0.206188 0.760805 0.407503
O O13 0.161592 0.944663 0.528908
#
# Coordination Sequence:
#
# PCOD9242154 Si02
#       6
#     4   4   4   4   4   4
#     4  10  22  43  66  93 131 171 217 264 323 392
#     4  12  24  42  63  96 135 167 213 276 334 383
#     4  10  19  39  69  93 118 174 217 255 325 396
#     4  10  21  41  68  96 124 172 223 267 318 391
#     4  10  22  41  65  93 129 170 211 270 331 390
#     4  12  23  41  67  93 130 173 219 269 318 390
#
# _framework density 25.856694999999998
#
# number of rings (size 3 to 8) (size 9 to 14) (size 15 to 20)
#    0.000    1.333    5.000    3.500    0.000    0.000 
#    6.000    7.500    0.000    0.000    0.000    0.000 
#    0.000    0.000    0.000    0.000    0.000    0.000 
#
# Total GULP energy -134120.154859 kJ/mol
# GULP energy per Si atom -5588.339786 kJ/mol
# Density = 2.579784 g / cm^3
# Si number density = 25.856695 Si / 1000 Ang^3
#
#
#
# Elastic Constant Matrix: (Units=GPa)
#
#
# Indices 1 2 3 4 5 6 
#
# 1 163.7474 12.4059 1.8012 0.0000 -18.5307 0.0000
# 2 12.4059 31.4331 0.7991 0.0000 -18.7002 0.0000
# 3 1.8012 0.7991 28.2845 0.0000 -14.8867 0.0000
# 4 0.0000 0.0000 0.0000 27.8954 0.0000 -1.4831
# 5 -18.5307 -18.7002 -14.8867 0.0000 39.2505 0.0000
# 6 0.0000 0.0000 0.0000 -1.4831 0.0000 34.2202
#
#
#
# Elastic Compliance Matrix: (Units=1/GPa)
#
#
# Indices 1 2 3 4 5 6 
#
# 1 0.006511 -0.000666 0.001318 0.000000 0.003257 0.000000
# 2 -0.000666 0.048205 0.013247 0.000000 0.027676 0.000000
# 3 0.001318 0.013247 0.048160 0.000000 0.025199 0.000000
# 4 0.000000 0.000000 0.000000 0.035931 0.000000 0.001557
# 5 0.003257 0.027676 0.025199 0.000000 0.049758 0.000000
# 6 0.000000 0.000000 0.000000 0.001557 0.000000 0.029290
#
#
# Mechanical properties :
#
#
# Convention : Reuss Voigt Hill
#
# Bulk Modulus (GPa) = 7.65258 28.16416 17.90837
# Shear Modulus (GPa) = 21.40278 34.17046 27.78662
#
# Velocity S-wave (km/s) = 2.88018 3.63923 3.28173
# Velocity P-wave (km/s) = 3.74521 5.34553 4.61527
#
# Compressibility (1/GPa) = 0.13067480
#
# Stress axis : x y z
#
# Youngs Moduli (GPa) = 153.57471 20.74488 20.76423
#
# Poissons Ratio (x) = 0.01381 -0.02737
# Poissons Ratio (y) = 0.10225 -0.27506
# Poissons Ratio (z) = -0.20246 -0.27481
#
# Static dielectric constant tensor:
#      x y z
#    x 2.090220 0.000000 0.097660 
#    y 0.000000 2.893470 0.000000 
#    z 0.097660 0.000000 2.047030 
# 
# From -- ./inp_files/32697.got.cif
#   From: 2010.05.17/outbox.cif.g08.bks.cpg/sg14_17_cif.got.tgz:32697.got - 2010.06.03 17:49:19.
