data_PCOD9242086
_publ_section_title
;
Structure prediction by ZEFSAII (Michael W. Deem and Ramdas Pophale) SiO2 
 PCOD9242086
Probable space group: P 21/C
;
_chemical_formula_sum "Si O2"
_cell_formula_units_Z 24
_cell_length_a 7.518949
_cell_length_b 12.236806
_cell_length_c 11.233780
_cell_angle_alpha 90.000000
_cell_angle_beta 81.442369
_cell_angle_gamma 90.000000
_cell_volume 1022.089380
_symmetry_space_group_name_H-M "P 21/C"
_symmetry_group_IT_number 14
_symmetry_cell_setting 'monoclinic'
loop_
_space_group_symop_operation_xyz
x,y,z
-x,1/2+y,1/2-z
-x,-y,-z
x,1/2-y,1/2+z
loop_
_atom_site_type_symbol
_atom_site_label
_atom_site_fract_x
_atom_site_fract_y
_atom_site_fract_z
Si Si1 0.911212 0.386868 0.376408
Si Si2 0.582877 0.231344 0.002333
Si Si3 0.154465 0.920619 0.793214
Si Si4 0.536126 0.841760 0.734130
Si Si5 0.923812 0.853192 0.609220
Si Si6 0.125546 0.828592 0.379530
O O1 0.029110 0.276197 0.380470
O O2 0.845290 0.386472 0.246701
O O3 0.725154 0.368885 0.466800
O O4 0.046969 0.487389 0.374591
O O5 0.512809 0.264572 0.877466
O O6 0.457483 0.206151 0.130026
O O7 0.708145 0.327533 0.045386
O O8 0.070620 0.915959 0.671033
O O9 0.107062 0.799666 0.847444
O O10 0.369362 0.925435 0.760944
O O11 0.731165 0.881663 0.679300
O O12 0.953091 0.870552 0.467058
#
# Coordination Sequence:
#
# PCOD9242086 Si02
#       6
#     4   4   4   4   4   4
#     4  10  20  40  65  92 122 165 203 262 307 363
#     4  10  19  39  63  87 119 163 205 251 307 360
#     4  10  21  40  61  95 123 159 212 254 308 366
#     4  11  22  39  63  89 123 161 206 251 306 368
#     4  10  22  39  61  89 125 165 204 251 315 368
#     4   9  18  39  63  85 121 166 201 252 311 363
#
# _framework density 23.481311000000002
#
# number of rings (size 3 to 8) (size 9 to 14) (size 15 to 20)
#    0.000    2.000    6.667    0.000    4.667    6.667 
#    3.000    1.667    0.000    0.000    0.000    0.000 
#    0.000    0.000    0.000    0.000    0.000    0.000 
#
# Total GULP energy -133693.634689 kJ/mol
# GULP energy per Si atom -5570.568112 kJ/mol
# Density = 2.342787 g / cm^3
# Si number density = 23.481311 Si / 1000 Ang^3
#
#
#
# Elastic Constant Matrix: (Units=GPa)
#
#
# Indices 1 2 3 4 5 6 
#
# 1 56.9104 -3.2741 38.3149 0.0000 -21.0979 0.0000
# 2 -3.2741 46.3346 -12.9519 0.0000 14.0156 0.0000
# 3 38.3149 -12.9519 183.5074 0.0000 -17.7559 0.0000
# 4 0.0000 0.0000 0.0000 10.3122 0.0000 4.7017
# 5 -21.0979 14.0156 -17.7559 0.0000 32.9391 0.0000
# 6 0.0000 0.0000 0.0000 4.7017 0.0000 2.7434
#
#
#
# Elastic Compliance Matrix: (Units=1/GPa)
#
#
# Indices 1 2 3 4 5 6 
#
# 1 0.026205 -0.004262 -0.004191 0.000000 0.016339 0.000000
# 2 -0.004262 0.025567 0.001453 0.000000 -0.012825 0.000000
# 3 -0.004191 0.001453 0.006444 0.000000 0.000170 0.000000
# 4 0.000000 0.000000 0.000000 0.443558 0.000000 -0.760171
# 5 0.016339 -0.012825 0.000170 0.000000 0.046373 0.000000
# 6 0.000000 0.000000 0.000000 -0.760171 0.000000 1.667292
#
#
# Mechanical properties :
#
#
# Convention : Reuss Voigt Hill
#
# Bulk Modulus (GPa) = 22.61657 36.77002 29.69329
# Shear Modulus (GPa) = 2.22799 26.84319 14.53559
#
# Velocity S-wave (km/s) = 0.97514 3.38475 2.49073
# Velocity P-wave (km/s) = 3.30462 5.56495 4.57652
#
# Compressibility (1/GPa) = 0.04421537
#
# Stress axis : x y z
#
# Youngs Moduli (GPa) = 38.16013 39.11342 155.19375
#
# Poissons Ratio (x) = 0.16671 0.65047
# Poissons Ratio (y) = 0.16265 -0.22557
# Poissons Ratio (z) = 0.15994 -0.05685
#
# Static dielectric constant tensor:
#      x y z
#    x 1.911570 0.000000 0.039440 
#    y 0.000000 1.944960 0.000000 
#    z 0.039440 0.000000 1.969820 
# 
# From -- ./inp_files/24568.got.cif
#   From: 2010.05.17/outbox.cif.g08.bks.cpg/sg14_13_cif.got.tgz:24568.got - 2010.06.03 17:49:19.
