data_PCOD9242860
_publ_section_title
;
Structure prediction by ZEFSAII (Michael W. Deem and Ramdas Pophale) SiO2 
 PCOD9242860
Probable space group: P 21/C
;
_chemical_formula_sum "Si O2"
_cell_formula_units_Z 32
_cell_length_a 17.799544
_cell_length_b 5.239697
_cell_length_c 19.160455
_cell_angle_alpha 90.000000
_cell_angle_beta 124.681334
_cell_angle_gamma 90.000000
_cell_volume 1469.490276
_symmetry_space_group_name_H-M "P 21/C"
_symmetry_group_IT_number 14
_symmetry_cell_setting 'monoclinic'
loop_
_space_group_symop_operation_xyz
x,y,z
-x,1/2+y,1/2-z
-x,-y,-z
x,1/2-y,1/2+z
loop_
_atom_site_type_symbol
_atom_site_label
_atom_site_fract_x
_atom_site_fract_y
_atom_site_fract_z
Si Si1 0.869614 0.433444 0.377532
Si Si2 0.139930 0.500516 0.385746
Si Si3 0.919247 0.062731 0.293119
Si Si4 0.253533 0.498282 0.919561
Si Si5 0.446727 0.216601 0.553072
Si Si6 0.960014 0.250174 0.046306
Si Si7 0.458583 0.282870 0.391089
Si Si8 0.258411 0.292318 0.770235
O O1 0.897157 0.333759 0.315331
O O2 0.891110 0.214325 0.445207
O O3 0.770437 0.548135 0.313312
O O4 0.943902 0.650049 0.433713
O O5 0.072053 0.555961 0.285090
O O6 0.179589 0.218382 0.398965
O O7 0.091029 0.545002 0.432680
O O8 0.218528 0.718982 0.419023
O O9 0.827652 0.894393 0.260380
O O10 0.006471 0.960873 0.381356
O O11 0.269394 0.471067 0.844591
O O12 0.345900 0.402687 0.005439
O O13 0.461009 0.255423 0.476941
O O14 0.471604 0.495826 0.594650
O O15 0.513707 0.999898 0.618024
O O16 0.354977 0.347499 0.315246
#
# Coordination Sequence:
#
# PCOD9242860 Si02
#       8
#     4   4   4   4   4   4   4   4
#     4  10  20  40  54  77 115 148 188 240 287 329
#     4  11  23  36  58  84 111 151 194 233 279 347
#     4  10  21  34  57  77 114 148 184 238 285 328
#     4  10  20  36  54  82 117 148 184 234 288 334
#     4   9  17  29  48  77 114 145 172 225 281 331
#     4  10  24  36  56  82 108 150 198 233 285 337
#     4   9  17  27  49  79 111 144 180 217 276 341
#     4   9  19  32  52  82 112 149 186 229 284 338
#
# _framework density 21.776259
#
# number of rings (size 3 to 8) (size 9 to 14) (size 15 to 20)
#    0.000    2.250    1.250    1.125    5.250    3.000 
#    0.000    0.000    0.000    0.000    0.000    3.500 
#    0.000    0.000    0.000    0.000    0.000    0.000 
#
# Total GULP energy -178427.809449 kJ/mol
# GULP energy per Si atom -5575.869045 kJ/mol
# Density = 2.172670 g / cm^3
# Si number density = 21.776259 Si / 1000 Ang^3
#
#
#
# Elastic Constant Matrix: (Units=GPa)
#
#
# Indices 1 2 3 4 5 6 
#
# 1 34.4451 11.4367 33.3247 0.0000 6.4769 0.0000
# 2 11.4367 77.0427 14.9335 0.0000 16.4944 0.0000
# 3 33.3247 14.9335 80.1485 0.0000 15.2307 0.0000
# 4 0.0000 0.0000 0.0000 26.0198 0.0000 10.3967
# 5 6.4769 16.4944 15.2307 0.0000 26.9751 0.0000
# 6 0.0000 0.0000 0.0000 10.3967 0.0000 24.9250
#
#
#
# Elastic Compliance Matrix: (Units=1/GPa)
#
#
# Indices 1 2 3 4 5 6 
#
# 1 0.049529 -0.003832 -0.020236 0.000000 0.001876 0.000000
# 2 -0.003832 0.015331 0.000385 0.000000 -0.008671 0.000000
# 3 -0.020236 0.000385 0.022337 0.000000 -0.007988 0.000000
# 4 0.000000 0.000000 0.000000 0.046119 0.000000 -0.019237
# 5 0.001876 -0.008671 -0.007988 0.000000 0.046433 0.000000
# 6 0.000000 0.000000 0.000000 -0.019237 0.000000 0.048144
#
#
# Mechanical properties :
#
#
# Convention : Reuss Voigt Hill
#
# Bulk Modulus (GPa) = 25.10662 34.55845 29.83253
# Shear Modulus (GPa) = 17.32885 24.38009 20.85447
#
# Velocity S-wave (km/s) = 2.82400 3.34963 3.09798
# Velocity P-wave (km/s) = 4.71038 5.55556 5.15034
#
# Compressibility (1/GPa) = 0.03983014
#
# Stress axis : x y z
#
# Youngs Moduli (GPa) = 20.19018 65.22927 44.76849
#
# Poissons Ratio (x) = 0.24994 0.90594
# Poissons Ratio (y) = 0.07736 -0.01721
# Poissons Ratio (z) = 0.40857 -0.02508
#
# Static dielectric constant tensor:
#      x y z
#    x 1.807840 0.000000 0.022260 
#    y 0.000000 1.881330 0.000000 
#    z 0.022260 0.000000 1.825250 
# 
# From -- ./inp_files/69538.got.cif
#   From: 2010.05.17/outbox.cif.g08.bks.cpg/sg14_35_cif.got.tgz:69538.got - 2010.06.03 17:49:19.
