data_PCOD9242262
_publ_section_title
;
Structure prediction by ZEFSAII (Michael W. Deem and Ramdas Pophale) SiO2 
 PCOD9242262
Probable space group: P 21/C
;
_chemical_formula_sum "Si O2"
_cell_formula_units_Z 32
_cell_length_a 11.572293
_cell_length_b 14.879185
_cell_length_c 17.976455
_cell_angle_alpha 90.000000
_cell_angle_beta 149.602489
_cell_angle_gamma 90.000000
_cell_volume 1566.209859
_symmetry_space_group_name_H-M "P 21/C"
_symmetry_group_IT_number 14
_symmetry_cell_setting 'monoclinic'
loop_
_space_group_symop_operation_xyz
x,y,z
-x,1/2+y,1/2-z
-x,-y,-z
x,1/2-y,1/2+z
loop_
_atom_site_type_symbol
_atom_site_label
_atom_site_fract_x
_atom_site_fract_y
_atom_site_fract_z
Si Si1 0.582425 0.687878 0.345241
Si Si2 0.189117 0.504213 0.338313
Si Si3 0.777149 0.740326 0.103549
Si Si4 0.369388 0.834338 0.124896
Si Si5 0.738021 0.543885 0.147424
Si Si6 0.701313 0.285190 0.576478
Si Si7 0.432372 0.514790 0.331728
Si Si8 0.107436 0.085777 0.101379
O O1 0.737498 0.724806 0.498362
O O2 0.468825 0.774831 0.245622
O O3 0.407452 0.609830 0.276536
O O4 0.731163 0.637393 0.365776
O O5 0.237593 0.610599 0.373801
O O6 0.233055 0.482518 0.276738
O O7 0.365996 0.465243 0.496304
O O8 0.941795 0.482090 0.230816
O O9 0.761582 0.634420 0.112484
O O10 0.047133 0.762243 0.273432
O O11 0.536108 0.768685 0.010705
O O12 0.490567 0.931222 0.176859
O O13 0.375623 0.779028 0.051753
O O14 0.106285 0.853831 0.994387
O O15 0.773192 0.560953 0.254533
O O16 0.500000 0.500000 0.000000
O O17 0.000000 0.000000 0.000000
#
# Coordination Sequence:
#
# PCOD9242262 Si02
#       8
#     4   4   4   4   4   4   4   4
#     4  12  26  38  70 106 138 190 237 291 362 434
#     4   9  18  39  69  94 127 172 230 286 341 406
#     4  11  24  42  68 101 139 178 244 293 347 424
#     4  11  24  43  67  98 143 188 229 297 363 435
#     4  11  24  43  67 101 138 177 237 306 349 422
#     4  10  21  43  65  95 134 176 234 291 344 422
#     4  10  19  41  67  97 133 182 237 277 345 430
#     4  12  24  46  70  98 146 190 233 289 373 439
#
# _framework density 20.43149
#
# number of rings (size 3 to 8) (size 9 to 14) (size 15 to 20)
#    0.000    1.250    6.250    0.750    3.500    1.000 
#    0.000    1.250    0.000    3.000    0.000    0.000 
#    0.000    0.000    0.000    0.000    0.000    0.000 
#
# Total GULP energy -178330.704051 kJ/mol
# GULP energy per Si atom -5572.834502 kJ/mol
# Density = 2.038499 g / cm^3
# Si number density = 20.431490 Si / 1000 Ang^3
#
#
#
# Elastic Constant Matrix: (Units=GPa)
#
#
# Indices 1 2 3 4 5 6 
#
# 1 107.7114 17.8647 27.4582 0.0000 -1.0154 0.0000
# 2 17.8647 76.5424 33.9757 0.0000 -20.9858 0.0000
# 3 27.4582 33.9757 71.4036 0.0000 -6.2439 0.0000
# 4 0.0000 0.0000 0.0000 26.8718 0.0000 2.3373
# 5 -1.0154 -20.9858 -6.2439 0.0000 29.2444 0.0000
# 6 0.0000 0.0000 0.0000 2.3373 0.0000 23.3205
#
#
#
# Elastic Compliance Matrix: (Units=1/GPa)
#
#
# Indices 1 2 3 4 5 6 
#
# 1 0.010370 -0.001198 -0.003527 0.000000 -0.001253 0.000000
# 2 -0.001198 0.020519 -0.008171 0.000000 0.012938 0.000000
# 3 -0.003527 -0.008171 0.019082 0.000000 -0.001912 0.000000
# 4 0.000000 0.000000 0.000000 0.037541 0.000000 -0.003763
# 5 -0.001253 0.012938 -0.001912 0.000000 0.043027 0.000000
# 6 0.000000 0.000000 0.000000 -0.003763 0.000000 0.043258
#
#
# Mechanical properties :
#
#
# Convention : Reuss Voigt Hill
#
# Bulk Modulus (GPa) = 41.36044 46.02828 43.69436
# Shear Modulus (GPa) = 24.07908 27.64459 25.86184
#
# Velocity S-wave (km/s) = 3.43669 3.68236 3.56164
# Velocity P-wave (km/s) = 6.00294 6.37626 6.19241
#
# Compressibility (1/GPa) = 0.02417769
#
# Stress axis : x y z
#
# Youngs Moduli (GPa) = 96.43046 48.73647 52.40497
#
# Poissons Ratio (x) = 0.05839 0.18485
# Poissons Ratio (y) = 0.11554 0.42821
# Poissons Ratio (z) = 0.34014 0.39823
#
# Static dielectric constant tensor:
#      x y z
#    x 1.798490 0.000000 -0.008220 
#    y 0.000000 1.783820 0.000000 
#    z -0.008220 0.000000 1.740270 
# 
# From -- ./inp_files/58032.got.cif
#   From: 2010.05.17/outbox.cif.g08.bks.cpg/sg14_30_cif.got.tgz:58032.got - 2010.06.03 17:49:19.
