data_PCOD9242590
_publ_section_title
;
Structure prediction by ZEFSAII (Michael W. Deem and Ramdas Pophale) SiO2 
 PCOD9242590
Probable space group: P 21/C
;
_chemical_formula_sum "Si O2"
_cell_formula_units_Z 20
_cell_length_a 12.745965
_cell_length_b 8.172111
_cell_length_c 8.850120
_cell_angle_alpha 90.000000
_cell_angle_beta 69.061592
_cell_angle_gamma 90.000000
_cell_volume 860.967580
_symmetry_space_group_name_H-M "P 21/C"
_symmetry_group_IT_number 14
_symmetry_cell_setting 'monoclinic'
loop_
_space_group_symop_operation_xyz
x,y,z
-x,1/2+y,1/2-z
-x,-y,-z
x,1/2-y,1/2+z
loop_
_atom_site_type_symbol
_atom_site_label
_atom_site_fract_x
_atom_site_fract_y
_atom_site_fract_z
Si Si1 0.350962 0.667399 0.571779
Si Si2 0.519171 0.984818 0.746904
Si Si3 0.652087 0.939032 0.400533
Si Si4 0.885850 0.176086 0.944468
Si Si5 0.893200 0.007875 0.265539
O O1 0.387735 0.587089 0.710158
O O2 0.445206 0.612783 0.404803
O O3 0.345740 0.862412 0.590222
O O4 0.229784 0.614962 0.571766
O O5 0.426560 0.089906 0.702096
O O6 0.586090 0.884594 0.583613
O O7 0.782155 0.893769 0.324959
O O8 0.892768 0.370152 0.908567
O O9 0.884597 0.122953 0.120102
O O10 0.993752 0.093912 0.811461
#
# Coordination Sequence:
#
# PCOD9242590 Si02
#       5
#     4   4   4   4   4
#     4  10  20  37  59  85 114 158 190 241 295 357
#     4  10  20  34  58  84 114 146 198 232 286 352
#     4  10  20  37  59  85 114 158 190 241 295 357
#     4  10  22  41  64  89 120 158 202 247 297 357
#     4  10  22  41  64  89 120 158 202 247 297 357
#
# _framework density 23.229676999999999
#
# number of rings (size 3 to 8) (size 9 to 14) (size 15 to 20)
#    0.000    2.000    2.000    1.200    8.400    0.800 
#    0.000   12.000    0.000    0.000    0.000    0.000 
#    0.000    0.000    0.000    0.000    0.000    0.000 
#
# Total GULP energy -111891.189261 kJ/mol
# GULP energy per Si atom -5594.559463 kJ/mol
# Density = 2.317681 g / cm^3
# Si number density = 23.229677 Si / 1000 Ang^3
#
#
#
# Elastic Constant Matrix: (Units=GPa)
#
#
# Indices 1 2 3 4 5 6 
#
# 1 144.2238 33.9734 20.2066 0.0000 -10.4275 0.0000
# 2 33.9734 22.4721 13.8612 0.0000 5.1766 0.0000
# 3 20.2066 13.8612 73.9466 0.0000 3.5681 0.0000
# 4 0.0000 0.0000 0.0000 29.6613 0.0000 -4.2162
# 5 -10.4275 5.1766 3.5681 0.0000 44.6315 0.0000
# 6 0.0000 0.0000 0.0000 -4.2162 0.0000 27.0070
#
#
#
# Elastic Compliance Matrix: (Units=1/GPa)
#
#
# Indices 1 2 3 4 5 6 
#
# 1 0.011739 -0.018948 0.000106 0.000000 0.004932 0.000000
# 2 -0.018948 0.082088 -0.009573 0.000000 -0.013183 0.000000
# 3 0.000106 -0.009573 0.015293 0.000000 -0.000087 0.000000
# 4 0.000000 0.000000 0.000000 0.034479 0.000000 0.005383
# 5 0.004932 -0.013183 -0.000087 0.000000 0.025094 0.000000
# 6 0.000000 0.000000 0.000000 0.005383 0.000000 0.037868
#
#
# Mechanical properties :
#
#
# Convention : Reuss Voigt Hill
#
# Bulk Modulus (GPa) = 19.12472 41.85832 30.49152
# Shear Modulus (GPa) = 17.80493 31.76672 24.78583
#
# Velocity S-wave (km/s) = 2.77153 3.70199 3.27002
# Velocity P-wave (km/s) = 4.30030 6.02756 5.23565
#
# Compressibility (1/GPa) = 0.05228835
#
# Stress axis : x y z
#
# Youngs Moduli (GPa) = 85.18701 12.18209 65.38948
#
# Poissons Ratio (x) = 0.23083 -0.00694
# Poissons Ratio (y) = 1.61416 0.62599
# Poissons Ratio (z) = -0.00904 0.11662
#
# Static dielectric constant tensor:
#      x y z
#    x 1.883600 0.000000 0.000350 
#    y 0.000000 1.924920 0.000000 
#    z 0.000350 0.000000 1.873860 
# 
# From -- ./inp_files/11763.got.cif
#   From: 2010.05.17/outbox.cif.g08.bks.cpg/sg14_6_cif.got.tgz:11763.got - 2010.06.03 17:49:19.
