data_PCOD9242053
_publ_section_title
;
Structure prediction by ZEFSAII (Michael W. Deem and Ramdas Pophale) SiO2 
 PCOD9242053
Probable space group: P 21/C
;
_chemical_formula_sum "Si O2"
_cell_formula_units_Z 26
_cell_length_a 7.501308
_cell_length_b 15.051453
_cell_length_c 12.481206
_cell_angle_alpha 90.000000
_cell_angle_beta 42.087018
_cell_angle_gamma 90.000000
_cell_volume 944.526826
_symmetry_space_group_name_H-M "P 21/C"
_symmetry_group_IT_number 14
_symmetry_cell_setting 'monoclinic'
loop_
_space_group_symop_operation_xyz
x,y,z
-x,1/2+y,1/2-z
-x,-y,-z
x,1/2-y,1/2+z
loop_
_atom_site_type_symbol
_atom_site_label
_atom_site_fract_x
_atom_site_fract_y
_atom_site_fract_z
Si Si1 0.405838 0.976858 0.243618
Si Si2 0.312405 0.644931 0.363761
Si Si3 0.605875 0.331789 0.418781
Si Si4 0.800312 0.725984 0.642583
Si Si5 0.078769 0.598748 0.087952
Si Si6 0.500000 0.500000 0.000000
Si Si7 0.786341 0.830962 0.373238
O O1 0.502878 0.908944 0.110463
O O2 0.249293 0.925460 0.406459
O O3 0.619982 0.044076 0.199860
O O4 0.186800 0.041438 0.289791
O O5 0.343969 0.640710 0.480001
O O6 0.536828 0.717918 0.229567
O O7 0.014184 0.676918 0.472595
O O8 0.400777 0.250888 0.513911
O O9 0.904106 0.313328 0.243068
O O10 0.735535 0.658118 0.767450
O O11 0.983996 0.801037 0.617240
O O12 0.273812 0.578480 0.097395
O O13 0.716353 0.573054 0.951073
#
# Coordination Sequence:
#
# PCOD9242053 Si02
#       7
#     4   4   4   4   4   2   4
#     4  10  20  38  57  92 117 158 205 247 308 361
#     4   9  18  33  63  84 118 154 207 243 300 363
#     4  10  19  39  58  92 119 162 200 255 299 368
#     4   9  18  37  56  88 112 161 196 246 299 361
#     4  10  21  36  61  83 123 161 200 249 304 372
#     4  12  20  38  60  88 118 166 196 248 300 368
#     4  10  21  36  64  89 120 154 212 247 305 363
#
# _framework density 27.527011999999999
#
# number of rings (size 3 to 8) (size 9 to 14) (size 15 to 20)
#    0.000    2.154    1.538    3.231    0.000    0.000 
#    8.308    1.538    0.000    8.308    0.000    0.000 
#    0.000    0.000    0.000    0.000    0.000    0.000 
#
# Total GULP energy -145232.460438 kJ/mol
# GULP energy per Si atom -5585.863863 kJ/mol
# Density = 2.746436 g / cm^3
# Si number density = 27.527012 Si / 1000 Ang^3
#
#
#
# Elastic Constant Matrix: (Units=GPa)
#
#
# Indices 1 2 3 4 5 6 
#
# 1 69.9168 14.4786 42.9521 0.0000 -34.7598 0.0000
# 2 14.4786 112.9741 54.5541 0.0000 -31.8032 0.0000
# 3 42.9521 54.5541 121.0257 0.0000 -21.9595 0.0000
# 4 0.0000 0.0000 0.0000 50.5221 0.0000 -14.7329
# 5 -34.7598 -31.8032 -21.9595 0.0000 55.3042 0.0000
# 6 0.0000 0.0000 0.0000 -14.7329 0.0000 30.1037
#
#
#
# Elastic Compliance Matrix: (Units=1/GPa)
#
#
# Indices 1 2 3 4 5 6 
#
# 1 0.026952 0.005590 -0.009082 0.000000 0.016548 0.000000
# 2 0.005590 0.013812 -0.006607 0.000000 0.008833 0.000000
# 3 -0.009082 -0.006607 0.013728 0.000000 -0.004057 0.000000
# 4 0.000000 0.000000 0.000000 0.023088 0.000000 0.011300
# 5 0.016548 0.008833 -0.004057 0.000000 0.031951 0.000000
# 6 0.000000 0.000000 0.000000 0.011300 0.000000 0.038749
#
#
# Mechanical properties :
#
#
# Convention : Reuss Voigt Hill
#
# Bulk Modulus (GPa) = 29.16047 58.65399 43.90723
# Shear Modulus (GPa) = 27.79156 39.98147 33.88651
#
# Velocity S-wave (km/s) = 3.18088 3.81523 3.51241
# Velocity P-wave (km/s) = 4.90990 6.38451 5.69513
#
# Compressibility (1/GPa) = 0.03429300
#
# Stress axis : x y z
#
# Youngs Moduli (GPa) = 37.10335 72.39914 72.84218
#
# Poissons Ratio (x) = -0.40472 0.66159
# Poissons Ratio (y) = -0.20741 0.48130
# Poissons Ratio (z) = 0.33699 0.47837
#
# Static dielectric constant tensor:
#      x y z
#    x 2.206840 0.000000 0.078320 
#    y 0.000000 2.144510 0.000000 
#    z 0.078320 0.000000 2.261490 
# 
# From -- ./inp_files/41410.got.cif
#   From: 2010.05.17/outbox.cif.g08.bks.cpg/sg14_21_cif.got.tgz:41410.got - 2010.06.03 17:49:19.
