data_PCOD9242679
_publ_section_title
;
Structure prediction by ZEFSAII (Michael W. Deem and Ramdas Pophale) SiO2 
 PCOD9242679
Probable space group: P 21/C
;
_chemical_formula_sum "Si O2"
_cell_formula_units_Z 20
_cell_length_a 5.231151
_cell_length_b 5.601666
_cell_length_c 23.778208
_cell_angle_alpha 90.000000
_cell_angle_beta 97.355673
_cell_angle_gamma 90.000000
_cell_volume 691.042533
_symmetry_space_group_name_H-M "P 21/C"
_symmetry_group_IT_number 14
_symmetry_cell_setting 'monoclinic'
loop_
_space_group_symop_operation_xyz
x,y,z
-x,1/2+y,1/2-z
-x,-y,-z
x,1/2-y,1/2+z
loop_
_atom_site_type_symbol
_atom_site_label
_atom_site_fract_x
_atom_site_fract_y
_atom_site_fract_z
Si Si1 0.746451 0.436547 0.323450
Si Si2 0.363264 0.252514 0.478967
Si Si3 0.909981 0.715997 0.422532
Si Si4 0.618016 0.473250 0.120732
Si Si5 0.221224 0.684988 0.279982
O O1 0.828646 0.467771 0.390389
O O2 0.452091 0.512885 0.305779
O O3 0.785293 0.202434 0.287317
O O4 0.948306 0.611048 0.297493
O O5 0.500000 0.500000 0.500000
O O6 0.109934 0.264274 0.510941
O O7 0.339006 0.218587 0.411453
O O8 0.500000 0.000000 0.500000
O O9 0.675854 0.886540 0.394707
O O10 0.182783 0.798803 0.406757
O O11 0.697155 0.432879 0.187138
#
# Coordination Sequence:
#
# PCOD9242679 Si02
#       5
#     4   4   4   4   4
#     4  10  20  35  56  83 117 155 199 250 306 366
#     4  10  21  40  64  92 126 164 208 256 310 370
#     4   9  19  37  58  83 119 161 205 254 308 367
#     4   9  19  37  58  83 119 161 205 254 308 367
#     4  10  20  35  56  83 117 155 199 250 306 366
#
# _framework density 28.941779
#
# number of rings (size 3 to 8) (size 9 to 14) (size 15 to 20)
#    0.000    2.400    0.000    1.800    0.000    1.600 
#    0.000   24.000    0.000    0.000    0.000    0.000 
#    0.000    0.000    0.000    0.000    0.000    0.000 
#
# Total GULP energy -111942.828957 kJ/mol
# GULP energy per Si atom -5597.141448 kJ/mol
# Density = 2.887591 g / cm^3
# Si number density = 28.941779 Si / 1000 Ang^3
#
#
#
# Elastic Constant Matrix: (Units=GPa)
#
#
# Indices 1 2 3 4 5 6 
#
# 1 135.3032 72.6706 54.3858 0.0000 -6.1263 0.0000
# 2 72.6706 114.9328 33.3737 0.0000 -0.4353 0.0000
# 3 54.3858 33.3737 94.0512 0.0000 -17.8349 0.0000
# 4 0.0000 0.0000 0.0000 49.4334 0.0000 2.7390
# 5 -6.1263 -0.4353 -17.8349 0.0000 43.9745 0.0000
# 6 0.0000 0.0000 0.0000 2.7390 0.0000 67.7601
#
#
#
# Elastic Compliance Matrix: (Units=1/GPa)
#
#
# Indices 1 2 3 4 5 6 
#
# 1 0.013125 -0.006774 -0.005256 0.000000 -0.000370 0.000000
# 2 -0.006774 0.013278 -0.001027 0.000000 -0.001229 0.000000
# 3 -0.005256 -0.001027 0.015053 0.000000 0.005363 0.000000
# 4 0.000000 0.000000 0.000000 0.020275 0.000000 -0.000820
# 5 -0.000370 -0.001229 0.005363 0.000000 0.024852 0.000000
# 6 0.000000 0.000000 0.000000 -0.000820 0.000000 0.014791
#
#
# Mechanical properties :
#
#
# Convention : Reuss Voigt Hill
#
# Bulk Modulus (GPa) = 65.18517 73.90526 69.54521
# Shear Modulus (GPa) = 37.70676 44.49071 41.09874
#
# Velocity S-wave (km/s) = 3.61342 3.92503 3.77244
# Velocity P-wave (km/s) = 6.32304 6.79209 6.56175
#
# Compressibility (1/GPa) = 0.01534091
#
# Stress axis : x y z
#
# Youngs Moduli (GPa) = 76.19030 75.31534 66.42993
#
# Poissons Ratio (x) = 0.51018 0.34917
# Poissons Ratio (y) = 0.51611 0.06825
# Poissons Ratio (z) = 0.40047 0.07738
#
# Static dielectric constant tensor:
#      x y z
#    x 2.176700 0.000000 0.023910 
#    y 0.000000 2.308010 0.000000 
#    z 0.023910 0.000000 2.323690 
# 
# From -- ./inp_files/75478.got.cif
#   From: 2010.05.17/outbox.cif.g08.bks.cpg/sg14_38_cif.got.tgz:75478.got - 2010.06.03 17:49:19.
