data_PCOD9242013
_publ_section_title
;
Structure prediction by ZEFSAII (Michael W. Deem and Ramdas Pophale) SiO2 
 PCOD9242013
Probable space group: P 21/C
;
_chemical_formula_sum "Si O2"
_cell_formula_units_Z 28
_cell_length_a 13.931752
_cell_length_b 16.630227
_cell_length_c 10.880494
_cell_angle_alpha 90.000000
_cell_angle_beta 30.522941
_cell_angle_gamma 90.000000
_cell_volume 1280.313933
_symmetry_space_group_name_H-M "P 21/C"
_symmetry_group_IT_number 14
_symmetry_cell_setting 'monoclinic'
loop_
_space_group_symop_operation_xyz
x,y,z
-x,1/2+y,1/2-z
-x,-y,-z
x,1/2-y,1/2+z
loop_
_atom_site_type_symbol
_atom_site_label
_atom_site_fract_x
_atom_site_fract_y
_atom_site_fract_z
Si Si1 0.858288 0.121093 0.525297
Si Si2 0.021746 0.368904 0.467333
Si Si3 0.076923 0.245051 0.115163
Si Si4 0.823985 0.396415 0.333546
Si Si5 0.075484 0.496055 0.226636
Si Si6 0.363757 0.775531 0.660889
Si Si7 0.523475 0.696812 0.248688
O O1 0.911111 0.091208 0.602494
O O2 0.699344 0.186350 0.729141
O O3 0.798701 0.045488 0.508228
O O4 0.013334 0.175465 0.281272
O O5 0.112915 0.296806 0.443851
O O6 0.134392 0.418127 0.239584
O O7 0.977715 0.437035 0.615840
O O8 0.821257 0.332940 0.641684
O O9 0.259054 0.292203 0.958512
O O10 0.910262 0.309938 0.281006
O O11 0.599136 0.382239 0.580822
O O12 0.897364 0.464611 0.343696
O O13 0.438744 0.765391 0.438025
O O14 0.491491 0.798419 0.636913
#
# Coordination Sequence:
#
# PCOD9242013 Si02
#       7
#     4   4   4   4   4   4   4
#     4  10  20  37  63  90 124 164 213 253 322 376
#     4  10  19  38  65  92 123 166 219 255 313 384
#     4  11  22  38  65  97 118 167 217 265 303 382
#     4  11  21  39  61  91 127 169 205 263 319 383
#     4  10  20  34  65  92 124 170 203 256 329 378
#     4  11  20  41  62  95 122 168 214 268 307 381
#     4  11  23  35  66  93 129 158 216 266 315 362
#
# _framework density 21.869636
#
# number of rings (size 3 to 8) (size 9 to 14) (size 15 to 20)
#    0.000    1.429    5.714    1.286    2.000    0.000 
#    0.000    0.000   12.571   10.286    0.000    0.000 
#    0.000    0.000    0.000    0.000    0.000    0.000 
#
# Total GULP energy -155923.170985 kJ/mol
# GULP energy per Si atom -5568.684678 kJ/mol
# Density = 2.181986 g / cm^3
# Si number density = 21.869636 Si / 1000 Ang^3
#
#
#
# Elastic Constant Matrix: (Units=GPa)
#
#
# Indices 1 2 3 4 5 6 
#
# 1 136.7638 54.9015 54.6676 0.0000 18.5713 0.0000
# 2 54.9015 69.5492 12.5774 0.0000 6.9725 0.0000
# 3 54.6676 12.5774 31.2158 0.0000 6.4349 0.0000
# 4 0.0000 0.0000 0.0000 22.3333 0.0000 22.9892
# 5 18.5713 6.9725 6.4349 0.0000 38.6073 0.0000
# 6 0.0000 0.0000 0.0000 22.9892 0.0000 45.5139
#
#
#
# Elastic Compliance Matrix: (Units=1/GPa)
#
#
# Indices 1 2 3 4 5 6 
#
# 1 0.042427 -0.021236 -0.064546 0.000000 -0.005815 0.000000
# 2 -0.021236 0.026262 0.026387 0.000000 0.001074 0.000000
# 3 -0.064546 0.026387 0.133614 0.000000 0.004013 0.000000
# 4 0.000000 0.000000 0.000000 0.093272 0.000000 -0.047112
# 5 -0.005815 0.001074 0.004013 0.000000 0.027836 0.000000
# 6 0.000000 0.000000 0.000000 -0.047112 0.000000 0.045768
#
#
# Mechanical properties :
#
#
# Convention : Reuss Voigt Hill
#
# Bulk Modulus (GPa) = 11.97422 53.53575 32.75499
# Shear Modulus (GPa) = 9.69357 28.98306 19.33831
#
# Velocity S-wave (km/s) = 2.10762 3.64437 2.97687
# Velocity P-wave (km/s) = 3.37785 6.49932 5.17934
#
# Compressibility (1/GPa) = 0.08351272
#
# Stress axis : x y z
#
# Youngs Moduli (GPa) = 23.57012 38.07782 7.48426
#
# Poissons Ratio (x) = 0.80860 0.48308
# Poissons Ratio (y) = 0.50053 -0.19748
# Poissons Ratio (z) = 1.52135 -1.00474
#
# Static dielectric constant tensor:
#      x y z
#    x 1.869300 0.000000 0.062230 
#    y 0.000000 1.806320 0.000000 
#    z 0.062230 0.000000 1.859380 
# 
# From -- ./inp_files/32909.got.cif
#   From: 2010.05.17/outbox.cif.g08.bks.cpg/sg14_17_cif.got.tgz:32909.got - 2010.06.03 17:49:19.
