data_PCOD9242584
_publ_section_title
;
Structure prediction by ZEFSAII (Michael W. Deem and Ramdas Pophale) SiO2 
 PCOD9242584
Probable space group: P 21/C
;
_chemical_formula_sum "Si O2"
_cell_formula_units_Z 20
_cell_length_a 10.170996
_cell_length_b 4.969645
_cell_length_c 21.677163
_cell_angle_alpha 90.000000
_cell_angle_beta 73.465100
_cell_angle_gamma 90.000000
_cell_volume 1050.388142
_symmetry_space_group_name_H-M "P 21/C"
_symmetry_group_IT_number 14
_symmetry_cell_setting 'monoclinic'
loop_
_space_group_symop_operation_xyz
x,y,z
-x,1/2+y,1/2-z
-x,-y,-z
x,1/2-y,1/2+z
loop_
_atom_site_type_symbol
_atom_site_label
_atom_site_fract_x
_atom_site_fract_y
_atom_site_fract_z
Si Si1 0.353365 0.014048 0.554044
Si Si2 0.388853 0.521617 0.628295
Si Si3 0.710923 0.004856 0.110236
Si Si4 0.160955 0.019470 0.468104
Si Si5 0.405209 0.744675 0.755588
O O1 0.360145 0.221391 0.609897
O O2 0.239764 0.100338 0.520113
O O3 0.500000 0.000000 0.500000
O O4 0.329237 0.720678 0.585249
O O5 0.554544 0.549793 0.609582
O O6 0.342587 0.617928 0.702118
O O7 0.777745 0.233286 0.059463
O O8 0.695766 0.126603 0.180832
O O9 0.797155 0.735340 0.089559
O O10 0.000000 0.000000 0.500000
O O11 0.491335 0.494154 0.773226
#
# Coordination Sequence:
#
# PCOD9242584 Si02
#       5
#     4   4   4   4   4
#     4  12  21  36  59  86 124 151 188 249 297 342
#     4  11  20  35  60  91 115 147 194 248 303 342
#     4  11  20  38  59  84 121 152 193 248 289 349
#     4  12  25  38  57  86 122 162 196 232 294 359
#     4  10  20  34  57  90 120 149 191 250 307 346
#
# _framework density 19.040581
#
# number of rings (size 3 to 8) (size 9 to 14) (size 15 to 20)
#    0.000    0.800    4.000    7.200    0.000    0.000 
#    0.000    0.000    0.000    4.800    0.000    2.800 
#    0.000    0.000    0.000    0.000    0.000    0.000 
#
# Total GULP energy -111729.412203 kJ/mol
# GULP energy per Si atom -5586.470610 kJ/mol
# Density = 1.899724 g / cm^3
# Si number density = 19.040581 Si / 1000 Ang^3
#
#
#
# Elastic Constant Matrix: (Units=GPa)
#
#
# Indices 1 2 3 4 5 6 
#
# 1 78.2499 11.5264 47.8668 0.0000 -4.1916 0.0000
# 2 11.5264 91.0675 8.2723 0.0000 -2.9838 0.0000
# 3 47.8668 8.2723 78.0913 0.0000 8.9164 0.0000
# 4 0.0000 0.0000 0.0000 51.4046 0.0000 5.0790
# 5 -4.1916 -2.9838 8.9164 0.0000 21.4363 0.0000
# 6 0.0000 0.0000 0.0000 5.0790 0.0000 7.3180
#
#
#
# Elastic Compliance Matrix: (Units=1/GPa)
#
#
# Indices 1 2 3 4 5 6 
#
# 1 0.022673 -0.001166 -0.014973 0.000000 0.010499 0.000000
# 2 -0.001166 0.011241 -0.000660 0.000000 0.001611 0.000000
# 3 -0.014973 -0.000660 0.023515 0.000000 -0.012801 0.000000
# 4 0.000000 0.000000 0.000000 0.020886 0.000000 -0.014496
# 5 0.010499 0.001611 -0.012801 0.000000 0.054252 0.000000
# 6 0.000000 0.000000 0.000000 -0.014496 0.000000 0.146710
#
#
# Mechanical properties :
#
#
# Convention : Reuss Voigt Hill
#
# Bulk Modulus (GPa) = 41.96167 42.52664 42.24415
# Shear Modulus (GPa) = 15.58518 28.01465 21.79992
#
# Velocity S-wave (km/s) = 2.86409 3.83993 3.38734
# Velocity P-wave (km/s) = 5.74658 6.48408 6.12644
#
# Compressibility (1/GPa) = 0.02383127
#
# Stress axis : x y z
#
# Youngs Moduli (GPa) = 44.10580 88.95863 42.52652
#
# Poissons Ratio (x) = 0.10369 0.63674
# Poissons Ratio (y) = 0.05141 0.02808
# Poissons Ratio (z) = 0.66039 0.05874
#
# Static dielectric constant tensor:
#      x y z
#    x 1.630730 0.000000 0.025210 
#    y 0.000000 1.676600 0.000000 
#    z 0.025210 0.000000 1.702500 
# 
# From -- ./inp_files/64128.got.cif
#   From: 2010.05.17/outbox.cif.g08.bks.cpg/sg14_33_cif.got.tgz:64128.got - 2010.06.03 17:49:19.
