data_PCOD9242525
_publ_section_title
;
Structure prediction by ZEFSAII (Michael W. Deem and Ramdas Pophale) SiO2 
 PCOD9242525
Probable space group: P 21/C
;
_chemical_formula_sum "Si O2"
_cell_formula_units_Z 24
_cell_length_a 22.724670
_cell_length_b 5.083888
_cell_length_c 26.271791
_cell_angle_alpha 90.000000
_cell_angle_beta 22.809304
_cell_angle_gamma 90.000000
_cell_volume 1176.630617
_symmetry_space_group_name_H-M "P 21/C"
_symmetry_group_IT_number 14
_symmetry_cell_setting 'monoclinic'
loop_
_space_group_symop_operation_xyz
x,y,z
-x,1/2+y,1/2-z
-x,-y,-z
x,1/2-y,1/2+z
loop_
_atom_site_type_symbol
_atom_site_label
_atom_site_fract_x
_atom_site_fract_y
_atom_site_fract_z
Si Si1 0.124312 0.211008 0.418293
Si Si2 0.423062 0.366545 0.336082
Si Si3 0.381044 0.829911 0.228557
Si Si4 0.149810 0.970173 0.990636
Si Si5 0.167401 0.162344 0.776549
Si Si6 0.360590 0.679007 0.630543
O O1 0.097323 0.285995 0.498006
O O2 0.125885 0.409514 0.369116
O O3 0.296762 0.104017 0.284847
O O4 0.000000 0.000000 0.500000
O O5 0.465384 0.089222 0.276424
O O6 0.466229 0.350528 0.360756
O O7 0.255059 0.450916 0.453596
O O8 0.260752 0.680923 0.361715
O O9 0.401743 0.727793 0.155128
O O10 0.989991 0.833885 0.128837
O O11 0.230023 0.457028 0.730956
O O12 0.291369 0.944798 0.660551
O O13 0.500000 0.500000 0.500000
#
# Coordination Sequence:
#
# PCOD9242525 Si02
#       6
#     4   4   4   4   4   4
#     4  11  18  30  49  85 115 143 171 222 285 341
#     4  10  21  33  51  79 116 148 173 216 276 348
#     4  10  20  34  54  79 115 147 182 224 279 336
#     4  11  19  33  53  84 114 137 184 220 293 344
#     4  11  22  34  57  81 111 142 180 236 281 329
#     4  11  24  39  56  78 109 149 192 229 277 328
#
# _framework density 20.397223
#
# number of rings (size 3 to 8) (size 9 to 14) (size 15 to 20)
#    0.000    1.333    5.000    3.000    0.000    0.000 
#    0.000    0.000    0.000    2.000    0.000    0.000 
#    0.000    0.000    0.000    0.000    0.000    0.000 
#
# Total GULP energy -133637.143968 kJ/mol
# GULP energy per Si atom -5568.214332 kJ/mol
# Density = 2.035080 g / cm^3
# Si number density = 20.397223 Si / 1000 Ang^3
#
#
#
# Elastic Constant Matrix: (Units=GPa)
#
#
# Indices 1 2 3 4 5 6 
#
# 1 97.1669 17.6517 41.3986 0.0000 -51.1507 0.0000
# 2 17.6517 69.1753 10.7430 0.0000 -8.3308 0.0000
# 3 41.3986 10.7430 77.7729 0.0000 -26.3941 0.0000
# 4 0.0000 0.0000 0.0000 35.4036 0.0000 -3.3266
# 5 -51.1507 -8.3308 -26.3941 0.0000 37.4633 0.0000
# 6 0.0000 0.0000 0.0000 -3.3266 0.0000 22.0479
#
#
#
# Elastic Compliance Matrix: (Units=1/GPa)
#
#
# Indices 1 2 3 4 5 6 
#
# 1 0.037974 -0.003311 -0.003168 0.000000 0.048880 0.000000
# 2 -0.003311 0.015232 -0.000954 0.000000 -0.001807 0.000000
# 3 -0.003168 -0.000954 0.017264 0.000000 0.007626 0.000000
# 4 0.000000 0.000000 0.000000 0.028652 0.000000 0.004323
# 5 0.048880 -0.001807 0.007626 0.000000 0.098402 0.000000
# 6 0.000000 0.000000 0.000000 0.004323 0.000000 0.046008
#
#
# Mechanical properties :
#
#
# Convention : Reuss Voigt Hill
#
# Bulk Modulus (GPa) = 17.98468 42.63353 30.30911
# Shear Modulus (GPa) = 18.05486 30.60440 24.32963
#
# Velocity S-wave (km/s) = 2.97840 3.87773 3.45743
# Velocity P-wave (km/s) = 4.54578 6.40282 5.55249
#
# Compressibility (1/GPa) = 0.05560289
#
# Stress axis : x y z
#
# Youngs Moduli (GPa) = 26.33359 65.65266 57.92428
#
# Poissons Ratio (x) = 0.21740 0.18348
# Poissons Ratio (y) = 0.08720 0.05528
# Poissons Ratio (z) = 0.08342 0.06266
#
# Static dielectric constant tensor:
#      x y z
#    x 1.728920 0.000000 0.009910 
#    y 0.000000 1.851790 0.000000 
#    z 0.009910 0.000000 1.825630 
# 
# From -- ./inp_files/80566.got.cif
#   From: 2010.05.17/outbox.cif.g08.bks.cpg/sg14_41_cif.got.tgz:80566.got - 2010.06.03 17:49:19.
