data_PCOD9242574
_publ_section_title
;
Structure prediction by ZEFSAII (Michael W. Deem and Ramdas Pophale) SiO2 
 PCOD9242574
Probable space group: P 21/C
;
_chemical_formula_sum "Si O2"
_cell_formula_units_Z 32
_cell_length_a 19.251582
_cell_length_b 5.995546
_cell_length_c 18.815746
_cell_angle_alpha 90.000000
_cell_angle_beta 36.153249
_cell_angle_gamma 90.000000
_cell_volume 1281.237436
_symmetry_space_group_name_H-M "P 21/C"
_symmetry_group_IT_number 14
_symmetry_cell_setting 'monoclinic'
loop_
_space_group_symop_operation_xyz
x,y,z
-x,1/2+y,1/2-z
-x,-y,-z
x,1/2-y,1/2+z
loop_
_atom_site_type_symbol
_atom_site_label
_atom_site_fract_x
_atom_site_fract_y
_atom_site_fract_z
Si Si1 0.606212 0.366446 0.247707
Si Si2 0.788541 0.856207 0.535905
Si Si3 0.974632 0.857556 0.802074
Si Si4 0.833468 0.540711 0.766780
Si Si5 0.402642 0.080649 0.478804
Si Si6 0.801576 0.471666 0.631966
Si Si7 0.445121 0.308288 0.592261
Si Si8 0.009944 0.864026 0.565382
O O1 0.663642 0.510997 0.135095
O O2 0.475924 0.258117 0.369335
O O3 0.694630 0.163448 0.185643
O O4 0.626921 0.538212 0.294849
O O5 0.838674 0.683407 0.436558
O O6 0.795516 0.710777 0.601875
O O7 0.896023 0.028779 0.458300
O O8 0.011221 0.618965 0.735034
O O9 0.064583 0.871294 0.793904
O O10 0.737099 0.540605 0.909793
O O11 0.789140 0.462162 0.726491
O O12 0.890383 0.785458 0.702921
O O13 0.401340 0.161315 0.562781
O O14 0.474251 0.848687 0.424450
O O15 0.924488 0.361403 0.511393
O O16 0.500000 0.500000 0.500000
O O17 0.000000 0.000000 0.500000
#
# Coordination Sequence:
#
# PCOD9242574 Si02
#       8
#     4   4   4   4   4   4   4   4
#     4  10  21  35  61  99 140 175 215 264 341 433
#     4  11  22  42  67  95 135 177 223 284 345 426
#     4  12  29  52  70 100 135 187 248 297 359 412
#     4  12  22  41  67 101 142 178 228 292 346 430
#     4  10  20  34  56  95 139 176 217 263 342 414
#     4  11  21  35  63 103 135 178 219 272 353 413
#     4   9  17  34  50  91 145 179 209 250 328 431
#     4  11  21  34  58 100 140 173 218 277 349 417
#
# _framework density 24.975854000000002
#
# number of rings (size 3 to 8) (size 9 to 14) (size 15 to 20)
#    0.000    1.250    2.500    5.625    3.500    0.000 
#    9.000    0.000    0.000    0.000    6.500    0.000 
#    0.000    0.000    0.000    0.000    0.000    0.000 
#
# Total GULP energy -178158.549959 kJ/mol
# GULP energy per Si atom -5567.454686 kJ/mol
# Density = 2.491901 g / cm^3
# Si number density = 24.975854 Si / 1000 Ang^3
#
#
#
# Elastic Constant Matrix: (Units=GPa)
#
#
# Indices 1 2 3 4 5 6 
#
# 1 27.5243 7.0084 -5.0762 0.0000 5.7889 0.0000
# 2 7.0084 114.5421 47.4659 0.0000 6.5604 0.0000
# 3 -5.0762 47.4659 143.0970 0.0000 5.6604 0.0000
# 4 0.0000 0.0000 0.0000 9.4111 0.0000 4.6475
# 5 5.7889 6.5604 5.6604 0.0000 19.2701 0.0000
# 6 0.0000 0.0000 0.0000 4.6475 0.0000 23.6470
#
#
#
# Elastic Compliance Matrix: (Units=1/GPa)
#
#
# Indices 1 2 3 4 5 6 
#
# 1 0.040118 -0.002966 0.002877 0.000000 -0.011887 0.000000
# 2 -0.002966 0.010460 -0.003510 0.000000 -0.001639 0.000000
# 3 0.002877 -0.003510 0.008338 0.000000 -0.002119 0.000000
# 4 0.000000 0.000000 0.000000 0.117678 0.000000 -0.023128
# 5 -0.011887 -0.001639 -0.002119 0.000000 0.056645 0.000000
# 6 0.000000 0.000000 0.000000 -0.023128 0.000000 0.046834
#
#
# Mechanical properties :
#
#
# Convention : Reuss Voigt Hill
#
# Bulk Modulus (GPa) = 19.33553 42.66217 30.99885
# Shear Modulus (GPa) = 16.41973 26.18333 21.30153
#
# Velocity S-wave (km/s) = 2.56681 3.24133 2.92359
# Velocity P-wave (km/s) = 4.06733 5.57913 4.88211
#
# Compressibility (1/GPa) = 0.05171826
#
# Stress axis : x y z
#
# Youngs Moduli (GPa) = 24.92676 95.59888 119.92610
#
# Poissons Ratio (x) = 0.28356 -0.34505
# Poissons Ratio (y) = 0.07394 0.42096
# Poissons Ratio (z) = -0.07172 0.33557
#
# Static dielectric constant tensor:
#      x y z
#    x 2.100450 0.000000 -0.003670 
#    y 0.000000 2.038210 0.000000 
#    z -0.003670 0.000000 2.141620 
# 
# From -- ./inp_files/74797.got.cif
#   From: 2010.05.17/outbox.cif.g08.bks.cpg/sg14_38_cif.got.tgz:74797.got - 2010.06.03 17:49:19.
