data_PCOD9242445
_publ_section_title
;
Structure prediction by ZEFSAII (Michael W. Deem and Ramdas Pophale) SiO2 
 PCOD9242445
Probable space group: P 21/C
;
_chemical_formula_sum "Si O2"
_cell_formula_units_Z 32
_cell_length_a 20.963019
_cell_length_b 12.286780
_cell_length_c 7.695870
_cell_angle_alpha 90.000000
_cell_angle_beta 39.391484
_cell_angle_gamma 90.000000
_cell_volume 1257.941407
_symmetry_space_group_name_H-M "P 21/C"
_symmetry_group_IT_number 14
_symmetry_cell_setting 'monoclinic'
loop_
_space_group_symop_operation_xyz
x,y,z
-x,1/2+y,1/2-z
-x,-y,-z
x,1/2-y,1/2+z
loop_
_atom_site_type_symbol
_atom_site_label
_atom_site_fract_x
_atom_site_fract_y
_atom_site_fract_z
Si Si1 0.843822 0.514787 0.744238
Si Si2 0.016607 0.329915 0.006261
Si Si3 0.659507 0.016792 0.384286
Si Si4 0.161568 0.301472 0.991232
Si Si5 0.430868 0.786039 0.618050
Si Si6 0.443939 0.926827 0.938291
Si Si7 0.946890 0.100353 0.317147
Si Si8 0.643867 0.874543 0.069474
O O1 0.758499 0.483100 0.791311
O O2 0.955058 0.525114 0.428379
O O3 0.854742 0.441790 0.894593
O O4 0.822914 0.632935 0.865177
O O5 0.084620 0.365832 0.025637
O O6 0.102127 0.303056 0.681243
O O7 0.938157 0.391249 0.045664
O O8 0.966913 0.219702 0.186868
O O9 0.639046 0.137157 0.351970
O O10 0.559636 0.968083 0.691071
O O11 0.669389 0.938789 0.193050
O O12 0.267572 0.297217 0.677528
O O13 0.430122 0.845075 0.804523
O O14 0.413516 0.656980 0.653431
O O15 0.543625 0.806390 0.310835
O O16 0.379311 0.033304 0.027448
#
# Coordination Sequence:
#
# PCOD9242445 Si02
#       8
#     4   4   4   4   4   4   4   4
#     4  10  20  34  54  78 105 137 172 213 265 316
#     4   9  19  36  55  78 105 132 172 218 259 313
#     4   9  19  37  54  75 108 142 178 218 260 313
#     4  10  20  33  54  81 105 133 171 216 262 312
#     4   9  19  34  54  76 105 143 177 217 264 307
#     4   9  19  35  53  75 106 142 180 218 260 312
#     4   9  19  36  55  76 103 136 172 215 264 310
#     4   9  19  35  53  77 107 140 177 217 262 309
#
# _framework density 25.438388
#
# number of rings (size 3 to 8) (size 9 to 14) (size 15 to 20)
#    0.000    2.750    0.000    2.250    0.000    7.500 
#    0.000    8.750    0.000    0.000    0.000    0.000 
#    0.000    0.000    0.000    0.000    0.000    0.000 
#
# Total GULP energy -178943.438109 kJ/mol
# GULP energy per Si atom -5591.982441 kJ/mol
# Density = 2.538049 g / cm^3
# Si number density = 25.438388 Si / 1000 Ang^3
#
#
#
# Elastic Constant Matrix: (Units=GPa)
#
#
# Indices 1 2 3 4 5 6 
#
# 1 206.7194 49.0883 17.8268 0.0000 -10.4471 0.0000
# 2 49.0883 73.0094 0.5315 0.0000 0.0322 0.0000
# 3 17.8268 0.5315 36.0550 0.0000 -0.6024 0.0000
# 4 0.0000 0.0000 0.0000 20.7762 0.0000 8.5632
# 5 -10.4471 0.0322 -0.6024 0.0000 28.2582 0.0000
# 6 0.0000 0.0000 0.0000 8.5632 0.0000 49.3800
#
#
#
# Elastic Compliance Matrix: (Units=1/GPa)
#
#
# Indices 1 2 3 4 5 6 
#
# 1 0.006189 -0.004140 -0.002962 0.000000 0.002230 0.000000
# 2 -0.004140 0.016468 0.001779 0.000000 -0.001512 0.000000
# 3 -0.002962 0.001779 0.029166 0.000000 -0.000475 0.000000
# 4 0.000000 0.000000 0.000000 0.051837 0.000000 -0.008989
# 5 0.002230 -0.001512 -0.000475 0.000000 0.036204 0.000000
# 6 0.000000 0.000000 0.000000 -0.008989 0.000000 0.021810
#
#
# Mechanical properties :
#
#
# Convention : Reuss Voigt Hill
#
# Bulk Modulus (GPa) = 24.28544 50.07520 37.18032
# Shear Modulus (GPa) = 26.87520 36.23870 31.55695
#
# Velocity S-wave (km/s) = 3.25388 3.77844 3.52593
# Velocity P-wave (km/s) = 4.86667 6.22600 5.58783
#
# Compressibility (1/GPa) = 0.04117694
#
# Stress axis : x y z
#
# Youngs Moduli (GPa) = 161.58301 60.72211 34.28696
#
# Poissons Ratio (x) = 0.25142 0.10155
# Poissons Ratio (y) = 0.66903 -0.06100
# Poissons Ratio (z) = 0.47855 -0.10804
#
# Static dielectric constant tensor:
#      x y z
#    x 2.058040 0.000000 0.065290 
#    y 0.000000 2.059600 0.000000 
#    z 0.065290 0.000000 2.013060 
# 
# From -- ./inp_files/19056.got.cif
#   From: 2010.05.17/outbox.cif.g08.bks.cpg/sg14_10_cif.got.tgz:19056.got - 2010.06.03 17:49:19.
