data_PCOD9242869
_publ_section_title
;
Structure prediction by ZEFSAII (Michael W. Deem and Ramdas Pophale) SiO2 
 PCOD9242869
Probable space group: P 21/C
;
_chemical_formula_sum "Si O2"
_cell_formula_units_Z 28
_cell_length_a 12.082516
_cell_length_b 11.126446
_cell_length_c 8.041099
_cell_angle_alpha 90.000000
_cell_angle_beta 82.365284
_cell_angle_gamma 90.000000
_cell_volume 1071.425955
_symmetry_space_group_name_H-M "P 21/C"
_symmetry_group_IT_number 14
_symmetry_cell_setting 'monoclinic'
loop_
_space_group_symop_operation_xyz
x,y,z
-x,1/2+y,1/2-z
-x,-y,-z
x,1/2-y,1/2+z
loop_
_atom_site_type_symbol
_atom_site_label
_atom_site_fract_x
_atom_site_fract_y
_atom_site_fract_z
Si Si1 0.194459 0.324310 0.997688
Si Si2 0.354613 0.332392 0.703419
Si Si3 0.685257 0.182565 0.617311
Si Si4 0.666734 0.074724 0.257669
Si Si5 0.888302 0.343232 0.616047
Si Si6 0.963802 0.682464 0.705370
Si Si7 0.481815 0.376045 0.356570
O O1 0.268783 0.397282 0.849352
O O2 0.131668 0.223243 0.903031
O O3 0.277344 0.257086 0.108416
O O4 0.094740 0.380892 0.126150
O O5 0.429172 0.397977 0.549652
O O6 0.433989 0.254444 0.808061
O O7 0.663103 0.124583 0.444810
O O8 0.639753 0.319737 0.632376
O O9 0.815220 0.217659 0.616233
O O10 0.611260 0.122798 0.776196
O O11 0.797937 0.058659 0.189729
O O12 0.585108 0.966128 0.250141
O O13 0.980623 0.304714 0.730830
O O14 0.942834 0.376946 0.429450
#
# Coordination Sequence:
#
# PCOD9242869 Si02
#       7
#     4   4   4   4   4   4   4
#     4   8  16  30  54  83 106 147 195 229 287 335
#     4   9  19  35  55  83 115 147 201 232 270 349
#     4  10  20  36  55  86 116 145 195 233 268 355
#     4  10  21  37  57  83 121 149 190 231 285 336
#     4   9  16  30  52  83 110 139 190 229 275 345
#     4   9  14  27  58  81 103 153 182 232 299 321
#     4  11  21  37  61  80 117 162 180 233 295 322
#
# _framework density 26.133395
#
# number of rings (size 3 to 8) (size 9 to 14) (size 15 to 20)
#    0.857    1.714    1.429    1.286    0.000    0.000 
#    0.000    5.714    0.000   32.571    0.000    0.000 
#    0.000    0.000    0.000    0.000    0.000    0.000 
#
# Total GULP energy -156197.120254 kJ/mol
# GULP energy per Si atom -5578.468580 kJ/mol
# Density = 2.607391 g / cm^3
# Si number density = 26.133395 Si / 1000 Ang^3
#
#
#
# Elastic Constant Matrix: (Units=GPa)
#
#
# Indices 1 2 3 4 5 6 
#
# 1 94.3233 10.8148 60.2894 0.0000 -27.2339 0.0000
# 2 10.8148 47.4610 33.6523 0.0000 -15.9494 0.0000
# 3 60.2894 33.6523 215.3684 0.0000 -56.9425 0.0000
# 4 0.0000 0.0000 0.0000 4.3685 0.0000 37.9595
# 5 -27.2339 -15.9494 -56.9425 0.0000 56.5568 0.0000
# 6 0.0000 0.0000 0.0000 37.9595 0.0000 4.8516
#
#
#
# Elastic Compliance Matrix: (Units=1/GPa)
#
#
# Indices 1 2 3 4 5 6 
#
# 1 0.013447 0.000172 -0.002816 0.000000 0.003689 0.000000
# 2 0.000172 0.024390 -0.002751 0.000000 0.004191 0.000000
# 3 -0.002816 -0.002751 0.007220 0.000000 0.005137 0.000000
# 4 0.000000 0.000000 0.000000 -0.003417 0.000000 0.026737
# 5 0.003689 0.004191 0.005137 0.000000 0.025811 0.000000
# 6 0.000000 0.000000 0.000000 0.026737 0.000000 -0.003077
#
#
# Mechanical properties :
#
#
# Convention : Reuss Voigt Hill
#
# Bulk Modulus (GPa) = 29.18306 62.96286 46.07296
# Shear Modulus (GPa) = 57.74628 29.98178 43.86403
#
# Velocity S-wave (km/s) = 4.70582 3.39080 4.10135
# Velocity P-wave (km/s) = 6.38102 6.28293 6.33217
#
# Compressibility (1/GPa) = 0.03426646
#
# Stress axis : x y z
#
# Youngs Moduli (GPa) = 74.36614 41.00070 138.51239
#
# Poissons Ratio (x) = -0.00706 0.39005
# Poissons Ratio (y) = -0.01280 0.38106
# Poissons Ratio (z) = 0.20941 0.11280
#
# Static dielectric constant tensor:
#      x y z
#    x 2.103540 0.000000 -0.055940 
#    y 0.000000 2.084210 0.000000 
#    z -0.055940 0.000000 2.038420 
# 
# From -- ./inp_files/15505.got.cif
#   From: 2010.05.17/outbox.cif.g08.bks.cpg/sg14_8_cif.got.tgz:15505.got - 2010.06.03 17:49:19.
