data_PCOD9242798
_publ_section_title
;
Structure prediction by ZEFSAII (Michael W. Deem and Ramdas Pophale) SiO2 
 PCOD9242798
Probable space group: P 21/C
;
_chemical_formula_sum "Si O2"
_cell_formula_units_Z 32
_cell_length_a 21.727484
_cell_length_b 10.003887
_cell_length_c 17.179224
_cell_angle_alpha 90.000000
_cell_angle_beta 154.228120
_cell_angle_gamma 90.000000
_cell_volume 1623.530640
_symmetry_space_group_name_H-M "P 21/C"
_symmetry_group_IT_number 14
_symmetry_cell_setting 'monoclinic'
loop_
_space_group_symop_operation_xyz
x,y,z
-x,1/2+y,1/2-z
-x,-y,-z
x,1/2-y,1/2+z
loop_
_atom_site_type_symbol
_atom_site_label
_atom_site_fract_x
_atom_site_fract_y
_atom_site_fract_z
Si Si1 0.990089 0.684692 0.425388
Si Si2 0.291728 0.173318 0.309506
Si Si3 0.534076 0.086427 0.694631
Si Si4 0.608518 0.970815 0.055747
Si Si5 0.822477 0.986055 0.958547
Si Si6 0.119049 0.091070 0.811450
Si Si7 0.890753 0.102874 0.334230
Si Si8 0.452814 0.138731 0.174543
O O1 0.082833 0.571220 0.492086
O O2 0.058763 0.752525 0.580430
O O3 0.835858 0.637966 0.277244
O O4 0.971880 0.801106 0.339540
O O5 0.434318 0.111295 0.506983
O O6 0.310313 0.332482 0.333828
O O7 0.254369 0.125274 0.181155
O O8 0.696356 0.073587 0.852841
O O9 0.511456 0.213540 0.725954
O O10 0.493333 0.949796 0.692684
O O11 0.731709 0.078571 0.183790
O O12 0.526538 0.943956 0.881842
O O13 0.500000 0.000000 0.000000
O O14 0.909836 0.927085 0.130547
O O15 0.108817 0.949326 0.754096
O O16 0.281960 0.141120 0.989763
O O17 0.000000 0.000000 0.500000
#
# Coordination Sequence:
#
# PCOD9242798 Si02
#       8
#     4   4   4   4   4   4   4   4
#     4  11  21  41  63  85 126 162 204 246 310 378
#     4  11  22  43  58  86 132 161 191 260 317 363
#     4  10  21  42  62  87 123 160 205 252 311 364
#     4  10  20  35  61  90 118 155 212 245 298 372
#     4  11  25  38  62  95 120 156 210 254 305 366
#     4   9  19  42  59  83 123 161 198 255 301 359
#     4   9  17  37  62  82 114 163 195 250 298 352
#     4   9  19  39  62  84 123 159 195 257 310 363
#
# _framework density 19.710128999999998
#
# number of rings (size 3 to 8) (size 9 to 14) (size 15 to 20)
#    0.000    2.000    5.000    0.750    3.500    3.000 
#    9.000    0.000    0.000    0.000    0.000    0.000 
#    0.000    0.000    0.000    0.000    0.000    0.000 
#
# Total GULP energy -178508.992975 kJ/mol
# GULP energy per Si atom -5578.406030 kJ/mol
# Density = 1.966527 g / cm^3
# Si number density = 19.710129 Si / 1000 Ang^3
#
#
#
# Elastic Constant Matrix: (Units=GPa)
#
#
# Indices 1 2 3 4 5 6 
#
# 1 50.3519 0.9510 -0.4563 0.0000 0.7616 0.0000
# 2 0.9510 20.0734 6.6217 0.0000 -2.9245 0.0000
# 3 -0.4563 6.6217 39.5133 0.0000 -8.0255 0.0000
# 4 0.0000 0.0000 0.0000 18.5140 0.0000 -4.0042
# 5 0.7616 -2.9245 -8.0255 0.0000 30.3295 0.0000
# 6 0.0000 0.0000 0.0000 -4.0042 0.0000 22.7215
#
#
#
# Elastic Compliance Matrix: (Units=1/GPa)
#
#
# Indices 1 2 3 4 5 6 
#
# 1 0.019892 -0.001122 0.000311 0.000000 -0.000525 0.000000
# 2 -0.001122 0.053038 -0.008303 0.000000 0.002945 0.000000
# 3 0.000311 -0.008303 0.028046 0.000000 0.006613 0.000000
# 4 0.000000 0.000000 0.000000 0.056153 0.000000 0.009896
# 5 -0.000525 0.002945 0.006613 0.000000 0.035018 0.000000
# 6 0.000000 0.000000 0.000000 0.009896 0.000000 0.045755
#
#
# Mechanical properties :
#
#
# Convention : Reuss Voigt Hill
#
# Bulk Modulus (GPa) = 12.08468 13.79682 12.94075
# Shear Modulus (GPa) = 17.62341 21.16781 19.39561
#
# Velocity S-wave (km/s) = 2.99344 3.28068 3.14035
# Velocity P-wave (km/s) = 4.25348 4.62229 4.44172
#
# Compressibility (1/GPa) = 0.08274941
#
# Stress axis : x y z
#
# Youngs Moduli (GPa) = 50.27105 18.85432 35.65557
#
# Poissons Ratio (x) = 0.02115 -0.01109
# Poissons Ratio (y) = 0.05638 0.29605
# Poissons Ratio (z) = -0.01563 0.15655
#
# Static dielectric constant tensor:
#      x y z
#    x 1.702460 0.000000 -0.021070 
#    y 0.000000 1.702400 0.000000 
#    z -0.021070 0.000000 1.698410 
# 
# From -- ./inp_files/48932.got.cif
#   From: 2010.05.17/outbox.cif.g08.bks.cpg/sg14_25_cif.got.tgz:48932.got - 2010.06.03 17:49:19.
