data_PCOD9242576
_publ_section_title
;
Structure prediction by ZEFSAII (Michael W. Deem and Ramdas Pophale) SiO2 
 PCOD9242576
Probable space group: P 21/C
;
_chemical_formula_sum "Si O2"
_cell_formula_units_Z 32
_cell_length_a 5.391642
_cell_length_b 12.762753
_cell_length_c 20.190370
_cell_angle_alpha 90.000000
_cell_angle_beta 120.983117
_cell_angle_gamma 90.000000
_cell_volume 1191.110771
_symmetry_space_group_name_H-M "P 21/C"
_symmetry_group_IT_number 14
_symmetry_cell_setting 'monoclinic'
loop_
_space_group_symop_operation_xyz
x,y,z
-x,1/2+y,1/2-z
-x,-y,-z
x,1/2-y,1/2+z
loop_
_atom_site_type_symbol
_atom_site_label
_atom_site_fract_x
_atom_site_fract_y
_atom_site_fract_z
Si Si1 0.570024 0.347291 0.070307
Si Si2 0.096702 0.471048 0.928609
Si Si3 0.493985 0.512686 0.823000
Si Si4 0.954377 0.689262 0.175395
Si Si5 0.395053 0.121456 0.198339
Si Si6 0.671957 0.842109 0.030162
Si Si7 0.279298 0.928674 0.093153
Si Si8 0.317906 0.178089 0.747395
O O1 0.281214 0.409119 0.007825
O O2 0.515713 0.226235 0.047738
O O3 0.808181 0.407925 0.059053
O O4 0.622604 0.388726 0.151800
O O5 0.189215 0.421544 0.869014
O O6 0.758331 0.449044 0.892166
O O7 0.285206 0.442444 0.748772
O O8 0.692009 0.569181 0.791859
O O9 0.845299 0.756278 0.097590
O O10 0.870122 0.767840 0.222042
O O11 0.279280 0.655367 0.237297
O O12 0.353465 0.043656 0.132295
O O13 0.260354 0.236168 0.181133
O O14 0.461444 0.901952 0.052367
O O15 0.936071 0.911268 0.038940
O O16 0.397096 0.848551 0.167522
#
# Coordination Sequence:
#
# PCOD9242576 Si02
#       8
#     4   4   4   4   4   4   4   4
#     4  10  20  34  57  80 116 153 187 242 295 350
#     4   9  19  34  52  86 112 151 191 237 296 355
#     4  10  21  34  54  89 115 149 191 239 291 355
#     4   9  18  34  54  82 116 152 188 238 296 351
#     4  10  20  35  58  83 116 153 188 246 291 351
#     4  10  21  37  58  82 118 153 194 237 287 356
#     4  10  22  37  57  88 113 153 201 237 292 353
#     4  10  20  35  56  83 120 152 191 240 298 347
#
# _framework density 26.865677999999999
#
# number of rings (size 3 to 8) (size 9 to 14) (size 15 to 20)
#    0.000    2.250    1.250    1.125    3.500    2.000 
#    4.500    0.000    0.000    1.500    0.000    0.000 
#    0.000    0.000    0.000    0.000    0.000    0.000 
#
# Total GULP energy -178338.032714 kJ/mol
# GULP energy per Si atom -5573.063522 kJ/mol
# Density = 2.680453 g / cm^3
# Si number density = 26.865678 Si / 1000 Ang^3
#
#
#
# Elastic Constant Matrix: (Units=GPa)
#
#
# Indices 1 2 3 4 5 6 
#
# 1 49.2216 2.4868 5.8678 0.0000 14.4239 0.0000
# 2 2.4868 116.4948 31.6539 0.0000 -3.4341 0.0000
# 3 5.8678 31.6539 55.7031 0.0000 13.5298 0.0000
# 4 0.0000 0.0000 0.0000 55.9025 0.0000 5.7978
# 5 14.4239 -3.4341 13.5298 0.0000 20.6178 0.0000
# 6 0.0000 0.0000 0.0000 5.7978 0.0000 29.1612
#
#
#
# Elastic Compliance Matrix: (Units=1/GPa)
#
#
# Indices 1 2 3 4 5 6 
#
# 1 0.026151 -0.002145 0.003562 0.000000 -0.020990 0.000000
# 2 -0.002145 0.011121 -0.008218 0.000000 0.008745 0.000000
# 3 0.003562 -0.008218 0.027581 0.000000 -0.021960 0.000000
# 4 0.000000 0.000000 0.000000 0.018265 0.000000 -0.003631
# 5 -0.020990 0.008745 -0.021960 0.000000 0.079053 0.000000
# 6 0.000000 0.000000 0.000000 -0.003631 0.000000 0.035014
#
#
# Mechanical properties :
#
#
# Convention : Reuss Voigt Hill
#
# Bulk Modulus (GPa) = 19.51163 33.49296 26.50229
# Shear Modulus (GPa) = 21.94253 33.23035 27.58644
#
# Velocity S-wave (km/s) = 2.86098 3.52078 3.20789
# Velocity P-wave (km/s) = 4.26522 5.38719 4.85870
#
# Compressibility (1/GPa) = 0.05125149
#
# Stress axis : x y z
#
# Youngs Moduli (GPa) = 38.23984 89.92381 36.25739
#
# Poissons Ratio (x) = 0.19288 -0.12916
# Poissons Ratio (y) = 0.08202 0.29795
# Poissons Ratio (z) = -0.13622 0.73895
#
# Static dielectric constant tensor:
#      x y z
#    x 2.361100 0.000000 -0.080660 
#    y 0.000000 2.145830 0.000000 
#    z -0.080660 0.000000 2.170240 
# 
# From -- ./inp_files/63776.got.cif
#   From: 2010.05.17/outbox.cif.g08.bks.cpg/sg14_32_cif.got.tgz:63776.got - 2010.06.03 17:49:19.
