data_PCOD9242619
_publ_section_title
;
Structure prediction by ZEFSAII (Michael W. Deem and Ramdas Pophale) SiO2 
 PCOD9242619
Probable space group: P 21/C
;
_chemical_formula_sum "Si O2"
_cell_formula_units_Z 24
_cell_length_a 22.585100
_cell_length_b 5.588993
_cell_length_c 30.463649
_cell_angle_alpha 90.000000
_cell_angle_beta 165.637713
_cell_angle_gamma 90.000000
_cell_volume 953.851481
_symmetry_space_group_name_H-M "P 21/C"
_symmetry_group_IT_number 14
_symmetry_cell_setting 'monoclinic'
loop_
_space_group_symop_operation_xyz
x,y,z
-x,1/2+y,1/2-z
-x,-y,-z
x,1/2-y,1/2+z
loop_
_atom_site_type_symbol
_atom_site_label
_atom_site_fract_x
_atom_site_fract_y
_atom_site_fract_z
Si Si1 0.625845 0.478746 0.981657
Si Si2 0.299150 0.083263 0.793001
Si Si3 0.864784 0.183373 0.871159
Si Si4 0.664521 0.804042 0.594267
Si Si5 0.196738 0.108847 0.034113
Si Si6 0.297910 0.888457 0.559147
O O1 0.460178 0.267873 0.881829
O O2 0.414252 0.664752 0.816797
O O3 0.758794 0.411647 0.033084
O O4 0.776169 0.571214 0.131454
O O5 0.200178 0.177705 0.768588
O O6 0.110512 0.966503 0.623553
O O7 0.487345 0.888910 0.946026
O O8 0.953306 0.089276 0.886978
O O9 0.000000 0.000000 0.000000
O O10 0.500000 0.000000 0.500000
O O11 0.415152 0.106634 0.225663
O O12 0.209845 0.363977 0.018775
O O13 0.234080 0.877199 0.030699
#
# Coordination Sequence:
#
# PCOD9242619 Si02
#       6
#     4   4   4   4   4   4
#     4  10  20  34  61  90 113 156 215 259 301 377
#     4   9  19  32  57  87 117 149 195 263 312 358
#     4  11  22  35  55  91 125 160 208 257 313 374
#     4   8  16  34  54  88 111 145 196 262 312 360
#     4  10  23  39  55  82 128 169 196 247 311 379
#     4  10  22  39  57  82 123 167 207 241 305 384
#
# _framework density 25.161149000000002
#
# number of rings (size 3 to 8) (size 9 to 14) (size 15 to 20)
#    0.000    2.333    1.667    0.000    7.000    2.000 
#    0.000    0.000    0.000    0.000   26.000    0.000 
#    0.000    0.000    0.000    0.000    0.000    0.000 
#
# Total GULP energy -133757.671615 kJ/mol
# GULP energy per Si atom -5573.236317 kJ/mol
# Density = 2.510388 g / cm^3
# Si number density = 25.161149 Si / 1000 Ang^3
#
#
#
# Elastic Constant Matrix: (Units=GPa)
#
#
# Indices 1 2 3 4 5 6 
#
# 1 170.0940 67.1565 10.9714 0.0000 -24.1831 0.0000
# 2 67.1565 114.0590 25.2260 0.0000 -16.6030 0.0000
# 3 10.9714 25.2260 60.8976 0.0000 -11.8837 0.0000
# 4 0.0000 0.0000 0.0000 48.8213 0.0000 -10.0085
# 5 -24.1831 -16.6030 -11.8837 0.0000 35.3755 0.0000
# 6 0.0000 0.0000 0.0000 -10.0085 0.0000 37.8675
#
#
#
# Elastic Compliance Matrix: (Units=1/GPa)
#
#
# Indices 1 2 3 4 5 6 
#
# 1 0.008116 -0.004473 0.001138 0.000000 0.003832 0.000000
# 2 -0.004473 0.012517 -0.004098 0.000000 0.001440 0.000000
# 3 0.001138 -0.004098 0.018931 0.000000 0.005214 0.000000
# 4 0.000000 0.000000 0.000000 0.021656 0.000000 0.005724
# 5 0.003832 0.001440 0.005214 0.000000 0.033315 0.000000
# 6 0.000000 0.000000 0.000000 0.005724 0.000000 0.027921
#
#
# Mechanical properties :
#
#
# Convention : Reuss Voigt Hill
#
# Bulk Modulus (GPa) = 40.48738 61.30649 50.89693
# Shear Modulus (GPa) = 34.35135 40.52598 37.43866
#
# Velocity S-wave (km/s) = 3.69894 4.01765 3.86159
# Velocity P-wave (km/s) = 5.86251 6.77794 6.33678
#
# Compressibility (1/GPa) = 0.02469906
#
# Stress axis : x y z
#
# Youngs Moduli (GPa) = 123.20737 79.89161 52.82333
#
# Poissons Ratio (x) = 0.35734 -0.06013
# Poissons Ratio (y) = 0.55109 0.21647
# Poissons Ratio (z) = -0.14024 0.32740
#
# Static dielectric constant tensor:
#      x y z
#    x 1.984720 0.000000 -0.031750 
#    y 0.000000 2.159040 0.000000 
#    z -0.031750 0.000000 2.058530 
# 
# From -- ./inp_files/56579.got.cif
#   From: 2010.05.17/outbox.cif.g08.bks.cpg/sg14_29_cif.got.tgz:56579.got - 2010.06.03 17:49:19.
