data_PCOD9242307
_publ_section_title
;
Structure prediction by ZEFSAII (Michael W. Deem and Ramdas Pophale) SiO2 
 PCOD9242307
Probable space group: P 21/C
;
_chemical_formula_sum "Si O2"
_cell_formula_units_Z 32
_cell_length_a 15.927426
_cell_length_b 15.679179
_cell_length_c 13.551903
_cell_angle_alpha 90.000000
_cell_angle_beta 27.032313
_cell_angle_gamma 90.000000
_cell_volume 1538.141633
_symmetry_space_group_name_H-M "P 21/C"
_symmetry_group_IT_number 14
_symmetry_cell_setting 'monoclinic'
loop_
_space_group_symop_operation_xyz
x,y,z
-x,1/2+y,1/2-z
-x,-y,-z
x,1/2-y,1/2+z
loop_
_atom_site_type_symbol
_atom_site_label
_atom_site_fract_x
_atom_site_fract_y
_atom_site_fract_z
Si Si1 0.575455 0.418443 0.360063
Si Si2 0.810112 0.462593 0.414512
Si Si3 0.198383 0.143560 0.168020
Si Si4 0.733905 0.193388 0.866884
Si Si5 0.585645 0.467935 0.134098
Si Si6 0.622373 0.702957 0.711711
Si Si7 0.068871 0.278835 0.444196
Si Si8 0.932992 0.549090 0.666612
O O1 0.500000 0.500000 0.500000
O O2 0.395885 0.367476 0.513144
O O3 0.688316 0.358442 0.314699
O O4 0.663009 0.444986 0.162885
O O5 0.862543 0.548575 0.299656
O O6 0.835987 0.374810 0.329688
O O7 0.590384 0.471785 0.661845
O O8 0.919172 0.462338 0.401697
O O9 0.077683 0.191438 0.373730
O O10 0.242391 0.199300 0.024723
O O11 0.872132 0.272698 0.705298
O O12 0.537263 0.225706 0.115633
O O13 0.492671 0.385615 0.179067
O O14 0.740857 0.511551 0.906774
O O15 0.759153 0.710195 0.661567
O O16 0.080192 0.353790 0.353417
O O17 0.000000 0.500000 0.500000
#
# Coordination Sequence:
#
# PCOD9242307 Si02
#       8
#     4   4   4   4   4   4   4   4
#     4  10  19  42  70  99 130 174 230 269 345 415
#     4  10  25  44  69 102 135 176 233 279 346 421
#     4  10  23  44  66  97 137 176 220 287 336 399
#     4  12  24  41  70 105 137 176 223 288 356 409
#     4  10  24  45  72  92 135 189 224 286 336 408
#     4  10  24  46  65  98 142 175 227 284 336 412
#     4  12  28  40  68 105 133 179 227 286 347 413
#     4  12  27  47  68 100 138 186 238 279 347 419
#
# _framework density 20.804326
#
# number of rings (size 3 to 8) (size 9 to 14) (size 15 to 20)
#    0.000    1.500    3.750    2.250    5.250    6.500 
#    0.000    0.000    0.000    0.000    0.000    0.000 
#    0.000    0.000    0.000    0.000    0.000    0.000 
#
# Total GULP energy -178710.655598 kJ/mol
# GULP energy per Si atom -5584.707987 kJ/mol
# Density = 2.075697 g / cm^3
# Si number density = 20.804326 Si / 1000 Ang^3
#
#
#
# Elastic Constant Matrix: (Units=GPa)
#
#
# Indices 1 2 3 4 5 6 
#
# 1 86.2344 15.0563 -18.0487 0.0000 2.0761 0.0000
# 2 15.0563 57.9905 6.9696 0.0000 6.1856 0.0000
# 3 -18.0487 6.9696 29.4591 0.0000 -2.4410 0.0000
# 4 0.0000 0.0000 0.0000 39.3413 0.0000 8.5650
# 5 2.0761 6.1856 -2.4410 0.0000 16.1463 0.0000
# 6 0.0000 0.0000 0.0000 8.5650 0.0000 25.1198
#
#
#
# Elastic Compliance Matrix: (Units=1/GPa)
#
#
# Indices 1 2 3 4 5 6 
#
# 1 0.014631 -0.005221 0.010339 0.000000 0.001682 0.000000
# 2 -0.005221 0.020564 -0.008771 0.000000 -0.008533 0.000000
# 3 0.010339 -0.008771 0.043062 0.000000 0.008541 0.000000
# 4 0.000000 0.000000 0.000000 0.027457 0.000000 -0.009362
# 5 0.001682 -0.008533 0.008541 0.000000 0.066277 0.000000
# 6 0.000000 0.000000 0.000000 -0.009362 0.000000 0.043001
#
#
# Mechanical properties :
#
#
# Convention : Reuss Voigt Hill
#
# Bulk Modulus (GPa) = 14.09410 20.18203 17.13806
# Shear Modulus (GPa) = 20.32943 27.43527 23.88235
#
# Velocity S-wave (km/s) = 3.12937 3.63537 3.39182
# Velocity P-wave (km/s) = 4.45495 5.22907 4.85745
#
# Compressibility (1/GPa) = 0.07095170
#
# Stress axis : x y z
#
# Youngs Moduli (GPa) = 68.34719 48.62885 23.22224
#
# Poissons Ratio (x) = 0.25388 -0.24008
# Poissons Ratio (y) = 0.35682 0.20367
# Poissons Ratio (z) = -0.70661 0.42651
#
# Static dielectric constant tensor:
#      x y z
#    x 1.748720 0.000000 0.034500 
#    y 0.000000 1.703230 0.000000 
#    z 0.034500 0.000000 1.767050 
# 
# From -- ./inp_files/32963.got.cif
#   From: 2010.05.17/outbox.cif.g08.bks.cpg/sg14_17_cif.got.tgz:32963.got - 2010.06.03 17:49:19.
