data_PCOD9242369
_publ_section_title
;
Structure prediction by ZEFSAII (Michael W. Deem and Ramdas Pophale) SiO2 
 PCOD9242369
Probable space group: P 21/C
;
_chemical_formula_sum "Si O2"
_cell_formula_units_Z 22
_cell_length_a 22.686890
_cell_length_b 4.376858
_cell_length_c 7.746062
_cell_angle_alpha 90.000000
_cell_angle_beta 105.260565
_cell_angle_gamma 90.000000
_cell_volume 742.041405
_symmetry_space_group_name_H-M "P 21/C"
_symmetry_group_IT_number 14
_symmetry_cell_setting 'monoclinic'
loop_
_space_group_symop_operation_xyz
x,y,z
-x,1/2+y,1/2-z
-x,-y,-z
x,1/2-y,1/2+z
loop_
_atom_site_type_symbol
_atom_site_label
_atom_site_fract_x
_atom_site_fract_y
_atom_site_fract_z
Si Si1 0.134995 0.938890 0.127982
Si Si2 0.774203 0.456864 0.036454
Si Si3 0.594441 0.428136 0.365732
Si Si4 0.500000 0.500000 0.000000
Si Si5 0.953850 0.482661 0.714934
Si Si6 0.685124 0.036641 0.199492
O O1 0.178170 0.116063 0.296763
O O2 0.090956 0.705590 0.195689
O O3 0.181858 0.754111 0.044201
O O4 0.089722 0.117807 0.967268
O O5 0.729128 0.251806 0.119004
O O6 0.730610 0.633655 0.867559
O O7 0.641057 0.233748 0.287678
O O8 0.638014 0.621240 0.529633
O O9 0.551758 0.224601 0.457147
O O10 0.546873 0.591734 0.202438
O O11 0.997472 0.741056 0.823692
#
# Coordination Sequence:
#
# PCOD9242369 Si02
#       6
#     4   4   4   2   4   4
#     4   9  18  31  52  81 106 139 185 238 308 368
#     4   8  14  28  50  80 104 132 188 244 288 354
#     4   9  18  31  50  80 109 150 195 236 300 368
#     4  10  20  32  48  76 112 140 188 238 284 366
#     4  11  22  37  56  84 119 156 199 248 312 382
#     4   8  14  27  50  79 104 137 195 241 288 365
#
# _framework density 29.647942
#
# number of rings (size 3 to 8) (size 9 to 14) (size 15 to 20)
#    0.000    2.909    0.000    1.091    0.000    2.909 
#    0.000    0.000    0.000    0.000    0.000  534.545 
#    0.000    0.000    0.000    0.000    0.000    0.000 
#
# Total GULP energy -122761.137701 kJ/mol
# GULP energy per Si atom -5580.051714 kJ/mol
# Density = 2.958046 g / cm^3
# Si number density = 29.647942 Si / 1000 Ang^3
#
#
#
# Elastic Constant Matrix: (Units=GPa)
#
#
# Indices 1 2 3 4 5 6 
#
# 1 236.5511 76.3855 75.3423 0.0000 -18.9238 0.0000
# 2 76.3855 66.8059 28.4264 0.0000 -6.6748 0.0000
# 3 75.3423 28.4264 258.3012 0.0000 108.3877 0.0000
# 4 0.0000 0.0000 0.0000 -2.8963 0.0000 -24.6779
# 5 -18.9238 -6.6748 108.3877 0.0000 102.6686 0.0000
# 6 0.0000 0.0000 0.0000 -24.6779 0.0000 72.9743
#
#
#
# Elastic Compliance Matrix: (Units=1/GPa)
#
#
# Indices 1 2 3 4 5 6 
#
# 1 0.008090 -0.007251 -0.003572 0.000000 0.004790 0.000000
# 2 -0.007251 0.023853 -0.001077 0.000000 0.001351 0.000000
# 3 -0.003572 -0.001077 0.009582 0.000000 -0.010844 0.000000
# 4 0.000000 0.000000 0.000000 -0.088954 0.000000 -0.030082
# 5 0.004790 0.001351 -0.010844 0.000000 0.022159 0.000000
# 6 0.000000 0.000000 0.000000 -0.030082 0.000000 0.003531
#
#
# Mechanical properties :
#
#
# Convention : Reuss Voigt Hill
#
# Bulk Modulus (GPa) = 56.41699 102.44070 79.42885
# Shear Modulus (GPa) = 627.37856 59.98293 343.68074
#
# Velocity S-wave (km/s) = 14.56258 4.50285 10.77832
# Velocity P-wave (km/s) = 17.37322 7.85249 13.48129
#
# Compressibility (1/GPa) = 0.01772516
#
# Stress axis : x y z
#
# Youngs Moduli (GPa) = 123.61140 41.92306 104.35885
#
# Poissons Ratio (x) = 0.30400 0.37275
# Poissons Ratio (y) = 0.89636 0.11238
# Poissons Ratio (z) = 0.44152 0.04515
#
# Static dielectric constant tensor:
#      x y z
#    x 2.006500 0.000000 0.012440 
#    y 0.000000 2.200540 0.000000 
#    z 0.012440 0.000000 2.337600 
# 
# From -- ./inp_files/18354.got.cif
#   From: 2010.05.17/outbox.cif.g08.bks.cpg/sg14_10_cif.got.tgz:18354.got - 2010.06.03 17:49:19.
