data_PCOD9242780
_publ_section_title
;
Structure prediction by ZEFSAII (Michael W. Deem and Ramdas Pophale) SiO2 
 PCOD9242780
Probable space group: P 21/C
;
_chemical_formula_sum "Si O2"
_cell_formula_units_Z 32
_cell_length_a 24.726773
_cell_length_b 7.564888
_cell_length_c 10.577393
_cell_angle_alpha 90.000000
_cell_angle_beta 35.596783
_cell_angle_gamma 90.000000
_cell_volume 1151.673198
_symmetry_space_group_name_H-M "P 21/C"
_symmetry_group_IT_number 14
_symmetry_cell_setting 'monoclinic'
loop_
_space_group_symop_operation_xyz
x,y,z
-x,1/2+y,1/2-z
-x,-y,-z
x,1/2-y,1/2+z
loop_
_atom_site_type_symbol
_atom_site_label
_atom_site_fract_x
_atom_site_fract_y
_atom_site_fract_z
Si Si1 0.331691 0.488817 0.609498
Si Si2 0.146606 0.415219 0.075396
Si Si3 0.717256 0.149737 0.034414
Si Si4 0.603205 0.629796 0.061436
Si Si5 0.447577 0.715133 0.992949
Si Si6 0.085669 0.715392 0.367747
Si Si7 0.987113 0.500980 0.203547
Si Si8 0.203037 0.456629 0.382292
O O1 0.297225 0.483485 0.530611
O O2 0.389075 0.314058 0.529542
O O3 0.390250 0.664235 0.505370
O O4 0.245077 0.509306 0.866261
O O5 0.091279 0.527571 0.284299
O O6 0.086118 0.437410 0.063649
O O7 0.179140 0.212828 0.017148
O O8 0.754457 0.094447 0.101073
O O9 0.614307 0.223927 0.262656
O O10 0.805413 0.249235 0.804826
O O11 0.556343 0.481065 0.060725
O O12 0.546535 0.687315 0.293636
O O13 0.712379 0.582515 0.872635
O O14 0.013751 0.799363 0.606860
O O15 0.053907 0.862672 0.319973
O O16 0.901198 0.503331 0.466973
#
# Coordination Sequence:
#
# PCOD9242780 Si02
#       8
#     4   4   4   4   4   4   4   4
#     4  11  22  40  66  92 125 166 209 258 318 374
#     4  11  20  37  63  89 118 167 211 252 314 378
#     4  10  21  41  61  90 127 163 202 261 319 369
#     4  10  22  41  65  92 124 167 209 259 315 376
#     4  11  21  42  67  90 126 164 209 261 319 376
#     4  10  20  35  60  87 123 161 208 255 305 375
#     4  10  20  37  59  86 124 168 203 253 315 369
#     4   9  22  39  58  88 128 160 205 264 309 368
#
# _framework density 27.785661999999999
#
# number of rings (size 3 to 8) (size 9 to 14) (size 15 to 20)
#    0.000    1.750    3.750    0.750    0.000    1.000 
#    2.250    0.625    0.000    0.000    0.000    0.000 
#    0.000    0.000    0.000    0.000    0.000    0.000 
#
# Total GULP energy -178654.640426 kJ/mol
# GULP energy per Si atom -5582.957513 kJ/mol
# Density = 2.772242 g / cm^3
# Si number density = 27.785662 Si / 1000 Ang^3
#
#
#
# Elastic Constant Matrix: (Units=GPa)
#
#
# Indices 1 2 3 4 5 6 
#
# 1 28.6817 -8.3226 -1.2865 0.0000 -6.1284 0.0000
# 2 -8.3226 85.9941 -11.7106 0.0000 -14.9666 0.0000
# 3 -1.2865 -11.7106 214.7683 0.0000 -36.7822 0.0000
# 4 0.0000 0.0000 0.0000 53.9060 0.0000 -15.3327
# 5 -6.1284 -14.9666 -36.7822 0.0000 25.5615 0.0000
# 6 0.0000 0.0000 0.0000 -15.3327 0.0000 25.6789
#
#
#
# Elastic Compliance Matrix: (Units=1/GPa)
#
#
# Indices 1 2 3 4 5 6 
#
# 1 0.042012 0.008347 0.004338 0.000000 0.021201 0.000000
# 2 0.008347 0.015863 0.003780 0.000000 0.016728 0.000000
# 3 0.004338 0.003780 0.007226 0.000000 0.013652 0.000000
# 4 0.000000 0.000000 0.000000 0.022346 0.000000 0.013343
# 5 0.021201 0.016728 0.013652 0.000000 0.073643 0.000000
# 6 0.000000 0.000000 0.000000 0.013343 0.000000 0.046909
#
#
# Mechanical properties :
#
#
# Convention : Reuss Voigt Hill
#
# Bulk Modulus (GPa) = 10.20099 31.86718 21.03409
# Shear Modulus (GPa) = 24.06774 44.41354 34.24064
#
# Velocity S-wave (km/s) = 2.94631 4.00238 3.51424
# Velocity P-wave (km/s) = 3.90559 5.73171 4.90439
#
# Compressibility (1/GPa) = 0.09802966
#
# Stress axis : x y z
#
# Youngs Moduli (GPa) = 23.80268 63.04134 138.38344
#
# Poissons Ratio (x) = -0.52618 -0.60029
# Poissons Ratio (y) = -0.19867 -0.52307
# Poissons Ratio (z) = -0.10325 -0.23829
#
# Static dielectric constant tensor:
#      x y z
#    x 2.112290 0.000000 -0.001750 
#    y 0.000000 2.212460 0.000000 
#    z -0.001750 0.000000 2.243930 
# 
# From -- ./inp_files/36466.got.cif
#   From: 2010.05.17/outbox.cif.g08.bks.cpg/sg14_19_cif.got.tgz:36466.got - 2010.06.03 17:49:19.
