data_PCOD9242414
_publ_section_title
;
Structure prediction by ZEFSAII (Michael W. Deem and Ramdas Pophale) SiO2 
 PCOD9242414
Probable space group: P 21/C
;
_chemical_formula_sum "Si O2"
_cell_formula_units_Z 32
_cell_length_a 11.017657
_cell_length_b 20.992039
_cell_length_c 8.248563
_cell_angle_alpha 90.000000
_cell_angle_beta 68.016949
_cell_angle_gamma 90.000000
_cell_volume 1769.049203
_symmetry_space_group_name_H-M "P 21/C"
_symmetry_group_IT_number 14
_symmetry_cell_setting 'monoclinic'
loop_
_space_group_symop_operation_xyz
x,y,z
-x,1/2+y,1/2-z
-x,-y,-z
x,1/2-y,1/2+z
loop_
_atom_site_type_symbol
_atom_site_label
_atom_site_fract_x
_atom_site_fract_y
_atom_site_fract_z
Si Si1 0.351103 0.072429 0.879076
Si Si2 0.151110 0.320349 0.367733
Si Si3 0.650257 0.072158 0.726894
Si Si4 0.852100 0.320703 0.127909
Si Si5 0.349744 0.927841 0.877153
Si Si6 0.848891 0.679652 0.018846
Si Si7 0.147899 0.679297 0.480015
Si Si8 0.648898 0.572430 0.230181
O O1 0.249188 0.124962 0.873875
O O2 0.500648 0.086085 0.751542
O O3 0.317564 0.000253 0.842647
O O4 0.351670 0.072161 0.074164
O O5 0.192590 0.250001 0.403704
O O6 0.001798 0.331100 0.502258
O O7 0.147133 0.320114 0.176431
O O8 0.753355 0.124742 0.619068
O O9 0.682437 0.999746 0.660210
O O10 0.651702 0.072718 0.924147
O O11 0.852569 0.322173 0.323713
O O12 0.811793 0.250000 0.094101
O O13 0.001798 0.331099 0.995939
O O14 0.499353 0.913914 0.752193
O O15 0.246645 0.875257 0.872428
O O16 0.750812 0.624964 0.123068
#
# Coordination Sequence:
#
# PCOD9242414 Si02
#       8
#     4   4   4   4   4   4   4   4
#     4   9  17  32  53  73  96 127 160 194 236 287
#     4  10  20  33  49  70  97 127 159 198 240 282
#     4   8  16  32  52  72  96 128 161 193 235 286
#     4   9  18  33  50  69  95 126 161 198 236 281
#     4   8  16  32  52  72  96 128 161 193 235 286
#     4  10  20  33  49  70  97 127 159 198 240 282
#     4   9  18  33  50  69  95 126 161 198 236 281
#     4   9  17  32  53  73  96 127 160 194 236 287
#
# _framework density 18.088812999999998
#
# number of rings (size 3 to 8) (size 9 to 14) (size 15 to 20)
#    0.000    3.000    0.000    2.250    0.000    3.000 
#    0.000    7.500    0.000    0.000    0.000    0.000 
#    0.000    0.000    0.000    0.000    0.000    0.000 
#
# Total GULP energy -178383.878206 kJ/mol
# GULP energy per Si atom -5574.496194 kJ/mol
# Density = 1.804764 g / cm^3
# Si number density = 18.088813 Si / 1000 Ang^3
#
#
#
# Elastic Constant Matrix: (Units=GPa)
#
#
# Indices 1 2 3 4 5 6 
#
# 1 103.3754 124.1798 20.8888 0.0000 -24.7390 0.0000
# 2 124.1798 195.2239 33.8178 0.0000 -40.7135 0.0000
# 3 20.8888 33.8178 18.5895 0.0000 -13.4622 0.0000
# 4 0.0000 0.0000 0.0000 27.7803 0.0000 -5.7637
# 5 -24.7390 -40.7135 -13.4622 0.0000 18.8703 0.0000
# 6 0.0000 0.0000 0.0000 -5.7637 0.0000 40.5715
#
#
#
# Elastic Compliance Matrix: (Units=1/GPa)
#
#
# Indices 1 2 3 4 5 6 
#
# 1 0.041227 -0.027164 -0.000437 0.000000 -0.004871 0.000000
# 2 -0.027164 0.027436 -0.004778 0.000000 0.020173 0.000000
# 3 -0.000437 -0.004778 0.113987 0.000000 0.070438 0.000000
# 4 0.000000 0.000000 0.000000 0.037090 0.000000 0.005269
# 5 -0.004871 0.020173 0.070438 0.000000 0.140383 0.000000
# 6 0.000000 0.000000 0.000000 0.005269 0.000000 0.025396
#
#
# Mechanical properties :
#
#
# Convention : Reuss Voigt Hill
#
# Bulk Modulus (GPa) = 8.48236 74.99573 41.73904
# Shear Modulus (GPa) = 10.21294 26.66457 18.43875
#
# Velocity S-wave (km/s) = 2.37871 3.84356 3.19618
# Velocity P-wave (km/s) = 3.49911 7.82604 6.06180
#
# Compressibility (1/GPa) = 0.11789175
#
# Stress axis : x y z
#
# Youngs Moduli (GPa) = 24.25576 36.44848 8.77295
#
# Poissons Ratio (x) = 0.99010 0.00383
# Poissons Ratio (y) = 0.65889 0.04192
# Poissons Ratio (z) = 0.01060 0.17415
#
# Static dielectric constant tensor:
#      x y z
#    x 1.622410 0.000000 0.002930 
#    y 0.000000 1.599370 0.000000 
#    z 0.002930 0.000000 1.628910 
# 
# From -- ./inp_files/13723.got.cif
#   From: 2010.05.17/outbox.cif.g08.bks.cpg/sg14_7_cif.got.tgz:13723.got - 2010.06.03 17:49:19.
