data_PCOD9242070
_publ_section_title
;
Structure prediction by ZEFSAII (Michael W. Deem and Ramdas Pophale) SiO2 
 PCOD9242070
Probable space group: P 21/C
;
_chemical_formula_sum "Si O2"
_cell_formula_units_Z 28
_cell_length_a 9.107120
_cell_length_b 17.260528
_cell_length_c 19.182004
_cell_angle_alpha 90.000000
_cell_angle_beta 24.701336
_cell_angle_gamma 90.000000
_cell_volume 1260.054359
_symmetry_space_group_name_H-M "P 21/C"
_symmetry_group_IT_number 14
_symmetry_cell_setting 'monoclinic'
loop_
_space_group_symop_operation_xyz
x,y,z
-x,1/2+y,1/2-z
-x,-y,-z
x,1/2-y,1/2+z
loop_
_atom_site_type_symbol
_atom_site_label
_atom_site_fract_x
_atom_site_fract_y
_atom_site_fract_z
Si Si1 0.325058 0.942084 0.876437
Si Si2 0.351008 0.353957 0.030194
Si Si3 0.298344 0.471902 0.519228
Si Si4 0.916296 0.302538 0.428044
Si Si5 0.408689 0.814471 0.080954
Si Si6 0.343249 0.860132 0.452318
Si Si7 0.522424 0.976334 0.642408
O O1 0.524014 0.938564 0.717927
O O2 0.197918 0.859582 0.960726
O O3 0.488295 0.987653 0.871689
O O4 0.000000 0.000000 0.000000
O O5 0.591797 0.374466 0.993285
O O6 0.962591 0.339273 0.227005
O O7 0.490604 0.271964 0.941491
O O8 0.354744 0.418760 0.970257
O O9 0.500000 0.500000 0.500000
O O10 0.318013 0.379016 0.511787
O O11 0.890195 0.495910 0.696451
O O12 0.643845 0.313166 0.480546
O O13 0.920705 0.211313 0.442865
O O14 0.293876 0.327977 0.236850
O O15 0.276433 0.942404 0.446382
#
# Coordination Sequence:
#
# PCOD9242070 Si02
#       7
#     4   4   4   4   4   4   4
#     4  10  20  39  63  84 125 163 205 247 321 379
#     4  10  21  38  59  92 127 162 208 261 314 363
#     4  11  19  36  66  90 119 162 213 256 304 374
#     4  10  19  39  61  90 114 161 207 257 305 367
#     4  10  20  37  62  92 122 159 220 261 303 369
#     4  10  20  37  61  88 119 158 207 252 304 371
#     4  11  22  40  61  92 128 166 199 261 323 373
#
# _framework density 22.221264000000001
#
# number of rings (size 3 to 8) (size 9 to 14) (size 15 to 20)
#    0.000    1.714    4.286    2.143    0.000    1.143 
#    5.143    2.143    0.000    0.000    0.000    0.000 
#    0.000    0.000    0.000    0.000    0.000    0.000 
#
# Total GULP energy -156574.793909 kJ/mol
# GULP energy per Si atom -5591.956925 kJ/mol
# Density = 2.217069 g / cm^3
# Si number density = 22.221264 Si / 1000 Ang^3
#
#
#
# Elastic Constant Matrix: (Units=GPa)
#
#
# Indices 1 2 3 4 5 6 
#
# 1 81.9189 30.2412 44.6166 0.0000 23.8209 0.0000
# 2 30.2412 119.2190 57.8174 0.0000 31.9763 0.0000
# 3 44.6166 57.8174 65.9254 0.0000 21.6407 0.0000
# 4 0.0000 0.0000 0.0000 38.8559 0.0000 10.1223
# 5 23.8209 31.9763 21.6407 0.0000 44.5830 0.0000
# 6 0.0000 0.0000 0.0000 10.1223 0.0000 30.0003
#
#
#
# Elastic Compliance Matrix: (Units=1/GPa)
#
#
# Indices 1 2 3 4 5 6 
#
# 1 0.021186 0.003995 -0.015685 0.000000 -0.006572 0.000000
# 2 0.003995 0.016377 -0.014881 0.000000 -0.006657 0.000000
# 3 -0.015685 -0.014881 0.038755 0.000000 0.000242 0.000000
# 4 0.000000 0.000000 0.000000 0.028216 0.000000 -0.009520
# 5 -0.006572 -0.006657 0.000242 0.000000 0.030599 0.000000
# 6 0.000000 0.000000 0.000000 -0.009520 0.000000 0.036545
#
#
# Mechanical properties :
#
#
# Convention : Reuss Voigt Hill
#
# Bulk Modulus (GPa) = 43.14681 59.15707 51.15194
# Shear Modulus (GPa) = 21.50113 31.64705 26.57409
#
# Velocity S-wave (km/s) = 3.11399 3.77792 3.46191
# Velocity P-wave (km/s) = 5.69107 6.76091 6.24893
#
# Compressibility (1/GPa) = 0.02317669
#
# Stress axis : x y z
#
# Youngs Moduli (GPa) = 47.20134 61.06090 25.80285
#
# Poissons Ratio (x) = -0.24395 0.40471
# Poissons Ratio (y) = -0.18858 0.38398
# Poissons Ratio (z) = 0.74033 0.90867
#
# Static dielectric constant tensor:
#      x y z
#    x 1.833700 0.000000 -0.010910 
#    y 0.000000 1.836990 0.000000 
#    z -0.010910 0.000000 1.858920 
# 
# From -- ./inp_files/56139.got.cif
#   From: 2010.05.17/outbox.cif.g08.bks.cpg/sg14_29_cif.got.tgz:56139.got - 2010.06.03 17:49:19.
