data_PCOD9242889
_publ_section_title
;
Structure prediction by ZEFSAII (Michael W. Deem and Ramdas Pophale) SiO2 
 PCOD9242889
Probable space group: P 21/C
;
_chemical_formula_sum "Si O2"
_cell_formula_units_Z 32
_cell_length_a 19.419321
_cell_length_b 8.429314
_cell_length_c 14.332418
_cell_angle_alpha 90.000000
_cell_angle_beta 40.076828
_cell_angle_gamma 90.000000
_cell_volume 1510.449829
_symmetry_space_group_name_H-M "P 21/C"
_symmetry_group_IT_number 14
_symmetry_cell_setting 'monoclinic'
loop_
_space_group_symop_operation_xyz
x,y,z
-x,1/2+y,1/2-z
-x,-y,-z
x,1/2-y,1/2+z
loop_
_atom_site_type_symbol
_atom_site_label
_atom_site_fract_x
_atom_site_fract_y
_atom_site_fract_z
Si Si1 0.409595 0.896602 0.541604
Si Si2 0.296849 0.197482 0.599526
Si Si3 0.434686 0.364593 0.618326
Si Si4 0.911403 0.427633 0.902022
Si Si5 0.934301 0.310528 0.208226
Si Si6 0.192959 0.772149 0.828436
Si Si7 0.868598 0.625986 0.583251
Si Si8 0.257973 0.306602 0.938967
O O1 0.478943 0.756143 0.427169
O O2 0.317942 0.820110 0.702653
O O3 0.500000 0.000000 0.500000
O O4 0.344524 0.018541 0.544755
O O5 0.368585 0.286474 0.601249
O O6 0.180919 0.184828 0.767871
O O7 0.295379 0.264939 0.497818
O O8 0.500000 0.500000 0.500000
O O9 0.350156 0.399345 0.787100
O O10 0.923301 0.290725 0.813621
O O11 0.022305 0.513584 0.815287
O O12 0.850613 0.355581 0.053907
O O13 0.837837 0.571125 0.940519
O O14 0.831042 0.295948 0.249891
O O15 0.025836 0.220357 0.053244
O O16 0.128789 0.936526 0.913507
O O17 0.785653 0.674845 0.587332
#
# Coordination Sequence:
#
# PCOD9242889 Si02
#       8
#     4   4   4   4   4   4   4   4
#     4   9  19  37  60  83 114 157 200 247 307 368
#     4   9  19  37  58  81 116 158 198 243 306 375
#     4  10  20  36  56  84 117 149 198 260 310 360
#     4  11  23  39  59  91 123 154 204 256 301 368
#     4  11  23  39  61  88 122 164 203 248 308 369
#     4  11  21  39  62  86 120 160 200 252 309 365
#     4   9  20  37  59  85 115 155 196 242 297 361
#     4  10  21  38  58  84 118 155 199 250 305 368
#
# _framework density 21.185742000000001
#
# number of rings (size 3 to 8) (size 9 to 14) (size 15 to 20)
#    0.000    2.000    0.000    4.500    0.000    3.000 
#    0.000   13.750    0.000    0.000    0.000    0.000 
#    0.000    0.000    0.000    0.000    0.000    0.000 
#
# Total GULP energy -178622.203558 kJ/mol
# GULP energy per Si atom -5581.943861 kJ/mol
# Density = 2.113752 g / cm^3
# Si number density = 21.185742 Si / 1000 Ang^3
#
#
#
# Elastic Constant Matrix: (Units=GPa)
#
#
# Indices 1 2 3 4 5 6 
#
# 1 73.7046 16.5326 44.0024 0.0000 19.0002 0.0000
# 2 16.5326 41.0374 9.2059 0.0000 5.0181 0.0000
# 3 44.0024 9.2059 65.2789 0.0000 9.2843 0.0000
# 4 0.0000 0.0000 0.0000 41.9509 0.0000 -1.5319
# 5 19.0002 5.0181 9.2843 0.0000 29.4273 0.0000
# 6 0.0000 0.0000 0.0000 -1.5319 0.0000 17.9979
#
#
#
# Elastic Compliance Matrix: (Units=1/GPa)
#
#
# Indices 1 2 3 4 5 6 
#
# 1 0.027500 -0.006058 -0.016023 0.000000 -0.011668 0.000000
# 2 -0.006058 0.026812 0.000415 0.000000 -0.000792 0.000000
# 3 -0.016023 0.000415 0.025756 0.000000 0.002149 0.000000
# 4 0.000000 0.000000 0.000000 0.023912 0.000000 0.002035
# 5 -0.011668 -0.000792 0.002149 0.000000 0.040972 0.000000
# 6 0.000000 0.000000 0.000000 0.002035 0.000000 0.055735
#
#
# Mechanical properties :
#
#
# Convention : Reuss Voigt Hill
#
# Bulk Modulus (GPa) = 27.22164 35.50031 31.36097
# Shear Modulus (GPa) = 19.51100 25.22721 22.36911
#
# Velocity S-wave (km/s) = 3.03801 3.45449 3.25292
# Velocity P-wave (km/s) = 5.01826 5.71878 5.37993
#
# Compressibility (1/GPa) = 0.03673548
#
# Stress axis : x y z
#
# Youngs Moduli (GPa) = 36.36309 37.29636 38.82649
#
# Poissons Ratio (x) = 0.22593 0.62213
# Poissons Ratio (y) = 0.22028 -0.01610
# Poissons Ratio (z) = 0.58266 -0.01547
#
# Static dielectric constant tensor:
#      x y z
#    x 1.808760 0.000000 -0.043870 
#    y 0.000000 1.795540 0.000000 
#    z -0.043870 0.000000 1.765700 
# 
# From -- ./inp_files/50087.got.cif
#   From: 2010.05.17/outbox.cif.g08.bks.cpg/sg14_26_cif.got.tgz:50087.got - 2010.06.03 17:49:19.
