data_PCOD9242098
_publ_section_title
;
Structure prediction by ZEFSAII (Michael W. Deem and Ramdas Pophale) SiO2 
 PCOD9242098
Probable space group: P 21/C
;
_chemical_formula_sum "Si O2"
_cell_formula_units_Z 32
_cell_length_a 15.032753
_cell_length_b 18.909718
_cell_length_c 9.516249
_cell_angle_alpha 90.000000
_cell_angle_beta 38.425557
_cell_angle_gamma 90.000000
_cell_volume 1681.235722
_symmetry_space_group_name_H-M "P 21/C"
_symmetry_group_IT_number 14
_symmetry_cell_setting 'monoclinic'
loop_
_space_group_symop_operation_xyz
x,y,z
-x,1/2+y,1/2-z
-x,-y,-z
x,1/2-y,1/2+z
loop_
_atom_site_type_symbol
_atom_site_label
_atom_site_fract_x
_atom_site_fract_y
_atom_site_fract_z
Si Si1 0.976442 0.570037 0.211816
Si Si2 0.947805 0.593749 0.923898
Si Si3 0.352227 0.053306 0.829297
Si Si4 0.818188 0.331479 0.868542
Si Si5 0.471139 0.603563 0.135917
Si Si6 0.436334 0.579320 0.697572
Si Si7 0.632229 0.584400 0.216314
Si Si8 0.182338 0.685199 0.466719
O O1 0.814455 0.565539 0.465016
O O2 0.032960 0.490148 0.125543
O O3 0.067795 0.613086 0.210942
O O4 0.976409 0.604233 0.055230
O O5 0.065007 0.634551 0.685740
O O6 0.784972 0.612409 0.080229
O O7 0.440257 0.103531 0.616963
O O8 0.416029 0.066061 0.903450
O O9 0.391593 0.972718 0.742019
O O10 0.833539 0.317126 0.683230
O O11 0.666277 0.368022 0.093291
O O12 0.834991 0.261234 0.940336
O O13 0.588803 0.605193 0.113022
O O14 0.343692 0.659176 0.300632
O O15 0.491958 0.606498 0.479709
O O16 0.365068 0.501671 0.775961
#
# Coordination Sequence:
#
# PCOD9242098 Si02
#       8
#     4   4   4   4   4   4   4   4
#     4  11  23  39  68  97 135 174 214 271 322 388
#     4  11  23  40  64 102 133 173 217 265 326 388
#     4  10  19  39  63  99 127 159 211 268 322 371
#     4  12  27  45  66  91 131 178 219 268 330 396
#     4  10  22  37  65  96 130 163 205 269 319 385
#     4  10  20  39  63  96 130 165 207 262 321 380
#     4  10  21  35  67 100 130 157 208 264 321 377
#     4  12  27  46  64  93 131 176 221 266 331 399
#
# _framework density 19.033619999999999
#
# number of rings (size 3 to 8) (size 9 to 14) (size 15 to 20)
#    0.000    1.250    5.000    0.750    5.250    0.500 
#    0.000    2.500    0.000    0.000    0.000    0.000 
#    0.000    0.000    0.000    0.000    0.000    0.000 
#
# Total GULP energy -178623.811018 kJ/mol
# GULP energy per Si atom -5581.994094 kJ/mol
# Density = 1.899030 g / cm^3
# Si number density = 19.033620 Si / 1000 Ang^3
#
#
#
# Elastic Constant Matrix: (Units=GPa)
#
#
# Indices 1 2 3 4 5 6 
#
# 1 79.9221 30.4282 51.8903 0.0000 -7.8445 0.0000
# 2 30.4282 39.7861 16.3421 0.0000 6.2966 0.0000
# 3 51.8903 16.3421 73.3652 0.0000 9.4819 0.0000
# 4 0.0000 0.0000 0.0000 15.9377 0.0000 5.8428
# 5 -7.8445 6.2966 9.4819 0.0000 37.3793 0.0000
# 6 0.0000 0.0000 0.0000 5.8428 0.0000 18.6820
#
#
#
# Elastic Compliance Matrix: (Units=1/GPa)
#
#
# Indices 1 2 3 4 5 6 
#
# 1 0.039188 -0.022586 -0.025062 0.000000 0.018386 0.000000
# 2 -0.022586 0.041059 0.008618 0.000000 -0.013842 0.000000
# 3 -0.025062 0.008618 0.031332 0.000000 -0.014659 0.000000
# 4 0.000000 0.000000 0.000000 0.070870 0.000000 -0.022164
# 5 0.018386 -0.013842 -0.014659 0.000000 0.036662 0.000000
# 6 0.000000 0.000000 0.000000 -0.022164 0.000000 0.060459
#
#
# Mechanical properties :
#
#
# Convention : Reuss Voigt Hill
#
# Bulk Modulus (GPa) = 29.83503 43.37719 36.60611
# Shear Modulus (GPa) = 13.55741 20.69400 17.12570
#
# Velocity S-wave (km/s) = 2.67177 3.30090 3.00286
# Velocity P-wave (km/s) = 5.02262 6.11287 5.59437
#
# Compressibility (1/GPa) = 0.03351765
#
# Stress axis : x y z
#
# Youngs Moduli (GPa) = 25.51819 24.35526 31.91670
#
# Poissons Ratio (x) = 0.55009 0.79990
# Poissons Ratio (y) = 0.57635 -0.27506
# Poissons Ratio (z) = 0.63954 -0.20989
#
# Static dielectric constant tensor:
#      x y z
#    x 1.650150 0.000000 0.012370 
#    y 0.000000 1.647060 0.000000 
#    z 0.012370 0.000000 1.672500 
# 
# From -- ./inp_files/16849.got.cif
#   From: 2010.05.17/outbox.cif.g08.bks.cpg/sg14_9_cif.got.tgz:16849.got - 2010.06.03 17:49:19.
