data_PCOD9242165
_publ_section_title
;
Structure prediction by ZEFSAII (Michael W. Deem and Ramdas Pophale) SiO2 
 PCOD9242165
Probable space group: P 21/C
;
_chemical_formula_sum "Si O2"
_cell_formula_units_Z 32
_cell_length_a 23.782405
_cell_length_b 9.430017
_cell_length_c 16.031139
_cell_angle_alpha 90.000000
_cell_angle_beta 29.325865
_cell_angle_gamma 90.000000
_cell_volume 1760.881767
_symmetry_space_group_name_H-M "P 21/C"
_symmetry_group_IT_number 14
_symmetry_cell_setting 'monoclinic'
loop_
_space_group_symop_operation_xyz
x,y,z
-x,1/2+y,1/2-z
-x,-y,-z
x,1/2-y,1/2+z
loop_
_atom_site_type_symbol
_atom_site_label
_atom_site_fract_x
_atom_site_fract_y
_atom_site_fract_z
Si Si1 0.754054 0.805787 0.443424
Si Si2 0.016678 0.585634 0.840236
Si Si3 0.222081 0.139541 0.258919
Si Si4 0.264687 0.608008 0.599258
Si Si5 0.728884 0.907483 0.208284
Si Si6 0.594669 0.932382 0.216218
Si Si7 0.937086 0.679948 0.329066
Si Si8 0.678179 0.432131 0.941885
O O1 0.790386 0.725022 0.311662
O O2 0.643896 0.719258 0.620318
O O3 0.853341 0.780676 0.382504
O O4 0.726051 0.964769 0.452482
O O5 0.132080 0.585843 0.744766
O O6 0.009475 0.438507 0.799318
O O7 0.021263 0.718207 0.770547
O O8 0.901883 0.607960 0.041955
O O9 0.287941 0.247193 0.235069
O O10 0.284397 0.994327 0.153240
O O11 0.341611 0.547775 0.424174
O O12 0.287997 0.770585 0.587266
O O13 0.637450 0.946930 0.255856
O O14 0.724405 0.009562 0.293529
O O15 0.852402 0.901545 0.002912
O O16 0.459376 0.944242 0.382657
#
# Coordination Sequence:
#
# PCOD9242165 Si02
#       8
#     4   4   4   4   4   4   4   4
#     4   9  19  38  55  78 116 147 185 225 280 330
#     4  11  21  37  58  81 112 147 183 222 284 327
#     4   9  19  37  58  77 108 152 176 223 282 331
#     4  11  22  37  57  88 113 139 191 234 267 334
#     4   9  19  39  55  79 110 149 183 224 283 329
#     4  10  19  40  59  77 113 152 185 231 281 321
#     4  10  21  36  57  80 113 149 181 227 278 334
#     4  11  22  34  59  86 110 146 190 232 275 326
#
# _framework density 18.172713000000002
#
# number of rings (size 3 to 8) (size 9 to 14) (size 15 to 20)
#    0.000    2.000    3.750    1.500    1.750    1.000 
#    0.000    2.500    0.000    0.000    0.000    0.000 
#    0.000    0.000    0.000    0.000    0.000    0.000 
#
# Total GULP energy -178535.021281 kJ/mol
# GULP energy per Si atom -5579.219415 kJ/mol
# Density = 1.813135 g / cm^3
# Si number density = 18.172713 Si / 1000 Ang^3
#
#
#
# Elastic Constant Matrix: (Units=GPa)
#
#
# Indices 1 2 3 4 5 6 
#
# 1 45.1948 28.4510 25.2773 0.0000 11.2441 0.0000
# 2 28.4510 116.3875 14.4811 0.0000 6.8426 0.0000
# 3 25.2773 14.4811 36.0857 0.0000 10.3184 0.0000
# 4 0.0000 0.0000 0.0000 6.1928 0.0000 0.0010
# 5 11.2441 6.8426 10.3184 0.0000 21.5940 0.0000
# 6 0.0000 0.0000 0.0000 0.0010 0.0000 21.7387
#
#
#
# Elastic Compliance Matrix: (Units=1/GPa)
#
#
# Indices 1 2 3 4 5 6 
#
# 1 0.042066 -0.006767 -0.024440 0.000000 -0.008081 0.000000
# 2 -0.006767 0.010164 0.000666 0.000000 -0.000015 0.000000
# 3 -0.024440 0.000666 0.047472 0.000000 -0.010169 0.000000
# 4 0.000000 0.000000 0.000000 0.161477 0.000000 -0.000007
# 5 -0.008081 -0.000015 -0.010169 0.000000 0.055381 0.000000
# 6 0.000000 0.000000 0.000000 -0.000007 0.000000 0.046001
#
#
# Mechanical properties :
#
#
# Convention : Reuss Voigt Hill
#
# Bulk Modulus (GPa) = 25.89357 37.12076 31.50717
# Shear Modulus (GPa) = 11.45426 18.53567 14.99497
#
# Velocity S-wave (km/s) = 2.51330 3.19717 2.87564
# Velocity P-wave (km/s) = 4.76464 5.83953 5.32926
#
# Compressibility (1/GPa) = 0.03861963
#
# Stress axis : x y z
#
# Youngs Moduli (GPa) = 23.77189 98.38359 21.06491
#
# Poissons Ratio (x) = 0.66578 0.51483
# Poissons Ratio (y) = 0.16087 -0.01402
# Poissons Ratio (z) = 0.58099 -0.06549
#
# Static dielectric constant tensor:
#      x y z
#    x 1.616160 0.000000 0.025200 
#    y 0.000000 1.628910 0.000000 
#    z 0.025200 0.000000 1.613110 
# 
# From -- ./inp_files/51343.got.cif
#   From: 2010.05.17/outbox.cif.g08.bks.cpg/sg14_26_cif.got.tgz:51343.got - 2010.06.03 17:49:19.
