data_PCOD9242326
_publ_section_title
;
Structure prediction by ZEFSAII (Michael W. Deem and Ramdas Pophale) SiO2 
 PCOD9242326
Probable space group: P 21/C
;
_chemical_formula_sum "Si O2"
_cell_formula_units_Z 28
_cell_length_a 8.325975
_cell_length_b 13.635159
_cell_length_c 11.262774
_cell_angle_alpha 90.000000
_cell_angle_beta 126.616702
_cell_angle_gamma 90.000000
_cell_volume 1026.274284
_symmetry_space_group_name_H-M "P 21/C"
_symmetry_group_IT_number 14
_symmetry_cell_setting 'monoclinic'
loop_
_space_group_symop_operation_xyz
x,y,z
-x,1/2+y,1/2-z
-x,-y,-z
x,1/2-y,1/2+z
loop_
_atom_site_type_symbol
_atom_site_label
_atom_site_fract_x
_atom_site_fract_y
_atom_site_fract_z
Si Si1 0.594663 0.092129 0.970282
Si Si2 0.985300 0.713816 0.539142
Si Si3 0.100459 0.547437 0.214965
Si Si4 0.336612 0.834743 0.627746
Si Si5 0.263061 0.047749 0.160396
Si Si6 0.729923 0.473860 0.088063
Si Si7 0.184715 0.184292 0.776424
O O1 0.430180 0.178294 0.894458
O O2 0.636084 0.040390 0.865148
O O3 0.800939 0.108441 0.132773
O O4 0.500000 0.000000 0.000000
O O5 0.912604 0.603880 0.482734
O O6 0.905551 0.730226 0.640270
O O7 0.887616 0.771305 0.381659
O O8 0.221720 0.738659 0.624727
O O9 0.225328 0.584273 0.159420
O O10 0.128575 0.431280 0.248701
O O11 0.866592 0.551107 0.077006
O O12 0.566101 0.867460 0.745617
O O13 0.272761 0.865275 0.466501
O O14 0.188508 0.000867 0.248034
O O15 0.500000 0.500000 0.000000
#
# Coordination Sequence:
#
# PCOD9242326 Si02
#       7
#     4   4   4   4   4   4   4
#     4  10  19  44  78 100 137 193 251 291 364 445
#     4  12  26  45  72 112 156 188 241 323 384 423
#     4  11  20  43  77 100 136 197 253 290 360 462
#     4  11  23  44  75 105 145 197 247 303 379 440
#     4  11  23  47  72 109 142 189 251 310 363 446
#     4  10  24  40  69 108 139 184 255 300 356 448
#     4  11  24  45  74 108 150 194 244 305 379 441
#
# _framework density 27.283152999999999
#
# number of rings (size 3 to 8) (size 9 to 14) (size 15 to 20)
#    0.000    1.143    7.143    0.429    2.000    0.571 
#    5.143    2.857    0.000    0.000    0.000    0.000 
#    0.000    0.000    0.000    0.000    0.000    0.000 
#
# Total GULP energy -156421.403333 kJ/mol
# GULP energy per Si atom -5586.478690 kJ/mol
# Density = 2.722105 g / cm^3
# Si number density = 27.283153 Si / 1000 Ang^3
#
#
#
# Elastic Constant Matrix: (Units=GPa)
#
#
# Indices 1 2 3 4 5 6 
#
# 1 102.1284 50.8099 27.2787 0.0000 21.4843 0.0000
# 2 50.8099 137.3036 51.6879 0.0000 0.5597 0.0000
# 3 27.2787 51.6879 121.6449 0.0000 10.5550 0.0000
# 4 0.0000 0.0000 0.0000 53.1858 0.0000 5.5362
# 5 21.4843 0.5597 10.5550 0.0000 59.4115 0.0000
# 6 0.0000 0.0000 0.0000 5.5362 0.0000 49.9957
#
#
#
# Elastic Compliance Matrix: (Units=1/GPa)
#
#
# Indices 1 2 3 4 5 6 
#
# 1 0.013244 -0.004661 -0.000587 0.000000 -0.004641 0.000000
# 2 -0.004661 0.010330 -0.003536 0.000000 0.002217 0.000000
# 3 -0.000587 -0.003536 0.009988 0.000000 -0.001529 0.000000
# 4 0.000000 0.000000 0.000000 0.019021 0.000000 -0.002106
# 5 -0.004641 0.002217 -0.001529 0.000000 0.018761 0.000000
# 6 0.000000 0.000000 0.000000 -0.002106 0.000000 0.020235
#
#
# Mechanical properties :
#
#
# Convention : Reuss Voigt Hill
#
# Bulk Modulus (GPa) = 62.52756 68.95886 65.74321
# Shear Modulus (GPa) = 43.67664 47.93863 45.80763
#
# Velocity S-wave (km/s) = 4.00542 4.19630 4.10197
# Velocity P-wave (km/s) = 6.66025 6.98632 6.82523
#
# Compressibility (1/GPa) = 0.01599295
#
# Stress axis : x y z
#
# Youngs Moduli (GPa) = 75.50865 96.80298 100.12466
#
# Poissons Ratio (x) = 0.45121 0.05873
# Poissons Ratio (y) = 0.35195 0.35409
# Poissons Ratio (z) = 0.04429 0.34234
#
# Static dielectric constant tensor:
#      x y z
#    x 2.790020 0.000000 -0.112110 
#    y 0.000000 2.503040 0.000000 
#    z -0.112110 0.000000 2.305810 
# 
# From -- ./inp_files/25382.got.cif
#   From: 2010.05.17/outbox.cif.g08.bks.cpg/sg14_13_cif.got.tgz:25382.got - 2010.06.03 17:49:19.
