data_PCOD9242526
_publ_section_title
;
Structure prediction by ZEFSAII (Michael W. Deem and Ramdas Pophale) SiO2 
 PCOD9242526
Probable space group: P 21/C
;
_chemical_formula_sum "Si O2"
_cell_formula_units_Z 20
_cell_length_a 5.104976
_cell_length_b 18.911492
_cell_length_c 8.954283
_cell_angle_alpha 90.000000
_cell_angle_beta 91.749118
_cell_angle_gamma 90.000000
_cell_volume 864.067981
_symmetry_space_group_name_H-M "P 21/C"
_symmetry_group_IT_number 14
_symmetry_cell_setting 'monoclinic'
loop_
_space_group_symop_operation_xyz
x,y,z
-x,1/2+y,1/2-z
-x,-y,-z
x,1/2-y,1/2+z
loop_
_atom_site_type_symbol
_atom_site_label
_atom_site_fract_x
_atom_site_fract_y
_atom_site_fract_z
Si Si1 0.932466 0.869534 0.240044
Si Si2 0.246665 0.992498 0.893094
Si Si3 0.107201 0.844189 0.911906
Si Si4 0.268865 0.282549 0.799128
Si Si5 0.233424 0.696326 0.994967
O O1 0.739538 0.800985 0.243294
O O2 0.139093 0.862991 0.377898
O O3 0.781508 0.943659 0.224421
O O4 0.088914 0.860264 0.087233
O O5 0.225539 0.912466 0.833682
O O6 0.500000 0.000000 0.000000
O O7 0.000000 0.000000 0.000000
O O8 0.985722 0.707209 0.099285
O O9 0.815089 0.828459 0.845942
O O10 0.743322 0.269793 0.598488
O O11 0.511010 0.308603 0.900208
#
# Coordination Sequence:
#
# PCOD9242526 Si02
#       5
#     4   4   4   4   4
#     4   9  20  36  57  80 106 140 180 218 260 313
#     4  10  20  34  54  80 106 136 177 220 259 306
#     4   9  20  36  57  80 106 140 180 218 260 313
#     4  10  21  36  55  80 109 139 174 219 267 312
#     4  10  21  36  55  80 109 139 174 219 267 312
#
# _framework density 23.146328
#
# number of rings (size 3 to 8) (size 9 to 14) (size 15 to 20)
#    0.000    2.400    0.000    1.200    0.000   20.800 
#    0.000    2.000    0.000    0.000    0.000    0.000 
#    0.000    0.000    0.000    0.000    0.000    0.000 
#
# Total GULP energy -111775.103270 kJ/mol
# GULP energy per Si atom -5588.755163 kJ/mol
# Density = 2.309365 g / cm^3
# Si number density = 23.146328 Si / 1000 Ang^3
#
#
#
# Elastic Constant Matrix: (Units=GPa)
#
#
# Indices 1 2 3 4 5 6 
#
# 1 119.7825 15.5555 32.6987 0.0000 44.4865 0.0000
# 2 15.5555 87.4084 -9.8245 0.0000 11.5171 0.0000
# 3 32.6987 -9.8245 85.1116 0.0000 30.8135 0.0000
# 4 0.0000 0.0000 0.0000 32.3496 0.0000 7.2460
# 5 44.4865 11.5171 30.8135 0.0000 49.8569 0.0000
# 6 0.0000 0.0000 0.0000 7.2460 0.0000 22.0227
#
#
#
# Elastic Compliance Matrix: (Units=1/GPa)
#
#
# Indices 1 2 3 4 5 6 
#
# 1 0.012637 -0.001039 -0.001262 0.000000 -0.010256 0.000000
# 2 -0.001039 0.012523 0.003293 0.000000 -0.004001 0.000000
# 3 -0.001262 0.003293 0.016080 0.000000 -0.009573 0.000000
# 4 0.000000 0.000000 0.000000 0.033372 0.000000 -0.010980
# 5 -0.010256 -0.004001 -0.009573 0.000000 0.036049 0.000000
# 6 0.000000 0.000000 0.000000 -0.010980 0.000000 0.049020
#
#
# Mechanical properties :
#
#
# Convention : Reuss Voigt Hill
#
# Bulk Modulus (GPa) = 23.13568 41.01798 32.07683
# Shear Modulus (GPa) = 29.05214 37.77071 33.41143
#
# Velocity S-wave (km/s) = 3.54665 4.04397 3.80345
# Velocity P-wave (km/s) = 5.17579 6.29003 5.75992
#
# Compressibility (1/GPa) = 0.04322328
#
# Stress axis : x y z
#
# Youngs Moduli (GPa) = 79.13395 79.85424 62.18922
#
# Poissons Ratio (x) = 0.08300 0.07848
# Poissons Ratio (y) = 0.08225 -0.20481
# Poissons Ratio (z) = 0.09987 -0.26298
#
# Static dielectric constant tensor:
#      x y z
#    x 1.911660 0.000000 -0.046840 
#    y 0.000000 1.970590 0.000000 
#    z -0.046840 0.000000 1.897170 
# 
# From -- ./inp_files/21392.got.cif
#   From: 2010.05.17/outbox.cif.g08.bks.cpg/sg14_11_cif.got.tgz:21392.got - 2010.06.03 17:49:19.
