data_PCOD9242756
_publ_section_title
;
Structure prediction by ZEFSAII (Michael W. Deem and Ramdas Pophale) SiO2 
 PCOD9242756
Probable space group: P 21/C
;
_chemical_formula_sum "Si O2"
_cell_formula_units_Z 32
_cell_length_a 8.696414
_cell_length_b 21.974766
_cell_length_c 15.406173
_cell_angle_alpha 90.000000
_cell_angle_beta 151.966095
_cell_angle_gamma 90.000000
_cell_volume 1383.730521
_symmetry_space_group_name_H-M "P 21/C"
_symmetry_group_IT_number 14
_symmetry_cell_setting 'monoclinic'
loop_
_space_group_symop_operation_xyz
x,y,z
-x,1/2+y,1/2-z
-x,-y,-z
x,1/2-y,1/2+z
loop_
_atom_site_type_symbol
_atom_site_label
_atom_site_fract_x
_atom_site_fract_y
_atom_site_fract_z
Si Si1 0.453956 0.010646 0.336057
Si Si2 0.785650 0.411986 0.147246
Si Si3 0.757611 0.448910 0.514429
Si Si4 0.503351 0.418037 0.563776
Si Si5 0.520397 0.675389 0.901727
Si Si6 0.093553 0.224356 0.991861
Si Si7 0.242153 0.414928 0.126744
Si Si8 0.678096 0.158852 0.321361
O O1 0.679714 0.045717 0.516110
O O2 0.302504 0.953136 0.312946
O O3 0.668163 0.980887 0.366907
O O4 0.114895 0.046352 0.147885
O O5 0.551389 0.353383 0.040863
O O6 0.170233 0.399337 0.347417
O O7 0.773936 0.426761 0.622937
O O8 0.583659 0.515720 0.438134
O O9 0.512843 0.407691 0.336010
O O10 0.606633 0.371363 0.690430
O O11 0.707227 0.630039 0.930164
O O12 0.163389 0.681663 0.682250
O O13 0.689486 0.740572 0.973251
O O14 0.893166 0.279557 0.934131
O O15 0.322439 0.184910 0.168188
O O16 0.879236 0.392810 0.971924
#
# Coordination Sequence:
#
# PCOD9242756 Si02
#       8
#     4   4   4   4   4   4   4   4
#     4   9  19  32  53  75 114 152 184 215 273 335
#     4   9  17  32  51  80 111 146 182 223 273 331
#     4  10  22  36  53  81 120 154 185 225 275 344
#     4  10  21  35  55  81 118 153 183 231 279 330
#     4   9  17  32  56  81 107 136 188 232 274 324
#     4   9  18  33  56  87 101 138 188 242 278 320
#     4  10  21  35  54  82 115 150 189 224 276 339
#     4  10  20  35  59  83 108 144 189 237 279 331
#
# _framework density 23.125889999999998
#
# number of rings (size 3 to 8) (size 9 to 14) (size 15 to 20)
#    0.000    2.500    1.250    0.375   10.500    0.500 
#    0.000    0.000    0.000    6.000    0.000    0.000 
#    0.000    0.000    0.000    0.000    0.000    0.000 
#
# Total GULP energy -178365.526846 kJ/mol
# GULP energy per Si atom -5573.922714 kJ/mol
# Density = 2.307325 g / cm^3
# Si number density = 23.125890 Si / 1000 Ang^3
#
#
#
# Elastic Constant Matrix: (Units=GPa)
#
#
# Indices 1 2 3 4 5 6 
#
# 1 33.3766 4.2894 1.5316 0.0000 10.4765 0.0000
# 2 4.2894 61.2053 10.9069 0.0000 6.9347 0.0000
# 3 1.5316 10.9069 107.7262 0.0000 22.8171 0.0000
# 4 0.0000 0.0000 0.0000 45.4591 0.0000 10.4913
# 5 10.4765 6.9347 22.8171 0.0000 24.1964 0.0000
# 6 0.0000 0.0000 0.0000 10.4913 0.0000 21.6980
#
#
#
# Elastic Compliance Matrix: (Units=1/GPa)
#
#
# Indices 1 2 3 4 5 6 
#
# 1 0.035736 -0.001036 0.003513 0.000000 -0.018489 0.000000
# 2 -0.001036 0.016980 -0.000961 0.000000 -0.003512 0.000000
# 3 0.003513 -0.000961 0.011988 0.000000 -0.012551 0.000000
# 4 0.000000 0.000000 0.000000 0.024761 0.000000 -0.011972
# 5 -0.018489 -0.003512 -0.012551 0.000000 0.062175 0.000000
# 6 0.000000 0.000000 0.000000 -0.011972 0.000000 0.051876
#
#
# Mechanical properties :
#
#
# Convention : Reuss Voigt Hill
#
# Bulk Modulus (GPa) = 14.76273 26.19598 20.47936
# Shear Modulus (GPa) = 22.41518 30.64272 26.52895
#
# Velocity S-wave (km/s) = 3.11668 3.64406 3.39064
# Velocity P-wave (km/s) = 4.39876 5.39052 4.91970
#
# Compressibility (1/GPa) = 0.06773814
#
# Stress axis : x y z
#
# Youngs Moduli (GPa) = 27.98274 58.89226 83.41391
#
# Poissons Ratio (x) = 0.06099 -0.29301
# Poissons Ratio (y) = 0.02898 0.08012
# Poissons Ratio (z) = -0.09830 0.05657
#
# Static dielectric constant tensor:
#      x y z
#    x 2.017150 0.000000 0.095460 
#    y 0.000000 1.913270 0.000000 
#    z 0.095460 0.000000 1.895960 
# 
# From -- ./inp_files/42257.got.cif
#   From: 2010.05.17/outbox.cif.g08.bks.cpg/sg14_22_cif.got.tgz:42257.got - 2010.06.03 17:49:19.
