data_PCOD9242726
_publ_section_title
;
Structure prediction by ZEFSAII (Michael W. Deem and Ramdas Pophale) SiO2 
 PCOD9242726
Probable space group: P 21/C
;
_chemical_formula_sum "Si O2"
_cell_formula_units_Z 32
_cell_length_a 26.563488
_cell_length_b 8.726415
_cell_length_c 9.839654
_cell_angle_alpha 90.000000
_cell_angle_beta 128.488630
_cell_angle_gamma 90.000000
_cell_volume 1785.310257
_symmetry_space_group_name_H-M "P 21/C"
_symmetry_group_IT_number 14
_symmetry_cell_setting 'monoclinic'
loop_
_space_group_symop_operation_xyz
x,y,z
-x,1/2+y,1/2-z
-x,-y,-z
x,1/2-y,1/2+z
loop_
_atom_site_type_symbol
_atom_site_label
_atom_site_fract_x
_atom_site_fract_y
_atom_site_fract_z
Si Si1 0.446851 0.334226 0.288840
Si Si2 0.830516 0.904747 0.744796
Si Si3 0.704484 0.929352 0.173801
Si Si4 0.437263 0.446137 0.577094
Si Si5 0.046561 0.931687 0.963639
Si Si6 0.975607 0.071541 0.598234
Si Si7 0.693837 0.641829 0.965630
Si Si8 0.843703 0.598167 0.947390
O O1 0.446057 0.346718 0.451993
O O2 0.508261 0.425792 0.338520
O O3 0.445640 0.166212 0.219767
O O4 0.378838 0.410954 0.128720
O O5 0.755241 0.951138 0.623336
O O6 0.841783 0.755020 0.857063
O O7 0.843815 0.866806 0.608705
O O8 0.880304 0.033852 0.873305
O O9 0.700316 0.846947 0.314071
O O10 0.777187 0.992868 0.299324
O O11 0.635698 0.013922 0.047503
O O12 0.701677 0.805978 0.049078
O O13 0.032266 0.753276 0.922466
O O14 0.027542 0.023440 0.797315
O O15 0.000000 0.000000 0.000000
O O16 0.907285 0.996263 0.520967
O O17 0.000000 0.000000 0.500000
#
# Coordination Sequence:
#
# PCOD9242726 Si02
#       8
#     4   4   4   4   4   4   4   4
#     4   9  17  30  49  74 105 136 179 216 262 308
#     4  10  20  35  58  81 108 137 178 220 270 323
#     4   8  15  29  50  73 103 134 174 213 259 312
#     4   9  17  30  49  75 103 139 176 218 258 310
#     4  12  24  42  58  82 109 141 181 221 269 321
#     4  12  26  40  60  82 111 143 177 222 269 322
#     4   8  15  29  49  74 101 137 172 216 258 312
#     4  10  20  36  57  83 106 138 175 221 271 323
#
# _framework density 17.924056
#
# number of rings (size 3 to 8) (size 9 to 14) (size 15 to 20)
#    0.000    2.250    1.250    2.250    1.750    0.500 
#    0.000    1.250    0.000    0.000    0.000    0.000 
#    0.000    0.000    0.000    0.000    0.000    0.000 
#
# Total GULP energy -178164.149484 kJ/mol
# GULP energy per Si atom -5567.629671 kJ/mol
# Density = 1.788326 g / cm^3
# Si number density = 17.924056 Si / 1000 Ang^3
#
#
#
# Elastic Constant Matrix: (Units=GPa)
#
#
# Indices 1 2 3 4 5 6 
#
# 1 73.5201 4.2273 27.1529 0.0000 19.0566 0.0000
# 2 4.2273 50.8367 22.3999 0.0000 1.8011 0.0000
# 3 27.1529 22.3999 86.4226 0.0000 6.8845 0.0000
# 4 0.0000 0.0000 0.0000 21.1417 0.0000 3.9653
# 5 19.0566 1.8011 6.8845 0.0000 30.1354 0.0000
# 6 0.0000 0.0000 0.0000 3.9653 0.0000 23.4218
#
#
#
# Elastic Compliance Matrix: (Units=1/GPa)
#
#
# Indices 1 2 3 4 5 6 
#
# 1 0.018127 0.001135 -0.005165 0.000000 -0.010351 0.000000
# 2 0.001135 0.022278 -0.006078 0.000000 -0.000661 0.000000
# 3 -0.005165 -0.006078 0.014749 0.000000 0.000260 0.000000
# 4 0.000000 0.000000 0.000000 0.048851 0.000000 -0.008271
# 5 -0.010351 -0.000661 0.000260 0.000000 0.039709 0.000000
# 6 0.000000 0.000000 0.000000 -0.008271 0.000000 0.044096
#
#
# Mechanical properties :
#
#
# Convention : Reuss Voigt Hill
#
# Bulk Modulus (GPa) = 28.62256 35.37106 31.99681
# Shear Modulus (GPa) = 22.76128 25.40638 24.08383
#
# Velocity S-wave (km/s) = 3.56739 3.76898 3.66957
# Velocity P-wave (km/s) = 5.74211 6.22230 5.98702
#
# Compressibility (1/GPa) = 0.03493748
#
# Stress axis : x y z
#
# Youngs Moduli (GPa) = 55.16649 44.88714 67.80341
#
# Poissons Ratio (x) = -0.05096 0.35020
# Poissons Ratio (y) = -0.06262 0.41213
# Poissons Ratio (z) = 0.28493 0.27284
#
# Static dielectric constant tensor:
#      x y z
#    x 1.652060 0.000000 0.035280 
#    y 0.000000 0.759190 0.000000 
#    z 0.035280 0.000000 1.632990 
# 
# From -- ./inp_files/19673.got.cif
#   From: 2010.05.17/outbox.cif.g08.bks.cpg/sg14_10_cif.got.tgz:19673.got - 2010.06.03 17:49:19.
