data_PCOD9242186
_publ_section_title
;
Structure prediction by ZEFSAII (Michael W. Deem and Ramdas Pophale) SiO2 
 PCOD9242186
Probable space group: P 21/C
;
_chemical_formula_sum "Si O2"
_cell_formula_units_Z 20
_cell_length_a 9.552035
_cell_length_b 15.780129
_cell_length_c 14.415318
_cell_angle_alpha 90.000000
_cell_angle_beta 155.242966
_cell_angle_gamma 90.000000
_cell_volume 909.929013
_symmetry_space_group_name_H-M "P 21/C"
_symmetry_group_IT_number 14
_symmetry_cell_setting 'monoclinic'
loop_
_space_group_symop_operation_xyz
x,y,z
-x,1/2+y,1/2-z
-x,-y,-z
x,1/2-y,1/2+z
loop_
_atom_site_type_symbol
_atom_site_label
_atom_site_fract_x
_atom_site_fract_y
_atom_site_fract_z
Si Si1 0.391912 0.795082 0.423613
Si Si2 0.605374 0.542184 0.966410
Si Si3 0.922366 0.822529 0.309623
Si Si4 0.337617 0.895266 0.871011
Si Si5 0.684491 0.058626 0.336741
O O1 0.456763 0.863159 0.383475
O O2 0.733795 0.767644 0.685061
O O3 0.256807 0.704678 0.307702
O O4 0.138498 0.830381 0.346753
O O5 0.508657 0.487099 0.817903
O O6 0.500000 0.500000 0.000000
O O7 0.005323 0.556189 0.199901
O O8 0.160727 0.851915 0.534930
O O9 0.616209 0.889046 0.118166
O O10 0.493544 0.926669 0.868037
O O11 0.000000 0.000000 0.500000
#
# Coordination Sequence:
#
# PCOD9242186 Si02
#       5
#     4   4   4   4   4
#     4  10  19  40  63  85 118 168 206 246 299 381
#     4  11  20  37  64  92 126 155 204 260 302 358
#     4  10  20  41  65  83 124 165 207 248 313 371
#     4   9  21  41  64  84 122 167 206 241 317 361
#     4  10  22  39  63  91 124 157 203 262 309 360
#
# _framework density 21.979737
#
# number of rings (size 3 to 8) (size 9 to 14) (size 15 to 20)
#    1.200    0.800    4.000    0.000    0.000    3.200 
#   10.800    1.000    4.400    0.000    0.000    0.000 
#    0.000    0.000    0.000    0.000    0.000    0.000 
#
# Total GULP energy -111350.318114 kJ/mol
# GULP energy per Si atom -5567.515906 kJ/mol
# Density = 2.192971 g / cm^3
# Si number density = 21.979737 Si / 1000 Ang^3
#
#
#
# Elastic Constant Matrix: (Units=GPa)
#
#
# Indices 1 2 3 4 5 6 
#
# 1 106.3344 31.3369 5.7248 0.0000 8.0435 0.0000
# 2 31.3369 78.4439 6.0414 0.0000 -1.3694 0.0000
# 3 5.7248 6.0414 27.3824 0.0000 6.5646 0.0000
# 4 0.0000 0.0000 0.0000 30.0663 0.0000 0.8743
# 5 8.0435 -1.3694 6.5646 0.0000 26.3520 0.0000
# 6 0.0000 0.0000 0.0000 0.8743 0.0000 38.6555
#
#
#
# Elastic Compliance Matrix: (Units=1/GPa)
#
#
# Indices 1 2 3 4 5 6 
#
# 1 0.010994 -0.004414 -0.000495 0.000000 -0.003462 0.000000
# 2 -0.004414 0.014795 -0.003030 0.000000 0.002871 0.000000
# 3 -0.000495 -0.003030 0.039662 0.000000 -0.009887 0.000000
# 4 0.000000 0.000000 0.000000 0.033282 0.000000 -0.000753
# 5 -0.003462 0.002871 -0.009887 0.000000 0.041617 0.000000
# 6 0.000000 0.000000 0.000000 -0.000753 0.000000 0.025887
#
#
# Mechanical properties :
#
#
# Convention : Reuss Voigt Hill
#
# Bulk Modulus (GPa) = 20.17198 33.15188 26.66193
# Shear Modulus (GPa) = 25.17164 30.28526 27.72845
#
# Velocity S-wave (km/s) = 3.38778 3.71600 3.55568
# Velocity P-wave (km/s) = 4.94977 5.79027 5.38644
#
# Compressibility (1/GPa) = 0.04957371
#
# Stress axis : x y z
#
# Youngs Moduli (GPa) = 90.96180 67.59158 25.21311
#
# Poissons Ratio (x) = 0.29836 0.01247
# Poissons Ratio (y) = 0.40151 0.07638
# Poissons Ratio (z) = 0.04499 0.20477
#
# Static dielectric constant tensor:
#      x y z
#    x 1.763920 0.000000 -0.000240 
#    y 0.000000 1.917180 0.000000 
#    z -0.000240 0.000000 1.844290 
# 
# From -- ./inp_files/41733.got.cif
#   From: 2010.05.17/outbox.cif.g08.bks.cpg/sg14_21_cif.got.tgz:41733.got - 2010.06.03 17:49:19.
