data_PCOD9242793
_publ_section_title
;
Structure prediction by ZEFSAII (Michael W. Deem and Ramdas Pophale) SiO2 
 PCOD9242793
Probable space group: P 21/C
;
_chemical_formula_sum "Si O2"
_cell_formula_units_Z 32
_cell_length_a 7.561475
_cell_length_b 21.877291
_cell_length_c 12.609115
_cell_angle_alpha 90.000000
_cell_angle_beta 43.375215
_cell_angle_gamma 90.000000
_cell_volume 1432.511029
_symmetry_space_group_name_H-M "P 21/C"
_symmetry_group_IT_number 14
_symmetry_cell_setting 'monoclinic'
loop_
_space_group_symop_operation_xyz
x,y,z
-x,1/2+y,1/2-z
-x,-y,-z
x,1/2-y,1/2+z
loop_
_atom_site_type_symbol
_atom_site_label
_atom_site_fract_x
_atom_site_fract_y
_atom_site_fract_z
Si Si1 0.187285 0.689422 0.827698
Si Si2 0.346943 0.435415 0.653327
Si Si3 0.282362 0.692962 0.150335
Si Si4 0.789281 0.066563 0.290605
Si Si5 0.782342 0.062480 0.791452
Si Si6 0.671018 0.939416 0.340662
Si Si7 0.140175 0.180737 0.342916
Si Si8 0.615550 0.694740 0.814131
O O1 0.187690 0.745830 0.747368
O O2 0.278557 0.626452 0.736680
O O3 0.380195 0.707072 0.837751
O O4 0.928028 0.674791 0.004382
O O5 0.297817 0.500131 0.733742
O O6 0.610322 0.438510 0.473046
O O7 0.334383 0.372735 0.724282
O O8 0.094051 0.435262 0.685017
O O9 0.282110 0.633022 0.224527
O O10 0.091646 0.671229 0.139474
O O11 0.541274 0.703644 0.970295
O O12 0.600907 0.061898 0.477537
O O13 0.711389 0.004196 0.264693
O O14 0.086195 0.061838 0.684422
O O15 0.692309 0.875951 0.268289
O O16 0.196234 0.251691 0.299507
#
# Coordination Sequence:
#
# PCOD9242793 Si02
#       8
#     4   4   4   4   4   4   4   4
#     4  11  23  36  55  84 114 152 197 236 284 342
#     4   9  19  37  59  84 114 150 191 234 284 342
#     4   9  19  37  56  77 111 150 190 239 286 336
#     4   8  16  32  59  85 106 143 191 231 278 336
#     4  10  20  35  61  87 112 152 192 230 289 348
#     4   9  17  34  59  84 110 144 186 232 283 337
#     4  10  21  36  55  80 112 150 194 241 283 333
#     4  10  21  35  54  82 115 149 189 238 287 337
#
# _framework density 22.338397000000001
#
# number of rings (size 3 to 8) (size 9 to 14) (size 15 to 20)
#    0.000    2.500    0.000    2.250    0.000    6.500 
#    0.000    1.250    0.000    9.000    0.000    0.000 
#    0.000    0.000    0.000    0.000    0.000    0.000 
#
# Total GULP energy -178228.667222 kJ/mol
# GULP energy per Si atom -5569.645851 kJ/mol
# Density = 2.228755 g / cm^3
# Si number density = 22.338397 Si / 1000 Ang^3
#
#
#
# Elastic Constant Matrix: (Units=GPa)
#
#
# Indices 1 2 3 4 5 6 
#
# 1 52.1506 -8.0601 14.3102 0.0000 -5.4316 0.0000
# 2 -8.0601 161.2716 40.7635 0.0000 16.3507 0.0000
# 3 14.3102 40.7635 56.7506 0.0000 -7.1971 0.0000
# 4 0.0000 0.0000 0.0000 27.0897 0.0000 -23.8081
# 5 -5.4316 16.3507 -7.1971 0.0000 22.1655 0.0000
# 6 0.0000 0.0000 0.0000 -23.8081 0.0000 -7.9359
#
#
#
# Elastic Compliance Matrix: (Units=1/GPa)
#
#
# Indices 1 2 3 4 5 6 
#
# 1 0.021752 0.002897 -0.007469 0.000000 0.000768 0.000000
# 2 0.002897 0.009460 -0.008678 0.000000 -0.009086 0.000000
# 3 -0.007469 -0.008678 0.027448 0.000000 0.013484 0.000000
# 4 0.000000 0.000000 0.000000 0.010151 0.000000 -0.030453
# 5 0.000768 -0.009086 0.013484 0.000000 0.056384 0.000000
# 6 0.000000 0.000000 0.000000 -0.030453 0.000000 -0.034650
#
#
# Mechanical properties :
#
#
# Convention : Reuss Voigt Hill
#
# Bulk Modulus (GPa) = 31.09354 40.46669 35.78011
# Shear Modulus (GPa) = 39.13456 23.14115 31.13786
#
# Velocity S-wave (km/s) = 4.19011 3.22209 3.73757
# Velocity P-wave (km/s) = 6.11219 5.65660 5.88880
#
# Compressibility (1/GPa) = 0.03216102
#
# Stress axis : x y z
#
# Youngs Moduli (GPa) = 45.97195 105.70574 36.43312
#
# Poissons Ratio (x) = -0.30623 0.27210
# Poissons Ratio (y) = -0.13318 0.31617
# Poissons Ratio (z) = 0.34335 0.91732
#
# Static dielectric constant tensor:
#      x y z
#    x 1.844050 0.000000 -0.054440 
#    y 0.000000 1.919520 0.000000 
#    z -0.054440 0.000000 1.848960 
# 
# From -- ./inp_files/42045.got.cif
#   From: 2010.05.17/outbox.cif.g08.bks.cpg/sg14_22_cif.got.tgz:42045.got - 2010.06.03 17:49:19.
