data_PCOD9242381
_publ_section_title
;
Structure prediction by ZEFSAII (Michael W. Deem and Ramdas Pophale) SiO2 
 PCOD9242381
Probable space group: P 21/C
;
_chemical_formula_sum "Si O2"
_cell_formula_units_Z 32
_cell_length_a 23.621664
_cell_length_b 7.766360
_cell_length_c 9.322399
_cell_angle_alpha 90.000000
_cell_angle_beta 40.840246
_cell_angle_gamma 90.000000
_cell_volume 1118.411647
_symmetry_space_group_name_H-M "P 21/C"
_symmetry_group_IT_number 14
_symmetry_cell_setting 'monoclinic'
loop_
_space_group_symop_operation_xyz
x,y,z
-x,1/2+y,1/2-z
-x,-y,-z
x,1/2-y,1/2+z
loop_
_atom_site_type_symbol
_atom_site_label
_atom_site_fract_x
_atom_site_fract_y
_atom_site_fract_z
Si Si1 0.865336 0.715158 0.258047
Si Si2 0.325536 0.125937 0.648428
Si Si3 0.440739 0.228674 0.151346
Si Si4 0.230002 0.921109 0.627150
Si Si5 0.978050 0.887840 0.273330
Si Si6 0.744982 0.977605 0.822150
Si Si7 0.388982 0.893452 0.100514
Si Si8 0.119791 0.799365 0.617774
O O1 0.821251 0.899699 0.306820
O O2 0.930108 0.749038 0.264060
O O3 0.782460 0.586553 0.402084
O O4 0.926343 0.631366 0.020336
O O5 0.387126 0.165145 0.391960
O O6 0.386803 0.127644 0.669489
O O7 0.270977 0.957978 0.704877
O O8 0.265809 0.300222 0.751843
O O9 0.437642 0.074162 0.039957
O O10 0.538774 0.250540 0.015626
O O11 0.161861 0.784115 0.692242
O O12 0.312875 0.888908 0.364506
O O13 0.960932 0.068001 0.227760
O O14 0.077988 0.863103 0.121887
O O15 0.811643 0.099204 0.610316
O O16 0.655503 0.079433 0.969013
#
# Coordination Sequence:
#
# PCOD9242381 Si02
#       8
#     4   4   4   4   4   4   4   4
#     4   9  18  32  52  79 104 142 188 237 276 336
#     4   9  16  28  48  77 100 128 172 221 264 330
#     4   9  16  26  48  73 100 128 166 215 269 314
#     4   8  15  28  49  70  97 131 180 218 262 322
#     4  10  20  32  52  78 111 141 193 239 285 329
#     4   8  15  28  49  70  97 131 180 218 262 322
#     4   8  14  27  46  70  94 132 172 208 259 331
#     4   9  18  33  52  79 107 145 187 236 279 333
#
# _framework density 28.612006000000001
#
# number of rings (size 3 to 8) (size 9 to 14) (size 15 to 20)
#    0.000    3.250    0.000    1.500    0.000    7.000 
#    0.000    0.000    0.000   27.000    0.000    0.000 
#    0.000    0.000    0.000    0.000    0.000    0.000 
#
# Total GULP energy -178888.869932 kJ/mol
# GULP energy per Si atom -5590.277185 kJ/mol
# Density = 2.854688 g / cm^3
# Si number density = 28.612006 Si / 1000 Ang^3
#
#
#
# Elastic Constant Matrix: (Units=GPa)
#
#
# Indices 1 2 3 4 5 6 
#
# 1 201.5620 34.4193 45.2497 0.0000 -35.0042 0.0000
# 2 34.4193 112.8725 15.2878 0.0000 -11.9377 0.0000
# 3 45.2497 15.2878 76.2812 0.0000 -20.3665 0.0000
# 4 0.0000 0.0000 0.0000 25.3676 0.0000 2.3083
# 5 -35.0042 -11.9377 -20.3665 0.0000 50.7965 0.0000
# 6 0.0000 0.0000 0.0000 2.3083 0.0000 35.5866
#
#
#
# Elastic Compliance Matrix: (Units=1/GPa)
#
#
# Indices 1 2 3 4 5 6 
#
# 1 0.006292 -0.001241 -0.002692 0.000000 0.002965 0.000000
# 2 -0.001241 0.009466 -0.000891 0.000000 0.001012 0.000000
# 3 -0.002692 -0.000891 0.016052 0.000000 0.004371 0.000000
# 4 0.000000 0.000000 0.000000 0.039654 0.000000 -0.002572
# 5 0.002965 0.001012 0.004371 0.000000 0.023720 0.000000
# 6 0.000000 0.000000 0.000000 -0.002572 0.000000 0.028267
#
#
# Mechanical properties :
#
#
# Convention : Reuss Voigt Hill
#
# Bulk Modulus (GPa) = 45.12088 64.51438 54.81763
# Shear Modulus (GPa) = 35.59043 42.06740 38.82891
#
# Velocity S-wave (km/s) = 3.53072 3.83857 3.68786
# Velocity P-wave (km/s) = 5.69434 6.49947 6.11018
#
# Compressibility (1/GPa) = 0.02216269
#
# Stress axis : x y z
#
# Youngs Moduli (GPa) = 158.92029 105.64591 62.29706
#
# Poissons Ratio (x) = 0.13106 0.16773
# Poissons Ratio (y) = 0.19715 0.05549
# Poissons Ratio (z) = 0.42787 0.09411
#
# Static dielectric constant tensor:
#      x y z
#    x 2.242490 0.000000 -0.067020 
#    y 0.000000 2.274060 0.000000 
#    z -0.067020 0.000000 2.393750 
# 
# From -- ./inp_files/35853.got.cif
#   From: 2010.05.17/outbox.cif.g08.bks.cpg/sg14_18_cif.got.tgz:35853.got - 2010.06.03 17:49:19.
