data_PCOD9242371
_publ_section_title
;
Structure prediction by ZEFSAII (Michael W. Deem and Ramdas Pophale) SiO2 
 PCOD9242371
Probable space group: P 21/C
;
_chemical_formula_sum "Si O2"
_cell_formula_units_Z 32
_cell_length_a 10.408252
_cell_length_b 9.579261
_cell_length_c 20.665476
_cell_angle_alpha 90.000000
_cell_angle_beta 38.396242
_cell_angle_gamma 90.000000
_cell_volume 1279.717809
_symmetry_space_group_name_H-M "P 21/C"
_symmetry_group_IT_number 14
_symmetry_cell_setting 'monoclinic'
loop_
_space_group_symop_operation_xyz
x,y,z
-x,1/2+y,1/2-z
-x,-y,-z
x,1/2-y,1/2+z
loop_
_atom_site_type_symbol
_atom_site_label
_atom_site_fract_x
_atom_site_fract_y
_atom_site_fract_z
Si Si1 0.299211 0.380860 0.892853
Si Si2 0.003898 0.267672 0.186374
Si Si3 0.769951 0.617378 0.654744
Si Si4 0.091114 0.461434 0.265100
Si Si5 0.166752 0.629108 0.866215
Si Si6 0.245733 0.627268 0.420883
Si Si7 0.364897 0.871310 0.004162
Si Si8 0.582491 0.691980 0.539970
O O1 0.295005 0.273709 0.834287
O O2 0.313419 0.528583 0.850548
O O3 0.438664 0.302590 0.892600
O O4 0.069045 0.392918 0.015558
O O5 0.172576 0.204201 0.070608
O O6 0.120652 0.362510 0.192060
O O7 0.849894 0.365071 0.204944
O O8 0.907332 0.125574 0.252642
O O9 0.677794 0.521652 0.633933
O O10 0.761413 0.567580 0.731727
O O11 0.014152 0.611154 0.540058
O O12 0.860047 0.412074 0.378787
O O13 0.230554 0.782716 0.862901
O O14 0.357750 0.699221 0.436630
O O15 0.462517 0.023373 0.945275
O O16 0.469088 0.775465 0.017012
#
# Coordination Sequence:
#
# PCOD9242371 Si02
#       8
#     4   4   4   4   4   4   4   4
#     4   9  16  27  47  74  99 126 164 213 258 292
#     4  10  20  33  50  75 105 136 171 214 264 315
#     4   9  15  26  47  71  95 122 167 212 244 295
#     4  10  20  32  50  77 103 135 172 212 263 316
#     4   9  17  28  45  71 103 129 162 214 257 289
#     4   9  14  27  47  71  95 123 165 212 249 288
#     4   9  17  31  54  77 100 134 172 212 261 312
#     4   9  17  32  52  78 103 130 171 217 259 312
#
# _framework density 25.005513000000001
#
# number of rings (size 3 to 8) (size 9 to 14) (size 15 to 20)
#    0.000    2.750    2.500    0.000    1.750    0.000 
#    2.250    0.625    0.000    1.500    0.000    0.000 
#    0.000    0.000    0.000    0.000    0.000    0.000 
#
# Total GULP energy -178271.640805 kJ/mol
# GULP energy per Si atom -5570.988775 kJ/mol
# Density = 2.494860 g / cm^3
# Si number density = 25.005513 Si / 1000 Ang^3
#
#
#
# Elastic Constant Matrix: (Units=GPa)
#
#
# Indices 1 2 3 4 5 6 
#
# 1 139.8794 30.7454 21.6671 0.0000 40.2804 0.0000
# 2 30.7454 93.4839 15.1747 0.0000 30.9927 0.0000
# 3 21.6671 15.1747 57.9285 0.0000 -2.5441 0.0000
# 4 0.0000 0.0000 0.0000 13.6598 0.0000 11.7737
# 5 40.2804 30.9927 -2.5441 0.0000 51.8256 0.0000
# 6 0.0000 0.0000 0.0000 11.7737 0.0000 36.4949
#
#
#
# Elastic Compliance Matrix: (Units=1/GPa)
#
#
# Indices 1 2 3 4 5 6 
#
# 1 0.010111 0.000025 -0.004143 0.000000 -0.008077 0.000000
# 2 0.000025 0.014260 -0.004129 0.000000 -0.008750 0.000000
# 3 -0.004143 -0.004129 0.020187 0.000000 0.006680 0.000000
# 4 0.000000 0.000000 0.000000 0.101405 0.000000 -0.032714
# 5 -0.008077 -0.008750 0.006680 0.000000 0.031134 0.000000
# 6 0.000000 0.000000 0.000000 -0.032714 0.000000 0.037955
#
#
# Mechanical properties :
#
#
# Convention : Reuss Voigt Hill
#
# Bulk Modulus (GPa) = 35.63305 47.38511 41.50908
# Shear Modulus (GPa) = 20.75540 35.30969 28.03254
#
# Velocity S-wave (km/s) = 2.88415 3.76184 3.35185
# Velocity P-wave (km/s) = 5.03708 6.15301 5.62280
#
# Compressibility (1/GPa) = 0.02806384
#
# Stress axis : x y z
#
# Youngs Moduli (GPa) = 98.90010 70.12672 49.53596
#
# Poissons Ratio (x) = -0.00175 0.20524
# Poissons Ratio (y) = -0.00246 0.20454
# Poissons Ratio (z) = 0.40976 0.28956
#
# Static dielectric constant tensor:
#      x y z
#    x 2.070630 0.000000 -0.034760 
#    y 0.000000 1.935210 0.000000 
#    z -0.034760 0.000000 2.058440 
# 
# From -- ./inp_files/72917.got.cif
#   From: 2010.05.17/outbox.cif.g08.bks.cpg/sg14_37_cif.got.tgz:72917.got - 2010.06.03 17:49:19.
