data_PCOD9242218
_publ_section_title
;
Structure prediction by ZEFSAII (Michael W. Deem and Ramdas Pophale) SiO2 
 PCOD9242218
Probable space group: P 21/C
;
_chemical_formula_sum "Si O2"
_cell_formula_units_Z 28
_cell_length_a 11.054144
_cell_length_b 8.612051
_cell_length_c 12.845411
_cell_angle_alpha 90.000000
_cell_angle_beta 63.485435
_cell_angle_gamma 90.000000
_cell_volume 1094.248191
_symmetry_space_group_name_H-M "P 21/C"
_symmetry_group_IT_number 14
_symmetry_cell_setting 'monoclinic'
loop_
_space_group_symop_operation_xyz
x,y,z
-x,1/2+y,1/2-z
-x,-y,-z
x,1/2-y,1/2+z
loop_
_atom_site_type_symbol
_atom_site_label
_atom_site_fract_x
_atom_site_fract_y
_atom_site_fract_z
Si Si1 0.962425 0.343357 0.618187
Si Si2 0.006044 0.100434 0.760590
Si Si3 0.306343 0.355085 0.184258
Si Si4 0.667009 0.277930 0.204702
Si Si5 0.457209 0.440690 0.868237
Si Si6 0.257644 0.332695 0.446954
Si Si7 0.720583 0.505611 0.356021
O O1 0.963471 0.270623 0.736222
O O2 0.817175 0.292453 0.631783
O O3 0.991592 0.526475 0.624043
O O4 0.100649 0.280026 0.516470
O O5 0.166853 0.096169 0.681393
O O6 0.878369 0.008763 0.760524
O O7 0.425128 0.472835 0.112793
O O8 0.286909 0.368752 0.316573
O O9 0.330948 0.172471 0.160306
O O10 0.633713 0.420447 0.142322
O O11 0.549603 0.151077 0.247526
O O12 0.655395 0.358536 0.324876
O O13 0.356533 0.306433 0.944072
O O14 0.282509 0.474880 0.518054
#
# Coordination Sequence:
#
# PCOD9242218 Si02
#       7
#     4   4   4   4   4   4   4
#     4  10  22  40  69  95 128 174 226 267 329 395
#     4  10  19  40  66  94 130 171 212 275 336 373
#     4  12  22  43  67  95 140 171 213 284 326 389
#     4  11  22  44  66  94 137 177 211 274 337 383
#     4  12  24  41  68  97 133 179 214 269 342 390
#     4  11  24  42  69 101 125 177 229 267 329 399
#     4  10  23  43  68  94 134 172 220 276 323 394
#
# _framework density 25.588342999999998
#
# number of rings (size 3 to 8) (size 9 to 14) (size 15 to 20)
#    0.000    1.143    7.143    0.000    0.000    4.000 
#    0.000    0.000    3.143    0.000    0.000    0.000 
#    0.000    0.000    0.000    0.000    0.000    0.000 
#
# Total GULP energy -156056.261106 kJ/mol
# GULP energy per Si atom -5573.437897 kJ/mol
# Density = 2.553010 g / cm^3
# Si number density = 25.588343 Si / 1000 Ang^3
#
#
#
# Elastic Constant Matrix: (Units=GPa)
#
#
# Indices 1 2 3 4 5 6 
#
# 1 154.5052 43.0457 23.0373 0.0000 -27.7332 0.0000
# 2 43.0457 89.0792 12.3353 0.0000 -11.4682 0.0000
# 3 23.0373 12.3353 83.6815 0.0000 -13.3860 0.0000
# 4 0.0000 0.0000 0.0000 28.1878 0.0000 1.7369
# 5 -27.7332 -11.4682 -13.3860 0.0000 35.1149 0.0000
# 6 0.0000 0.0000 0.0000 1.7369 0.0000 64.3652
#
#
#
# Elastic Compliance Matrix: (Units=1/GPa)
#
#
# Indices 1 2 3 4 5 6 
#
# 1 0.008478 -0.003282 -0.001012 0.000000 0.005238 0.000000
# 2 -0.003282 0.013101 -0.000807 0.000000 0.001379 0.000000
# 3 -0.001012 -0.000807 0.012968 0.000000 0.003881 0.000000
# 4 0.000000 0.000000 0.000000 0.035535 0.000000 -0.000959
# 5 0.005238 0.001379 0.003881 0.000000 0.034544 0.000000
# 6 0.000000 0.000000 0.000000 -0.000959 0.000000 0.015562
#
#
# Mechanical properties :
#
#
# Convention : Reuss Voigt Hill
#
# Bulk Modulus (GPa) = 41.07704 53.78917 47.43310
# Shear Modulus (GPa) = 36.09912 42.12343 39.11127
#
# Velocity S-wave (km/s) = 3.76009 4.06174 3.91382
# Velocity P-wave (km/s) = 5.91091 6.56228 6.24510
#
# Compressibility (1/GPa) = 0.02434450
#
# Stress axis : x y z
#
# Youngs Moduli (GPa) = 117.95489 76.32825 77.11017
#
# Poissons Ratio (x) = 0.25053 0.07805
# Poissons Ratio (y) = 0.38716 0.06223
# Poissons Ratio (z) = 0.11940 0.06160
#
# Static dielectric constant tensor:
#      x y z
#    x 2.040480 0.000000 0.049110 
#    y 0.000000 2.059010 0.000000 
#    z 0.049110 0.000000 2.089200 
# 
# From -- ./inp_files/43613.got.cif
#   From: 2010.05.17/outbox.cif.g08.bks.cpg/sg14_22_cif.got.tgz:43613.got - 2010.06.03 17:49:19.
