data_PCOD9242660
_publ_section_title
;
Structure prediction by ZEFSAII (Michael W. Deem and Ramdas Pophale) SiO2 
 PCOD9242660
Probable space group: P 21/C
;
_chemical_formula_sum "Si O2"
_cell_formula_units_Z 28
_cell_length_a 5.473727
_cell_length_b 20.500839
_cell_length_c 10.557234
_cell_angle_alpha 90.000000
_cell_angle_beta 109.150569
_cell_angle_gamma 90.000000
_cell_volume 1119.129450
_symmetry_space_group_name_H-M "P 21/C"
_symmetry_group_IT_number 14
_symmetry_cell_setting 'monoclinic'
loop_
_space_group_symop_operation_xyz
x,y,z
-x,1/2+y,1/2-z
-x,-y,-z
x,1/2-y,1/2+z
loop_
_atom_site_type_symbol
_atom_site_label
_atom_site_fract_x
_atom_site_fract_y
_atom_site_fract_z
Si Si1 0.598868 0.235218 0.302102
Si Si2 0.045631 0.671996 0.516828
Si Si3 0.090275 0.554702 0.191910
Si Si4 0.646563 0.860976 0.551806
Si Si5 0.816802 0.427275 0.093396
Si Si6 0.110773 0.296728 0.150889
Si Si7 0.478309 0.872273 0.921168
O O1 0.559250 0.182035 0.405934
O O2 0.359517 0.284032 0.278712
O O3 0.565365 0.193602 0.169978
O O4 0.853230 0.278787 0.356295
O O5 0.998868 0.725254 0.396946
O O6 0.786402 0.630573 0.496121
O O7 0.289601 0.630145 0.510175
O O8 0.868012 0.609292 0.178956
O O9 0.955783 0.485323 0.190645
O O10 0.350603 0.571217 0.311710
O O11 0.135778 0.561286 0.048725
O O12 0.492567 0.918891 0.453780
O O13 0.773385 0.817863 0.466213
O O14 0.937390 0.358459 0.155931
#
# Coordination Sequence:
#
# PCOD9242660 Si02
#       7
#     4   4   4   4   4   4   4
#     4  11  20  37  59  82 120 152 185 244 294 345
#     4  11  23  38  57  87 119 153 196 237 287 362
#     4  10  20  35  58  82 117 156 190 247 293 341
#     4  11  19  38  54  90 119 150 197 237 298 355
#     4  10  20  35  55  87 116 149 199 237 297 349
#     4  10  22  35  55  85 120 152 191 239 296 351
#     4  11  23  38  59  86 115 154 195 237 294 345
#
# _framework density 25.019447
#
# number of rings (size 3 to 8) (size 9 to 14) (size 15 to 20)
#    0.000    1.429    2.857    4.714    0.000    2.286 
#    0.000    0.000    0.000    1.714    0.000    0.000 
#    0.000    0.000    0.000    0.000    0.000    0.000 
#
# Total GULP energy -156536.689402 kJ/mol
# GULP energy per Si atom -5590.596050 kJ/mol
# Density = 2.496250 g / cm^3
# Si number density = 25.019447 Si / 1000 Ang^3
#
#
#
# Elastic Constant Matrix: (Units=GPa)
#
#
# Indices 1 2 3 4 5 6 
#
# 1 92.1325 10.4847 -4.6738 0.0000 -0.4281 0.0000
# 2 10.4847 62.4586 6.3478 0.0000 1.3977 0.0000
# 3 -4.6738 6.3478 17.9107 0.0000 9.7467 0.0000
# 4 0.0000 0.0000 0.0000 32.1104 0.0000 8.1794
# 5 -0.4281 1.3977 9.7467 0.0000 33.3371 0.0000
# 6 0.0000 0.0000 0.0000 8.1794 0.0000 29.6064
#
#
#
# Elastic Compliance Matrix: (Units=1/GPa)
#
#
# Indices 1 2 3 4 5 6 
#
# 1 0.011333 -0.002320 0.004338 0.000000 -0.001025 0.000000
# 2 -0.002320 0.017126 -0.007454 0.000000 0.001431 0.000000
# 3 0.004338 -0.007454 0.070646 0.000000 -0.020286 0.000000
# 4 0.000000 0.000000 0.000000 0.033500 0.000000 -0.009255
# 5 -0.001025 0.001431 -0.020286 0.000000 0.035854 0.000000
# 6 0.000000 0.000000 0.000000 -0.009255 0.000000 0.036333
#
#
# Mechanical properties :
#
#
# Convention : Reuss Voigt Hill
#
# Bulk Modulus (GPa) = 11.33384 21.86880 16.60132
# Shear Modulus (GPa) = 20.40182 29.70033 25.05107
#
# Velocity S-wave (km/s) = 2.85869 3.44915 3.16771
# Velocity P-wave (km/s) = 3.92886 4.96205 4.47537
#
# Compressibility (1/GPa) = 0.08823134
#
# Stress axis : x y z
#
# Youngs Moduli (GPa) = 88.23561 58.39191 14.15516
#
# Poissons Ratio (x) = 0.13549 -0.06140
# Poissons Ratio (y) = 0.20474 0.10551
# Poissons Ratio (z) = -0.38275 0.43526
#
# Static dielectric constant tensor:
#      x y z
#    x 2.026660 0.000000 0.028490 
#    y 0.000000 1.975660 0.000000 
#    z 0.028490 0.000000 2.045120 
# 
# From -- ./inp_files/21611.got.cif
#   From: 2010.05.17/outbox.cif.g08.bks.cpg/sg14_11_cif.got.tgz:21611.got - 2010.06.03 17:49:19.
