data_PCOD9242713
_publ_section_title
;
Structure prediction by ZEFSAII (Michael W. Deem and Ramdas Pophale) SiO2 
 PCOD9242713
Probable space group: P 21/C
;
_chemical_formula_sum "Si O2"
_cell_formula_units_Z 32
_cell_length_a 9.631138
_cell_length_b 20.619127
_cell_length_c 6.739507
_cell_angle_alpha 90.000000
_cell_angle_beta 116.219701
_cell_angle_gamma 90.000000
_cell_volume 1200.659923
_symmetry_space_group_name_H-M "P 21/C"
_symmetry_group_IT_number 14
_symmetry_cell_setting 'monoclinic'
loop_
_space_group_symop_operation_xyz
x,y,z
-x,1/2+y,1/2-z
-x,-y,-z
x,1/2-y,1/2+z
loop_
_atom_site_type_symbol
_atom_site_label
_atom_site_fract_x
_atom_site_fract_y
_atom_site_fract_z
Si Si1 0.638482 0.763302 0.916640
Si Si2 0.840270 0.140449 0.147353
Si Si3 0.366282 0.490467 0.114025
Si Si4 0.819203 0.632727 0.032995
Si Si5 0.393120 0.744538 0.010130
Si Si6 0.295317 0.994086 0.041006
Si Si7 0.874022 0.620082 0.599772
Si Si8 0.212626 0.879385 0.415027
O O1 0.758329 0.704521 0.013341
O O2 0.438578 0.766372 0.791965
O O3 0.588509 0.759331 0.140432
O O4 0.737435 0.829777 0.953228
O O5 0.814464 0.132659 0.367951
O O6 0.024047 0.130841 0.242748
O O7 0.754884 0.080679 0.987143
O O8 0.755058 0.208183 0.049389
O O9 0.312445 0.420094 0.006670
O O10 0.549012 0.503980 0.234236
O O11 0.331596 0.494000 0.329818
O O12 0.263624 0.545864 0.946115
O O13 0.859295 0.618716 0.830133
O O14 0.346438 0.669959 0.936965
O O15 0.167069 0.048348 0.004342
O O16 0.055375 0.637429 0.699157
#
# Coordination Sequence:
#
# PCOD9242713 Si02
#       8
#     4   4   4   4   4   4   4   4
#     4  12  23  38  57  83 116 153 193 231 280 336
#     4  10  20  35  57  85 115 147 188 237 284 332
#     4   9  17  31  56  82 114 144 186 235 281 334
#     4  10  20  36  56  84 115 149 188 234 285 335
#     4  12  23  38  57  83 116 153 193 231 280 336
#     4   9  17  29  55  86 111 143 188 237 282 324
#     4  10  20  35  57  85 115 147 188 237 284 332
#     4  10  20  36  56  84 115 149 188 234 285 335
#
# _framework density 26.652007000000001
#
# number of rings (size 3 to 8) (size 9 to 14) (size 15 to 20)
#    0.000    1.750    2.500    3.000    3.500    3.000 
#    0.000    0.625    0.000    0.000    0.000    5.250 
#    0.000    0.000    0.000    0.000    0.000    0.000 
#
# Total GULP energy -179064.076803 kJ/mol
# GULP energy per Si atom -5595.752400 kJ/mol
# Density = 2.659135 g / cm^3
# Si number density = 26.652007 Si / 1000 Ang^3
#
#
#
# Elastic Constant Matrix: (Units=GPa)
#
#
# Indices 1 2 3 4 5 6 
#
# 1 67.2374 -2.5326 27.9599 0.0000 15.5959 0.0000
# 2 -2.5326 127.0924 31.5011 0.0000 38.5881 0.0000
# 3 27.9599 31.5011 179.3718 0.0000 3.0740 0.0000
# 4 0.0000 0.0000 0.0000 45.9062 0.0000 0.5664
# 5 15.5959 38.5881 3.0740 0.0000 59.5282 0.0000
# 6 0.0000 0.0000 0.0000 0.5664 0.0000 43.0453
#
#
#
# Elastic Compliance Matrix: (Units=1/GPa)
#
#
# Indices 1 2 3 4 5 6 
#
# 1 0.017849 0.003142 -0.003222 0.000000 -0.006547 0.000000
# 2 0.003142 0.010839 -0.002261 0.000000 -0.007733 0.000000
# 3 -0.003222 -0.002261 0.006440 0.000000 0.001977 0.000000
# 4 0.000000 0.000000 0.000000 0.021787 0.000000 -0.000287
# 5 -0.006547 -0.007733 0.001977 0.000000 0.023424 0.000000
# 6 0.000000 0.000000 0.000000 -0.000287 0.000000 0.023235
#
#
# Mechanical properties :
#
#
# Convention : Reuss Voigt Hill
#
# Bulk Modulus (GPa) = 32.84349 54.17316 43.50832
# Shear Modulus (GPa) = 42.22761 50.81416 46.52088
#
# Velocity S-wave (km/s) = 3.98478 4.37118 4.18244
# Velocity P-wave (km/s) = 5.78974 6.77100 6.29951
#
# Compressibility (1/GPa) = 0.03044744
#
# Stress axis : x y z
#
# Youngs Moduli (GPa) = 56.02446 92.25881 155.27010
#
# Poissons Ratio (x) = -0.28988 0.50026
# Poissons Ratio (y) = -0.17603 0.35103
# Poissons Ratio (z) = 0.18051 0.20858
#
# Static dielectric constant tensor:
#      x y z
#    x 2.188430 0.000000 -0.215580 
#    y 0.000000 1.836130 0.000000 
#    z -0.215580 0.000000 2.152730 
# 
# From -- ./inp_files/30301.got.cif
#   From: 2010.05.17/outbox.cif.g08.bks.cpg/sg14_16_cif.got.tgz:30301.got - 2010.06.03 17:49:19.
