data_PCOD9242965
_publ_section_title
;
Structure prediction by ZEFSAII (Michael W. Deem and Ramdas Pophale) SiO2 
 PCOD9242965
Probable space group: P 21/C
;
_chemical_formula_sum "Si O2"
_cell_formula_units_Z 28
_cell_length_a 8.730438
_cell_length_b 19.228570
_cell_length_c 8.819641
_cell_angle_alpha 90.000000
_cell_angle_beta 66.595024
_cell_angle_gamma 90.000000
_cell_volume 1358.764483
_symmetry_space_group_name_H-M "P 21/C"
_symmetry_group_IT_number 14
_symmetry_cell_setting 'monoclinic'
loop_
_space_group_symop_operation_xyz
x,y,z
-x,1/2+y,1/2-z
-x,-y,-z
x,1/2-y,1/2+z
loop_
_atom_site_type_symbol
_atom_site_label
_atom_site_fract_x
_atom_site_fract_y
_atom_site_fract_z
Si Si1 0.209687 0.272290 0.063708
Si Si2 0.364136 0.410100 0.119917
Si Si3 0.439191 0.788136 0.165313
Si Si4 0.309503 0.837427 0.543087
Si Si5 0.530028 0.440236 0.365428
Si Si6 0.930601 0.656307 0.162806
Si Si7 0.191730 0.019668 0.411582
O O1 0.264850 0.336714 0.149423
O O2 0.134212 0.208407 0.184426
O O3 0.378220 0.246818 0.913188
O O4 0.082511 0.302571 0.990849
O O5 0.395314 0.435001 0.279918
O O6 0.546104 0.392885 0.974865
O O7 0.269260 0.461386 0.044068
O O8 0.374488 0.809051 0.355678
O O9 0.318540 0.730275 0.144910
O O10 0.452187 0.862440 0.075168
O O11 0.122046 0.864695 0.614536
O O12 0.500000 0.500000 0.500000
O O13 0.700481 0.461556 0.213352
O O14 0.810640 0.590227 0.187785
O O15 0.000000 0.000000 0.500000
#
# Coordination Sequence:
#
# PCOD9242965 Si02
#       7
#     4   4   4   4   4   4   4
#     4  10  20  36  59  82 111 142 185 242 285 327
#     4   9  21  40  60  80 112 156 193 228 283 342
#     4  10  20  37  56  83 112 148 187 227 285 339
#     4  10  20  36  60  84 111 144 189 241 282 334
#     4  11  22  37  58  85 118 152 189 232 279 344
#     4  11  21  35  56  85 110 142 187 238 288 327
#     4  11  23  39  59  81 114 156 194 228 277 349
#
# _framework density 20.606957000000001
#
# number of rings (size 3 to 8) (size 9 to 14) (size 15 to 20)
#    0.000    1.714    0.000    6.429    0.000    3.429 
#    0.000    2.143    0.000    0.000    0.000    0.000 
#    0.000    0.000    0.000    0.000    0.000    0.000 
#
# Total GULP energy -156397.445615 kJ/mol
# GULP energy per Si atom -5585.623058 kJ/mol
# Density = 2.056005 g / cm^3
# Si number density = 20.606957 Si / 1000 Ang^3
#
#
#
# Elastic Constant Matrix: (Units=GPa)
#
#
# Indices 1 2 3 4 5 6 
#
# 1 96.1525 27.7855 18.0382 0.0000 3.3554 0.0000
# 2 27.7855 83.3185 2.1627 0.0000 11.7214 0.0000
# 3 18.0382 2.1627 32.3667 0.0000 -5.8838 0.0000
# 4 0.0000 0.0000 0.0000 41.0980 0.0000 3.3775
# 5 3.3554 11.7214 -5.8838 0.0000 19.3933 0.0000
# 6 0.0000 0.0000 0.0000 3.3775 0.0000 39.3294
#
#
#
# Elastic Compliance Matrix: (Units=1/GPa)
#
#
# Indices 1 2 3 4 5 6 
#
# 1 0.012963 -0.003828 -0.007362 0.000000 -0.002163 0.000000
# 2 -0.003828 0.014434 -0.000314 0.000000 -0.008157 0.000000
# 3 -0.007362 -0.000314 0.037345 0.000000 0.012794 0.000000
# 4 0.000000 0.000000 0.000000 0.024505 0.000000 -0.002104
# 5 -0.002163 -0.008157 0.012794 0.000000 0.060751 0.000000
# 6 0.000000 0.000000 0.000000 -0.002104 0.000000 0.025607
#
#
# Mechanical properties :
#
#
# Convention : Reuss Voigt Hill
#
# Bulk Modulus (GPa) = 23.96035 34.20115 29.08075
# Shear Modulus (GPa) = 23.52679 30.88757 27.20718
#
# Velocity S-wave (km/s) = 3.38256 3.87575 3.63752
# Velocity P-wave (km/s) = 5.18731 6.05488 5.63780
#
# Compressibility (1/GPa) = 0.04173561
#
# Stress axis : x y z
#
# Youngs Moduli (GPa) = 77.14426 69.27948 26.77702
#
# Poissons Ratio (x) = 0.26517 0.19712
# Poissons Ratio (y) = 0.29527 0.00841
# Poissons Ratio (z) = 0.56791 0.02177
#
# Static dielectric constant tensor:
#      x y z
#    x 1.750960 0.000000 0.024590 
#    y 0.000000 1.800710 0.000000 
#    z 0.024590 0.000000 1.726440 
# 
# From -- ./inp_files/9877.got.cif
#   From: 2010.05.17/outbox.cif.g08.bks.cpg/sg14_5_cif.got.tgz:9877.got - 2010.06.03 17:49:19.
