data_PCOD9242178
_publ_section_title
;
Structure prediction by ZEFSAII (Michael W. Deem and Ramdas Pophale) SiO2 
 PCOD9242178
Probable space group: P 21/C
;
_chemical_formula_sum "Si O2"
_cell_formula_units_Z 32
_cell_length_a 16.843076
_cell_length_b 12.219151
_cell_length_c 14.234431
_cell_angle_alpha 90.000000
_cell_angle_beta 152.558764
_cell_angle_gamma 90.000000
_cell_volume 1350.054896
_symmetry_space_group_name_H-M "P 21/C"
_symmetry_group_IT_number 14
_symmetry_cell_setting 'monoclinic'
loop_
_space_group_symop_operation_xyz
x,y,z
-x,1/2+y,1/2-z
-x,-y,-z
x,1/2-y,1/2+z
loop_
_atom_site_type_symbol
_atom_site_label
_atom_site_fract_x
_atom_site_fract_y
_atom_site_fract_z
Si Si1 0.414174 0.848136 0.451890
Si Si2 0.010544 0.037117 0.836834
Si Si3 0.739026 0.087142 0.033518
Si Si4 0.798331 0.752639 0.887859
Si Si5 0.836009 0.186904 0.527677
Si Si6 0.862744 0.327244 0.847555
Si Si7 0.473267 0.072437 0.619551
Si Si8 0.159680 0.319628 0.855606
O O1 0.596367 0.781546 0.655840
O O2 0.244566 0.780302 0.295769
O O3 0.398539 0.885871 0.327058
O O4 0.417409 0.957317 0.517428
O O5 0.847610 0.089037 0.612417
O O6 0.942026 0.921038 0.800493
O O7 0.143288 0.997372 0.897708
O O8 0.109563 0.128134 0.000476
O O9 0.766266 0.206826 0.011096
O O10 0.795212 0.087533 0.199411
O O11 0.549142 0.055064 0.802602
O O12 0.811553 0.684311 0.000542
O O13 0.933038 0.692738 0.958117
O O14 0.784537 0.152545 0.369123
O O15 0.034392 0.218924 0.713722
O O16 0.338600 0.170465 0.491454
#
# Coordination Sequence:
#
# PCOD9242178 Si02
#       8
#     4   4   4   4   4   4   4   4
#     4  11  24  37  61  95 121 159 207 260 317 364
#     4  10  19  40  62  87 123 159 208 251 307 367
#     4  11  21  40  60  87 126 160 205 253 308 370
#     4  11  21  39  63  90 124 164 203 255 313 362
#     4  10  22  39  62  91 121 160 209 250 307 375
#     4  12  22  40  67  90 125 169 202 254 318 369
#     4  11  22  38  59  90 126 155 206 269 306 364
#     4  10  21  39  62  89 122 164 208 255 303 370
#
# _framework density 23.702739999999999
#
# number of rings (size 3 to 8) (size 9 to 14) (size 15 to 20)
#    0.000    1.250    6.250    2.250    0.000    0.500 
#    0.000    3.750    0.000    1.500    0.000    0.000 
#    0.000    0.000    0.000    0.000    0.000    0.000 
#
# Total GULP energy -178247.664048 kJ/mol
# GULP energy per Si atom -5570.239502 kJ/mol
# Density = 2.364879 g / cm^3
# Si number density = 23.702740 Si / 1000 Ang^3
#
#
#
# Elastic Constant Matrix: (Units=GPa)
#
#
# Indices 1 2 3 4 5 6 
#
# 1 62.8844 -26.0480 7.8976 0.0000 21.6047 0.0000
# 2 -26.0480 5.1232 -2.0385 0.0000 27.1344 0.0000
# 3 7.8976 -2.0385 51.4898 0.0000 -3.8779 0.0000
# 4 0.0000 0.0000 0.0000 19.0722 0.0000 -1.5725
# 5 21.6047 27.1344 -3.8779 0.0000 6.2859 0.0000
# 6 0.0000 0.0000 0.0000 -1.5725 0.0000 3.1427
#
#
#
# Elastic Compliance Matrix: (Units=1/GPa)
#
#
# Indices 1 2 3 4 5 6 
#
# 1 0.008688 -0.009378 -0.000948 0.000000 0.010039 0.000000
# 2 -0.009378 0.001533 0.003595 0.000000 0.027831 0.000000
# 3 -0.000948 0.003595 0.019701 0.000000 -0.000109 0.000000
# 4 0.000000 0.000000 0.000000 0.054688 0.000000 0.027363
# 5 0.010039 0.027831 -0.000109 0.000000 0.004374 0.000000
# 6 0.000000 0.000000 0.000000 0.027363 0.000000 0.331887
#
#
# Mechanical properties :
#
#
# Convention : Reuss Voigt Hill
#
# Bulk Modulus (GPa) = 60.75174 8.79105 34.77140
# Shear Modulus (GPa) = 11.36831 15.01260 13.19046
#
# Velocity S-wave (km/s) = 2.19240 2.51941 2.36157
# Velocity P-wave (km/s) = 5.66526 3.49001 4.70507
#
# Compressibility (1/GPa) = 0.01646043
#
# Stress axis : x y z
#
# Youngs Moduli (GPa) = 115.10783 652.15585 50.75922
#
# Poissons Ratio (x) = 6.11604 0.04810
# Poissons Ratio (y) = 1.07950 -0.18249
# Poissons Ratio (z) = 0.10909 -2.34465
#
# Static dielectric constant tensor:
#      x y z
#    x 1.990200 0.000000 -0.039650 
#    y 0.000000 1.950340 0.000000 
#    z -0.039650 0.000000 2.070200 
# 
# From -- ./inp_files/40065.got.cif
#   From: 2010.05.17/outbox.cif.g08.bks.cpg/sg14_21_cif.got.tgz:40065.got - 2010.06.03 17:49:19.
