data_PCOD9242061
_publ_section_title
;
Structure prediction by ZEFSAII (Michael W. Deem and Ramdas Pophale) SiO2 
 PCOD9242061
Probable space group: P 21/C
;
_chemical_formula_sum "Si O2"
_cell_formula_units_Z 32
_cell_length_a 12.717899
_cell_length_b 12.255202
_cell_length_c 13.617622
_cell_angle_alpha 90.000000
_cell_angle_beta 123.113897
_cell_angle_gamma 90.000000
_cell_volume 1777.733484
_symmetry_space_group_name_H-M "P 21/C"
_symmetry_group_IT_number 14
_symmetry_cell_setting 'monoclinic'
loop_
_space_group_symop_operation_xyz
x,y,z
-x,1/2+y,1/2-z
-x,-y,-z
x,1/2-y,1/2+z
loop_
_atom_site_type_symbol
_atom_site_label
_atom_site_fract_x
_atom_site_fract_y
_atom_site_fract_z
Si Si1 0.715010 0.545960 0.385558
Si Si2 0.572366 0.766830 0.344756
Si Si3 0.069789 0.378181 0.376174
Si Si4 0.404812 0.332281 0.356902
Si Si5 0.634480 0.248575 0.104578
Si Si6 0.788524 0.047553 0.717773
Si Si7 0.270758 0.526376 0.396162
Si Si8 0.774892 0.815360 0.616226
O O1 0.617453 0.645218 0.338552
O O2 0.851752 0.597911 0.483787
O O3 0.723727 0.485872 0.287490
O O4 0.688134 0.472016 0.467846
O O5 0.576263 0.838020 0.249070
O O6 0.439156 0.759192 0.330226
O O7 0.672693 0.809052 0.476350
O O8 0.137729 0.463690 0.335899
O O9 0.108156 0.258088 0.358943
O O10 0.924477 0.401761 0.309443
O O11 0.526772 0.282066 0.471463
O O12 0.365171 0.446055 0.386828
O O13 0.291785 0.249278 0.327930
O O14 0.704842 0.361346 0.121926
O O15 0.727248 0.145349 0.148505
O O16 0.802707 0.937436 0.662421
#
# Coordination Sequence:
#
# PCOD9242061 Si02
#       8
#     4   4   4   4   4   4   4   4
#     4   9  19  37  60  85 107 162 201 230 288 354
#     4  10  20  37  59  87 115 156 194 237 296 360
#     4   8  20  37  62  79 113 160 198 232 289 355
#     4  10  19  39  61  78 119 155 190 238 291 359
#     4  11  24  34  54  93 115 148 200 242 295 345
#     4  12  22  35  60  94 123 144 195 263 285 339
#     4   9  20  40  58  81 113 160 206 223 291 360
#     4   9  20  39  58  86 115 154 196 234 304 346
#
# _framework density 18.000449
#
# number of rings (size 3 to 8) (size 9 to 14) (size 15 to 20)
#    0.750    1.500    3.750    0.750    3.500    2.000 
#    2.250    0.000    0.000    3.000    0.000    0.000 
#    0.000    0.000    0.000    0.000    0.000    0.000 
#
# Total GULP energy -178297.989393 kJ/mol
# GULP energy per Si atom -5571.812169 kJ/mol
# Density = 1.795948 g / cm^3
# Si number density = 18.000449 Si / 1000 Ang^3
#
#
#
# Elastic Constant Matrix: (Units=GPa)
#
#
# Indices 1 2 3 4 5 6 
#
# 1 33.5252 21.6147 11.4787 0.0000 -8.4853 0.0000
# 2 21.6147 115.2667 14.0483 0.0000 -2.6429 0.0000
# 3 11.4787 14.0483 25.6601 0.0000 -20.0094 0.0000
# 4 0.0000 0.0000 0.0000 14.8375 0.0000 -1.3194
# 5 -8.4853 -2.6429 -20.0094 0.0000 28.9722 0.0000
# 6 0.0000 0.0000 0.0000 -1.3194 0.0000 17.9416
#
#
#
# Elastic Compliance Matrix: (Units=1/GPa)
#
#
# Indices 1 2 3 4 5 6 
#
# 1 0.038219 -0.005613 -0.012340 0.000000 0.002159 0.000000
# 2 -0.005613 0.010589 -0.008268 0.000000 -0.006388 0.000000
# 3 -0.012340 -0.008268 0.098843 0.000000 0.063897 0.000000
# 4 0.000000 0.000000 0.000000 0.067840 0.000000 0.004989
# 5 0.002159 -0.006388 0.063897 0.000000 0.078695 0.000000
# 6 0.000000 0.000000 0.000000 0.004989 0.000000 0.056103
#
#
# Mechanical properties :
#
#
# Convention : Reuss Voigt Hill
#
# Bulk Modulus (GPa) = 10.50316 29.85949 20.18132
# Shear Modulus (GPa) = 11.50830 20.83763 16.17297
#
# Velocity S-wave (km/s) = 2.53125 3.40607 3.00071
# Velocity P-wave (km/s) = 3.79349 5.66503 4.82095
#
# Compressibility (1/GPa) = 0.09520945
#
# Stress axis : x y z
#
# Youngs Moduli (GPa) = 26.16509 94.43516 10.11701
#
# Poissons Ratio (x) = 0.53009 0.12485
# Poissons Ratio (y) = 0.14687 0.08364
# Poissons Ratio (z) = 0.32288 0.78075
#
# Static dielectric constant tensor:
#      x y z
#    x 1.619720 0.000000 -0.003220 
#    y 0.000000 1.614280 0.000000 
#    z -0.003220 0.000000 1.616490 
# 
# From -- ./inp_files/44424.got.cif
#   From: 2010.05.17/outbox.cif.g08.bks.cpg/sg14_23_cif.got.tgz:44424.got - 2010.06.03 17:49:19.
