data_PCOD9242217
_publ_section_title
;
Structure prediction by ZEFSAII (Michael W. Deem and Ramdas Pophale) SiO2 
 PCOD9242217
Probable space group: P 21/C
;
_chemical_formula_sum "Si O2"
_cell_formula_units_Z 32
_cell_length_a 5.450763
_cell_length_b 13.592749
_cell_length_c 18.997062
_cell_angle_alpha 90.000000
_cell_angle_beta 105.502364
_cell_angle_gamma 90.000000
_cell_volume 1356.302566
_symmetry_space_group_name_H-M "P 21/C"
_symmetry_group_IT_number 14
_symmetry_cell_setting 'monoclinic'
loop_
_space_group_symop_operation_xyz
x,y,z
-x,1/2+y,1/2-z
-x,-y,-z
x,1/2-y,1/2+z
loop_
_atom_site_type_symbol
_atom_site_label
_atom_site_fract_x
_atom_site_fract_y
_atom_site_fract_z
Si Si1 0.216319 0.677336 0.441897
Si Si2 0.262057 0.034761 0.438757
Si Si3 0.790564 0.053582 0.933633
Si Si4 0.066613 0.129750 0.557013
Si Si5 0.624784 0.831276 0.679811
Si Si6 0.469434 0.802296 0.342516
Si Si7 0.754730 0.894230 0.829702
Si Si8 0.130376 0.793857 0.185119
O O1 0.343747 0.620632 0.516800
O O2 0.384973 0.744852 0.405928
O O3 0.014197 0.756666 0.456456
O O4 0.048917 0.610748 0.375739
O O5 0.075309 0.090479 0.478561
O O6 0.366454 0.109378 0.390962
O O7 0.500000 0.000000 0.500000
O O8 0.119126 0.934401 0.408437
O O9 0.891772 0.123936 0.878172
O O10 0.641031 0.968618 0.879134
O O11 0.000000 0.000000 0.000000
O O12 0.336655 0.116909 0.615846
O O13 0.702343 0.913411 0.744609
O O14 0.347853 0.782710 0.672936
O O15 0.860275 0.753833 0.686970
O O16 0.644056 0.716303 0.321315
O O17 0.260444 0.829280 0.268660
#
# Coordination Sequence:
#
# PCOD9242217 Si02
#       8
#     4   4   4   4   4   4   4   4
#     4  10  19  40  66  93 133 180 226 285 363 418
#     4  11  25  41  64 101 134 181 238 296 359 412
#     4  10  23  43  69 104 143 182 239 299 358 430
#     4  10  23  39  65  97 135 177 234 293 353 425
#     4  11  25  47  72  97 146 189 238 297 354 436
#     4  10  21  41  70  93 138 184 235 284 358 429
#     4   9  21  43  61  98 132 180 229 290 346 420
#     4  11  25  48  72 105 139 196 237 288 369 432
#
# _framework density 23.593557000000001
#
# number of rings (size 3 to 8) (size 9 to 14) (size 15 to 20)
#    0.000    1.750    1.250    1.500    7.000    2.500 
#    6.750    0.000    0.000    0.000    0.000    0.000 
#    0.000    0.000    0.000    0.000    0.000    0.000 
#
# Total GULP energy -178395.383930 kJ/mol
# GULP energy per Si atom -5574.855748 kJ/mol
# Density = 2.353986 g / cm^3
# Si number density = 23.593557 Si / 1000 Ang^3
#
#
#
# Elastic Constant Matrix: (Units=GPa)
#
#
# Indices 1 2 3 4 5 6 
#
# 1 72.8023 9.1312 14.1759 0.0000 -1.4006 0.0000
# 2 9.1312 58.0025 36.0113 0.0000 4.9262 0.0000
# 3 14.1759 36.0113 103.8266 0.0000 -4.0874 0.0000
# 4 0.0000 0.0000 0.0000 43.3181 0.0000 -2.7315
# 5 -1.4006 4.9262 -4.0874 0.0000 29.3923 0.0000
# 6 0.0000 0.0000 0.0000 -2.7315 0.0000 23.4568
#
#
#
# Elastic Compliance Matrix: (Units=1/GPa)
#
#
# Indices 1 2 3 4 5 6 
#
# 1 0.014204 -0.001415 -0.001420 0.000000 0.000717 0.000000
# 2 -0.001415 0.022798 -0.007911 0.000000 -0.004989 0.000000
# 3 -0.001420 -0.007911 0.012688 0.000000 0.003023 0.000000
# 4 0.000000 0.000000 0.000000 0.023256 0.000000 0.002708
# 5 0.000717 -0.004989 0.003023 0.000000 0.035313 0.000000
# 6 0.000000 0.000000 0.000000 0.002708 0.000000 0.042947
#
#
# Mechanical properties :
#
#
# Convention : Reuss Voigt Hill
#
# Bulk Modulus (GPa) = 35.46324 39.25202 37.35763
# Shear Modulus (GPa) = 27.45783 30.92096 29.18940
#
# Velocity S-wave (km/s) = 3.41513 3.62410 3.52117
# Velocity P-wave (km/s) = 5.53302 5.84680 5.69207
#
# Compressibility (1/GPa) = 0.02819821
#
# Stress axis : x y z
#
# Youngs Moduli (GPa) = 70.40440 43.86261 78.81420
#
# Poissons Ratio (x) = 0.06207 0.11194
# Poissons Ratio (y) = 0.09963 0.62347
# Poissons Ratio (z) = 0.09999 0.34698
#
# Static dielectric constant tensor:
#      x y z
#    x 1.988510 0.000000 -0.070100 
#    y 0.000000 2.019940 0.000000 
#    z -0.070100 0.000000 1.994880 
# 
# From -- ./inp_files/53508.got.cif
#   From: 2010.05.17/outbox.cif.g08.bks.cpg/sg14_27_cif.got.tgz:53508.got - 2010.06.03 17:49:19.
