data_PCOD9242513
_publ_section_title
;
Structure prediction by ZEFSAII (Michael W. Deem and Ramdas Pophale) SiO2 
 PCOD9242513
Probable space group: P 21/C
;
_chemical_formula_sum "Si O2"
_cell_formula_units_Z 32
_cell_length_a 15.822256
_cell_length_b 11.575923
_cell_length_c 12.588395
_cell_angle_alpha 90.000000
_cell_angle_beta 136.895697
_cell_angle_gamma 90.000000
_cell_volume 1575.520293
_symmetry_space_group_name_H-M "P 21/C"
_symmetry_group_IT_number 14
_symmetry_cell_setting 'monoclinic'
loop_
_space_group_symop_operation_xyz
x,y,z
-x,1/2+y,1/2-z
-x,-y,-z
x,1/2-y,1/2+z
loop_
_atom_site_type_symbol
_atom_site_label
_atom_site_fract_x
_atom_site_fract_y
_atom_site_fract_z
Si Si1 0.230874 0.540509 0.424148
Si Si2 0.369862 0.464377 0.241120
Si Si3 0.886820 0.241199 0.078981
Si Si4 0.440951 0.371134 0.525502
Si Si5 0.866571 0.054453 0.394287
Si Si6 0.915164 0.897823 0.876240
Si Si7 0.295306 0.152586 0.468075
Si Si8 0.102777 0.178958 0.909844
O O1 0.223684 0.653789 0.491788
O O2 0.352249 0.466017 0.504383
O O3 0.180409 0.585383 0.265461
O O4 0.139672 0.444974 0.392527
O O5 0.438535 0.391947 0.396348
O O6 0.425290 0.592899 0.307668
O O7 0.228161 0.460394 0.147922
O O8 0.371627 0.422317 0.122680
O O9 0.992627 0.168847 0.116271
O O10 0.961645 0.292651 0.248484
O O11 0.859950 0.343756 0.973131
O O12 0.386408 0.245745 0.498285
O O13 0.000000 0.000000 0.500000
O O14 0.789133 0.917999 0.693643
O O15 0.880770 0.824830 0.949062
O O16 0.000000 0.000000 0.000000
O O17 0.197158 0.230345 0.444271
#
# Coordination Sequence:
#
# PCOD9242513 Si02
#       8
#     4   4   4   4   4   4   4   4
#     4  10  20  38  55  81 116 157 198 251 303 365
#     4  10  22  40  66  86 120 163 210 262 301 372
#     4  11  22  33  57  83 121 165 185 253 312 362
#     4   9  21  43  64  89 117 162 220 256 299 376
#     4  11  23  36  57  89 121 153 205 248 311 386
#     4  11  22  34  55  90 130 159 201 249 310 385
#     4  10  22  36  65  89 118 169 204 255 317 366
#     4  10  20  34  53  81 124 158 198 240 301 379
#
# _framework density 20.310751
#
# number of rings (size 3 to 8) (size 9 to 14) (size 15 to 20)
#    0.000    1.750    2.500    1.500    8.750    1.000 
#    0.000    0.000    0.000    3.750    0.000    0.000 
#    0.000    0.000    0.000    0.000    0.000    0.000 
#
# Total GULP energy -178389.766632 kJ/mol
# GULP energy per Si atom -5574.680207 kJ/mol
# Density = 2.026452 g / cm^3
# Si number density = 20.310751 Si / 1000 Ang^3
#
#
#
# Elastic Constant Matrix: (Units=GPa)
#
#
# Indices 1 2 3 4 5 6 
#
# 1 49.5639 4.2119 20.4810 0.0000 -6.6136 0.0000
# 2 4.2119 60.9756 44.5147 0.0000 -4.5041 0.0000
# 3 20.4810 44.5147 112.7401 0.0000 -12.0258 0.0000
# 4 0.0000 0.0000 0.0000 18.5867 0.0000 -14.3995
# 5 -6.6136 -4.5041 -12.0258 0.0000 31.2759 0.0000
# 6 0.0000 0.0000 0.0000 -14.3995 0.0000 27.9255
#
#
#
# Elastic Compliance Matrix: (Units=1/GPa)
#
#
# Indices 1 2 3 4 5 6 
#
# 1 0.022297 0.001972 -0.004480 0.000000 0.003276 0.000000
# 2 0.001972 0.023217 -0.009515 0.000000 0.000102 0.000000
# 3 -0.004480 -0.009515 0.013758 0.000000 0.002972 0.000000
# 4 0.000000 0.000000 0.000000 0.089591 0.000000 0.046196
# 5 0.003276 0.000102 0.002972 0.000000 0.033824 0.000000
# 6 0.000000 0.000000 0.000000 0.046196 0.000000 0.059630
#
#
# Mechanical properties :
#
#
# Convention : Reuss Voigt Hill
#
# Bulk Modulus (GPa) = 28.38693 40.18830 34.28762
# Shear Modulus (GPa) = 17.97891 25.82910 21.90400
#
# Velocity S-wave (km/s) = 2.97844 3.56995 3.28753
# Velocity P-wave (km/s) = 5.08280 6.06815 5.59720
#
# Compressibility (1/GPa) = 0.03522748
#
# Stress axis : x y z
#
# Youngs Moduli (GPa) = 44.84963 43.07116 72.68693
#
# Poissons Ratio (x) = -0.08495 0.32562
# Poissons Ratio (y) = -0.08846 0.69159
# Poissons Ratio (z) = 0.20092 0.40981
#
# Static dielectric constant tensor:
#      x y z
#    x 1.766830 0.000000 0.020470 
#    y 0.000000 1.768510 0.000000 
#    z 0.020470 0.000000 1.770220 
# 
# From -- ./inp_files/33960.got.cif
#   From: 2010.05.17/outbox.cif.g08.bks.cpg/sg14_17_cif.got.tgz:33960.got - 2010.06.03 17:49:19.
