data_PCOD9242062
_publ_section_title
;
Structure prediction by ZEFSAII (Michael W. Deem and Ramdas Pophale) SiO2 
 PCOD9242062
Probable space group: P 21/C
;
_chemical_formula_sum "Si O2"
_cell_formula_units_Z 24
_cell_length_a 14.734612
_cell_length_b 9.869608
_cell_length_c 18.844177
_cell_angle_alpha 90.000000
_cell_angle_beta 157.757254
_cell_angle_gamma 90.000000
_cell_volume 1037.331902
_symmetry_space_group_name_H-M "P 21/C"
_symmetry_group_IT_number 14
_symmetry_cell_setting 'monoclinic'
loop_
_space_group_symop_operation_xyz
x,y,z
-x,1/2+y,1/2-z
-x,-y,-z
x,1/2-y,1/2+z
loop_
_atom_site_type_symbol
_atom_site_label
_atom_site_fract_x
_atom_site_fract_y
_atom_site_fract_z
Si Si1 0.384234 0.745473 0.124714
Si Si2 0.359175 0.518092 0.707639
Si Si3 0.146859 0.217656 0.277617
Si Si4 0.325057 0.113822 0.782804
Si Si5 0.626328 0.158827 0.132002
Si Si6 0.835205 0.449478 0.278533
O O1 0.435529 0.586470 0.165888
O O2 0.591977 0.817171 0.228650
O O3 0.388012 0.829187 0.200630
O O4 0.127817 0.767580 0.900310
O O5 0.305009 0.509312 0.751484
O O6 0.116614 0.466579 0.494925
O O7 0.153626 0.287156 0.203535
O O8 0.364095 0.295797 0.472922
O O9 0.221380 0.061063 0.322199
O O10 0.249710 0.956774 0.731297
O O11 0.560052 0.107843 0.004703
O O12 0.774279 0.293792 0.225117
#
# Coordination Sequence:
#
# PCOD9242062 Si02
#       6
#     4   4   4   4   4   4
#     4  11  22  40  55  86 116 148 195 235 283 339
#     4  10  23  37  57  85 115 153 193 231 276 345
#     4   9  19  38  59  82 113 146 187 237 287 331
#     4   9  20  39  56  83 120 140 186 241 282 335
#     4   9  19  38  60  84 109 151 187 233 295 331
#     4  10  19  39  61  80 113 154 196 227 277 344
#
# _framework density 23.136278000000001
#
# number of rings (size 3 to 8) (size 9 to 14) (size 15 to 20)
#    1.000    1.333    1.667    0.500    2.333    1.333 
#    9.000    1.667    0.000    0.000    0.000    0.000 
#    0.000    0.000    0.000    0.000    0.000    0.000 
#
# Total GULP energy -133821.215135 kJ/mol
# GULP energy per Si atom -5575.883964 kJ/mol
# Density = 2.308362 g / cm^3
# Si number density = 23.136278 Si / 1000 Ang^3
#
#
#
# Elastic Constant Matrix: (Units=GPa)
#
#
# Indices 1 2 3 4 5 6 
#
# 1 11.3253 -9.3817 5.6013 0.0000 8.8265 0.0000
# 2 -9.3817 81.7423 6.7794 0.0000 -0.7775 0.0000
# 3 5.6013 6.7794 37.4163 0.0000 5.4346 0.0000
# 4 0.0000 0.0000 0.0000 25.0994 0.0000 4.6283
# 5 8.8265 -0.7775 5.4346 0.0000 21.8663 0.0000
# 6 0.0000 0.0000 0.0000 4.6283 0.0000 22.1942
#
#
#
# Elastic Compliance Matrix: (Units=1/GPa)
#
#
# Indices 1 2 3 4 5 6 
#
# 1 0.159662 0.019324 -0.018821 0.000000 -0.059084 0.000000
# 2 0.019324 0.014782 -0.004683 0.000000 -0.006111 0.000000
# 3 -0.018821 -0.004683 0.030411 0.000000 -0.000128 0.000000
# 4 0.000000 0.000000 0.000000 0.041435 0.000000 -0.008641
# 5 -0.059084 -0.006111 -0.000128 0.000000 0.069397 0.000000
# 6 0.000000 0.000000 0.000000 -0.008641 0.000000 0.046859
#
#
# Mechanical properties :
#
#
# Convention : Reuss Voigt Hill
#
# Bulk Modulus (GPa) = 5.08922 15.16462 10.12692
# Shear Modulus (GPa) = 11.45724 22.33097 16.89411
#
# Velocity S-wave (km/s) = 2.22774 3.11013 2.70515
# Velocity P-wave (km/s) = 2.97011 4.41202 3.76081
#
# Compressibility (1/GPa) = 0.19649362
#
# Stress axis : x y z
#
# Youngs Moduli (GPa) = 6.26321 67.65124 32.88285
#
# Poissons Ratio (x) = -1.30727 0.61889
# Poissons Ratio (y) = -0.12103 0.15401
# Poissons Ratio (z) = 0.11788 0.31684
#
# Static dielectric constant tensor:
#      x y z
#    x 1.870780 0.000000 -0.025130 
#    y 0.000000 1.965200 0.000000 
#    z -0.025130 0.000000 1.875310 
# 
# From -- ./inp_files/77777.got.cif
#   From: 2010.05.17/outbox.cif.g08.bks.cpg/sg14_39_cif.got.tgz:77777.got - 2010.06.03 17:49:19.
