data_PCOD9242357
_publ_section_title
;
Structure prediction by ZEFSAII (Michael W. Deem and Ramdas Pophale) SiO2 
 PCOD9242357
Probable space group: P 21/C
;
_chemical_formula_sum "Si O2"
_cell_formula_units_Z 32
_cell_length_a 16.402074
_cell_length_b 25.419700
_cell_length_c 5.538891
_cell_angle_alpha 90.000000
_cell_angle_beta 55.944912
_cell_angle_gamma 90.000000
_cell_volume 1913.305325
_symmetry_space_group_name_H-M "P 21/C"
_symmetry_group_IT_number 14
_symmetry_cell_setting 'monoclinic'
loop_
_space_group_symop_operation_xyz
x,y,z
-x,1/2+y,1/2-z
-x,-y,-z
x,1/2-y,1/2+z
loop_
_atom_site_type_symbol
_atom_site_label
_atom_site_fract_x
_atom_site_fract_y
_atom_site_fract_z
Si Si1 0.986602 0.723139 0.219212
Si Si2 0.948476 0.886676 0.585840
Si Si3 0.385684 0.512504 0.669906
Si Si4 0.208576 0.763951 0.813667
Si Si5 0.704769 0.039088 0.174538
Si Si6 0.133813 0.618261 0.446045
Si Si7 0.062308 0.966146 0.706981
Si Si8 0.778427 0.953322 0.763009
O O1 0.952601 0.748838 0.526845
O O2 0.956251 0.662489 0.251904
O O3 0.105708 0.730800 0.008597
O O4 0.838513 0.899746 0.682582
O O5 0.988801 0.940540 0.636951
O O6 0.027690 0.874569 0.246622
O O7 0.500000 0.500000 0.500000
O O8 0.360706 0.543746 0.461107
O O9 0.319973 0.459699 0.732311
O O10 0.349250 0.540003 0.977705
O O11 0.260123 0.745057 0.484507
O O12 0.179836 0.824802 0.836040
O O13 0.791512 0.081946 0.025379
O O14 0.750292 0.980263 0.065611
O O15 0.114576 0.583948 0.241583
O O16 0.146284 0.004278 0.473567
O O17 0.000000 0.000000 0.000000
#
# Coordination Sequence:
#
# PCOD9242357 Si02
#       8
#     4   4   4   4   4   4   4   4
#     4  10  20  35  46  67  95 141 189 209 244 288
#     4  12  21  30  49  72 106 154 170 217 247 296
#     4  10  21  39  56  70 103 136 165 221 268 307
#     4  10  20  32  46  67  95 141 182 210 244 288
#     4  10  21  35  52  81 100 132 179 205 255 325
#     4  12  20  31  50  69 109 147 173 214 246 300
#     4  12  21  30  46  72 114 148 178 200 250 302
#     4  10  22  31  48  79 104 133 182 205 252 314
#
# _framework density 16.724983999999999
#
# number of rings (size 3 to 8) (size 9 to 14) (size 15 to 20)
#    0.750    0.500    6.250    3.000    0.000    0.000 
#    0.000    0.000    0.000    0.000    0.000    0.000 
#    0.000    6.000    0.000    0.000    0.000    0.000 
#
# Total GULP energy -178237.621809 kJ/mol
# GULP energy per Si atom -5569.925682 kJ/mol
# Density = 1.668692 g / cm^3
# Si number density = 16.724984 Si / 1000 Ang^3
#
#
#
# Elastic Constant Matrix: (Units=GPa)
#
#
# Indices 1 2 3 4 5 6 
#
# 1 92.5406 15.8140 31.9103 0.0000 0.4690 0.0000
# 2 15.8140 45.8148 9.5471 0.0000 -0.8940 0.0000
# 3 31.9103 9.5471 68.3729 0.0000 16.6842 0.0000
# 4 0.0000 0.0000 0.0000 14.7725 0.0000 9.2098
# 5 0.4690 -0.8940 16.6842 0.0000 30.1294 0.0000
# 6 0.0000 0.0000 0.0000 9.2098 0.0000 16.7646
#
#
#
# Elastic Compliance Matrix: (Units=1/GPa)
#
#
# Indices 1 2 3 4 5 6 
#
# 1 0.013677 -0.003243 -0.006770 0.000000 0.003440 0.000000
# 2 -0.003243 0.023454 -0.002247 0.000000 0.001991 0.000000
# 3 -0.006770 -0.002247 0.020916 0.000000 -0.011543 0.000000
# 4 0.000000 0.000000 0.000000 0.102956 0.000000 -0.056560
# 5 0.003440 0.001991 -0.011543 0.000000 0.039588 0.000000
# 6 0.000000 0.000000 0.000000 -0.056560 0.000000 0.090722
#
#
# Mechanical properties :
#
#
# Convention : Reuss Voigt Hill
#
# Bulk Modulus (GPa) = 29.82707 35.69679 32.76193
# Shear Modulus (GPa) = 15.29017 22.29707 18.79362
#
# Velocity S-wave (km/s) = 3.02687 3.65521 3.35578
# Velocity P-wave (km/s) = 5.48530 6.26129 5.88610
#
# Compressibility (1/GPa) = 0.03352659
#
# Stress axis : x y z
#
# Youngs Moduli (GPa) = 73.11411 42.63741 47.81076
#
# Poissons Ratio (x) = 0.13828 0.32367
# Poissons Ratio (y) = 0.23712 0.10743
# Poissons Ratio (z) = 0.49497 0.09581
#
# Static dielectric constant tensor:
#      x y z
#    x 1.611390 0.000000 0.052240 
#    y 0.000000 1.577910 0.000000 
#    z 0.052240 0.000000 1.618360 
# 
# From -- ./inp_files/4291.got.cif
#   From: 2010.05.17/outbox.cif.g08.bks.cpg/sg14_3_cif.got.tgz:4291.got - 2010.06.03 17:49:19.
