data_PCOD9242225
_publ_section_title
;
Structure prediction by ZEFSAII (Michael W. Deem and Ramdas Pophale) SiO2 
 PCOD9242225
Probable space group: P 21/C
;
_chemical_formula_sum "Si O2"
_cell_formula_units_Z 28
_cell_length_a 8.942889
_cell_length_b 13.901971
_cell_length_c 11.906758
_cell_angle_alpha 90.000000
_cell_angle_beta 78.554197
_cell_angle_gamma 90.000000
_cell_volume 1450.854393
_symmetry_space_group_name_H-M "P 21/C"
_symmetry_group_IT_number 14
_symmetry_cell_setting 'monoclinic'
loop_
_space_group_symop_operation_xyz
x,y,z
-x,1/2+y,1/2-z
-x,-y,-z
x,1/2-y,1/2+z
loop_
_atom_site_type_symbol
_atom_site_label
_atom_site_fract_x
_atom_site_fract_y
_atom_site_fract_z
Si Si1 0.019451 0.246904 0.956687
Si Si2 0.335451 0.421578 0.315456
Si Si3 0.688431 0.698888 0.212723
Si Si4 0.022794 0.562435 0.670089
Si Si5 0.439067 0.024594 0.385361
Si Si6 0.762502 0.887597 0.933914
Si Si7 0.889890 0.428307 0.084549
O O1 0.133852 0.298933 0.852019
O O2 0.939755 0.158505 0.905770
O O3 0.134631 0.199442 0.030729
O O4 0.908209 0.323712 0.027023
O O5 0.357502 0.310345 0.275118
O O6 0.158959 0.450159 0.319221
O O7 0.445123 0.487194 0.226587
O O8 0.348000 0.420535 0.448634
O O9 0.596813 0.636412 0.135087
O O10 0.680170 0.647525 0.334041
O O11 0.121155 0.473408 0.611923
O O12 0.056067 0.576627 0.795519
O O13 0.500000 0.000000 0.500000
O O14 0.279366 0.969550 0.394792
O O15 0.000000 0.500000 0.000000
#
# Coordination Sequence:
#
# PCOD9242225 Si02
#       7
#     4   4   4   4   4   4   4
#     4  10  20  36  66  93 122 159 204 259 305 368
#     4  10  24  39  64  95 124 168 200 257 314 372
#     4  10  21  41  64  87 124 174 200 250 315 373
#     4  10  20  40  66  93 122 157 214 251 309 368
#     4  12  26  43  60  92 128 165 213 253 311 371
#     4  10  19  40  68  91 123 161 211 248 314 372
#     4  12  22  40  65  90 121 164 211 256 306 365
#
# _framework density 19.298974999999999
#
# number of rings (size 3 to 8) (size 9 to 14) (size 15 to 20)
#    0.000    1.714    2.857    4.286    4.000    0.571 
#    7.714    0.000    0.000    0.000    0.000    0.000 
#    0.000    0.000    0.000    0.000    0.000    0.000 
#
# Total GULP energy -156403.327731 kJ/mol
# GULP energy per Si atom -5585.833133 kJ/mol
# Density = 1.925505 g / cm^3
# Si number density = 19.298975 Si / 1000 Ang^3
#
#
#
# Elastic Constant Matrix: (Units=GPa)
#
#
# Indices 1 2 3 4 5 6 
#
# 1 28.3993 13.8485 22.7717 0.0000 -2.8032 0.0000
# 2 13.8485 72.6224 26.3663 0.0000 -15.3583 0.0000
# 3 22.7717 26.3663 108.3664 0.0000 7.5305 0.0000
# 4 0.0000 0.0000 0.0000 32.4204 0.0000 -1.9740
# 5 -2.8032 -15.3583 7.5305 0.0000 38.6050 0.0000
# 6 0.0000 0.0000 0.0000 -1.9740 0.0000 15.3407
#
#
#
# Elastic Compliance Matrix: (Units=1/GPa)
#
#
# Indices 1 2 3 4 5 6 
#
# 1 0.044595 -0.004828 -0.008402 0.000000 0.002956 0.000000
# 2 -0.004828 0.017632 -0.003790 0.000000 0.007403 0.000000
# 3 -0.008402 -0.003790 0.012228 0.000000 -0.004503 0.000000
# 4 0.000000 0.000000 0.000000 0.031088 0.000000 0.004000
# 5 0.002956 0.007403 -0.004503 0.000000 0.029942 0.000000
# 6 0.000000 0.000000 0.000000 0.004000 0.000000 0.065701
#
#
# Mechanical properties :
#
#
# Convention : Reuss Voigt Hill
#
# Bulk Modulus (GPa) = 24.74270 37.26234 31.00252
# Shear Modulus (GPa) = 20.10462 27.03332 23.56897
#
# Velocity S-wave (km/s) = 3.23111 3.74674 3.49844
# Velocity P-wave (km/s) = 5.17384 6.16987 5.69368
#
# Compressibility (1/GPa) = 0.04041596
#
# Stress axis : x y z
#
# Youngs Moduli (GPa) = 22.42388 56.71437 81.77628
#
# Poissons Ratio (x) = 0.27384 0.68706
# Poissons Ratio (y) = 0.10827 0.30992
# Poissons Ratio (z) = 0.18840 0.21494
#
# Static dielectric constant tensor:
#      x y z
#    x 1.645380 0.000000 0.011740 
#    y 0.000000 1.692910 0.000000 
#    z 0.011740 0.000000 1.687310 
# 
# From -- ./inp_files/24884.got.cif
#   From: 2010.05.17/outbox.cif.g08.bks.cpg/sg14_13_cif.got.tgz:24884.got - 2010.06.03 17:49:19.
