data_PCOD9242761
_publ_section_title
;
Structure prediction by ZEFSAII (Michael W. Deem and Ramdas Pophale) SiO2 
 PCOD9242761
Probable space group: P 21/C
;
_chemical_formula_sum "Si O2"
_cell_formula_units_Z 20
_cell_length_a 10.130020
_cell_length_b 15.775887
_cell_length_c 7.324120
_cell_angle_alpha 90.000000
_cell_angle_beta 67.922199
_cell_angle_gamma 90.000000
_cell_volume 1084.642637
_symmetry_space_group_name_H-M "P 21/C"
_symmetry_group_IT_number 14
_symmetry_cell_setting 'monoclinic'
loop_
_space_group_symop_operation_xyz
x,y,z
-x,1/2+y,1/2-z
-x,-y,-z
x,1/2-y,1/2+z
loop_
_atom_site_type_symbol
_atom_site_label
_atom_site_fract_x
_atom_site_fract_y
_atom_site_fract_z
Si Si1 0.793267 0.835184 0.970949
Si Si2 0.984637 0.404791 0.933321
Si Si3 0.448799 0.467497 0.330424
Si Si4 0.147279 0.348176 0.158592
Si Si5 0.292584 0.531980 0.081026
O O1 0.648488 0.885674 0.081630
O O2 0.882167 0.843179 0.111963
O O3 0.769376 0.737009 0.937275
O O4 0.885041 0.878228 0.763876
O O5 0.838438 0.406295 0.897154
O O6 0.007350 0.350110 0.104452
O O7 0.236968 0.434502 0.081224
O O8 0.000000 0.500000 0.000000
O O9 0.500000 0.500000 0.500000
O O10 0.582082 0.450635 0.128026
O O11 0.351849 0.531406 0.257364
#
# Coordination Sequence:
#
# PCOD9242761 Si02
#       5
#     4   4   4   4   4
#     4  11  21  35  62  87 113 155 198 242 294 349
#     4  10  20  36  60  87 116 147 192 249 287 346
#     4  10  20  35  59  86 113 155 193 232 288 347
#     4  10  20  35  60  88 114 148 199 242 296 345
#     4   9  21  37  57  84 119 147 195 238 283 349
#
# _framework density 18.439253999999998
#
# number of rings (size 3 to 8) (size 9 to 14) (size 15 to 20)
#    0.000    2.000    2.000    2.400    0.000    8.800 
#    0.000    0.000   13.200    0.000    0.000    0.000 
#    0.000    0.000    0.000    0.000    0.000    0.000 
#
# Total GULP energy -111385.349252 kJ/mol
# GULP energy per Si atom -5569.267463 kJ/mol
# Density = 1.839729 g / cm^3
# Si number density = 18.439254 Si / 1000 Ang^3
#
#
#
# Elastic Constant Matrix: (Units=GPa)
#
#
# Indices 1 2 3 4 5 6 
#
# 1 87.9070 21.9217 36.0866 0.0000 24.9119 0.0000
# 2 21.9217 59.1053 28.6889 0.0000 4.6770 0.0000
# 3 36.0866 28.6889 95.8673 0.0000 31.8946 0.0000
# 4 0.0000 0.0000 0.0000 24.6065 0.0000 1.1812
# 5 24.9119 4.6770 31.8946 0.0000 37.8121 0.0000
# 6 0.0000 0.0000 0.0000 1.1812 0.0000 16.1571
#
#
#
# Elastic Compliance Matrix: (Units=1/GPa)
#
#
# Indices 1 2 3 4 5 6 
#
# 1 0.015488 -0.004190 -0.001882 0.000000 -0.008099 0.000000
# 2 -0.004190 0.021275 -0.006718 0.000000 0.005795 0.000000
# 3 -0.001882 -0.006718 0.017322 0.000000 -0.012540 0.000000
# 4 0.000000 0.000000 0.000000 0.040783 0.000000 -0.002982
# 5 -0.008099 0.005795 -0.012540 0.000000 0.041643 0.000000
# 6 0.000000 0.000000 0.000000 -0.002982 0.000000 0.062110
#
#
# Mechanical properties :
#
#
# Convention : Reuss Voigt Hill
#
# Bulk Modulus (GPa) = 35.08037 46.25269 40.66653
# Shear Modulus (GPa) = 21.39476 26.12731 23.76104
#
# Velocity S-wave (km/s) = 3.40999 3.76831 3.59362
# Velocity P-wave (km/s) = 5.87964 6.63866 6.27065
#
# Compressibility (1/GPa) = 0.02850597
#
# Stress axis : x y z
#
# Youngs Moduli (GPa) = 64.56570 47.00334 57.73072
#
# Poissons Ratio (x) = 0.19695 0.10864
# Poissons Ratio (y) = 0.27054 0.38781
# Poissons Ratio (z) = 0.12150 0.31575
#
# Static dielectric constant tensor:
#      x y z
#    x 1.709540 0.000000 0.050440 
#    y 0.000000 1.649920 0.000000 
#    z 0.050440 0.000000 1.631670 
# 
# From -- ./inp_files/1502.got.cif
#   From: 2010.05.17/outbox.cif.g08.bks.cpg/sg14_1_cif.got.tgz:1502.got - 2010.06.03 17:49:19.
