data_PCOD9242483
_publ_section_title
;
Structure prediction by ZEFSAII (Michael W. Deem and Ramdas Pophale) SiO2 
 PCOD9242483
Probable space group: P 21/C
;
_chemical_formula_sum "Si O2"
_cell_formula_units_Z 32
_cell_length_a 26.569332
_cell_length_b 8.950294
_cell_length_c 11.729080
_cell_angle_alpha 90.000000
_cell_angle_beta 147.338214
_cell_angle_gamma 90.000000
_cell_volume 1505.280242
_symmetry_space_group_name_H-M "P 21/C"
_symmetry_group_IT_number 14
_symmetry_cell_setting 'monoclinic'
loop_
_space_group_symop_operation_xyz
x,y,z
-x,1/2+y,1/2-z
-x,-y,-z
x,1/2-y,1/2+z
loop_
_atom_site_type_symbol
_atom_site_label
_atom_site_fract_x
_atom_site_fract_y
_atom_site_fract_z
Si Si1 0.426182 0.526368 0.006152
Si Si2 0.224339 0.959889 0.053116
Si Si3 0.468762 0.250224 0.936702
Si Si4 0.822806 0.014645 0.770963
Si Si5 0.961077 0.185544 0.323379
Si Si6 0.976792 0.528608 0.285458
Si Si7 0.373397 0.964599 0.672031
Si Si8 0.863079 0.751421 0.206397
O O1 0.333070 0.576733 0.759473
O O2 0.507621 0.638531 0.122728
O O3 0.447689 0.359999 0.001926
O O4 0.406124 0.529048 0.102096
O O5 0.199757 0.962617 0.140301
O O6 0.206281 0.124547 0.969860
O O7 0.144325 0.857615 0.845070
O O8 0.559659 0.150649 0.137019
O O9 0.390135 0.128640 0.757442
O O10 0.735621 0.078103 0.535104
O O11 0.826172 0.839796 0.744656
O O12 0.929749 0.066317 0.961226
O O13 0.997305 0.075515 0.292592
O O14 0.961307 0.352435 0.270169
O O15 0.038407 0.176773 0.568932
O O16 0.890890 0.625950 0.166865
#
# Coordination Sequence:
#
# PCOD9242483 Si02
#       8
#     4   4   4   4   4   4   4   4
#     4  10  21  38  56  80 112 138 172 225 270 314
#     4  10  21  35  53  76 106 138 172 215 259 304
#     4  10  21  36  59  83 103 139 180 213 271 333
#     4   9  19  33  51  76 104 134 169 212 259 302
#     4  10  20  34  50  74 103 138 177 211 253 302
#     4  10  20  34  52  74 105 140 174 212 255 302
#     4  10  20  37  58  80 108 139 175 221 267 320
#     4  11  19  33  54  75 103 139 176 212 253 302
#
# _framework density 21.258500000000002
#
# number of rings (size 3 to 8) (size 9 to 14) (size 15 to 20)
#    0.000    2.000    0.000    5.625    0.000    2.000 
#    0.000    2.500    0.000   13.500    0.000    0.000 
#    0.000    0.000    0.000    0.000    0.000    0.000 
#
# Total GULP energy -178637.726167 kJ/mol
# GULP energy per Si atom -5582.428943 kJ/mol
# Density = 2.121011 g / cm^3
# Si number density = 21.258500 Si / 1000 Ang^3
#
#
#
# Elastic Constant Matrix: (Units=GPa)
#
#
# Indices 1 2 3 4 5 6 
#
# 1 25.1700 17.2755 -18.1919 0.0000 6.5435 0.0000
# 2 17.2755 67.3758 2.4845 0.0000 -0.8666 0.0000
# 3 -18.1919 2.4845 51.7911 0.0000 5.4382 0.0000
# 4 0.0000 0.0000 0.0000 21.3750 0.0000 2.8231
# 5 6.5435 -0.8666 5.4382 0.0000 20.0081 0.0000
# 6 0.0000 0.0000 0.0000 2.8231 0.0000 32.4309
#
#
#
# Elastic Compliance Matrix: (Units=1/GPa)
#
#
# Indices 1 2 3 4 5 6 
#
# 1 0.100674 -0.027927 0.041470 0.000000 -0.045406 0.000000
# 2 -0.027927 0.022630 -0.012308 0.000000 0.013459 0.000000
# 3 0.041470 -0.012308 0.037001 0.000000 -0.024152 0.000000
# 4 0.000000 0.000000 0.000000 0.047328 0.000000 -0.004120
# 5 -0.045406 0.013459 -0.024152 0.000000 0.071977 0.000000
# 6 0.000000 0.000000 0.000000 -0.004120 0.000000 0.031193
#
#
# Mechanical properties :
#
#
# Convention : Reuss Voigt Hill
#
# Bulk Modulus (GPa) = 6.14347 16.38590 11.26468
# Shear Modulus (GPa) = 13.78964 24.28071 19.03518
#
# Velocity S-wave (km/s) = 2.54965 3.38326 2.99559
# Velocity P-wave (km/s) = 3.40056 4.79443 4.15634
#
# Compressibility (1/GPa) = 0.16277450
#
# Stress axis : x y z
#
# Youngs Moduli (GPa) = 9.93307 44.18989 27.02615
#
# Poissons Ratio (x) = 1.23407 -1.12076
# Poissons Ratio (y) = 0.27740 0.33264
# Poissons Ratio (z) = -0.41192 0.54389
#
# Static dielectric constant tensor:
#      x y z
#    x 1.754450 0.000000 0.021830 
#    y 0.000000 1.764880 0.000000 
#    z 0.021830 0.000000 1.787610 
# 
# From -- ./inp_files/36493.got.cif
#   From: 2010.05.17/outbox.cif.g08.bks.cpg/sg14_19_cif.got.tgz:36493.got - 2010.06.03 17:49:19.
