data_PCOD9242256
_publ_section_title
;
Structure prediction by ZEFSAII (Michael W. Deem and Ramdas Pophale) SiO2 
 PCOD9242256
Probable space group: P 21/C
;
_chemical_formula_sum "Si O2"
_cell_formula_units_Z 32
_cell_length_a 12.439318
_cell_length_b 9.379791
_cell_length_c 14.303912
_cell_angle_alpha 90.000000
_cell_angle_beta 72.850790
_cell_angle_gamma 90.000000
_cell_volume 1594.753217
_symmetry_space_group_name_H-M "P 21/C"
_symmetry_group_IT_number 14
_symmetry_cell_setting 'monoclinic'
loop_
_space_group_symop_operation_xyz
x,y,z
-x,1/2+y,1/2-z
-x,-y,-z
x,1/2-y,1/2+z
loop_
_atom_site_type_symbol
_atom_site_label
_atom_site_fract_x
_atom_site_fract_y
_atom_site_fract_z
Si Si1 0.776611 0.166376 0.676909
Si Si2 0.258360 0.075284 0.736778
Si Si3 0.973665 0.160719 0.483248
Si Si4 0.882804 0.580861 0.538546
Si Si5 0.690456 0.062118 0.969728
Si Si6 0.420311 0.888424 0.807381
Si Si7 0.672673 0.894369 0.784219
Si Si8 0.177653 0.815579 0.646199
O O1 0.862281 0.197440 0.571741
O O2 0.659521 0.252028 0.693140
O O3 0.835476 0.230658 0.753780
O O4 0.748172 0.001216 0.702407
O O5 0.173101 0.057829 0.845980
O O6 0.271797 0.241250 0.711674
O O7 0.373967 0.008675 0.748519
O O8 0.217939 0.973922 0.663122
O O9 0.934241 0.181831 0.386843
O O10 0.080638 0.255969 0.480620
O O11 0.000000 0.000000 0.500000
O O12 0.798983 0.520728 0.482541
O O13 0.000000 0.500000 0.500000
O O14 0.727745 0.221648 0.931031
O O15 0.653507 0.979430 0.886227
O O16 0.606576 0.067730 0.078649
O O17 0.552783 0.867328 0.765732
#
# Coordination Sequence:
#
# PCOD9242256 Si02
#       8
#     4   4   4   4   4   4   4   4
#     4  10  22  42  63  87 126 160 202 251 301 372
#     4  10  23  39  60  94 124 151 203 258 295 365
#     4  12  24  39  62  91 124 163 202 251 307 362
#     4  11  21  42  63  83 121 167 199 241 309 361
#     4  10  21  39  62  89 121 158 207 248 293 375
#     4  10  19  41  66  83 122 166 198 246 313 356
#     4  11  22  38  62  95 118 157 206 254 302 359
#     4  10  21  41  60  85 126 159 198 250 307 351
#
# _framework density 20.065801
#
# number of rings (size 3 to 8) (size 9 to 14) (size 15 to 20)
#    0.000    1.500    2.500    3.375    1.750    1.000 
#    6.750    0.625    0.000    0.000    0.000    0.000 
#    0.000    0.000    0.000    0.000    0.000    0.000 
#
# Total GULP energy -178724.238706 kJ/mol
# GULP energy per Si atom -5585.132460 kJ/mol
# Density = 2.002013 g / cm^3
# Si number density = 20.065801 Si / 1000 Ang^3
#
#
#
# Elastic Constant Matrix: (Units=GPa)
#
#
# Indices 1 2 3 4 5 6 
#
# 1 77.6459 26.8243 18.3488 0.0000 -0.2900 0.0000
# 2 26.8243 131.3558 9.5405 0.0000 0.3544 0.0000
# 3 18.3488 9.5405 48.3079 0.0000 14.2541 0.0000
# 4 0.0000 0.0000 0.0000 20.1077 0.0000 3.4029
# 5 -0.2900 0.3544 14.2541 0.0000 15.1850 0.0000
# 6 0.0000 0.0000 0.0000 3.4029 0.0000 25.1207
#
#
#
# Elastic Compliance Matrix: (Units=1/GPa)
#
#
# Indices 1 2 3 4 5 6 
#
# 1 0.015629 -0.002658 -0.007632 0.000000 0.007524 0.000000
# 2 -0.002658 0.008209 -0.000747 0.000000 0.000459 0.000000
# 3 -0.007632 -0.000747 0.032896 0.000000 -0.031008 0.000000
# 4 0.000000 0.000000 0.000000 0.050899 0.000000 -0.006895
# 5 0.007524 0.000459 -0.031008 0.000000 0.095094 0.000000
# 6 0.000000 0.000000 0.000000 -0.006895 0.000000 0.040742
#
#
# Mechanical properties :
#
#
# Convention : Reuss Voigt Hill
#
# Bulk Modulus (GPa) = 28.85091 40.74854 34.79973
# Shear Modulus (GPa) = 18.04436 25.58909 21.81673
#
# Velocity S-wave (km/s) = 3.00202 3.57495 3.30094
# Velocity P-wave (km/s) = 5.14058 6.11489 5.64878
#
# Compressibility (1/GPa) = 0.03466095
#
# Stress axis : x y z
#
# Youngs Moduli (GPa) = 63.98514 121.82287 30.39859
#
# Poissons Ratio (x) = 0.32375 0.23199
# Poissons Ratio (y) = 0.17004 0.02271
# Poissons Ratio (z) = 0.48831 0.09102
#
# Static dielectric constant tensor:
#      x y z
#    x 1.702020 0.000000 -0.001210 
#    y 0.000000 1.749560 0.000000 
#    z -0.001210 0.000000 1.705250 
# 
# From -- ./inp_files/43714.got.cif
#   From: 2010.05.17/outbox.cif.g08.bks.cpg/sg14_22_cif.got.tgz:43714.got - 2010.06.03 17:49:19.
