data_PCOD9242123
_publ_section_title
;
Structure prediction by ZEFSAII (Michael W. Deem and Ramdas Pophale) SiO2 
 PCOD9242123
Probable space group: P 21/C
;
_chemical_formula_sum "Si O2"
_cell_formula_units_Z 22
_cell_length_a 19.580349
_cell_length_b 5.283370
_cell_length_c 9.645003
_cell_angle_alpha 90.000000
_cell_angle_beta 129.951737
_cell_angle_gamma 90.000000
_cell_volume 764.882088
_symmetry_space_group_name_H-M "P 21/C"
_symmetry_group_IT_number 14
_symmetry_cell_setting 'monoclinic'
loop_
_space_group_symop_operation_xyz
x,y,z
-x,1/2+y,1/2-z
-x,-y,-z
x,1/2-y,1/2+z
loop_
_atom_site_type_symbol
_atom_site_label
_atom_site_fract_x
_atom_site_fract_y
_atom_site_fract_z
Si Si1 0.991155 0.309948 0.831431
Si Si2 0.625194 0.743070 0.051211
Si Si3 0.821813 0.728409 0.382010
Si Si4 0.194187 0.729776 0.958623
Si Si5 0.500000 0.000000 0.000000
Si Si6 0.604864 0.240048 0.865695
O O1 0.890794 0.265180 0.752487
O O2 0.998275 0.585210 0.769386
O O3 0.077311 0.269116 0.040719
O O4 0.586372 0.791041 0.152416
O O5 0.594252 0.492578 0.939983
O O6 0.578664 0.007489 0.934330
O O7 0.731612 0.754429 0.176959
O O8 0.817078 0.449947 0.441902
O O9 0.810531 0.951167 0.481469
O O10 0.289936 0.779682 0.021053
O O11 0.444977 0.773121 0.842675
#
# Coordination Sequence:
#
# PCOD9242123 Si02
#       6
#     4   4   4   4   2   4
#     4   8  16  30  60  94 128 176 228 256 324 408
#     4  12  27  45  69 103 132 172 230 280 335 411
#     4  10  19  39  65  96 135 182 219 275 336 395
#     4  10  19  39  65  96 135 182 219 275 336 395
#     4  12  28  50  72  92 138 180 218 284 354 388
#     4  12  27  45  69 103 132 172 230 280 335 411
#
# _framework density 28.762599999999999
#
# number of rings (size 3 to 8) (size 9 to 14) (size 15 to 20)
#    0.000    1.455    1.818    3.273    0.000    1.455 
#    0.000    1.818    0.000    0.000    0.000    0.000 
#    0.000    0.000    0.000    0.000    0.000    0.000 
#
# Total GULP energy -122982.695851 kJ/mol
# GULP energy per Si atom -5590.122539 kJ/mol
# Density = 2.869714 g / cm^3
# Si number density = 28.762600 Si / 1000 Ang^3
#
#
#
# Elastic Constant Matrix: (Units=GPa)
#
#
# Indices 1 2 3 4 5 6 
#
# 1 126.3915 40.2099 77.0231 0.0000 37.2040 0.0000
# 2 40.2099 189.6536 63.4138 0.0000 -30.7092 0.0000
# 3 77.0231 63.4138 150.7616 0.0000 49.7448 0.0000
# 4 0.0000 0.0000 0.0000 43.0841 0.0000 -1.9925
# 5 37.2040 -30.7092 49.7448 0.0000 70.0240 0.0000
# 6 0.0000 0.0000 0.0000 -1.9925 0.0000 46.8519
#
#
#
# Elastic Compliance Matrix: (Units=1/GPa)
#
#
# Indices 1 2 3 4 5 6 
#
# 1 0.012315 -0.002084 -0.003859 0.000000 -0.004715 0.000000
# 2 -0.002084 0.009183 -0.005867 0.000000 0.009302 0.000000
# 3 -0.003859 -0.005867 0.014687 0.000000 -0.010957 0.000000
# 4 0.000000 0.000000 0.000000 0.023256 0.000000 0.000989
# 5 -0.004715 0.009302 -0.010957 0.000000 0.028649 0.000000
# 6 0.000000 0.000000 0.000000 0.000989 0.000000 0.021386
#
#
# Mechanical properties :
#
#
# Convention : Reuss Voigt Hill
#
# Bulk Modulus (GPa) = 79.58859 92.01117 85.79988
# Shear Modulus (GPa) = 36.42073 51.06932 43.74503
#
# Velocity S-wave (km/s) = 3.56231 4.21829 3.90410
# Velocity P-wave (km/s) = 6.68214 7.46891 7.08645
#
# Compressibility (1/GPa) = 0.01256461
#
# Stress axis : x y z
#
# Youngs Moduli (GPa) = 81.20428 108.90137 68.08514
#
# Poissons Ratio (x) = 0.22697 0.26273
# Poissons Ratio (y) = 0.16924 0.39945
# Poissons Ratio (z) = 0.31336 0.63892
#
# Static dielectric constant tensor:
#      x y z
#    x 3.840940 0.000000 -0.393700 
#    y 0.000000 2.182780 0.000000 
#    z -0.393700 0.000000 2.383780 
# 
# From -- ./inp_files/33266.got.cif
#   From: 2010.05.17/outbox.cif.g08.bks.cpg/sg14_17_cif.got.tgz:33266.got - 2010.06.03 17:49:19.
