data_PCOD9242863
_publ_section_title
;
Structure prediction by ZEFSAII (Michael W. Deem and Ramdas Pophale) SiO2 
 PCOD9242863
Probable space group: P 21/C
;
_chemical_formula_sum "Si O2"
_cell_formula_units_Z 28
_cell_length_a 8.332224
_cell_length_b 10.369593
_cell_length_c 14.551596
_cell_angle_alpha 90.000000
_cell_angle_beta 77.546736
_cell_angle_gamma 90.000000
_cell_volume 1227.702596
_symmetry_space_group_name_H-M "P 21/C"
_symmetry_group_IT_number 14
_symmetry_cell_setting 'monoclinic'
loop_
_space_group_symop_operation_xyz
x,y,z
-x,1/2+y,1/2-z
-x,-y,-z
x,1/2-y,1/2+z
loop_
_atom_site_type_symbol
_atom_site_label
_atom_site_fract_x
_atom_site_fract_y
_atom_site_fract_z
Si Si1 0.204719 0.438890 0.155617
Si Si2 0.542153 0.755192 0.337901
Si Si3 0.301266 0.399259 0.509177
Si Si4 0.304404 0.888307 0.497526
Si Si5 0.987625 0.231425 0.559376
Si Si6 0.636083 0.142444 0.892245
Si Si7 0.256322 0.683600 0.267103
O O1 0.304763 0.342692 0.208930
O O2 0.308424 0.476582 0.049702
O O3 0.054018 0.363686 0.130709
O O4 0.185144 0.572135 0.211116
O O5 0.615063 0.670198 0.411974
O O6 0.407250 0.857808 0.393546
O O7 0.446156 0.669160 0.276284
O O8 0.139373 0.317878 0.505814
O O9 0.270981 0.542461 0.552507
O O10 0.445436 0.402325 0.415133
O O11 0.370513 0.781523 0.559186
O O12 0.114283 0.851775 0.501047
O O13 0.854320 0.318015 0.628596
O O14 0.731168 0.178670 0.787764
#
# Coordination Sequence:
#
# PCOD9242863 Si02
#       7
#     4   4   4   4   4   4   4
#     4  10  20  36  55  79 109 149 184 229 277 333
#     4   9  19  35  56  81 109 146 184 230 277 328
#     4   9  19  36  58  79 111 150 187 230 270 332
#     4   9  18  36  56  81 109 143 185 227 278 335
#     4  10  21  36  56  83 115 147 182 232 286 324
#     4   9  19  36  57  79 113 147 192 228 269 331
#     4  10  22  35  54  84 114 144 187 229 281 331
#
# _framework density 22.806827999999999
#
# number of rings (size 3 to 8) (size 9 to 14) (size 15 to 20)
#    0.000    2.571    0.000    0.857    4.000    1.714 
#    0.000    5.714    0.000    0.000    0.000    0.000 
#    0.000    0.000    0.000    0.000    0.000    0.000 
#
# Total GULP energy -155976.176955 kJ/mol
# GULP energy per Si atom -5570.577748 kJ/mol
# Density = 2.275492 g / cm^3
# Si number density = 22.806828 Si / 1000 Ang^3
#
#
#
# Elastic Constant Matrix: (Units=GPa)
#
#
# Indices 1 2 3 4 5 6 
#
# 1 40.4548 -5.5363 2.1575 0.0000 -8.3899 0.0000
# 2 -5.5363 49.6682 1.5694 0.0000 -9.8561 0.0000
# 3 2.1575 1.5694 35.9282 0.0000 -1.7964 0.0000
# 4 0.0000 0.0000 0.0000 11.2711 0.0000 -3.9652
# 5 -8.3899 -9.8561 -1.7964 0.0000 19.5521 0.0000
# 6 0.0000 0.0000 0.0000 -3.9652 0.0000 20.2690
#
#
#
# Elastic Compliance Matrix: (Units=1/GPa)
#
#
# Indices 1 2 3 4 5 6 
#
# 1 0.028855 0.006322 -0.001236 0.000000 0.015456 0.000000
# 2 0.006322 0.023763 -0.000686 0.000000 0.014629 0.000000
# 3 -0.001236 -0.000686 0.028022 0.000000 0.001698 0.000000
# 4 0.000000 0.000000 0.000000 0.095280 0.000000 0.018639
# 5 0.015456 0.014629 0.001698 0.000000 0.065308 0.000000
# 6 0.000000 0.000000 0.000000 0.018639 0.000000 0.052983
#
#
# Mechanical properties :
#
#
# Convention : Reuss Voigt Hill
#
# Bulk Modulus (GPa) = 11.18059 13.60361 12.39210
# Shear Modulus (GPa) = 15.86169 18.74246 17.30208
#
# Velocity S-wave (km/s) = 2.64006 2.86980 2.75732
# Velocity P-wave (km/s) = 3.76910 4.11809 3.94746
#
# Compressibility (1/GPa) = 0.08944068
#
# Stress axis : x y z
#
# Youngs Moduli (GPa) = 34.65553 42.08229 35.68567
#
# Poissons Ratio (x) = -0.26606 0.04412
# Poissons Ratio (y) = -0.21911 0.02449
# Poissons Ratio (z) = 0.04284 0.02888
#
# Static dielectric constant tensor:
#      x y z
#    x 1.906520 0.000000 -0.030670 
#    y 0.000000 1.871240 0.000000 
#    z -0.030670 0.000000 1.938010 
# 
# From -- ./inp_files/39719.got.cif
#   From: 2010.05.17/outbox.cif.g08.bks.cpg/sg14_20_cif.got.tgz:39719.got - 2010.06.03 17:49:19.
