data_PCOD9242496
_publ_section_title
;
Structure prediction by ZEFSAII (Michael W. Deem and Ramdas Pophale) SiO2 
 PCOD9242496
Probable space group: P 21/C
;
_chemical_formula_sum "Si O2"
_cell_formula_units_Z 20
_cell_length_a 18.707360
_cell_length_b 8.855506
_cell_length_c 5.384515
_cell_angle_alpha 90.000000
_cell_angle_beta 104.887868
_cell_angle_gamma 90.000000
_cell_volume 862.071139
_symmetry_space_group_name_H-M "P 21/C"
_symmetry_group_IT_number 14
_symmetry_cell_setting 'monoclinic'
loop_
_space_group_symop_operation_xyz
x,y,z
-x,1/2+y,1/2-z
-x,-y,-z
x,1/2-y,1/2+z
loop_
_atom_site_type_symbol
_atom_site_label
_atom_site_fract_x
_atom_site_fract_y
_atom_site_fract_z
Si Si1 0.716293 0.165263 0.143706
Si Si2 0.415698 0.178395 0.588788
Si Si3 0.444469 0.880831 0.823162
Si Si4 0.960827 0.659811 0.938399
Si Si5 0.216677 0.161915 0.705792
O O1 0.739890 0.264174 0.403122
O O2 0.626726 0.161806 0.080762
O O3 0.744967 0.996760 0.204240
O O4 0.382842 0.245885 0.813577
O O5 0.500037 0.244374 0.683818
O O6 0.414115 0.503120 0.081728
O O7 0.500000 0.000000 0.000000
O O8 0.980721 0.737970 0.694784
O O9 0.872135 0.639258 0.863399
O O10 0.000000 0.500000 0.000000
O O11 0.233822 0.222208 0.445053
#
# Coordination Sequence:
#
# PCOD9242496 Si02
#       5
#     4   4   4   4   4
#     4  12  26  43  64  92 125 163 211 266 319 378
#     4  10  20  34  53  75 102 136 177 231 293 357
#     4  10  22  39  58  82 113 148 194 252 313 376
#     4  10  21  38  64  98 135 171 212 259 307 365
#     4  10  23  44  66  93 130 172 215 258 308 372
#
# _framework density 23.199940000000002
#
# number of rings (size 3 to 8) (size 9 to 14) (size 15 to 20)
#    0.000    1.600    0.000    4.800    0.000    8.000 
#    0.000    0.000    0.000    0.000    0.000    0.000 
#    0.000    0.000    0.000    0.000    0.000    0.000 
#
# Total GULP energy -111920.502902 kJ/mol
# GULP energy per Si atom -5596.025145 kJ/mol
# Density = 2.314714 g / cm^3
# Si number density = 23.199940 Si / 1000 Ang^3
#
#
#
# Elastic Constant Matrix: (Units=GPa)
#
#
# Indices 1 2 3 4 5 6 
#
# 1 27.8096 13.6713 31.0890 0.0000 7.4865 0.0000
# 2 13.6713 73.9408 17.1855 0.0000 19.2276 0.0000
# 3 31.0890 17.1855 148.6840 0.0000 -5.5235 0.0000
# 4 0.0000 0.0000 0.0000 47.7389 0.0000 -0.4996
# 5 7.4865 19.2276 -5.5235 0.0000 20.8080 0.0000
# 6 0.0000 0.0000 0.0000 -0.4996 0.0000 41.3718
#
#
#
# Elastic Compliance Matrix: (Units=1/GPa)
#
#
# Indices 1 2 3 4 5 6 
#
# 1 0.056732 -0.001875 -0.012462 0.000000 -0.021987 0.000000
# 2 -0.001875 0.019002 -0.002456 0.000000 -0.017536 0.000000
# 3 -0.012462 -0.002456 0.009964 0.000000 0.009398 0.000000
# 4 0.000000 0.000000 0.000000 0.020950 0.000000 0.000253
# 5 -0.021987 -0.017536 0.009398 0.000000 0.074667 0.000000
# 6 0.000000 0.000000 0.000000 0.000253 0.000000 0.024174
#
#
# Mechanical properties :
#
#
# Convention : Reuss Voigt Hill
#
# Bulk Modulus (GPa) = 19.18977 41.59178 30.39078
# Shear Modulus (GPa) = 19.49728 34.54966 27.02347
#
# Velocity S-wave (km/s) = 2.90211 3.86322 3.41663
# Velocity P-wave (km/s) = 4.41804 6.15351 5.35653
#
# Compressibility (1/GPa) = 0.05211109
#
# Stress axis : x y z
#
# Youngs Moduli (GPa) = 17.62689 52.62653 100.35713
#
# Poissons Ratio (x) = 0.09870 1.25068
# Poissons Ratio (y) = 0.03306 0.24644
# Poissons Ratio (z) = 0.21967 0.12923
#
# Static dielectric constant tensor:
#      x y z
#    x 1.905910 0.000000 -0.069110 
#    y 0.000000 1.926320 0.000000 
#    z -0.069110 0.000000 2.070520 
# 
# From -- ./inp_files/4451.got.cif
#   From: 2010.05.17/outbox.cif.g08.bks.cpg/sg14_3_cif.got.tgz:4451.got - 2010.06.03 17:49:19.
