data_PCOD9242076
_publ_section_title
;
Structure prediction by ZEFSAII (Michael W. Deem and Ramdas Pophale) SiO2 
 PCOD9242076
Probable space group: P 21/C
;
_chemical_formula_sum "Si O2"
_cell_formula_units_Z 26
_cell_length_a 4.888973
_cell_length_b 14.070205
_cell_length_c 15.740862
_cell_angle_alpha 90.000000
_cell_angle_beta 85.972489
_cell_angle_gamma 90.000000
_cell_volume 1080.121804
_symmetry_space_group_name_H-M "P 21/C"
_symmetry_group_IT_number 14
_symmetry_cell_setting 'monoclinic'
loop_
_space_group_symop_operation_xyz
x,y,z
-x,1/2+y,1/2-z
-x,-y,-z
x,1/2-y,1/2+z
loop_
_atom_site_type_symbol
_atom_site_label
_atom_site_fract_x
_atom_site_fract_y
_atom_site_fract_z
Si Si1 0.504057 0.556653 0.122984
Si Si2 0.000000 0.000000 0.500000
Si Si3 0.542429 0.348216 0.514263
Si Si4 0.326930 0.445005 0.282563
Si Si5 0.193886 0.999278 0.108140
Si Si6 0.145460 0.824388 0.512004
Si Si7 0.748046 0.755424 0.143739
O O1 0.782307 0.507842 0.087458
O O2 0.338427 0.494863 0.192722
O O3 0.299121 0.580454 0.047486
O O4 0.589353 0.657711 0.162131
O O5 0.907051 0.885227 0.475554
O O6 0.750342 0.428162 0.472573
O O7 0.324844 0.400367 0.578625
O O8 0.700395 0.254945 0.544004
O O9 0.385076 0.306859 0.435578
O O10 0.623623 0.458850 0.318748
O O11 0.251925 0.333878 0.284218
O O12 0.112941 0.495746 0.351260
O O13 0.042776 0.772656 0.599684
#
# Coordination Sequence:
#
# PCOD9242076 Si02
#       7
#     4   2   4   4   4   4   4
#     4  10  23  41  63  87 126 166 216 260 314 380
#     4  10  22  40  64  84 112 168 218 264 302 366
#     4   9  19  36  62  91 125 160 210 254 310 388
#     4  11  23  41  62  96 131 166 203 264 325 383
#     4  10  22  36  64  96 127 163 202 259 326 376
#     4  10  19  39  62  88 119 168 217 261 311 377
#     4   9  20  38  63  88 122 174 204 257 320 373
#
# _framework density 24.071362000000001
#
# number of rings (size 3 to 8) (size 9 to 14) (size 15 to 20)
#    0.000    2.154    1.538    0.462    6.462    1.846 
#    2.769    0.000    0.000    0.000    0.000    0.000 
#    0.000    0.000    0.000    0.000    0.000    0.000 
#
# Total GULP energy -144905.254836 kJ/mol
# GULP energy per Si atom -5573.279032 kJ/mol
# Density = 2.401657 g / cm^3
# Si number density = 24.071362 Si / 1000 Ang^3
#
#
#
# Elastic Constant Matrix: (Units=GPa)
#
#
# Indices 1 2 3 4 5 6 
#
# 1 61.4446 5.2265 24.5788 0.0000 -14.8777 0.0000
# 2 5.2265 178.4083 67.8981 0.0000 -10.7596 0.0000
# 3 24.5788 67.8981 85.2307 0.0000 -21.6849 0.0000
# 4 0.0000 0.0000 0.0000 43.3492 0.0000 -11.8697
# 5 -14.8777 -10.7596 -21.6849 0.0000 28.1639 0.0000
# 6 0.0000 0.0000 0.0000 -11.8697 0.0000 40.2716
#
#
#
# Elastic Compliance Matrix: (Units=1/GPa)
#
#
# Indices 1 2 3 4 5 6 
#
# 1 0.020032 0.001942 -0.005525 0.000000 0.007070 0.000000
# 2 0.001942 0.008355 -0.007640 0.000000 -0.001664 0.000000
# 3 -0.005525 -0.007640 0.022295 0.000000 0.011328 0.000000
# 4 0.000000 0.000000 0.000000 0.025094 0.000000 0.007396
# 5 0.007070 -0.001664 0.011328 0.000000 0.047328 0.000000
# 6 0.000000 0.000000 0.000000 0.007396 0.000000 0.027011
#
#
# Mechanical properties :
#
#
# Convention : Reuss Voigt Hill
#
# Bulk Modulus (GPa) = 35.41573 57.83228 46.62400
# Shear Modulus (GPa) = 27.47678 37.51561 32.49619
#
# Velocity S-wave (km/s) = 3.38223 3.95209 3.67821
# Velocity P-wave (km/s) = 5.47699 6.70096 6.11965
#
# Compressibility (1/GPa) = 0.02823604
#
# Stress axis : x y z
#
# Youngs Moduli (GPa) = 49.92109 119.68341 44.85378
#
# Poissons Ratio (x) = -0.23247 0.24784
# Poissons Ratio (y) = -0.09697 0.34267
# Poissons Ratio (z) = 0.27583 0.91435
#
# Static dielectric constant tensor:
#      x y z
#    x 9.552140 0.000000 1.454140 
#    y 0.000000 5.519030 0.000000 
#    z 1.454140 0.000000 2.169950 
# 
# From -- ./inp_files/37385.got.cif
#   From: 2010.05.17/outbox.cif.g08.bks.cpg/sg14_19_cif.got.tgz:37385.got - 2010.06.03 17:49:19.
