data_PCOD9242520
_publ_section_title
;
Structure prediction by ZEFSAII (Michael W. Deem and Ramdas Pophale) SiO2 
 PCOD9242520
Probable space group: P 21/C
;
_chemical_formula_sum "Si O2"
_cell_formula_units_Z 28
_cell_length_a 8.413826
_cell_length_b 11.630198
_cell_length_c 20.938232
_cell_angle_alpha 90.000000
_cell_angle_beta 41.773507
_cell_angle_gamma 90.000000
_cell_volume 1364.951598
_symmetry_space_group_name_H-M "P 21/C"
_symmetry_group_IT_number 14
_symmetry_cell_setting 'monoclinic'
loop_
_space_group_symop_operation_xyz
x,y,z
-x,1/2+y,1/2-z
-x,-y,-z
x,1/2-y,1/2+z
loop_
_atom_site_type_symbol
_atom_site_label
_atom_site_fract_x
_atom_site_fract_y
_atom_site_fract_z
Si Si1 0.757612 0.911645 0.736338
Si Si2 0.554058 0.644079 0.051858
Si Si3 0.308660 0.720419 0.412265
Si Si4 0.288865 0.670767 0.781549
Si Si5 0.200100 0.248052 0.399773
Si Si6 0.916256 0.257010 0.779860
Si Si7 0.338470 0.394528 0.124650
O O1 0.489311 0.881365 0.839310
O O2 0.810829 0.840807 0.655823
O O3 0.931789 0.862597 0.738492
O O4 0.794161 0.043721 0.710281
O O5 0.728111 0.683614 0.056027
O O6 0.425343 0.524258 0.109914
O O7 0.339770 0.737407 0.108690
O O8 0.677595 0.623390 0.946951
O O9 0.255341 0.789823 0.363323
O O10 0.456411 0.808015 0.412334
O O11 0.053541 0.690261 0.518054
O O12 0.572762 0.673377 0.683455
O O13 0.161846 0.758571 0.770776
O O14 0.095713 0.148446 0.731623
#
# Coordination Sequence:
#
# PCOD9242520 Si02
#       7
#     4   4   4   4   4   4   4
#     4  10  21  37  57  81 110 145 182 223 272 322
#     4  10  20  34  55  81 108 142 182 224 272 322
#     4  10  21  36  56  82 112 142 180 224 269 324
#     4  10  21  37  57  81 110 145 182 223 272 322
#     4  10  21  36  56  82 112 142 180 224 269 324
#     4  10  20  34  54  78 108 140 180 226 266 314
#     4  10  20  34  55  81 108 142 182 224 272 322
#
# _framework density 20.513549000000001
#
# number of rings (size 3 to 8) (size 9 to 14) (size 15 to 20)
#    0.000    2.000    0.000    3.429    0.000    5.143 
#    0.000    1.429    0.000   47.143    0.000    0.000 
#    0.000    0.000    0.000    0.000    0.000    0.000 
#
# Total GULP energy -156273.204892 kJ/mol
# GULP energy per Si atom -5581.185889 kJ/mol
# Density = 2.046686 g / cm^3
# Si number density = 20.513549 Si / 1000 Ang^3
#
#
#
# Elastic Constant Matrix: (Units=GPa)
#
#
# Indices 1 2 3 4 5 6 
#
# 1 80.6747 16.2320 30.9326 0.0000 -12.0840 0.0000
# 2 16.2320 39.4109 -0.0440 0.0000 5.0863 0.0000
# 3 30.9326 -0.0440 76.4138 0.0000 -24.8300 0.0000
# 4 0.0000 0.0000 0.0000 2.1601 0.0000 5.7008
# 5 -12.0840 5.0863 -24.8300 0.0000 37.6606 0.0000
# 6 0.0000 0.0000 0.0000 5.7008 0.0000 20.4230
#
#
#
# Elastic Compliance Matrix: (Units=1/GPa)
#
#
# Indices 1 2 3 4 5 6 
#
# 1 0.016430 -0.007076 -0.005894 0.000000 0.002341 0.000000
# 2 -0.007076 0.028993 0.001108 0.000000 -0.005455 0.000000
# 3 -0.005894 0.001108 0.018848 0.000000 0.010386 0.000000
# 4 0.000000 0.000000 0.000000 1.758114 0.000000 -0.490754
# 5 0.002341 -0.005455 0.010386 0.000000 0.034888 0.000000
# 6 0.000000 0.000000 0.000000 -0.490754 0.000000 0.185952
#
#
# Mechanical properties :
#
#
# Convention : Reuss Voigt Hill
#
# Bulk Modulus (GPa) = 24.66214 32.30453 28.48334
# Shear Modulus (GPa) = 2.40331 22.00733 12.20532
#
# Velocity S-wave (km/s) = 1.08357 3.27895 2.44188
# Velocity P-wave (km/s) = 3.68971 5.48793 4.67607
#
# Compressibility (1/GPa) = 0.04054799
#
# Stress axis : x y z
#
# Youngs Moduli (GPa) = 60.86534 34.49090 53.05604
#
# Poissons Ratio (x) = 0.24404 0.31272
# Poissons Ratio (y) = 0.43066 -0.05880
# Poissons Ratio (z) = 0.35875 -0.03822
#
# Static dielectric constant tensor:
#      x y z
#    x 1.742030 0.000000 -0.032340 
#    y 0.000000 1.698400 0.000000 
#    z -0.032340 0.000000 1.753500 
# 
# From -- ./inp_files/39760.got.cif
#   From: 2010.05.17/outbox.cif.g08.bks.cpg/sg14_20_cif.got.tgz:39760.got - 2010.06.03 17:49:19.
