data_PCOD9242230
_publ_section_title
;
Structure prediction by ZEFSAII (Michael W. Deem and Ramdas Pophale) SiO2 
 PCOD9242230
Probable space group: P 21/C
;
_chemical_formula_sum "Si O2"
_cell_formula_units_Z 20
_cell_length_a 15.135550
_cell_length_b 7.223728
_cell_length_c 7.483248
_cell_angle_alpha 90.000000
_cell_angle_beta 123.496724
_cell_angle_gamma 90.000000
_cell_volume 682.295889
_symmetry_space_group_name_H-M "P 21/C"
_symmetry_group_IT_number 14
_symmetry_cell_setting 'monoclinic'
loop_
_space_group_symop_operation_xyz
x,y,z
-x,1/2+y,1/2-z
-x,-y,-z
x,1/2-y,1/2+z
loop_
_atom_site_type_symbol
_atom_site_label
_atom_site_fract_x
_atom_site_fract_y
_atom_site_fract_z
Si Si1 0.856971 0.002820 0.677397
Si Si2 0.260277 0.054487 0.809676
Si Si3 0.342866 0.628432 0.862180
Si Si4 0.462296 0.051365 0.159480
Si Si5 0.062169 0.923686 0.744927
O O1 0.797575 0.915028 0.441060
O O2 0.764133 0.013084 0.718999
O O3 0.888964 0.219254 0.696252
O O4 0.974862 0.917764 0.804021
O O5 0.166653 0.049327 0.849400
O O6 0.304323 0.842698 0.825641
O O7 0.361010 0.174653 0.984248
O O8 0.400532 0.933251 0.244736
O O9 0.433623 0.606430 0.114678
O O10 0.500000 0.000000 0.000000
O O11 0.000000 0.000000 0.500000
#
# Coordination Sequence:
#
# PCOD9242230 Si02
#       5
#     4   4   4   4   4
#     4  10  19  40  68  98 134 189 231 285 350 415
#     4  10  20  41  66  91 132 180 226 279 346 422
#     4  10  21  38  64  95 129 178 223 273 350 414
#     4  11  22  37  62  97 128 165 230 281 329 410
#     4   9  20  37  66  98 137 180 232 288 346 416
#
# _framework density 29.312795999999999
#
# number of rings (size 3 to 8) (size 9 to 14) (size 15 to 20)
#    0.000    2.000    2.000    2.400    0.000    0.000 
#    0.000   18.000    0.000    2.400    0.000    0.000 
#    0.000    0.000    0.000    0.000    0.000    0.000 
#
# Total GULP energy -111628.165181 kJ/mol
# GULP energy per Si atom -5581.408259 kJ/mol
# Density = 2.924608 g / cm^3
# Si number density = 29.312796 Si / 1000 Ang^3
#
#
#
# Elastic Constant Matrix: (Units=GPa)
#
#
# Indices 1 2 3 4 5 6 
#
# 1 287.2129 75.5414 103.1793 0.0000 39.9022 0.0000
# 2 75.5414 93.2641 42.7246 0.0000 -7.7159 0.0000
# 3 103.1793 42.7246 166.2195 0.0000 -15.8689 0.0000
# 4 0.0000 0.0000 0.0000 15.3559 0.0000 -1.1726
# 5 39.9022 -7.7159 -15.8689 0.0000 68.7905 0.0000
# 6 0.0000 0.0000 0.0000 -1.1726 0.0000 38.3815
#
#
#
# Elastic Compliance Matrix: (Units=1/GPa)
#
#
# Indices 1 2 3 4 5 6 
#
# 1 0.006502 -0.004096 -0.003464 0.000000 -0.005030 0.000000
# 2 -0.004096 0.014763 -0.000887 0.000000 0.003827 0.000000
# 3 -0.003464 -0.000887 0.008769 0.000000 0.003933 0.000000
# 4 0.000000 0.000000 0.000000 0.065274 0.000000 0.001994
# 5 -0.005030 0.003827 0.003933 0.000000 0.018791 0.000000
# 6 0.000000 0.000000 0.000000 0.001994 0.000000 0.026115
#
#
# Mechanical properties :
#
#
# Convention : Reuss Voigt Hill
#
# Bulk Modulus (GPa) = 76.09226 109.95413 93.02320
# Shear Modulus (GPa) = 30.96223 46.18899 38.57561
#
# Velocity S-wave (km/s) = 3.25356 3.97385 3.63161
# Velocity P-wave (km/s) = 6.33476 7.65816 7.02768
#
# Compressibility (1/GPa) = 0.01314194
#
# Stress axis : x y z
#
# Youngs Moduli (GPa) = 153.79633 67.73828 114.03271
#
# Poissons Ratio (x) = 0.27746 0.39495
# Poissons Ratio (y) = 0.62995 0.10110
# Poissons Ratio (z) = 0.53267 0.06006
#
# Static dielectric constant tensor:
#      x y z
#    x 2.302640 0.000000 0.004450 
#    y 0.000000 2.484570 0.000000 
#    z 0.004450 0.000000 2.349130 
# 
# From -- ./inp_files/34813.got.cif
#   From: 2010.05.17/outbox.cif.g08.bks.cpg/sg14_18_cif.got.tgz:34813.got - 2010.06.03 17:49:19.
