data_PCOD9242667
_publ_section_title
;
Structure prediction by ZEFSAII (Michael W. Deem and Ramdas Pophale) SiO2 
 PCOD9242667
Probable space group: P 21/C
;
_chemical_formula_sum "Si O2"
_cell_formula_units_Z 32
_cell_length_a 9.050016
_cell_length_b 9.014052
_cell_length_c 14.707507
_cell_angle_alpha 90.000000
_cell_angle_beta 92.197103
_cell_angle_gamma 90.000000
_cell_volume 1198.916904
_symmetry_space_group_name_H-M "P 21/C"
_symmetry_group_IT_number 14
_symmetry_cell_setting 'monoclinic'
loop_
_space_group_symop_operation_xyz
x,y,z
-x,1/2+y,1/2-z
-x,-y,-z
x,1/2-y,1/2+z
loop_
_atom_site_type_symbol
_atom_site_label
_atom_site_fract_x
_atom_site_fract_y
_atom_site_fract_z
Si Si1 0.485313 0.821213 0.782823
Si Si2 0.707708 0.450211 0.275967
Si Si3 0.789531 0.999109 0.256961
Si Si4 0.983846 0.271972 0.283022
Si Si5 0.767880 0.544306 0.964526
Si Si6 0.040770 0.767004 0.499292
Si Si7 0.270531 0.949041 0.013468
Si Si8 0.552613 0.733435 0.491850
O O1 0.409559 0.685379 0.730060
O O2 0.541681 0.766926 0.881739
O O3 0.618039 0.908974 0.737713
O O4 0.352649 0.938457 0.798197
O O5 0.857506 0.382736 0.239931
O O6 0.750186 0.484244 0.380917
O O7 0.738878 0.006373 0.361096
O O8 0.858111 0.839432 0.237674
O O9 0.924705 0.114442 0.247126
O O10 0.976061 0.255969 0.392348
O O11 0.853054 0.409197 0.013800
O O12 0.629421 0.611170 0.014874
O O13 0.883894 0.681452 0.958635
O O14 0.122363 0.618837 0.467529
O O15 0.344021 0.095979 0.975232
O O16 0.389734 0.814686 0.017175
#
# Coordination Sequence:
#
# PCOD9242667 Si02
#       8
#     4   4   4   4   4   4   4   4
#     4  10  20  35  56  79 108 141 178 223 269 318
#     4   9  19  36  54  78 109 141 179 222 267 319
#     4  10  21  36  55  80 110 140 177 224 268 318
#     4   9  20  36  54  78 108 141 179 222 267 320
#     4  10  21  38  57  81 110 142 182 223 265 319
#     4   9  20  38  57  79 109 144 181 221 267 318
#     4   9  20  37  54  79 112 142 179 224 268 319
#     4  10  21  36  55  82 110 140 181 223 267 321
#
# _framework density 26.690760999999998
#
# number of rings (size 3 to 8) (size 9 to 14) (size 15 to 20)
#    0.000    2.500    0.000    1.500    0.000   10.000 
#    0.000    2.500    0.000    0.000    0.000    0.000 
#    0.000    0.000    0.000    0.000    0.000    0.000 
#
# Total GULP energy -179009.508581 kJ/mol
# GULP energy per Si atom -5594.047143 kJ/mol
# Density = 2.663001 g / cm^3
# Si number density = 26.690761 Si / 1000 Ang^3
#
#
#
# Elastic Constant Matrix: (Units=GPa)
#
#
# Indices 1 2 3 4 5 6 
#
# 1 64.5571 94.6176 -17.0220 0.0000 10.2851 0.0000
# 2 94.6176 62.0939 1.9929 0.0000 4.2469 0.0000
# 3 -17.0220 1.9929 81.2159 0.0000 4.0054 0.0000
# 4 0.0000 0.0000 0.0000 18.0520 0.0000 4.7007
# 5 10.2851 4.2469 4.0054 0.0000 18.7242 0.0000
# 6 0.0000 0.0000 0.0000 4.7007 0.0000 84.4340
#
#
#
# Elastic Compliance Matrix: (Units=1/GPa)
#
#
# Indices 1 2 3 4 5 6 
#
# 1 -0.011652 0.017643 -0.003025 0.000000 0.003046 0.000000
# 2 0.017643 -0.010354 0.004360 0.000000 -0.008276 0.000000
# 3 -0.003025 0.004360 0.011662 0.000000 -0.001822 0.000000
# 4 0.000000 0.000000 0.000000 0.056210 0.000000 -0.003129
# 5 0.003046 -0.008276 -0.001822 0.000000 0.054001 0.000000
# 6 0.000000 0.000000 0.000000 -0.003129 0.000000 0.012018
#
#
# Mechanical properties :
#
#
# Convention : Reuss Voigt Hill
#
# Bulk Modulus (GPa) = 36.21540 40.78266 38.49903
# Shear Modulus (GPa) = 60.14519 32.79394 46.46956
#
# Velocity S-wave (km/s) = 4.75216 3.50903 4.17710
# Velocity P-wave (km/s) = 6.61125 5.63299 6.14163
#
# Compressibility (1/GPa) = 0.02761256
#
# Stress axis : x y z
#
# Youngs Moduli (GPa) = -85.82435 -96.58038 85.75101
#
# Poissons Ratio (x) = 1.70401 0.25941
# Poissons Ratio (y) = 1.51424 -0.37388
# Poissons Ratio (z) = -0.25964 0.42110
#
# Static dielectric constant tensor:
#      x y z
#    x 2.102940 0.000000 0.001920 
#    y 0.000000 2.091390 0.000000 
#    z 0.001920 0.000000 2.035050 
# 
# From -- ./inp_files/64853.got.cif
#   From: 2010.05.17/outbox.cif.g08.bks.cpg/sg14_33_cif.got.tgz:64853.got - 2010.06.03 17:49:19.
