data_PCOD9242820
_publ_section_title
;
Structure prediction by ZEFSAII (Michael W. Deem and Ramdas Pophale) SiO2 
 PCOD9242820
Probable space group: P 21/C
;
_chemical_formula_sum "Si O2"
_cell_formula_units_Z 28
_cell_length_a 7.116325
_cell_length_b 20.592203
_cell_length_c 8.338212
_cell_angle_alpha 90.000000
_cell_angle_beta 99.586442
_cell_angle_gamma 90.000000
_cell_volume 1204.825239
_symmetry_space_group_name_H-M "P 21/C"
_symmetry_group_IT_number 14
_symmetry_cell_setting 'monoclinic'
loop_
_space_group_symop_operation_xyz
x,y,z
-x,1/2+y,1/2-z
-x,-y,-z
x,1/2-y,1/2+z
loop_
_atom_site_type_symbol
_atom_site_label
_atom_site_fract_x
_atom_site_fract_y
_atom_site_fract_z
Si Si1 0.273094 0.047371 0.499840
Si Si2 0.102663 0.793846 0.680271
Si Si3 0.530743 0.211736 0.055942
Si Si4 0.220772 0.126599 0.188600
Si Si5 0.844261 0.090262 0.542040
Si Si6 0.988265 0.848372 0.149284
Si Si7 0.605805 0.665463 0.797704
O O1 0.276482 0.068668 0.314426
O O2 0.404866 0.094290 0.625826
O O3 0.057325 0.065312 0.526565
O O4 0.290874 0.970151 0.518531
O O5 0.261969 0.786683 0.838443
O O6 0.185440 0.844374 0.562860
O O7 0.053315 0.723102 0.607438
O O8 0.911835 0.825763 0.724858
O O9 0.402816 0.163233 0.144278
O O10 0.432895 0.281863 0.069480
O O11 0.521243 0.186848 0.872430
O O12 0.094637 0.112022 0.012503
O O13 0.856838 0.111668 0.728740
O O14 0.817165 0.832333 0.250402
#
# Coordination Sequence:
#
# PCOD9242820 Si02
#       7
#     4   4   4   4   4   4   4
#     4   9  19  40  62  84 125 166 203 243 300 365
#     4  11  22  37  61  89 124 152 201 251 304 356
#     4  11  23  36  60  91 118 155 201 251 305 352
#     4  10  21  38  59  88 120 159 199 250 296 358
#     4   9  20  37  63  91 120 166 201 245 306 357
#     4  10  20  35  62  92 121 154 200 253 303 353
#     4  10  21  37  59  87 122 160 198 246 304 358
#
# _framework density 23.239885999999998
#
# number of rings (size 3 to 8) (size 9 to 14) (size 15 to 20)
#    0.000    2.000    1.429    1.714   12.000    0.571 
#    0.000    2.857    0.000    0.000    0.000    0.000 
#    0.000    0.000    0.000    0.000    0.000    0.000 
#
# Total GULP energy -156651.480375 kJ/mol
# GULP energy per Si atom -5594.695728 kJ/mol
# Density = 2.318699 g / cm^3
# Si number density = 23.239886 Si / 1000 Ang^3
#
#
#
# Elastic Constant Matrix: (Units=GPa)
#
#
# Indices 1 2 3 4 5 6 
#
# 1 66.8700 24.6238 38.3912 0.0000 0.0417 0.0000
# 2 24.6238 119.8751 59.3859 0.0000 -7.5216 0.0000
# 3 38.3912 59.3859 132.7339 0.0000 0.7607 0.0000
# 4 0.0000 0.0000 0.0000 26.2860 0.0000 -0.6300
# 5 0.0417 -7.5216 0.7607 0.0000 36.4838 0.0000
# 6 0.0000 0.0000 0.0000 -0.6300 0.0000 19.5677
#
#
#
# Elastic Compliance Matrix: (Units=1/GPa)
#
#
# Indices 1 2 3 4 5 6 
#
# 1 0.018127 -0.001466 -0.004586 0.000000 -0.000227 0.000000
# 2 -0.001466 0.011034 -0.004526 0.000000 0.002371 0.000000
# 3 -0.004586 -0.004526 0.010892 0.000000 -0.001155 0.000000
# 4 0.000000 0.000000 0.000000 0.038072 0.000000 0.001226
# 5 -0.000227 0.002371 -0.001155 0.000000 0.027923 0.000000
# 6 0.000000 0.000000 0.000000 0.001226 0.000000 0.051144
#
#
# Mechanical properties :
#
#
# Convention : Reuss Voigt Hill
#
# Bulk Modulus (GPa) = 52.91826 62.69787 57.80807
# Shear Modulus (GPa) = 27.07858 29.60603 28.34231
#
# Velocity S-wave (km/s) = 3.41717 3.57309 3.49600
# Velocity P-wave (km/s) = 6.19591 6.63775 6.42063
#
# Compressibility (1/GPa) = 0.01889707
#
# Stress axis : x y z
#
# Youngs Moduli (GPa) = 55.16587 90.62673 91.81068
#
# Poissons Ratio (x) = 0.13286 0.42102
# Poissons Ratio (y) = 0.08087 0.41557
# Poissons Ratio (z) = 0.25298 0.41021
#
# Static dielectric constant tensor:
#      x y z
#    x 1.917700 0.000000 0.000000 
#    y 0.000000 1.842360 0.000000 
#    z 0.000000 0.000000 1.875120 
# 
# From -- ./inp_files/9532.got.cif
#   From: 2010.05.17/outbox.cif.g08.bks.cpg/sg14_5_cif.got.tgz:9532.got - 2010.06.03 17:49:19.
