data_PCOD9242970
_publ_section_title
;
Structure prediction by ZEFSAII (Michael W. Deem and Ramdas Pophale) SiO2 
 PCOD9242970
Probable space group: P 21/C
;
_chemical_formula_sum "Si O2"
_cell_formula_units_Z 24
_cell_length_a 9.835340
_cell_length_b 14.090852
_cell_length_c 7.880025
_cell_angle_alpha 90.000000
_cell_angle_beta 96.302984
_cell_angle_gamma 90.000000
_cell_volume 1085.478070
_symmetry_space_group_name_H-M "P 21/C"
_symmetry_group_IT_number 14
_symmetry_cell_setting 'monoclinic'
loop_
_space_group_symop_operation_xyz
x,y,z
-x,1/2+y,1/2-z
-x,-y,-z
x,1/2-y,1/2+z
loop_
_atom_site_type_symbol
_atom_site_label
_atom_site_fract_x
_atom_site_fract_y
_atom_site_fract_z
Si Si1 0.332497 0.103452 0.689832
Si Si2 0.642066 0.200987 0.274709
Si Si3 0.165626 0.455831 0.693267
Si Si4 0.852813 0.052929 0.179522
Si Si5 0.631036 0.100330 0.637901
Si Si6 0.347336 0.299284 0.557940
O O1 0.480477 0.061145 0.662776
O O2 0.307587 0.188609 0.555361
O O3 0.218300 0.026125 0.710904
O O4 0.350093 0.158859 0.870532
O O5 0.765660 0.147681 0.197521
O O6 0.631399 0.154145 0.458303
O O7 0.663351 0.314219 0.274511
O O8 0.497439 0.187451 0.159456
O O9 0.159005 0.515720 0.515590
O O10 0.259162 0.517681 0.830707
O O11 0.239711 0.359192 0.651199
O O12 0.013197 0.438326 0.737892
#
# Coordination Sequence:
#
# PCOD9242970 Si02
#       6
#     4   4   4   4   4   4
#     4  10  20  36  59  83 110 144 184 230 277 327
#     4  11  22  37  59  84 111 144 186 232 276 327
#     4  10  22  39  57  81 115 151 184 224 277 331
#     4  10  22  39  57  81 115 151 184 224 277 331
#     4  11  22  37  59  84 111 144 186 232 276 327
#     4  10  20  36  59  83 110 144 184 230 277 327
#
# _framework density 22.110074000000001
#
# number of rings (size 3 to 8) (size 9 to 14) (size 15 to 20)
#    0.000    1.667    0.000    7.000    0.000    8.667 
#    0.000    3.333    0.000    0.000    0.000    0.000 
#    0.000    0.000    0.000    0.000    0.000    0.000 
#
# Total GULP energy -134364.047185 kJ/mol
# GULP energy per Si atom -5598.501966 kJ/mol
# Density = 2.205975 g / cm^3
# Si number density = 22.110074 Si / 1000 Ang^3
#
#
#
# Elastic Constant Matrix: (Units=GPa)
#
#
# Indices 1 2 3 4 5 6 
#
# 1 174.7145 59.3702 13.9618 0.0000 -30.6748 0.0000
# 2 59.3702 77.2860 -1.9460 0.0000 -11.9505 0.0000
# 3 13.9618 -1.9460 78.0954 0.0000 -16.6448 0.0000
# 4 0.0000 0.0000 0.0000 36.8584 0.0000 -11.5920
# 5 -30.6748 -11.9505 -16.6448 0.0000 22.7053 0.0000
# 6 0.0000 0.0000 0.0000 -11.5920 0.0000 15.3162
#
#
#
# Elastic Compliance Matrix: (Units=1/GPa)
#
#
# Indices 1 2 3 4 5 6 
#
# 1 0.009355 -0.005652 0.000292 0.000000 0.009878 0.000000
# 2 -0.005652 0.017853 0.002170 0.000000 0.003352 0.000000
# 3 0.000292 0.002170 0.015566 0.000000 0.012948 0.000000
# 4 0.000000 0.000000 0.000000 0.035606 0.000000 0.026948
# 5 0.009878 0.003352 0.012948 0.000000 0.068644 0.000000
# 6 0.000000 0.000000 0.000000 0.026948 0.000000 0.085686
#
#
# Mechanical properties :
#
#
# Convention : Reuss Voigt Hill
#
# Bulk Modulus (GPa) = 27.47630 52.54088 40.00859
# Shear Modulus (GPa) = 19.90263 32.22329 26.06296
#
# Velocity S-wave (km/s) = 3.00352 3.82174 3.43706
# Velocity P-wave (km/s) = 4.94795 6.57945 5.82114
#
# Compressibility (1/GPa) = 0.03639500
#
# Stress axis : x y z
#
# Youngs Moduli (GPa) = 106.89317 56.01158 64.24111
#
# Poissons Ratio (x) = 0.31656 -0.01876
# Poissons Ratio (y) = 0.60413 -0.13938
# Poissons Ratio (z) = -0.03122 -0.12153
#
# Static dielectric constant tensor:
#      x y z
#    x 1.754930 0.000000 0.006530 
#    y 0.000000 1.801780 0.000000 
#    z 0.006530 0.000000 1.871440 
# 
# From -- ./inp_files/8455.got.cif
#   From: 2010.05.17/outbox.cif.g08.bks.cpg/sg14_5_cif.got.tgz:8455.got - 2010.06.03 17:49:19.
