data_PCOD9242956
_publ_section_title
;
Structure prediction by ZEFSAII (Michael W. Deem and Ramdas Pophale) SiO2 
 PCOD9242956
Probable space group: P 21/C
;
_chemical_formula_sum "Si O2"
_cell_formula_units_Z 28
_cell_length_a 9.658127
_cell_length_b 24.963611
_cell_length_c 5.845155
_cell_angle_alpha 90.000000
_cell_angle_beta 95.703733
_cell_angle_gamma 90.000000
_cell_volume 1402.299762
_symmetry_space_group_name_H-M "P 21/C"
_symmetry_group_IT_number 14
_symmetry_cell_setting 'monoclinic'
loop_
_space_group_symop_operation_xyz
x,y,z
-x,1/2+y,1/2-z
-x,-y,-z
x,1/2-y,1/2+z
loop_
_atom_site_type_symbol
_atom_site_label
_atom_site_fract_x
_atom_site_fract_y
_atom_site_fract_z
Si Si1 0.005177 0.775948 0.166567
Si Si2 0.056689 0.888602 0.999796
Si Si3 0.304317 0.952978 0.923936
Si Si4 0.581991 0.529664 0.212108
Si Si5 0.198150 0.380976 0.889507
Si Si6 0.914306 0.965220 0.303492
Si Si7 0.308786 0.238832 0.412179
O O1 0.045700 0.751170 0.424023
O O2 0.058804 0.836662 0.160137
O O3 0.836179 0.772483 0.128838
O O4 0.010907 0.943994 0.115029
O O5 0.207445 0.901131 0.919128
O O6 0.936348 0.877595 0.795539
O O7 0.459122 0.947372 0.852267
O O8 0.216520 0.997870 0.775550
O O9 0.327982 0.981487 0.168921
O O10 0.686408 0.577736 0.180726
O O11 0.500000 0.500000 0.000000
O O12 0.263317 0.322904 0.923637
O O13 0.144129 0.409530 0.108096
O O14 0.000000 0.000000 0.500000
O O15 0.377104 0.253517 0.670141
#
# Coordination Sequence:
#
# PCOD9242956 Si02
#       7
#     4   4   4   4   4   4   4
#     4  10  20  37  58  93 129 154 200 265 329 382
#     4  12  23  36  63  93 121 162 205 263 324 376
#     4  11  24  39  57  86 127 162 205 251 309 382
#     4  11  24  43  56  83 125 171 209 252 303 379
#     4  12  22  36  65  88 119 166 205 258 321 370
#     4  12  22  34  59  94 125 153 207 262 312 377
#     4  10  20  36  58  93 124 153 203 268 322 374
#
# _framework density 19.967199000000001
#
# number of rings (size 3 to 8) (size 9 to 14) (size 15 to 20)
#    0.000    0.857    7.143    3.000    0.000    0.000 
#    0.000    0.000    0.000    1.714    0.000    0.000 
#    0.000    0.000    0.000    0.000    0.000    0.000 
#
# Total GULP energy -156115.125538 kJ/mol
# GULP energy per Si atom -5575.540198 kJ/mol
# Density = 1.992175 g / cm^3
# Si number density = 19.967199 Si / 1000 Ang^3
#
#
#
# Elastic Constant Matrix: (Units=GPa)
#
#
# Indices 1 2 3 4 5 6 
#
# 1 62.9085 16.6835 7.1728 0.0000 -1.0324 0.0000
# 2 16.6835 74.3954 19.6719 0.0000 -6.5423 0.0000
# 3 7.1728 19.6719 95.3577 0.0000 5.3078 0.0000
# 4 0.0000 0.0000 0.0000 35.0067 0.0000 -8.9566
# 5 -1.0324 -6.5423 5.3078 0.0000 29.2077 0.0000
# 6 0.0000 0.0000 0.0000 -8.9566 0.0000 11.1075
#
#
#
# Elastic Compliance Matrix: (Units=1/GPa)
#
#
# Indices 1 2 3 4 5 6 
#
# 1 0.016926 -0.003673 -0.000508 0.000000 -0.000132 0.000000
# 2 -0.003673 0.015434 -0.003125 0.000000 0.003895 0.000000
# 3 -0.000508 -0.003125 0.011324 0.000000 -0.002776 0.000000
# 4 0.000000 0.000000 0.000000 0.035991 0.000000 0.029022
# 5 -0.000132 0.003895 -0.002776 0.000000 0.035610 0.000000
# 6 0.000000 0.000000 0.000000 0.029022 0.000000 0.113432
#
#
# Mechanical properties :
#
#
# Convention : Reuss Voigt Hill
#
# Bulk Modulus (GPa) = 34.39621 35.52424 34.96022
# Shear Modulus (GPa) = 19.76132 27.67325 23.71729
#
# Velocity S-wave (km/s) = 3.14935 3.72685 3.45020
# Velocity P-wave (km/s) = 5.52162 6.02903 5.78089
#
# Compressibility (1/GPa) = 0.02907297
#
# Stress axis : x y z
#
# Youngs Moduli (GPa) = 59.08087 64.79151 88.30704
#
# Poissons Ratio (x) = 0.23798 0.04487
# Poissons Ratio (y) = 0.21700 0.27592
# Poissons Ratio (z) = 0.03002 0.20244
#
# Static dielectric constant tensor:
#      x y z
#    x 1.610560 0.000000 -0.088000 
#    y 0.000000 1.706400 0.000000 
#    z -0.088000 0.000000 1.823120 
# 
# From -- ./inp_files/1883.got.cif
#   From: 2010.05.17/outbox.cif.g08.bks.cpg/sg14_1_cif.got.tgz:1883.got - 2010.06.03 17:49:19.
