data_PCOD9242199
_publ_section_title
;
Structure prediction by ZEFSAII (Michael W. Deem and Ramdas Pophale) SiO2 
 PCOD9242199
Probable space group: P 21/C
;
_chemical_formula_sum "Si O2"
_cell_formula_units_Z 28
_cell_length_a 18.361925
_cell_length_b 13.513396
_cell_length_c 5.264447
_cell_angle_alpha 90.000000
_cell_angle_beta 66.896255
_cell_angle_gamma 90.000000
_cell_volume 1201.508692
_symmetry_space_group_name_H-M "P 21/C"
_symmetry_group_IT_number 14
_symmetry_cell_setting 'monoclinic'
loop_
_space_group_symop_operation_xyz
x,y,z
-x,1/2+y,1/2-z
-x,-y,-z
x,1/2-y,1/2+z
loop_
_atom_site_type_symbol
_atom_site_label
_atom_site_fract_x
_atom_site_fract_y
_atom_site_fract_z
Si Si1 0.387826 0.693426 0.360117
Si Si2 0.527573 0.939155 0.712194
Si Si3 0.934543 0.871389 0.521266
Si Si4 0.109920 0.682079 0.858715
Si Si5 0.715400 0.922285 0.479730
Si Si6 0.744989 0.463294 0.435669
Si Si7 0.132791 0.350885 0.384647
O O1 0.369822 0.774664 0.597970
O O2 0.478437 0.662114 0.269469
O O3 0.335168 0.599235 0.495700
O O4 0.500000 0.000000 0.500000
O O5 0.621066 0.916568 0.584492
O O6 0.500000 0.000000 0.000000
O O7 0.907742 0.911838 0.287449
O O8 0.910979 0.754381 0.527745
O O9 0.026984 0.876268 0.448714
O O10 0.883883 0.906127 0.829770
O O11 0.111514 0.760453 0.624087
O O12 0.183643 0.609838 0.726611
O O13 0.737202 0.950764 0.736823
O O14 0.775458 0.835120 0.312513
O O15 0.742628 0.003359 0.232423
#
# Coordination Sequence:
#
# PCOD9242199 Si02
#       7
#     4   4   4   4   4   4   4
#     4  12  24  43  67 100 132 162 223 280 318 384
#     4  12  23  46  72  92 136 183 214 262 346 415
#     4  10  19  40  64  87 123 169 211 272 323 369
#     4  12  21  40  67  93 122 169 220 259 324 387
#     4  12  24  44  64  95 131 175 213 263 327 408
#     4  12  25  41  65  96 132 170 216 263 335 390
#     4  10  20  38  64  87 123 163 217 260 316 388
#
# _framework density 23.304037000000001
#
# number of rings (size 3 to 8) (size 9 to 14) (size 15 to 20)
#    0.000    0.571    5.714    4.286    0.000    0.000 
#    5.143    4.286    0.000    0.000    0.000    0.000 
#    0.000    0.000    0.000    0.000    0.000    0.000 
#
# Total GULP energy -156625.705109 kJ/mol
# GULP energy per Si atom -5593.775182 kJ/mol
# Density = 2.325100 g / cm^3
# Si number density = 23.304037 Si / 1000 Ang^3
#
#
#
# Elastic Constant Matrix: (Units=GPa)
#
#
# Indices 1 2 3 4 5 6 
#
# 1 116.2364 -5.2160 39.6702 0.0000 -11.5392 0.0000
# 2 -5.2160 16.7568 5.2244 0.0000 -1.6454 0.0000
# 3 39.6702 5.2244 127.6911 0.0000 9.9566 0.0000
# 4 0.0000 0.0000 0.0000 15.7862 0.0000 9.8487
# 5 -11.5392 -1.6454 9.9566 0.0000 57.5007 0.0000
# 6 0.0000 0.0000 0.0000 9.8487 0.0000 29.5719
#
#
#
# Elastic Compliance Matrix: (Units=1/GPa)
#
#
# Indices 1 2 3 4 5 6 
#
# 1 0.010326 0.004620 -0.003618 0.000000 0.002831 0.000000
# 2 0.004620 0.062788 -0.004274 0.000000 0.003464 0.000000
# 3 -0.003618 -0.004274 0.009322 0.000000 -0.002463 0.000000
# 4 0.000000 0.000000 0.000000 0.079960 0.000000 -0.026630
# 5 0.002831 0.003464 -0.002463 0.000000 0.018485 0.000000
# 6 0.000000 0.000000 0.000000 -0.026630 0.000000 0.042685
#
#
# Mechanical properties :
#
#
# Convention : Reuss Voigt Hill
#
# Bulk Modulus (GPa) = 13.17649 37.78237 25.47943
# Shear Modulus (GPa) = 19.57648 35.30548 27.44098
#
# Velocity S-wave (km/s) = 2.90150 3.89652 3.43522
# Velocity P-wave (km/s) = 4.10991 6.04084 5.16639
#
# Compressibility (1/GPa) = 0.07589273
#
# Stress axis : x y z
#
# Youngs Moduli (GPa) = 96.84045 15.92654 107.26994
#
# Poissons Ratio (x) = -0.07358 0.38809
# Poissons Ratio (y) = -0.44743 0.45852
# Poissons Ratio (z) = 0.35036 0.06808
#
# Static dielectric constant tensor:
#      x y z
#    x 1.889900 0.000000 0.032900 
#    y 0.000000 1.667510 0.000000 
#    z 0.032900 0.000000 1.925300 
# 
# From -- ./inp_files/4126.got.cif
#   From: 2010.05.17/outbox.cif.g08.bks.cpg/sg14_3_cif.got.tgz:4126.got - 2010.06.03 17:49:19.
