data_PCOD9242109
_publ_section_title
;
Structure prediction by ZEFSAII (Michael W. Deem and Ramdas Pophale) SiO2 
 PCOD9242109
Probable space group: P 21/C
;
_chemical_formula_sum "Si O2"
_cell_formula_units_Z 28
_cell_length_a 5.371227
_cell_length_b 8.056571
_cell_length_c 28.816512
_cell_angle_alpha 90.000000
_cell_angle_beta 67.665526
_cell_angle_gamma 90.000000
_cell_volume 1153.448162
_symmetry_space_group_name_H-M "P 21/C"
_symmetry_group_IT_number 14
_symmetry_cell_setting 'monoclinic'
loop_
_space_group_symop_operation_xyz
x,y,z
-x,1/2+y,1/2-z
-x,-y,-z
x,1/2-y,1/2+z
loop_
_atom_site_type_symbol
_atom_site_label
_atom_site_fract_x
_atom_site_fract_y
_atom_site_fract_z
Si Si1 0.719668 0.907603 0.907769
Si Si2 0.198580 0.840224 0.362440
Si Si3 0.802986 0.697037 0.169256
Si Si4 0.951263 0.633809 0.564333
Si Si5 0.222672 0.766695 0.960504
Si Si6 0.199983 0.794446 0.225965
Si Si7 0.705070 0.852306 0.806378
O O1 0.536616 0.784161 0.950600
O O2 0.995895 0.813321 0.876883
O O3 0.625274 0.928494 0.861922
O O4 0.767230 0.072518 0.932813
O O5 0.226462 0.856227 0.416608
O O6 0.475277 0.785510 0.318034
O O7 0.100331 0.010797 0.347993
O O8 0.807632 0.791134 0.119220
O O9 0.485964 0.701171 0.205022
O O10 0.008026 0.774864 0.193084
O O11 0.833566 0.460454 0.552028
O O12 0.021055 0.755854 0.517153
O O13 0.278870 0.986728 0.226962
O O14 0.995767 0.730819 0.279563
#
# Coordination Sequence:
#
# PCOD9242109 Si02
#       7
#     4   4   4   4   4   4   4
#     4  10  19  39  64  93 129 176 225 279 339 413
#     4  10  24  41  65  96 138 177 224 281 345 407
#     4  12  27  45  67 103 141 181 226 291 340 419
#     4  10  20  40  65  97 135 175 232 281 345 409
#     4   9  20  38  67  96 130 179 229 280 343 415
#     4  12  28  45  72 100 136 181 235 281 352 407
#     4  11  25  44  69  97 136 181 228 290 341 420
#
# _framework density 24.275041999999999
#
# number of rings (size 3 to 8) (size 9 to 14) (size 15 to 20)
#    0.000    1.429    1.429    3.857    8.000    0.571 
#    0.000    0.714    0.000    0.000    0.000    0.000 
#    0.000    0.000    0.000    0.000    0.000    0.000 
#
# Total GULP energy -156142.102604 kJ/mol
# GULP energy per Si atom -5576.503664 kJ/mol
# Density = 2.421979 g / cm^3
# Si number density = 24.275042 Si / 1000 Ang^3
#
#
#
# Elastic Constant Matrix: (Units=GPa)
#
#
# Indices 1 2 3 4 5 6 
#
# 1 66.4756 6.0106 45.9650 0.0000 -9.0095 0.0000
# 2 6.0106 62.8830 5.3800 0.0000 9.0657 0.0000
# 3 45.9650 5.3800 125.6640 0.0000 -11.6030 0.0000
# 4 0.0000 0.0000 0.0000 28.9553 0.0000 4.7449
# 5 -9.0095 9.0657 -11.6030 0.0000 22.5912 0.0000
# 6 0.0000 0.0000 0.0000 4.7449 0.0000 21.0376
#
#
#
# Elastic Compliance Matrix: (Units=1/GPa)
#
#
# Indices 1 2 3 4 5 6 
#
# 1 0.020852 -0.002199 -0.007016 0.000000 0.005595 0.000000
# 2 -0.002199 0.017354 -0.000695 0.000000 -0.008198 0.000000
# 3 -0.007016 -0.000695 0.010835 0.000000 0.003046 0.000000
# 4 0.000000 0.000000 0.000000 0.035862 0.000000 -0.008088
# 5 0.005595 -0.008198 0.003046 0.000000 0.051351 0.000000
# 6 0.000000 0.000000 0.000000 -0.008088 0.000000 0.049358
#
#
# Mechanical properties :
#
#
# Convention : Reuss Voigt Hill
#
# Bulk Modulus (GPa) = 34.22464 41.08152 37.65308
# Shear Modulus (GPa) = 23.23704 27.69461 25.46582
#
# Velocity S-wave (km/s) = 3.09729 3.38134 3.24242
# Velocity P-wave (km/s) = 5.18847 5.67492 5.43714
#
# Compressibility (1/GPa) = 0.02921872
#
# Stress axis : x y z
#
# Youngs Moduli (GPa) = 47.95762 57.62283 92.29211
#
# Poissons Ratio (x) = 0.12673 0.64755
# Poissons Ratio (y) = 0.10548 0.06419
# Poissons Ratio (z) = 0.33649 0.04008
#
# Static dielectric constant tensor:
#      x y z
#    x 2.177830 0.000000 0.066690 
#    y 0.000000 1.893410 0.000000 
#    z 0.066690 0.000000 2.023730 
# 
# From -- ./inp_files/75646.got.cif
#   From: 2010.05.17/outbox.cif.g08.bks.cpg/sg14_38_cif.got.tgz:75646.got - 2010.06.03 17:49:19.
