data_PCOD9242341
_publ_section_title
;
Structure prediction by ZEFSAII (Michael W. Deem and Ramdas Pophale) SiO2 
 PCOD9242341
Probable space group: P 21/C
;
_chemical_formula_sum "Si O2"
_cell_formula_units_Z 28
_cell_length_a 11.690667
_cell_length_b 17.909428
_cell_length_c 5.817411
_cell_angle_alpha 90.000000
_cell_angle_beta 81.866179
_cell_angle_gamma 90.000000
_cell_volume 1205.756921
_symmetry_space_group_name_H-M "P 21/C"
_symmetry_group_IT_number 14
_symmetry_cell_setting 'monoclinic'
loop_
_space_group_symop_operation_xyz
x,y,z
-x,1/2+y,1/2-z
-x,-y,-z
x,1/2-y,1/2+z
loop_
_atom_site_type_symbol
_atom_site_label
_atom_site_fract_x
_atom_site_fract_y
_atom_site_fract_z
Si Si1 0.562762 0.550998 0.789938
Si Si2 0.043022 0.056034 0.299274
Si Si3 0.941345 0.716302 0.777508
Si Si4 0.329462 0.230775 0.138676
Si Si5 0.660904 0.060951 0.880729
Si Si6 0.898484 0.091216 0.952956
Si Si7 0.279047 0.413219 0.873835
O O1 0.457220 0.592665 0.692158
O O2 0.621965 0.491909 0.602561
O O3 0.500000 0.500000 0.000000
O O4 0.657500 0.598356 0.902375
O O5 0.144607 0.103900 0.380034
O O6 0.098483 0.998876 0.094999
O O7 0.000000 0.000000 0.500000
O O8 0.940173 0.098592 0.203345
O O9 0.978713 0.753473 0.518780
O O10 0.005686 0.636548 0.717769
O O11 0.801383 0.732745 0.820323
O O12 0.380520 0.247938 0.874158
O O13 0.329583 0.140630 0.165280
O O14 0.767566 0.112209 0.926289
O O15 0.708091 0.000780 0.681614
#
# Coordination Sequence:
#
# PCOD9242341 Si02
#       7
#     4   4   4   4   4   4   4
#     4   9  18  35  58  85 109 141 186 237 308 361
#     4  10  20  30  51  84 115 148 180 238 303 355
#     4  10  22  39  56  78 114 164 207 237 276 345
#     4  10  22  35  54  80 114 160 201 235 282 344
#     4   9  19  36  57  87 113 145 189 242 312 353
#     4  10  21  34  53  82 116 151 193 240 291 353
#     4  10  20  33  54  82 114 150 190 244 294 351
#
# _framework density 23.221928999999999
#
# number of rings (size 3 to 8) (size 9 to 14) (size 15 to 20)
#    0.000    2.286    0.000    2.571    8.000    0.000 
#    0.000    0.000    0.000    1.714    0.000    0.000 
#    0.000    0.000    0.000    0.000    0.000    0.000 
#
# Total GULP energy -155909.828884 kJ/mol
# GULP energy per Si atom -5568.208174 kJ/mol
# Density = 2.316907 g / cm^3
# Si number density = 23.221929 Si / 1000 Ang^3
#
#
#
# Elastic Constant Matrix: (Units=GPa)
#
#
# Indices 1 2 3 4 5 6 
#
# 1 127.0114 22.8285 51.9810 0.0000 47.4589 0.0000
# 2 22.8285 63.3701 13.8723 0.0000 12.5381 0.0000
# 3 51.9810 13.8723 131.8934 0.0000 27.2727 0.0000
# 4 0.0000 0.0000 0.0000 32.9178 0.0000 -3.7026
# 5 47.4589 12.5381 27.2727 0.0000 39.8001 0.0000
# 6 0.0000 0.0000 0.0000 -3.7026 0.0000 22.5940
#
#
#
# Elastic Compliance Matrix: (Units=1/GPa)
#
#
# Indices 1 2 3 4 5 6 
#
# 1 0.015093 -0.001778 -0.002512 0.000000 -0.015717 0.000000
# 2 -0.001778 0.017109 -0.000492 0.000000 -0.002932 0.000000
# 3 -0.002512 -0.000492 0.009288 0.000000 -0.003215 0.000000
# 4 0.000000 0.000000 0.000000 0.030949 0.000000 0.005072
# 5 -0.015717 -0.002932 -0.003215 0.000000 0.046993 0.000000
# 6 0.000000 0.000000 0.000000 0.005072 0.000000 0.045091
#
#
# Mechanical properties :
#
#
# Convention : Reuss Voigt Hill
#
# Bulk Modulus (GPa) = 31.32186 55.51538 43.41862
# Shear Modulus (GPa) = 27.06656 34.63524 30.85090
#
# Velocity S-wave (km/s) = 3.41773 3.86617 3.64885
# Velocity P-wave (km/s) = 5.39369 6.62480 6.04069
#
# Compressibility (1/GPa) = 0.03192659
#
# Stress axis : x y z
#
# Youngs Moduli (GPa) = 66.25369 58.44971 107.66268
#
# Poissons Ratio (x) = 0.10391 0.27041
# Poissons Ratio (y) = 0.11779 0.05302
# Poissons Ratio (z) = 0.16641 0.02878
#
# Static dielectric constant tensor:
#      x y z
#    x 1.935440 0.000000 0.040230 
#    y 0.000000 1.918630 0.000000 
#    z 0.040230 0.000000 1.987810 
# 
# From -- ./inp_files/2861.got.cif
#   From: 2010.05.17/outbox.cif.g08.bks.cpg/sg14_2_cif.got.tgz:2861.got - 2010.06.03 17:49:19.
