data_PCOD9242518
_publ_section_title
;
Structure prediction by ZEFSAII (Michael W. Deem and Ramdas Pophale) SiO2 
 PCOD9242518
Probable space group: P 21/C
;
_chemical_formula_sum "Si O2"
_cell_formula_units_Z 28
_cell_length_a 31.719941
_cell_length_b 8.556240
_cell_length_c 10.808669
_cell_angle_alpha 90.000000
_cell_angle_beta 31.578241
_cell_angle_gamma 90.000000
_cell_volume 1536.168825
_symmetry_space_group_name_H-M "P 21/C"
_symmetry_group_IT_number 14
_symmetry_cell_setting 'monoclinic'
loop_
_space_group_symop_operation_xyz
x,y,z
-x,1/2+y,1/2-z
-x,-y,-z
x,1/2-y,1/2+z
loop_
_atom_site_type_symbol
_atom_site_label
_atom_site_fract_x
_atom_site_fract_y
_atom_site_fract_z
Si Si1 0.608687 0.037844 0.118033
Si Si2 0.208989 0.871768 0.622455
Si Si3 0.515882 0.749983 0.460283
Si Si4 0.208892 0.871717 0.332793
Si Si5 0.927967 0.874674 0.320541
Si Si6 0.391418 0.537895 0.660989
Si Si7 0.927842 0.625260 0.539925
O O1 0.547011 0.183066 0.281801
O O2 0.571576 0.895810 0.287522
O O3 0.698449 0.087586 0.929048
O O4 0.613119 0.981413 0.967299
O O5 0.204918 0.816132 0.487692
O O6 0.180822 0.750094 0.797945
O O7 0.301687 0.912195 0.420827
O O8 0.154145 0.025708 0.765963
O O9 0.453170 0.683005 0.516134
O O10 0.571518 0.604166 0.354949
O O11 0.153922 0.025478 0.463813
O O12 0.933600 0.749929 0.415975
O O13 0.931764 0.807406 0.170569
O O14 0.000127 0.999823 0.150179
#
# Coordination Sequence:
#
# PCOD9242518 Si02
#       7
#     4   4   4   4   4   4   4
#     4  10  20  35  53  77 108 143 184 233 278 327
#     4  10  21  38  57  82 115 147 187 231 277 330
#     4  10  20  34  54  76 104 144 186 230 276 338
#     4  10  21  38  57  82 115 147 187 231 277 330
#     4  10  22  39  61  88 117 148 184 228 274 330
#     4  10  20  35  53  77 108 143 184 233 278 327
#     4  10  22  39  61  88 117 148 184 228 274 330
#
# _framework density 18.227162
#
# number of rings (size 3 to 8) (size 9 to 14) (size 15 to 20)
#    0.000    2.000    1.429    1.714    2.000    1.714 
#    0.000    1.429    0.000    0.000    0.000    0.000 
#    0.000    0.000    0.000    0.000    0.000    0.000 
#
# Total GULP energy -156011.944855 kJ/mol
# GULP energy per Si atom -5571.855173 kJ/mol
# Density = 1.818568 g / cm^3
# Si number density = 18.227162 Si / 1000 Ang^3
#
#
#
# Elastic Constant Matrix: (Units=GPa)
#
#
# Indices 1 2 3 4 5 6 
#
# 1 102.7227 49.5443 40.6279 0.0000 11.7333 0.0000
# 2 49.5443 59.5167 34.3764 0.0000 25.3963 0.0000
# 3 40.6279 34.3764 88.7442 0.0000 12.0574 0.0000
# 4 0.0000 0.0000 0.0000 23.2354 0.0000 7.7179
# 5 11.7333 25.3963 12.0574 0.0000 27.1751 0.0000
# 6 0.0000 0.0000 0.0000 7.7179 0.0000 27.7760
#
#
#
# Elastic Compliance Matrix: (Units=1/GPa)
#
#
# Indices 1 2 3 4 5 6 
#
# 1 0.018365 -0.017980 -0.002818 0.000000 0.010124 0.000000
# 2 -0.017980 0.051641 -0.006672 0.000000 -0.037537 0.000000
# 3 -0.002818 -0.006672 0.015037 0.000000 0.000780 0.000000
# 4 0.000000 0.000000 0.000000 0.047414 0.000000 -0.013174
# 5 0.010124 -0.037537 0.000780 0.000000 0.067161 0.000000
# 6 0.000000 0.000000 0.000000 -0.013174 0.000000 0.039663
#
#
# Mechanical properties :
#
#
# Convention : Reuss Voigt Hill
#
# Bulk Modulus (GPa) = 33.22118 55.56453 44.39285
# Shear Modulus (GPa) = 16.43349 24.06630 20.24990
#
# Velocity S-wave (km/s) = 3.00591 3.63761 3.33674
# Velocity P-wave (km/s) = 5.50573 6.94216 6.26525
#
# Compressibility (1/GPa) = 0.03010128
#
# Stress axis : x y z
#
# Youngs Moduli (GPa) = 54.45032 19.36453 66.50179
#
# Poissons Ratio (x) = 0.34818 0.18743
# Poissons Ratio (y) = 0.97904 0.44371
# Poissons Ratio (z) = 0.15347 0.12920
#
# Static dielectric constant tensor:
#      x y z
#    x 1.657750 0.000000 0.005750 
#    y 0.000000 1.613020 0.000000 
#    z 0.005750 0.000000 1.654500 
# 
# From -- ./inp_files/19682.got.cif
#   From: 2010.05.17/outbox.cif.g08.bks.cpg/sg14_10_cif.got.tgz:19682.got - 2010.06.03 17:49:19.
