data_PCOD9242503
_publ_section_title
;
Structure prediction by ZEFSAII (Michael W. Deem and Ramdas Pophale) SiO2 
 PCOD9242503
Probable space group: P 21/C
;
_chemical_formula_sum "Si O2"
_cell_formula_units_Z 28
_cell_length_a 26.151005
_cell_length_b 11.081696
_cell_length_c 25.647338
_cell_angle_alpha 90.000000
_cell_angle_beta 11.263130
_cell_angle_gamma 90.000000
_cell_volume 1451.685960
_symmetry_space_group_name_H-M "P 21/C"
_symmetry_group_IT_number 14
_symmetry_cell_setting 'monoclinic'
loop_
_space_group_symop_operation_xyz
x,y,z
-x,1/2+y,1/2-z
-x,-y,-z
x,1/2-y,1/2+z
loop_
_atom_site_type_symbol
_atom_site_label
_atom_site_fract_x
_atom_site_fract_y
_atom_site_fract_z
Si Si1 0.499999 0.999993 0.729627
Si Si2 0.243402 0.916505 0.816220
Si Si3 0.868368 0.845284 0.834900
Si Si4 0.625851 0.234447 0.216734
Si Si5 0.131616 0.154728 0.571656
Si Si6 0.625832 0.265563 0.031584
Si Si7 0.756590 0.083495 0.303031
O O1 0.405319 0.886707 0.788630
O O2 0.737045 0.957964 0.529812
O O3 0.594662 0.113278 0.599285
O O4 0.262974 0.042024 0.003888
O O5 0.294259 0.811821 0.806457
O O6 0.194295 0.876431 0.805705
O O7 0.499998 0.999999 0.559808
O O8 0.999997 0.000000 0.076489
O O9 0.870945 0.750008 0.879054
O O10 0.150573 0.824972 0.527146
O O11 0.651563 0.800680 0.010146
O O12 0.348421 0.199328 0.313290
O O13 0.849412 0.175045 0.828312
O O14 0.705727 0.311822 0.894989
#
# Coordination Sequence:
#
# PCOD9242503 Si02
#       7
#     4   4   4   4   4   4   4
#     4  10  22  38  53  78 119 148 176 236 262 322
#     4  10  20  34  53  78 106 140 176 220 281 332
#     4  10  22  34  51  78 104 146 189 208 266 329
#     4  11  21  35  54  78 107 146 177 219 273 324
#     4  10  22  34  51  78 104 146 189 208 266 329
#     4  11  21  35  54  78 107 146 177 219 273 324
#     4  10  20  34  53  78 106 140 176 220 281 332
#
# _framework density 19.287918000000001
#
# number of rings (size 3 to 8) (size 9 to 14) (size 15 to 20)
#    0.000    1.714    1.429    4.286    4.000    5.714 
#    0.000    0.000    0.000    0.000    0.000    6.000 
#    0.000    0.000    0.000    0.000    0.000    0.000 
#
# Total GULP energy -156238.617301 kJ/mol
# GULP energy per Si atom -5579.950618 kJ/mol
# Density = 1.924402 g / cm^3
# Si number density = 19.287918 Si / 1000 Ang^3
#
#
#
# Elastic Constant Matrix: (Units=GPa)
#
#
# Indices 1 2 3 4 5 6 
#
# 1 73.8725 17.9176 2.6865 0.0000 3.1916 0.0000
# 2 17.9176 43.2016 11.0035 0.0000 0.9459 0.0000
# 3 2.6865 11.0035 112.2200 0.0000 -8.4540 0.0000
# 4 0.0000 0.0000 0.0000 16.8688 0.0000 3.5380
# 5 3.1916 0.9459 -8.4540 0.0000 25.5393 0.0000
# 6 0.0000 0.0000 0.0000 3.5380 0.0000 42.6761
#
#
#
# Elastic Compliance Matrix: (Units=1/GPa)
#
#
# Indices 1 2 3 4 5 6 
#
# 1 0.015123 -0.006270 0.000131 0.000000 -0.001614 0.000000
# 2 -0.006270 0.026411 -0.002517 0.000000 -0.001028 0.000000
# 3 0.000131 -0.002517 0.009395 0.000000 0.003187 0.000000
# 4 0.000000 0.000000 0.000000 0.060330 0.000000 -0.005002
# 5 -0.001614 -0.001028 0.003187 0.000000 0.040450 0.000000
# 6 0.000000 0.000000 0.000000 -0.005002 0.000000 0.023847
#
#
# Mechanical properties :
#
#
# Convention : Reuss Voigt Hill
#
# Bulk Modulus (GPa) = 29.74699 32.50104 31.12402
# Shear Modulus (GPa) = 24.50100 30.19595 27.34848
#
# Velocity S-wave (km/s) = 3.56796 3.96098 3.76960
# Velocity P-wave (km/s) = 5.69472 6.14867 5.92605
#
# Compressibility (1/GPa) = 0.03361685
#
# Stress axis : x y z
#
# Youngs Moduli (GPa) = 66.12621 37.86252 106.44189
#
# Poissons Ratio (x) = 0.23740 -0.01396
# Poissons Ratio (y) = 0.41462 0.26792
# Poissons Ratio (z) = -0.00867 0.09530
#
# Static dielectric constant tensor:
#      x y z
#    x 1.666920 0.000000 -0.006630 
#    y 0.000000 1.767850 0.000000 
#    z -0.006630 0.000000 1.715330 
# 
# From -- ./inp_files/78299.got.cif
#   From: 2010.05.17/outbox.cif.g08.bks.cpg/sg14_40_cif.got.tgz:78299.got - 2010.06.03 17:49:19.
