data_PCOD9242392
_publ_section_title
;
Structure prediction by ZEFSAII (Michael W. Deem and Ramdas Pophale) SiO2 
 PCOD9242392
Probable space group: P 21/C
;
_chemical_formula_sum "Si O2"
_cell_formula_units_Z 30
_cell_length_a 5.186521
_cell_length_b 7.682358
_cell_length_c 29.921764
_cell_angle_alpha 90.000000
_cell_angle_beta 64.087793
_cell_angle_gamma 90.000000
_cell_volume 1072.363437
_symmetry_space_group_name_H-M "P 21/C"
_symmetry_group_IT_number 14
_symmetry_cell_setting 'monoclinic'
loop_
_space_group_symop_operation_xyz
x,y,z
-x,1/2+y,1/2-z
-x,-y,-z
x,1/2-y,1/2+z
loop_
_atom_site_type_symbol
_atom_site_label
_atom_site_fract_x
_atom_site_fract_y
_atom_site_fract_z
Si Si1 0.495301 0.239751 0.538307
Si Si2 0.650674 0.871458 0.551006
Si Si3 0.602325 0.044413 0.338320
Si Si4 0.690719 0.644721 0.694642
Si Si5 0.845368 0.890098 0.754830
Si Si6 0.673618 0.816146 0.856877
Si Si7 0.000000 0.500000 0.500000
Si Si8 0.144340 0.056818 0.906805
O O1 0.439979 0.190977 0.490938
O O2 0.274106 0.243859 0.597426
O O3 0.683419 0.411466 0.526914
O O4 0.710845 0.075953 0.538142
O O5 0.855754 0.716803 0.555885
O O6 0.426723 0.880645 0.609206
O O7 0.495949 0.845624 0.347885
O O8 0.922156 0.032906 0.296137
O O9 0.444349 0.181557 0.318447
O O10 0.441570 0.504856 0.721748
O O11 0.926830 0.596110 0.638823
O O12 0.799809 0.705409 0.734077
O O13 0.915928 0.859881 0.801889
O O14 0.459216 0.978036 0.876825
O O15 0.942055 0.563231 0.451158
#
# Coordination Sequence:
#
# PCOD9242392 Si02
#       8
#     4   4   4   4   4   4   2   4
#     4   9  19  36  60  82 119 157 195 254 301 367
#     4   9  19  37  61  83 114 159 200 246 310 364
#     4  10  20  37  62  85 113 155 200 248 300 371
#     4  10  22  37  58  87 116 154 194 252 300 355
#     4  11  21  36  61  83 117 156 197 242 305 367
#     4   9  19  36  56  81 119 151 191 247 299 355
#     4  10  20  32  56  82 120 148 194 246 298 362
#     4   9  20  37  58  82 118 152 192 249 302 357
#
# _framework density 27.97559
#
# number of rings (size 3 to 8) (size 9 to 14) (size 15 to 20)
#    0.000    2.400    0.000    1.600    1.867    2.667 
#    0.000    1.333   49.867    0.000    0.000    0.000 
#    0.000    0.000    0.000    0.000    0.000    0.000 
#
# Total GULP energy -167089.145964 kJ/mol
# GULP energy per Si atom -5569.638199 kJ/mol
# Density = 2.791192 g / cm^3
# Si number density = 27.975590 Si / 1000 Ang^3
#
#
#
# Elastic Constant Matrix: (Units=GPa)
#
#
# Indices 1 2 3 4 5 6 
#
# 1 31.1475 6.9198 50.2170 0.0000 0.7541 0.0000
# 2 6.9198 97.6092 21.2361 0.0000 10.4674 0.0000
# 3 50.2170 21.2361 234.5304 0.0000 28.5292 0.0000
# 4 0.0000 0.0000 0.0000 53.5784 0.0000 10.1497
# 5 0.7541 10.4674 28.5292 0.0000 40.5375 0.0000
# 6 0.0000 0.0000 0.0000 10.1497 0.0000 25.0591
#
#
#
# Elastic Compliance Matrix: (Units=1/GPa)
#
#
# Indices 1 2 3 4 5 6 
#
# 1 0.051307 -0.001917 -0.011763 0.000000 0.007819 0.000000
# 2 -0.001917 0.010709 -0.000249 0.000000 -0.002555 0.000000
# 3 -0.011763 -0.000249 0.007405 0.000000 -0.004928 0.000000
# 4 0.000000 0.000000 0.000000 0.020215 0.000000 -0.008188
# 5 0.007819 -0.002555 -0.004928 0.000000 0.028651 0.000000
# 6 0.000000 0.000000 0.000000 -0.008188 0.000000 0.043222
#
#
# Mechanical properties :
#
#
# Convention : Reuss Voigt Hill
#
# Bulk Modulus (GPa) = 24.05951 57.78143 40.92047
# Shear Modulus (GPa) = 24.60388 42.82930 33.71659
#
# Velocity S-wave (km/s) = 2.96881 3.91698 3.47539
# Velocity P-wave (km/s) = 4.51339 6.41530 5.54647
#
# Compressibility (1/GPa) = 0.04156360
#
# Stress axis : x y z
#
# Youngs Moduli (GPa) = 19.49049 93.38089 135.05207
#
# Poissons Ratio (x) = 0.17897 1.58866
# Poissons Ratio (y) = 0.03735 0.03356
# Poissons Ratio (z) = 0.22927 0.02321
#
# Static dielectric constant tensor:
#      x y z
#    x 2.262580 0.000000 0.140270 
#    y 0.000000 1.804880 0.000000 
#    z 0.140270 0.000000 2.002150 
# 
# From -- ./inp_files/78790.got.cif
#   From: 2010.05.17/outbox.cif.g08.bks.cpg/sg14_40_cif.got.tgz:78790.got - 2010.06.03 17:49:19.
