data_PCOD9242686
_publ_section_title
;
Structure prediction by ZEFSAII (Michael W. Deem and Ramdas Pophale) SiO2 
 PCOD9242686
Probable space group: P 21/C
;
_chemical_formula_sum "Si O2"
_cell_formula_units_Z 24
_cell_length_a 15.087185
_cell_length_b 16.146877
_cell_length_c 4.979144
_cell_angle_alpha 90.000000
_cell_angle_beta 95.419642
_cell_angle_gamma 90.000000
_cell_volume 1207.551428
_symmetry_space_group_name_H-M "P 21/C"
_symmetry_group_IT_number 14
_symmetry_cell_setting 'monoclinic'
loop_
_space_group_symop_operation_xyz
x,y,z
-x,1/2+y,1/2-z
-x,-y,-z
x,1/2-y,1/2+z
loop_
_atom_site_type_symbol
_atom_site_label
_atom_site_fract_x
_atom_site_fract_y
_atom_site_fract_z
Si Si1 0.805920 0.418944 0.119458
Si Si2 0.040654 0.804982 0.131946
Si Si3 0.832184 0.693907 0.635113
Si Si4 0.442267 0.971381 0.733479
Si Si5 0.248607 0.018101 0.871499
Si Si6 0.355480 0.804604 0.546756
O O1 0.894624 0.377754 0.259036
O O2 0.757605 0.463471 0.358961
O O3 0.817786 0.482486 0.876878
O O4 0.741988 0.347144 0.980272
O O5 0.056907 0.727060 0.335927
O O6 0.936991 0.827418 0.135769
O O7 0.814849 0.767527 0.420754
O O8 0.775984 0.611923 0.568896
O O9 0.344928 0.010314 0.759118
O O10 0.421897 0.874868 0.672179
O O11 0.500000 0.000000 0.500000
O O12 0.500000 0.000000 0.000000
O O13 0.365534 0.773096 0.246632
#
# Coordination Sequence:
#
# PCOD9242686 Si02
#       6
#     4   4   4   4   4   4
#     4  11  21  35  59  89 120 152 189 236 289 353
#     4  10  20  35  56  85 121 159 193 232 284 335
#     4  10  22  40  59  82 117 157 199 242 280 334
#     4  11  23  42  62  84 118 153 189 242 298 350
#     4  11  23  39  60  86 113 154 197 238 300 348
#     4  11  21  37  60  88 117 147 186 233 288 347
#
# _framework density 19.874931
#
# number of rings (size 3 to 8) (size 9 to 14) (size 15 to 20)
#    0.000    1.333    0.000    8.000    0.000    1.333 
#    0.000    5.000    0.000    0.000    0.000    0.000 
#    0.000    0.000    0.000    0.000    0.000    0.000 
#
# Total GULP energy -134051.206470 kJ/mol
# GULP energy per Si atom -5585.466936 kJ/mol
# Density = 1.982970 g / cm^3
# Si number density = 19.874931 Si / 1000 Ang^3
#
#
#
# Elastic Constant Matrix: (Units=GPa)
#
#
# Indices 1 2 3 4 5 6 
#
# 1 50.3044 40.8293 12.6218 0.0000 4.9347 0.0000
# 2 40.8293 75.0247 4.6005 0.0000 8.0498 0.0000
# 3 12.6218 4.6005 95.1806 0.0000 -0.9619 0.0000
# 4 0.0000 0.0000 0.0000 40.4525 0.0000 10.5852
# 5 4.9347 8.0498 -0.9619 0.0000 22.7301 0.0000
# 6 0.0000 0.0000 0.0000 10.5852 0.0000 24.9808
#
#
#
# Elastic Compliance Matrix: (Units=1/GPa)
#
#
# Indices 1 2 3 4 5 6 
#
# 1 0.037061 -0.019796 -0.003970 0.000000 -0.001203 0.000000
# 2 -0.019796 0.024479 0.001398 0.000000 -0.004312 0.000000
# 3 -0.003970 0.001398 0.010974 0.000000 0.000831 0.000000
# 4 0.000000 0.000000 0.000000 0.027803 0.000000 -0.011781
# 5 -0.001203 -0.004312 0.000831 0.000000 0.045818 0.000000
# 6 0.000000 0.000000 0.000000 -0.011781 0.000000 0.045023
#
#
# Mechanical properties :
#
#
# Convention : Reuss Voigt Hill
#
# Bulk Modulus (GPa) = 35.99988 37.40146 36.70067
# Shear Modulus (GPa) = 20.39548 28.46322 24.42935
#
# Velocity S-wave (km/s) = 3.20690 3.78844 3.50973
# Velocity P-wave (km/s) = 5.64489 6.16406 5.91018
#
# Compressibility (1/GPa) = 0.02777787
#
# Stress axis : x y z
#
# Youngs Moduli (GPa) = 26.98283 40.85087 91.12788
#
# Poissons Ratio (x) = 0.80870 0.36177
# Poissons Ratio (y) = 0.53416 -0.12743
# Poissons Ratio (z) = 0.10712 -0.05713
#
# Static dielectric constant tensor:
#      x y z
#    x 1.722070 0.000000 0.022980 
#    y 0.000000 1.708200 0.000000 
#    z 0.022980 0.000000 1.689920 
# 
# From -- ./inp_files/3534.got.cif
#   From: 2010.05.17/outbox.cif.g08.bks.cpg/sg14_2_cif.got.tgz:3534.got - 2010.06.03 17:49:19.
