data_PCOD9242129
_publ_section_title
;
Structure prediction by ZEFSAII (Michael W. Deem and Ramdas Pophale) SiO2 
 PCOD9242129
Probable space group: P 21/C
;
_chemical_formula_sum "Si O2"
_cell_formula_units_Z 24
_cell_length_a 11.752975
_cell_length_b 8.167109
_cell_length_c 12.582282
_cell_angle_alpha 90.000000
_cell_angle_beta 46.286497
_cell_angle_gamma 90.000000
_cell_volume 872.963949
_symmetry_space_group_name_H-M "P 21/C"
_symmetry_group_IT_number 14
_symmetry_cell_setting 'monoclinic'
loop_
_space_group_symop_operation_xyz
x,y,z
-x,1/2+y,1/2-z
-x,-y,-z
x,1/2-y,1/2+z
loop_
_atom_site_type_symbol
_atom_site_label
_atom_site_fract_x
_atom_site_fract_y
_atom_site_fract_z
Si Si1 0.610545 0.367207 0.579395
Si Si2 0.341181 0.314915 0.158670
Si Si3 0.106639 0.497211 0.823267
Si Si4 0.798082 0.912273 0.464711
Si Si5 0.624637 0.362623 0.253044
Si Si6 0.848397 0.946313 0.030318
O O1 0.519089 0.245789 0.560201
O O2 0.525949 0.539200 0.610206
O O3 0.569510 0.290278 0.721269
O O4 0.791079 0.415401 0.483366
O O5 0.218526 0.160394 0.241522
O O6 0.308721 0.398488 0.068978
O O7 0.286867 0.423066 0.292894
O O8 0.233516 0.644674 0.753328
O O9 0.965605 0.503024 0.830477
O O10 0.000000 0.500000 0.000000
O O11 0.848505 0.731869 0.474856
O O12 0.705441 0.018674 0.611762
O O13 0.000000 0.000000 0.000000
#
# Coordination Sequence:
#
# PCOD9242129 Si02
#       6
#     4   4   4   4   4   4
#     4  11  21  42  67  92 130 172 218 267 326 395
#     4  11  24  41  65  99 130 173 221 267 330 391
#     4   9  18  39  63  85 126 173 207 269 322 370
#     4  11  23  41  65  96 133 165 223 272 326 393
#     4  10  19  39  66  89 124 176 214 266 329 380
#     4  12  25  43  66  98 131 175 222 272 326 393
#
# _framework density 27.492543000000001
#
# number of rings (size 3 to 8) (size 9 to 14) (size 15 to 20)
#    0.000    1.333    6.667    1.000    4.667    1.333 
#    0.000    0.000    0.000    0.000    0.000    0.000 
#    0.000    0.000    0.000    0.000    0.000    0.000 
#
# Total GULP energy -134292.112575 kJ/mol
# GULP energy per Si atom -5595.504691 kJ/mol
# Density = 2.742997 g / cm^3
# Si number density = 27.492543 Si / 1000 Ang^3
#
#
#
# Elastic Constant Matrix: (Units=GPa)
#
#
# Indices 1 2 3 4 5 6 
#
# 1 205.5513 57.4624 32.5941 0.0000 -40.6639 0.0000
# 2 57.4624 86.5185 23.2506 0.0000 -8.8547 0.0000
# 3 32.5941 23.2506 109.2593 0.0000 -14.8967 0.0000
# 4 0.0000 0.0000 0.0000 31.3927 0.0000 -6.7596
# 5 -40.6639 -8.8547 -14.8967 0.0000 44.3858 0.0000
# 6 0.0000 0.0000 0.0000 -6.7596 0.0000 52.5690
#
#
#
# Elastic Compliance Matrix: (Units=1/GPa)
#
#
# Indices 1 2 3 4 5 6 
#
# 1 0.007192 -0.004064 -0.000516 0.000000 0.005605 0.000000
# 2 -0.004064 0.014672 -0.002115 0.000000 -0.001506 0.000000
# 3 -0.000516 -0.002115 0.010097 0.000000 0.002494 0.000000
# 4 0.000000 0.000000 0.000000 0.032762 0.000000 0.004213
# 5 0.005605 -0.001506 0.002494 0.000000 0.028201 0.000000
# 6 0.000000 0.000000 0.000000 0.004213 0.000000 0.019564
#
#
# Mechanical properties :
#
#
# Convention : Reuss Voigt Hill
#
# Bulk Modulus (GPa) = 53.85383 69.77145 61.81264
# Shear Modulus (GPa) = 37.85935 44.87096 41.36516
#
# Velocity S-wave (km/s) = 3.71492 4.04433 3.88312
# Velocity P-wave (km/s) = 6.16700 6.87329 6.52971
#
# Compressibility (1/GPa) = 0.01856878
#
# Stress axis : x y z
#
# Youngs Moduli (GPa) = 139.04853 68.15846 99.04238
#
# Poissons Ratio (x) = 0.27700 0.05115
# Poissons Ratio (y) = 0.56511 0.20949
# Poissons Ratio (z) = 0.07181 0.14416
#
# Static dielectric constant tensor:
#      x y z
#    x 2.251510 0.000000 0.071450 
#    y 0.000000 2.177190 0.000000 
#    z 0.071450 0.000000 2.206690 
# 
# From -- ./inp_files/42980.got.cif
#   From: 2010.05.17/outbox.cif.g08.bks.cpg/sg14_22_cif.got.tgz:42980.got - 2010.06.03 17:49:19.
