data_PCOD9242443
_publ_section_title
;
Structure prediction by ZEFSAII (Michael W. Deem and Ramdas Pophale) SiO2 
 PCOD9242443
Probable space group: P 21/C
;
_chemical_formula_sum "Si O2"
_cell_formula_units_Z 28
_cell_length_a 17.876475
_cell_length_b 6.336157
_cell_length_c 14.582938
_cell_angle_alpha 90.000000
_cell_angle_beta 124.274573
_cell_angle_gamma 90.000000
_cell_volume 1364.947608
_symmetry_space_group_name_H-M "P 21/C"
_symmetry_group_IT_number 14
_symmetry_cell_setting 'monoclinic'
loop_
_space_group_symop_operation_xyz
x,y,z
-x,1/2+y,1/2-z
-x,-y,-z
x,1/2-y,1/2+z
loop_
_atom_site_type_symbol
_atom_site_label
_atom_site_fract_x
_atom_site_fract_y
_atom_site_fract_z
Si Si1 0.784628 0.673969 0.207501
Si Si2 0.203191 0.320938 0.483154
Si Si3 0.228304 0.531302 0.158185
Si Si4 0.584566 0.854529 0.588016
Si Si5 0.896081 0.067229 0.938708
Si Si6 0.415169 0.439010 0.240347
Si Si7 0.600253 0.864905 0.921751
O O1 0.819446 0.713009 0.129127
O O2 0.686058 0.560513 0.138429
O O3 0.847310 0.547810 0.319827
O O4 0.773773 0.903018 0.248119
O O5 0.134588 0.479754 0.483268
O O6 0.299072 0.439744 0.531853
O O7 0.215201 0.141088 0.568586
O O8 0.147656 0.699150 0.097072
O O9 0.334055 0.595767 0.215214
O O10 0.588329 0.764442 0.693749
O O11 0.582439 0.656336 0.516768
O O12 0.500000 0.000000 0.500000
O O13 0.000000 0.000000 0.000000
O O14 0.400860 0.366294 0.126350
O O15 0.515886 0.519836 0.320493
#
# Coordination Sequence:
#
# PCOD9242443 Si02
#       7
#     4   4   4   4   4   4   4
#     4   9  21  42  60  88 131 160 204 264 310 373
#     4   9  21  42  58  88 130 154 200 263 301 378
#     4   9  21  39  63  88 126 163 205 261 310 368
#     4  10  20  35  54  83 122 163 200 247 300 365
#     4  11  24  43  66  93 114 163 211 254 328 371
#     4  10  20  33  55  86 117 166 201 249 305 357
#     4  10  20  33  53  83 117 156 201 237 300 358
#
# _framework density 20.513608999999999
#
# number of rings (size 3 to 8) (size 9 to 14) (size 15 to 20)
#    0.000    2.286    0.000    2.143    4.000    3.429 
#    5.143    0.000    0.000    0.000    0.000    0.000 
#    0.000    0.000    0.000    0.000    0.000    0.000 
#
# Total GULP energy -155950.770963 kJ/mol
# GULP energy per Si atom -5569.670392 kJ/mol
# Density = 2.046692 g / cm^3
# Si number density = 20.513609 Si / 1000 Ang^3
#
#
#
# Elastic Constant Matrix: (Units=GPa)
#
#
# Indices 1 2 3 4 5 6 
#
# 1 95.4261 32.4256 33.4524 0.0000 0.5585 0.0000
# 2 32.4256 33.3614 10.6952 0.0000 8.8812 0.0000
# 3 33.4524 10.6952 96.5073 0.0000 -10.3681 0.0000
# 4 0.0000 0.0000 0.0000 17.1014 0.0000 3.9504
# 5 0.5585 8.8812 -10.3681 0.0000 44.8109 0.0000
# 6 0.0000 0.0000 0.0000 3.9504 0.0000 17.6232
#
#
#
# Elastic Compliance Matrix: (Units=1/GPa)
#
#
# Indices 1 2 3 4 5 6 
#
# 1 0.017352 -0.016127 -0.004007 0.000000 0.002053 0.000000
# 2 -0.016127 0.048463 -0.000811 0.000000 -0.009592 0.000000
# 3 -0.004007 -0.000811 0.012166 0.000000 0.003026 0.000000
# 4 0.000000 0.000000 0.000000 0.061668 0.000000 -0.013824
# 5 0.002053 -0.009592 0.003026 0.000000 0.024891 0.000000
# 6 0.000000 0.000000 0.000000 -0.013824 0.000000 0.059842
#
#
# Mechanical properties :
#
#
# Convention : Reuss Voigt Hill
#
# Bulk Modulus (GPa) = 27.70820 42.04904 34.87862
# Shear Modulus (GPa) = 17.96601 25.82185 21.89393
#
# Velocity S-wave (km/s) = 2.96262 3.55176 3.27048
# Velocity P-wave (km/s) = 5.02388 6.11250 5.59473
#
# Compressibility (1/GPa) = 0.03609040
#
# Stress axis : x y z
#
# Youngs Moduli (GPa) = 57.63036 20.63424 82.19787
#
# Poissons Ratio (x) = 0.33277 0.32936
# Poissons Ratio (y) = 0.92942 0.06667
# Poissons Ratio (z) = 0.23092 0.01674
#
# Static dielectric constant tensor:
#      x y z
#    x 1.781740 0.000000 0.044540 
#    y 0.000000 1.769810 0.000000 
#    z 0.044540 0.000000 1.761420 
# 
# From -- ./inp_files/48212.got.cif
#   From: 2010.05.17/outbox.cif.g08.bks.cpg/sg14_25_cif.got.tgz:48212.got - 2010.06.03 17:49:19.
