data_PCOD9242108
_publ_section_title
;
Structure prediction by ZEFSAII (Michael W. Deem and Ramdas Pophale) SiO2 
 PCOD9242108
Probable space group: P 21/C
;
_chemical_formula_sum "Si O2"
_cell_formula_units_Z 20
_cell_length_a 8.014123
_cell_length_b 13.220712
_cell_length_c 13.360869
_cell_angle_alpha 90.000000
_cell_angle_beta 32.486099
_cell_angle_gamma 90.000000
_cell_volume 760.320394
_symmetry_space_group_name_H-M "P 21/C"
_symmetry_group_IT_number 14
_symmetry_cell_setting 'monoclinic'
loop_
_space_group_symop_operation_xyz
x,y,z
-x,1/2+y,1/2-z
-x,-y,-z
x,1/2-y,1/2+z
loop_
_atom_site_type_symbol
_atom_site_label
_atom_site_fract_x
_atom_site_fract_y
_atom_site_fract_z
Si Si1 0.697787 0.427712 0.669148
Si Si2 0.588794 0.381975 0.095219
Si Si3 0.573614 0.388720 0.502674
Si Si4 0.915952 0.758050 0.538354
Si Si5 0.251306 0.308746 0.090425
O O1 0.469243 0.504561 0.840936
O O2 0.569135 0.397961 0.624713
O O3 0.849065 0.323295 0.630637
O O4 0.000000 0.500000 0.500000
O O5 0.899183 0.333685 0.982902
O O6 0.521874 0.369997 0.011617
O O7 0.325083 0.310291 0.278873
O O8 0.500000 0.500000 0.500000
O O9 0.336590 0.306888 0.576826
O O10 0.919813 0.350641 0.297434
O O11 0.768086 0.813789 0.519054
#
# Coordination Sequence:
#
# PCOD9242108 Si02
#       5
#     4   4   4   4   4
#     4  10  19  39  64  92 127 171 218 277 336 400
#     4  11  22  42  66  95 129 172 225 281 336 405
#     4  12  24  44  73 103 137 187 234 282 354 412
#     4  11  22  39  64  94 130 170 220 277 340 403
#     4  12  23  41  71 102 136 181 233 285 344 415
#
# _framework density 26.304697999999998
#
# number of rings (size 3 to 8) (size 9 to 14) (size 15 to 20)
#    0.000    0.800    6.000    4.800    0.000    0.000 
#    0.000    2.000    8.800    0.000    0.000    0.000 
#    0.000    0.000    0.000    0.000    0.000    0.000 
#
# Total GULP energy -112162.567683 kJ/mol
# GULP energy per Si atom -5608.128384 kJ/mol
# Density = 2.624483 g / cm^3
# Si number density = 26.304698 Si / 1000 Ang^3
#
#
#
# Elastic Constant Matrix: (Units=GPa)
#
#
# Indices 1 2 3 4 5 6 
#
# 1 195.0232 53.3503 41.7431 0.0000 0.7731 0.0000
# 2 53.3503 195.5321 15.8288 0.0000 -22.4712 0.0000
# 3 41.7431 15.8288 72.1416 0.0000 -17.9155 0.0000
# 4 0.0000 0.0000 0.0000 56.3913 0.0000 -4.9485
# 5 0.7731 -22.4712 -17.9155 0.0000 53.3067 0.0000
# 6 0.0000 0.0000 0.0000 -4.9485 0.0000 52.7215
#
#
#
# Elastic Compliance Matrix: (Units=1/GPa)
#
#
# Indices 1 2 3 4 5 6 
#
# 1 0.006424 -0.001681 -0.003871 0.000000 -0.002103 0.000000
# 2 -0.001681 0.005845 0.000336 0.000000 0.002601 0.000000
# 3 -0.003871 0.000336 0.017541 0.000000 0.006093 0.000000
# 4 0.000000 0.000000 0.000000 0.017881 0.000000 0.001678
# 5 -0.002103 0.002601 0.006093 0.000000 0.021934 0.000000
# 6 0.000000 0.000000 0.000000 0.001678 0.000000 0.019125
#
#
# Mechanical properties :
#
#
# Convention : Reuss Voigt Hill
#
# Bulk Modulus (GPa) = 51.60293 76.06017 63.83155
# Shear Modulus (GPa) = 47.33069 55.93555 51.63312
#
# Velocity S-wave (km/s) = 4.24645 4.61634 4.43525
# Velocity P-wave (km/s) = 6.61083 7.57575 7.10968
#
# Compressibility (1/GPa) = 0.01937874
#
# Stress axis : x y z
#
# Youngs Moduli (GPa) = 155.65913 171.09634 57.01066
#
# Poissons Ratio (x) = 0.28764 0.22066
# Poissons Ratio (y) = 0.26169 -0.01918
# Poissons Ratio (z) = 0.60249 -0.05755
#
# Static dielectric constant tensor:
#      x y z
#    x 2.037440 0.000000 -0.058720 
#    y 0.000000 2.037390 0.000000 
#    z -0.058720 0.000000 2.300120 
# 
# From -- ./inp_files/40552.got.cif
#   From: 2010.05.17/outbox.cif.g08.bks.cpg/sg14_21_cif.got.tgz:40552.got - 2010.06.03 17:49:19.
