data_PCOD9242166
_publ_section_title
;
Structure prediction by ZEFSAII (Michael W. Deem and Ramdas Pophale) SiO2 
 PCOD9242166
Probable space group: P 21/C
;
_chemical_formula_sum "Si O2"
_cell_formula_units_Z 26
_cell_length_a 6.889808
_cell_length_b 8.011014
_cell_length_c 17.595251
_cell_angle_alpha 90.000000
_cell_angle_beta 86.263677
_cell_angle_gamma 90.000000
_cell_volume 969.094223
_symmetry_space_group_name_H-M "P 21/C"
_symmetry_group_IT_number 14
_symmetry_cell_setting 'monoclinic'
loop_
_space_group_symop_operation_xyz
x,y,z
-x,1/2+y,1/2-z
-x,-y,-z
x,1/2-y,1/2+z
loop_
_atom_site_type_symbol
_atom_site_label
_atom_site_fract_x
_atom_site_fract_y
_atom_site_fract_z
Si Si1 0.487407 0.890276 0.157240
Si Si2 0.522137 0.326610 0.042908
Si Si3 0.500000 0.000000 0.000000
Si Si4 0.572601 0.509860 0.183662
Si Si5 0.941856 0.237534 0.843170
Si Si6 0.021820 0.112056 0.676882
Si Si7 0.976033 0.299992 0.011445
O O1 0.562988 0.701020 0.158752
O O2 0.523160 0.986808 0.233187
O O3 0.255025 0.870127 0.150258
O O4 0.554459 0.004279 0.087728
O O5 0.479760 0.376995 0.129054
O O6 0.742470 0.266658 0.019192
O O7 0.500000 0.500000 0.000000
O O8 0.394269 0.183867 0.010335
O O9 0.795220 0.447610 0.180966
O O10 0.050399 0.190553 0.760613
O O11 0.877872 0.431335 0.835286
O O12 0.031325 0.223255 0.926502
O O13 0.042647 0.222373 0.598795
O O14 0.000000 0.500000 0.000000
#
# Coordination Sequence:
#
# PCOD9242166 Si02
#       7
#     4   4   2   4   4   4   4
#     4  11  22  38  63  90 127 163 207 263 319 380
#     4  11  20  38  63  89 125 167 205 259 316 374
#     4  12  22  36  62  96 124 164 212 258 314 388
#     4  10  21  39  59  91 123 164 208 262 319 379
#     4  10  19  40  59  87 121 163 205 259 311 377
#     4   9  21  35  64  83 119 165 209 255 318 377
#     4   9  18  37  62  82 119 168 203 253 321 374
#
# _framework density 26.829177000000001
#
# number of rings (size 3 to 8) (size 9 to 14) (size 15 to 20)
#    0.000    1.846    3.077    0.923    0.000    1.231 
#    0.000    6.923    0.000    0.000    0.000    0.000 
#    0.000    0.000    0.000    0.000    0.000    0.000 
#
# Total GULP energy -144855.836811 kJ/mol
# GULP energy per Si atom -5571.378339 kJ/mol
# Density = 2.676811 g / cm^3
# Si number density = 26.829177 Si / 1000 Ang^3
#
#
#
# Elastic Constant Matrix: (Units=GPa)
#
#
# Indices 1 2 3 4 5 6 
#
# 1 67.7425 -4.4443 40.6404 0.0000 -1.8110 0.0000
# 2 -4.4443 84.3108 79.9959 0.0000 -0.8563 0.0000
# 3 40.6404 79.9959 262.0517 0.0000 6.1840 0.0000
# 4 0.0000 0.0000 0.0000 58.0291 0.0000 -4.9606
# 5 -1.8110 -0.8563 6.1840 0.0000 27.1747 0.0000
# 6 0.0000 0.0000 0.0000 -4.9606 0.0000 20.7636
#
#
#
# Elastic Compliance Matrix: (Units=1/GPa)
#
#
# Indices 1 2 3 4 5 6 
#
# 1 0.017783 0.005111 -0.004373 0.000000 0.002341 0.000000
# 2 0.005111 0.018244 -0.006418 0.000000 0.002376 0.000000
# 3 -0.004373 -0.006418 0.006500 0.000000 -0.001973 0.000000
# 4 0.000000 0.000000 0.000000 0.017592 0.000000 0.004203
# 5 0.002341 0.002376 -0.001973 0.000000 0.037479 0.000000
# 6 0.000000 0.000000 0.000000 0.004203 0.000000 0.049165
#
#
# Mechanical properties :
#
#
# Convention : Reuss Voigt Hill
#
# Bulk Modulus (GPa) = 32.08608 71.83211 51.95910
# Shear Modulus (GPa) = 29.67127 41.05434 35.36280
#
# Velocity S-wave (km/s) = 3.32916 3.91604 3.63447
# Velocity P-wave (km/s) = 5.17331 6.87598 6.08450
#
# Compressibility (1/GPa) = 0.03116616
#
# Stress axis : x y z
#
# Youngs Moduli (GPa) = 56.23239 54.81284 153.84550
#
# Poissons Ratio (x) = -0.28013 0.67282
# Poissons Ratio (y) = -0.28739 0.98737
# Poissons Ratio (z) = 0.24592 0.35179
#
# Static dielectric constant tensor:
#      x y z
#    x 2.523220 0.000000 -0.001640 
#    y 0.000000 2.498520 0.000000 
#    z -0.001640 0.000000 2.103960 
# 
# From -- ./inp_files/54875.got.cif
#   From: 2010.05.17/outbox.cif.g08.bks.cpg/sg14_28_cif.got.tgz:54875.got - 2010.06.03 17:49:19.
