data_PCOD9242408
_publ_section_title
;
Structure prediction by ZEFSAII (Michael W. Deem and Ramdas Pophale) SiO2 
 PCOD9242408
Probable space group: P 21/C
;
_chemical_formula_sum "Si O2"
_cell_formula_units_Z 28
_cell_length_a 19.247016
_cell_length_b 6.320577
_cell_length_c 19.780077
_cell_angle_alpha 90.000000
_cell_angle_beta 29.107627
_cell_angle_gamma 90.000000
_cell_volume 1170.544228
_symmetry_space_group_name_H-M "P 21/C"
_symmetry_group_IT_number 14
_symmetry_cell_setting 'monoclinic'
loop_
_space_group_symop_operation_xyz
x,y,z
-x,1/2+y,1/2-z
-x,-y,-z
x,1/2-y,1/2+z
loop_
_atom_site_type_symbol
_atom_site_label
_atom_site_fract_x
_atom_site_fract_y
_atom_site_fract_z
Si Si1 0.848375 0.206788 0.971728
Si Si2 0.368383 0.169337 0.821388
Si Si3 0.954632 0.070924 0.116769
Si Si4 0.722760 0.094488 0.798082
Si Si5 0.822734 0.911557 0.593245
Si Si6 0.447137 0.306801 0.995230
Si Si7 0.678261 0.478966 0.030603
O O1 0.820919 0.379415 0.052018
O O2 0.813771 0.325387 0.929986
O O3 0.722494 0.039530 0.090649
O O4 0.999269 0.101935 0.866051
O O5 0.323195 0.277908 0.789316
O O6 0.313396 0.322599 0.926630
O O7 0.536389 0.141242 0.677635
O O8 0.802882 0.189871 0.254026
O O9 0.063343 0.260542 0.036410
O O10 0.000000 0.000000 0.000000
O O11 0.842650 0.972585 0.653218
O O12 0.598173 0.186443 0.855301
O O13 0.651049 0.899080 0.900207
O O14 0.367707 0.424164 0.001736
O O15 0.500000 0.500000 0.000000
#
# Coordination Sequence:
#
# PCOD9242408 Si02
#       7
#     4   4   4   4   4   4   4
#     4  10  21  36  57 102 133 177 229 294 359 420
#     4  10  20  32  60  95 132 172 216 298 351 429
#     4  11  23  37  67 105 140 182 233 309 357 425
#     4  11  24  41  63  99 143 187 236 290 370 449
#     4  10  21  37  62 101 135 172 226 293 358 417
#     4  11  27  43  65 102 141 194 233 298 364 463
#     4  11  21  37  62  95 140 177 229 288 368 441
#
# _framework density 23.920497000000001
#
# number of rings (size 3 to 8) (size 9 to 14) (size 15 to 20)
#    0.000    1.429    2.857    2.143    6.000    2.286 
#    0.000    0.000    0.000    0.000   63.143    0.000 
#    0.000    0.000    0.000    0.000    0.000    0.000 
#
# Total GULP energy -155928.826487 kJ/mol
# GULP energy per Si atom -5568.886660 kJ/mol
# Density = 2.386605 g / cm^3
# Si number density = 23.920497 Si / 1000 Ang^3
#
#
#
# Elastic Constant Matrix: (Units=GPa)
#
#
# Indices 1 2 3 4 5 6 
#
# 1 137.8595 69.6675 35.4157 0.0000 -21.0679 0.0000
# 2 69.6675 142.0101 45.1467 0.0000 -15.1870 0.0000
# 3 35.4157 45.1467 70.0548 0.0000 -21.4274 0.0000
# 4 0.0000 0.0000 0.0000 40.2891 0.0000 -21.5037
# 5 -21.0679 -15.1870 -21.4274 0.0000 26.7641 0.0000
# 6 0.0000 0.0000 0.0000 -21.5037 0.0000 70.8131
#
#
#
# Elastic Compliance Matrix: (Units=1/GPa)
#
#
# Indices 1 2 3 4 5 6 
#
# 1 0.010428 -0.004265 -0.000997 0.000000 0.004990 0.000000
# 2 -0.004265 0.010608 -0.005120 0.000000 -0.001437 0.000000
# 3 -0.000997 -0.005120 0.022446 0.000000 0.014280 0.000000
# 4 0.000000 0.000000 0.000000 0.029622 0.000000 0.008995
# 5 0.004990 -0.001437 0.014280 0.000000 0.051909 0.000000
# 6 0.000000 0.000000 0.000000 0.008995 0.000000 0.016853
#
#
# Mechanical properties :
#
#
# Convention : Reuss Voigt Hill
#
# Bulk Modulus (GPa) = 44.01656 72.26488 58.14072
# Shear Modulus (GPa) = 29.37692 40.88623 35.13157
#
# Velocity S-wave (km/s) = 3.50824 4.13880 3.83649
# Velocity P-wave (km/s) = 5.90351 7.28804 6.63201
#
# Compressibility (1/GPa) = 0.02271872
#
# Stress axis : x y z
#
# Youngs Moduli (GPa) = 95.89715 94.26762 44.55211
#
# Poissons Ratio (x) = 0.40207 0.04440
# Poissons Ratio (y) = 0.40902 0.22809
# Poissons Ratio (z) = 0.09558 0.48261
#
# Static dielectric constant tensor:
#      x y z
#    x 2.014020 0.000000 -0.042150 
#    y 0.000000 2.097450 0.000000 
#    z -0.042150 0.000000 1.964540 
# 
# From -- ./inp_files/74494.got.cif
#   From: 2010.05.17/outbox.cif.g08.bks.cpg/sg14_38_cif.got.tgz:74494.got - 2010.06.03 17:49:19.
