data_PCOD9242078
_publ_section_title
;
Structure prediction by ZEFSAII (Michael W. Deem and Ramdas Pophale) SiO2 
 PCOD9242078
Probable space group: P 21/C
;
_chemical_formula_sum "Si O2"
_cell_formula_units_Z 28
_cell_length_a 7.093057
_cell_length_b 10.742178
_cell_length_c 14.977549
_cell_angle_alpha 90.000000
_cell_angle_beta 95.935384
_cell_angle_gamma 90.000000
_cell_volume 1135.094688
_symmetry_space_group_name_H-M "P 21/C"
_symmetry_group_IT_number 14
_symmetry_cell_setting 'monoclinic'
loop_
_space_group_symop_operation_xyz
x,y,z
-x,1/2+y,1/2-z
-x,-y,-z
x,1/2-y,1/2+z
loop_
_atom_site_type_symbol
_atom_site_label
_atom_site_fract_x
_atom_site_fract_y
_atom_site_fract_z
Si Si1 0.902323 0.281681 0.718623
Si Si2 0.551996 0.545759 0.217938
Si Si3 0.771831 0.077706 0.586020
Si Si4 0.679511 0.676276 0.719946
Si Si5 0.912251 0.386999 0.909182
Si Si6 0.164954 0.166876 0.958963
Si Si7 0.129430 0.476694 0.625892
O O1 0.103861 0.212535 0.745540
O O2 0.959901 0.401958 0.664500
O O3 0.771825 0.199088 0.648790
O O4 0.842499 0.324415 0.814510
O O5 0.621868 0.515615 0.121689
O O6 0.385921 0.449186 0.234226
O O7 0.562866 0.695407 0.232788
O O8 0.720082 0.494488 0.291077
O O9 0.760593 0.105150 0.480557
O O10 0.980038 0.014782 0.606713
O O11 0.686371 0.653086 0.613516
O O12 0.087179 0.305976 0.957868
O O13 0.225110 0.110888 0.056039
O O14 0.970909 0.092481 0.925034
#
# Coordination Sequence:
#
# PCOD9242078 Si02
#       7
#     4   4   4   4   4   4   4
#     4  10  20  38  61  92 119 159 197 259 315 366
#     4  11  22  42  59  90 124 172 202 253 310 374
#     4  11  20  37  66  86 120 154 206 259 312 363
#     4  10  23  39  61  85 129 164 209 244 311 373
#     4  10  20  33  61  94 115 151 199 256 313 359
#     4  10  19  39  62  93 120 151 205 263 310 373
#     4  10  20  36  66  92 119 152 206 257 316 365
#
# _framework density 24.667546999999999
#
# number of rings (size 3 to 8) (size 9 to 14) (size 15 to 20)
#    0.000    1.714    5.714    1.714    0.000    1.714 
#    2.571    0.000    6.286    6.857    0.000    0.000 
#    0.000    0.000    0.000    0.000    0.000    0.000 
#
# Total GULP energy -156550.412675 kJ/mol
# GULP energy per Si atom -5591.086167 kJ/mol
# Density = 2.461140 g / cm^3
# Si number density = 24.667547 Si / 1000 Ang^3
#
#
#
# Elastic Constant Matrix: (Units=GPa)
#
#
# Indices 1 2 3 4 5 6 
#
# 1 62.2585 27.0572 29.1538 0.0000 -2.2249 0.0000
# 2 27.0572 98.0344 53.2292 0.0000 -11.0112 0.0000
# 3 29.1538 53.2292 160.7798 0.0000 -39.8333 0.0000
# 4 0.0000 0.0000 0.0000 46.9367 0.0000 -5.4600
# 5 -2.2249 -11.0112 -39.8333 0.0000 20.6458 0.0000
# 6 0.0000 0.0000 0.0000 -5.4600 0.0000 23.7548
#
#
#
# Elastic Compliance Matrix: (Units=1/GPa)
#
#
# Indices 1 2 3 4 5 6 
#
# 1 0.019496 -0.003997 -0.004252 0.000000 -0.008234 0.000000
# 2 -0.003997 0.013324 -0.003894 0.000000 -0.000837 0.000000
# 3 -0.004252 -0.003894 0.014658 0.000000 0.025747 0.000000
# 4 0.000000 0.000000 0.000000 0.021891 0.000000 0.005032
# 5 -0.008234 -0.000837 0.025747 0.000000 0.096777 0.000000
# 6 0.000000 0.000000 0.000000 0.005032 0.000000 0.043253
#
#
# Mechanical properties :
#
#
# Convention : Reuss Voigt Hill
#
# Bulk Modulus (GPa) = 43.11647 59.99478 51.55562
# Shear Modulus (GPa) = 20.71122 32.37631 26.54377
#
# Velocity S-wave (km/s) = 2.90075 3.62678 3.28389
# Velocity P-wave (km/s) = 5.36061 6.47396 5.94341
#
# Compressibility (1/GPa) = 0.02319299
#
# Stress axis : x y z
#
# Youngs Moduli (GPa) = 51.29269 75.05369 68.21985
#
# Poissons Ratio (x) = 0.30000 0.29006
# Poissons Ratio (y) = 0.20502 0.26562
# Poissons Ratio (z) = 0.21809 0.29223
#
# Static dielectric constant tensor:
#      x y z
#    x 1.945890 0.000000 -0.027020 
#    y 0.000000 1.984710 0.000000 
#    z -0.027020 0.000000 1.954610 
# 
# From -- ./inp_files/39674.got.cif
#   From: 2010.05.17/outbox.cif.g08.bks.cpg/sg14_20_cif.got.tgz:39674.got - 2010.06.03 17:49:19.
