data_PCOD9242964
_publ_section_title
;
Structure prediction by ZEFSAII (Michael W. Deem and Ramdas Pophale) SiO2 
 PCOD9242964
Probable space group: P 21/C
;
_chemical_formula_sum "Si O2"
_cell_formula_units_Z 28
_cell_length_a 10.291485
_cell_length_b 9.200192
_cell_length_c 28.078528
_cell_angle_alpha 90.000000
_cell_angle_beta 28.901598
_cell_angle_gamma 90.000000
_cell_volume 1284.908430
_symmetry_space_group_name_H-M "P 21/C"
_symmetry_group_IT_number 14
_symmetry_cell_setting 'monoclinic'
loop_
_space_group_symop_operation_xyz
x,y,z
-x,1/2+y,1/2-z
-x,-y,-z
x,1/2-y,1/2+z
loop_
_atom_site_type_symbol
_atom_site_label
_atom_site_fract_x
_atom_site_fract_y
_atom_site_fract_z
Si Si1 0.922595 0.142169 0.783970
Si Si2 0.925535 0.091501 0.673813
Si Si3 0.475114 0.582787 0.440411
Si Si4 0.761022 0.190825 0.421713
Si Si5 0.603971 0.393159 0.646011
Si Si6 0.280190 0.373074 0.251674
Si Si7 0.029065 0.890692 0.888517
O O1 0.922836 0.157227 0.727956
O O2 0.767925 0.268163 0.863404
O O3 0.208850 0.129982 0.718442
O O4 0.763688 0.993517 0.846770
O O5 0.967903 0.221421 0.623842
O O6 0.643869 0.001125 0.760142
O O7 0.169678 0.975799 0.592723
O O8 0.463933 0.726579 0.476190
O O9 0.391318 0.606070 0.412537
O O10 0.259579 0.463897 0.528436
O O11 0.028538 0.279476 0.353212
O O12 0.530824 0.226249 0.682375
O O13 0.867970 0.426464 0.591398
O O14 0.248345 0.530038 0.284222
#
# Coordination Sequence:
#
# PCOD9242964 Si02
#       7
#     4   4   4   4   4   4   4
#     4   9  19  36  60  80 113 147 195 232 289 338
#     4  10  21  35  60  85 115 146 194 244 279 336
#     4  10  20  36  59  81 116 157 184 233 291 344
#     4   8  18  34  54  81 110 147 183 225 294 333
#     4  10  20  39  56  81 113 158 195 232 278 339
#     4   8  19  34  58  77 107 149 189 233 284 329
#     4  11  21  34  58  87 115 149 196 235 282 340
#
# _framework density 21.791436000000001
#
# number of rings (size 3 to 8) (size 9 to 14) (size 15 to 20)
#    0.857    1.714    0.000    1.714    2.000    0.000 
#    0.000    4.286    0.000    0.000    0.000    0.000 
#    0.000    0.000    0.000    0.000    0.000    0.000 
#
# Total GULP energy -156108.871958 kJ/mol
# GULP energy per Si atom -5575.316856 kJ/mol
# Density = 2.174184 g / cm^3
# Si number density = 21.791436 Si / 1000 Ang^3
#
#
#
# Elastic Constant Matrix: (Units=GPa)
#
#
# Indices 1 2 3 4 5 6 
#
# 1 78.6503 23.7410 14.8260 0.0000 6.9657 0.0000
# 2 23.7410 117.4316 28.2854 0.0000 4.4802 0.0000
# 3 14.8260 28.2854 52.4342 0.0000 1.9062 0.0000
# 4 0.0000 0.0000 0.0000 17.9744 0.0000 2.0414
# 5 6.9657 4.4802 1.9062 0.0000 23.3266 0.0000
# 6 0.0000 0.0000 0.0000 2.0414 0.0000 27.3440
#
#
#
# Elastic Compliance Matrix: (Units=1/GPa)
#
#
# Indices 1 2 3 4 5 6 
#
# 1 0.014178 -0.002063 -0.002765 0.000000 -0.003612 0.000000
# 2 -0.002063 0.010137 -0.004851 0.000000 -0.000935 0.000000
# 3 -0.002765 -0.004851 0.022473 0.000000 -0.000079 0.000000
# 4 0.000000 0.000000 0.000000 0.056110 0.000000 -0.004189
# 5 -0.003612 -0.000935 -0.000079 0.000000 0.044134 0.000000
# 6 0.000000 0.000000 0.000000 -0.004189 0.000000 0.036884
#
#
# Mechanical properties :
#
#
# Convention : Reuss Voigt Hill
#
# Bulk Modulus (GPa) = 36.45541 42.46899 39.46220
# Shear Modulus (GPa) = 23.53861 25.83993 24.68927
#
# Velocity S-wave (km/s) = 3.29017 3.44726 3.36963
# Velocity P-wave (km/s) = 5.58562 5.94777 5.76954
#
# Compressibility (1/GPa) = 0.02743077
#
# Stress axis : x y z
#
# Youngs Moduli (GPa) = 70.53084 98.65151 44.49771
#
# Poissons Ratio (x) = 0.20348 0.12303
# Poissons Ratio (y) = 0.14548 0.21586
# Poissons Ratio (z) = 0.19502 0.47856
#
# Static dielectric constant tensor:
#      x y z
#    x 1.802750 0.000000 -0.000460 
#    y 0.000000 1.809840 0.000000 
#    z -0.000460 0.000000 1.843760 
# 
# From -- ./inp_files/79890.got.cif
#   From: 2010.05.17/outbox.cif.g08.bks.cpg/sg14_40_cif.got.tgz:79890.got - 2010.06.03 17:49:19.
