data_PCOD9242766
_publ_section_title
;
Structure prediction by ZEFSAII (Michael W. Deem and Ramdas Pophale) SiO2 
 PCOD9242766
Probable space group: P 21/C
;
_chemical_formula_sum "Si O2"
_cell_formula_units_Z 24
_cell_length_a 24.365012
_cell_length_b 8.493481
_cell_length_c 17.272277
_cell_angle_alpha 90.000000
_cell_angle_beta 162.053502
_cell_angle_gamma 90.000000
_cell_volume 1101.372435
_symmetry_space_group_name_H-M "P 21/C"
_symmetry_group_IT_number 14
_symmetry_cell_setting 'monoclinic'
loop_
_space_group_symop_operation_xyz
x,y,z
-x,1/2+y,1/2-z
-x,-y,-z
x,1/2-y,1/2+z
loop_
_atom_site_type_symbol
_atom_site_label
_atom_site_fract_x
_atom_site_fract_y
_atom_site_fract_z
Si Si1 0.785734 0.899465 0.997240
Si Si2 0.269151 0.524733 0.902745
Si Si3 0.058080 0.070543 0.259584
Si Si4 0.405957 0.621233 0.931828
Si Si5 0.395631 0.680208 0.662865
Si Si6 0.634751 0.107658 0.230457
O O1 0.914192 0.756861 0.192570
O O2 0.589707 0.824374 0.720962
O O3 0.879147 0.987651 0.050250
O O4 0.742518 0.042977 0.997903
O O5 0.281350 0.538410 0.827133
O O6 0.431405 0.405283 0.138587
O O7 0.313191 0.698660 0.992556
O O8 0.105632 0.469104 0.734860
O O9 0.209470 0.990342 0.518873
O O10 0.500000 0.500000 0.000000
O O11 0.311805 0.762772 0.761678
O O12 0.442690 0.784617 0.802699
O O13 0.500000 0.000000 0.000000
#
# Coordination Sequence:
#
# PCOD9242766 Si02
#       6
#     4   4   4   4   4   4
#     4  11  22  40  63  87 121 160 196 244 305 357
#     4  10  20  35  59  89 117 157 198 245 287 357
#     4  11  23  38  63  87 121 156 203 244 298 361
#     4  11  21  40  64  87 120 157 200 246 297 349
#     4  10  21  36  61  87 120 154 201 242 292 357
#     4  11  21  37  61  92 115 159 200 244 293 356
#
# _framework density 21.790991999999999
#
# number of rings (size 3 to 8) (size 9 to 14) (size 15 to 20)
#    0.000    1.333    5.000    4.000    2.333    0.000 
#    0.000    0.833    0.000    2.000    0.000    0.000 
#    0.000    0.000    0.000    0.000    0.000    0.000 
#
# Total GULP energy -133886.614018 kJ/mol
# GULP energy per Si atom -5578.608917 kJ/mol
# Density = 2.174139 g / cm^3
# Si number density = 21.790992 Si / 1000 Ang^3
#
#
#
# Elastic Constant Matrix: (Units=GPa)
#
#
# Indices 1 2 3 4 5 6 
#
# 1 128.0054 42.8270 37.5093 0.0000 21.4717 0.0000
# 2 42.8270 127.6024 40.3134 0.0000 5.9644 0.0000
# 3 37.5093 40.3134 97.0405 0.0000 18.2087 0.0000
# 4 0.0000 0.0000 0.0000 30.5852 0.0000 1.7634
# 5 21.4717 5.9644 18.2087 0.0000 37.7371 0.0000
# 6 0.0000 0.0000 0.0000 1.7634 0.0000 36.3069
#
#
#
# Elastic Compliance Matrix: (Units=1/GPa)
#
#
# Indices 1 2 3 4 5 6 
#
# 1 0.009960 -0.002510 -0.001999 0.000000 -0.004306 0.000000
# 2 -0.002510 0.009659 -0.003325 0.000000 0.001506 0.000000
# 3 -0.001999 -0.003325 0.013356 0.000000 -0.004782 0.000000
# 4 0.000000 0.000000 0.000000 0.032787 0.000000 -0.001592
# 5 -0.004306 0.001506 -0.004782 0.000000 0.031018 0.000000
# 6 0.000000 0.000000 0.000000 -0.001592 0.000000 0.027620
#
#
# Mechanical properties :
#
#
# Convention : Reuss Voigt Hill
#
# Bulk Modulus (GPa) = 57.78016 65.99417 61.88717
# Shear Modulus (GPa) = 34.28429 36.39240 35.33835
#
# Velocity S-wave (km/s) = 3.97082 4.09108 4.03140
# Velocity P-wave (km/s) = 6.89901 7.25718 7.08036
#
# Compressibility (1/GPa) = 0.01730698
#
# Stress axis : x y z
#
# Youngs Moduli (GPa) = 100.40148 103.52606 74.87086
#
# Poissons Ratio (x) = 0.25985 0.14968
# Poissons Ratio (y) = 0.25201 0.24896
# Poissons Ratio (z) = 0.20072 0.34424
#
# Static dielectric constant tensor:
#      x y z
#    x 1.823720 0.000000 -0.055240 
#    y 0.000000 1.803350 0.000000 
#    z -0.055240 0.000000 1.892970 
# 
# From -- ./inp_files/61669.got.cif
#   From: 2010.05.17/outbox.cif.g08.bks.cpg/sg14_31_cif.got.tgz:61669.got - 2010.06.03 17:49:19.
