data_PCOD9242136
_publ_section_title
;
Structure prediction by ZEFSAII (Michael W. Deem and Ramdas Pophale) SiO2 
 PCOD9242136
Probable space group: P 21/C
;
_chemical_formula_sum "Si O2"
_cell_formula_units_Z 28
_cell_length_a 19.118999
_cell_length_b 8.436223
_cell_length_c 19.200938
_cell_angle_alpha 90.000000
_cell_angle_beta 28.325446
_cell_angle_gamma 90.000000
_cell_volume 1469.443265
_symmetry_space_group_name_H-M "P 21/C"
_symmetry_group_IT_number 14
_symmetry_cell_setting 'monoclinic'
loop_
_space_group_symop_operation_xyz
x,y,z
-x,1/2+y,1/2-z
-x,-y,-z
x,1/2-y,1/2+z
loop_
_atom_site_type_symbol
_atom_site_label
_atom_site_fract_x
_atom_site_fract_y
_atom_site_fract_z
Si Si1 0.025849 0.014195 0.362555
Si Si2 0.709132 0.355632 0.448971
Si Si3 0.228948 0.746729 0.449423
Si Si4 0.807382 0.657628 0.157751
Si Si5 0.404893 0.840173 0.579124
Si Si6 0.550286 0.089084 0.848733
Si Si7 0.164328 0.985090 0.884716
O O1 0.135173 0.917167 0.217605
O O2 0.935737 0.895421 0.491756
O O3 0.124723 0.126127 0.325800
O O4 0.902151 0.123869 0.435783
O O5 0.728368 0.294704 0.509973
O O6 0.639157 0.225249 0.457807
O O7 0.595905 0.501890 0.547160
O O8 0.368575 0.815476 0.284177
O O9 0.174357 0.596698 0.451290
O O10 0.670583 0.541067 0.266792
O O11 0.768308 0.838926 0.177274
O O12 0.480871 0.703096 0.558495
O O13 0.254337 0.874307 0.753075
O O14 0.500000 0.000000 0.500000
O O15 0.000000 0.000000 0.000000
#
# Coordination Sequence:
#
# PCOD9242136 Si02
#       7
#     4   4   4   4   4   4   4
#     4  10  21  39  64  92 123 166 210 259 308 387
#     4  12  24  41  66  92 132 167 212 267 327 376
#     4  10  25  43  58  96 130 165 211 261 324 382
#     4  10  19  39  67  89 122 166 210 257 316 372
#     4  11  24  38  60  96 122 157 220 269 300 374
#     4  10  23  42  64  86 125 172 213 250 319 389
#     4  11  21  37  64  89 120 164 211 257 308 378
#
# _framework density 19.054836000000002
#
# number of rings (size 3 to 8) (size 9 to 14) (size 15 to 20)
#    0.000    1.429    2.857    2.143    2.000    5.714 
#    0.000    2.857    0.000    0.000    0.000    0.000 
#    0.000    0.000    0.000    0.000    0.000    0.000 
#
# Total GULP energy -156508.530513 kJ/mol
# GULP energy per Si atom -5589.590375 kJ/mol
# Density = 1.901147 g / cm^3
# Si number density = 19.054836 Si / 1000 Ang^3
#
#
#
# Elastic Constant Matrix: (Units=GPa)
#
#
# Indices 1 2 3 4 5 6 
#
# 1 159.5657 58.1733 47.1109 0.0000 30.2145 0.0000
# 2 58.1733 101.0423 17.1333 0.0000 18.9812 0.0000
# 3 47.1109 17.1333 77.1519 0.0000 11.2628 0.0000
# 4 0.0000 0.0000 0.0000 33.9926 0.0000 -2.4747
# 5 30.2145 18.9812 11.2628 0.0000 23.4244 0.0000
# 6 0.0000 0.0000 0.0000 -2.4747 0.0000 30.5653
#
#
#
# Elastic Compliance Matrix: (Units=1/GPa)
#
#
# Indices 1 2 3 4 5 6 
#
# 1 0.010511 -0.003727 -0.004358 0.000000 -0.008443 0.000000
# 2 -0.003727 0.013118 0.000228 0.000000 -0.005933 0.000000
# 3 -0.004358 0.000228 0.015894 0.000000 -0.002206 0.000000
# 4 0.000000 0.000000 0.000000 0.029593 0.000000 0.002396
# 5 -0.008443 -0.005933 -0.002206 0.000000 0.059449 0.000000
# 6 0.000000 0.000000 0.000000 0.002396 0.000000 0.032911
#
#
# Mechanical properties :
#
#
# Convention : Reuss Voigt Hill
#
# Bulk Modulus (GPa) = 41.99843 64.73276 53.36560
# Shear Modulus (GPa) = 27.00884 31.95263 29.48073
#
# Velocity S-wave (km/s) = 3.76896 4.09941 3.93765
# Velocity P-wave (km/s) = 6.40537 7.51349 6.98145
#
# Compressibility (1/GPa) = 0.02381041
#
# Stress axis : x y z
#
# Youngs Moduli (GPa) = 95.13831 76.23047 62.91709
#
# Poissons Ratio (x) = 0.28407 0.27421
# Poissons Ratio (y) = 0.35453 -0.01437
# Poissons Ratio (z) = 0.41464 -0.01741
#
# Static dielectric constant tensor:
#      x y z
#    x 1.616350 0.000000 -0.004980 
#    y 0.000000 1.679790 0.000000 
#    z -0.004980 0.000000 1.680240 
# 
# From -- ./inp_files/60318.got.cif
#   From: 2010.05.17/outbox.cif.g08.bks.cpg/sg14_31_cif.got.tgz:60318.got - 2010.06.03 17:49:19.
