data_PCOD9242926
_publ_section_title
;
Structure prediction by ZEFSAII (Michael W. Deem and Ramdas Pophale) SiO2 
 PCOD9242926
Probable space group: P 21/C
;
_chemical_formula_sum "Si O2"
_cell_formula_units_Z 24
_cell_length_a 15.521227
_cell_length_b 8.788890
_cell_length_c 8.053151
_cell_angle_alpha 90.000000
_cell_angle_beta 87.532151
_cell_angle_gamma 90.000000
_cell_volume 1097.546539
_symmetry_space_group_name_H-M "P 21/C"
_symmetry_group_IT_number 14
_symmetry_cell_setting 'monoclinic'
loop_
_space_group_symop_operation_xyz
x,y,z
-x,1/2+y,1/2-z
-x,-y,-z
x,1/2-y,1/2+z
loop_
_atom_site_type_symbol
_atom_site_label
_atom_site_fract_x
_atom_site_fract_y
_atom_site_fract_z
Si Si1 0.571207 0.681185 0.868287
Si Si2 0.735285 0.157866 0.863500
Si Si3 0.723398 0.017956 0.230740
Si Si4 0.931234 0.307946 0.394491
Si Si5 0.080080 0.989789 0.758467
Si Si6 0.586592 0.985688 0.717905
O O1 0.653867 0.611512 0.767445
O O2 0.569672 0.862517 0.862753
O O3 0.485222 0.615382 0.790575
O O4 0.578433 0.612703 0.051416
O O5 0.708715 0.334853 0.849899
O O6 0.837789 0.153081 0.823488
O O7 0.678748 0.061185 0.741058
O O8 0.719305 0.088558 0.046576
O O9 0.820615 0.958893 0.253247
O O10 0.929689 0.383108 0.576219
O O11 0.936956 0.125911 0.390355
O O12 0.011075 0.378747 0.288586
#
# Coordination Sequence:
#
# PCOD9242926 Si02
#       6
#     4   4   4   4   4   4
#     4  11  24  40  59  83 111 144 181 223 272 325
#     4  10  20  36  58  82 111 146 184 227 273 323
#     4  10  20  36  58  82 111 146 184 227 273 323
#     4   9  19  35  54  79 110 144 182 223 269 320
#     4   9  19  35  54  79 110 144 182 223 269 320
#     4  11  24  40  59  83 111 144 181 223 272 325
#
# _framework density 21.866955999999998
#
# number of rings (size 3 to 8) (size 9 to 14) (size 15 to 20)
#    0.000    2.000    0.000    3.000    0.000    8.667 
#    0.000    3.333    0.000    0.000    0.000    0.000 
#    0.000    0.000    0.000    0.000    0.000    0.000 
#
# Total GULP energy -134206.942977 kJ/mol
# GULP energy per Si atom -5591.955957 kJ/mol
# Density = 2.181719 g / cm^3
# Si number density = 21.866956 Si / 1000 Ang^3
#
#
#
# Elastic Constant Matrix: (Units=GPa)
#
#
# Indices 1 2 3 4 5 6 
#
# 1 68.6424 24.1048 24.2267 0.0000 15.9167 0.0000
# 2 24.1048 41.8857 0.8928 0.0000 17.3202 0.0000
# 3 24.2267 0.8928 39.3186 0.0000 3.8363 0.0000
# 4 0.0000 0.0000 0.0000 33.9621 0.0000 -4.2969
# 5 15.9167 17.3202 3.8363 0.0000 23.9089 0.0000
# 6 0.0000 0.0000 0.0000 -4.2969 0.0000 37.6380
#
#
#
# Elastic Compliance Matrix: (Units=1/GPa)
#
#
# Indices 1 2 3 4 5 6 
#
# 1 0.025280 -0.011782 -0.014730 0.000000 -0.005931 0.000000
# 2 -0.011782 0.039683 0.008532 0.000000 -0.022273 0.000000
# 3 -0.014730 0.008532 0.034502 0.000000 -0.001910 0.000000
# 4 0.000000 0.000000 0.000000 0.029876 0.000000 0.003411
# 5 -0.005931 -0.022273 -0.001910 0.000000 0.062215 0.000000
# 6 0.000000 0.000000 0.000000 0.003411 0.000000 0.026958
#
#
# Mechanical properties :
#
#
# Convention : Reuss Voigt Hill
#
# Bulk Modulus (GPa) = 15.74705 27.58838 21.66771
# Shear Modulus (GPa) = 18.13937 25.80995 21.97466
#
# Velocity S-wave (km/s) = 2.88329 3.43930 3.17349
# Velocity P-wave (km/s) = 4.27801 5.33063 4.83306
#
# Compressibility (1/GPa) = 0.06350395
#
# Stress axis : x y z
#
# Youngs Moduli (GPa) = 39.55740 25.19967 28.98371
#
# Poissons Ratio (x) = 0.29690 0.42694
# Poissons Ratio (y) = 0.46606 -0.24728
# Poissons Ratio (z) = 0.58269 -0.21499
#
# Static dielectric constant tensor:
#      x y z
#    x 1.754410 0.000000 0.000060 
#    y 0.000000 1.787040 0.000000 
#    z 0.000060 0.000000 1.855140 
# 
# From -- ./inp_files/15011.got.cif
#   From: 2010.05.17/outbox.cif.g08.bks.cpg/sg14_8_cif.got.tgz:15011.got - 2010.06.03 17:49:19.
