data_PCOD9242567
_publ_section_title
;
Structure prediction by ZEFSAII (Michael W. Deem and Ramdas Pophale) SiO2 
 PCOD9242567
Probable space group: P 21/C
;
_chemical_formula_sum "Si O2"
_cell_formula_units_Z 28
_cell_length_a 22.756661
_cell_length_b 7.698095
_cell_length_c 11.326101
_cell_angle_alpha 90.000000
_cell_angle_beta 40.676053
_cell_angle_gamma 90.000000
_cell_volume 1293.225482
_symmetry_space_group_name_H-M "P 21/C"
_symmetry_group_IT_number 14
_symmetry_cell_setting 'monoclinic'
loop_
_space_group_symop_operation_xyz
x,y,z
-x,1/2+y,1/2-z
-x,-y,-z
x,1/2-y,1/2+z
loop_
_atom_site_type_symbol
_atom_site_label
_atom_site_fract_x
_atom_site_fract_y
_atom_site_fract_z
Si Si1 0.835028 0.930565 0.360611
Si Si2 0.375510 0.055405 0.294394
Si Si3 0.111840 0.470689 0.720896
Si Si4 0.607691 0.939403 0.471304
Si Si5 0.097574 0.038280 0.499672
Si Si6 0.473046 0.752909 0.541514
Si Si7 0.813951 0.917245 0.133132
O O1 0.729483 0.902754 0.551945
O O2 0.880353 0.739998 0.282762
O O3 0.875927 0.032022 0.410528
O O4 0.838902 0.005761 0.221139
O O5 0.392739 0.982635 0.398158
O O6 0.409520 0.912990 0.150260
O O7 0.443357 0.215475 0.173582
O O8 0.167270 0.516948 0.517983
O O9 0.009267 0.523696 0.852698
O O10 0.137894 0.533819 0.813743
O O11 0.528721 0.799601 0.574554
O O12 0.708329 0.869332 0.300260
O O13 0.585854 0.086924 0.410302
O O14 0.130049 0.238377 0.456301
#
# Coordination Sequence:
#
# PCOD9242567 Si02
#       7
#     4   4   4   4   4   4   4
#     4   9  18  33  53  77 107 141 177 224 279 331
#     4  10  20  36  57  83 115 150 190 234 283 338
#     4   9  17  31  52  77 103 135 179 225 272 331
#     4  10  20  36  57  83 115 150 190 234 283 338
#     4   9  17  31  52  77 103 135 179 225 272 331
#     4  10  20  34  56  84 114 150 190 232 280 338
#     4   9  18  33  53  77 107 141 177 224 279 331
#
# _framework density 21.651288999999998
#
# number of rings (size 3 to 8) (size 9 to 14) (size 15 to 20)
#    0.000    2.571    0.000    2.571    0.000    0.571 
#    0.000   10.000    0.000   13.714    0.000    0.000 
#    0.000    0.000    0.000    0.000    0.000    0.000 
#
# Total GULP energy -155903.933503 kJ/mol
# GULP energy per Si atom -5567.997625 kJ/mol
# Density = 2.160201 g / cm^3
# Si number density = 21.651289 Si / 1000 Ang^3
#
#
#
# Elastic Constant Matrix: (Units=GPa)
#
#
# Indices 1 2 3 4 5 6 
#
# 1 114.9443 -0.4715 4.7097 0.0000 19.9789 0.0000
# 2 -0.4715 45.2245 6.8545 0.0000 -19.0618 0.0000
# 3 4.7097 6.8545 42.0995 0.0000 1.0629 0.0000
# 4 0.0000 0.0000 0.0000 12.6899 0.0000 -4.7381
# 5 19.9789 -19.0618 1.0629 0.0000 53.6791 0.0000
# 6 0.0000 0.0000 0.0000 -4.7381 0.0000 7.6275
#
#
#
# Elastic Compliance Matrix: (Units=1/GPa)
#
#
# Indices 1 2 3 4 5 6 
#
# 1 0.009422 -0.001489 -0.000710 0.000000 -0.004021 0.000000
# 2 -0.001489 0.027108 -0.004506 0.000000 0.010270 0.000000
# 3 -0.000710 -0.004506 0.024612 0.000000 -0.001823 0.000000
# 4 0.000000 0.000000 0.000000 0.102600 0.000000 0.063734
# 5 -0.004021 0.010270 -0.001823 0.000000 0.023809 0.000000
# 6 0.000000 0.000000 0.000000 0.063734 0.000000 0.170697
#
#
# Mechanical properties :
#
#
# Convention : Reuss Voigt Hill
#
# Bulk Modulus (GPa) = 20.95067 24.93931 22.94499
# Shear Modulus (GPa) = 12.90092 27.54433 20.22262
#
# Velocity S-wave (km/s) = 2.44365 3.57063 3.05948
# Velocity P-wave (km/s) = 4.20230 5.34255 4.80636
#
# Compressibility (1/GPa) = 0.04773118
#
# Stress axis : x y z
#
# Youngs Moduli (GPa) = 106.13637 36.88945 40.62985
#
# Poissons Ratio (x) = 0.05494 0.02885
# Poissons Ratio (y) = 0.15806 0.18309
# Poissons Ratio (z) = 0.07536 0.16624
#
# Static dielectric constant tensor:
#      x y z
#    x 1.853360 0.000000 0.091860 
#    y 0.000000 1.802860 0.000000 
#    z 0.091860 0.000000 1.808040 
# 
# From -- ./inp_files/34927.got.cif
#   From: 2010.05.17/outbox.cif.g08.bks.cpg/sg14_18_cif.got.tgz:34927.got - 2010.06.03 17:49:19.
