data_PCOD9242349
_publ_section_title
;
Structure prediction by ZEFSAII (Michael W. Deem and Ramdas Pophale) SiO2 
 PCOD9242349
Probable space group: P 21/C
;
_chemical_formula_sum "Si O2"
_cell_formula_units_Z 32
_cell_length_a 25.893912
_cell_length_b 10.406113
_cell_length_c 14.634018
_cell_angle_alpha 90.000000
_cell_angle_beta 20.405234
_cell_angle_gamma 90.000000
_cell_volume 1374.830031
_symmetry_space_group_name_H-M "P 21/C"
_symmetry_group_IT_number 14
_symmetry_cell_setting 'monoclinic'
loop_
_space_group_symop_operation_xyz
x,y,z
-x,1/2+y,1/2-z
-x,-y,-z
x,1/2-y,1/2+z
loop_
_atom_site_type_symbol
_atom_site_label
_atom_site_fract_x
_atom_site_fract_y
_atom_site_fract_z
Si Si1 0.826538 0.746883 0.505040
Si Si2 0.673374 0.178329 0.359951
Si Si3 0.403852 0.892085 0.878072
Si Si4 0.689328 0.144641 0.677825
Si Si5 0.567783 0.570334 0.502619
Si Si6 0.113420 0.065431 0.742197
Si Si7 0.744072 0.604577 0.808718
Si Si8 0.385132 0.433183 0.258578
O O1 0.707409 0.852214 0.735080
O O2 0.928205 0.825196 0.263665
O O3 0.856599 0.677043 0.552627
O O4 0.739397 0.642384 0.588841
O O5 0.683343 0.284800 0.422021
O O6 0.738586 0.235103 0.156691
O O7 0.498903 0.157780 0.625256
O O8 0.740742 0.044697 0.283116
O O9 0.573710 0.852285 0.574985
O O10 0.325452 0.951964 0.920289
O O11 0.422550 0.017745 0.912108
O O12 0.581093 0.065025 0.925945
O O13 0.816282 0.051508 0.431482
O O14 0.578129 0.153681 0.776596
O O15 0.226043 0.121429 0.632749
O O16 0.000000 0.000000 0.000000
O O17 0.500000 0.500000 0.000000
#
# Coordination Sequence:
#
# PCOD9242349 Si02
#       8
#     4   4   4   4   4   4   4   4
#     4  11  22  38  60  92 127 156 200 257 304 378
#     4  10  20  34  53  89 126 157 192 239 302 383
#     4  10  20  31  53  89 128 160 189 229 309 399
#     4   9  17  34  58  84 116 153 194 254 297 364
#     4   9  17  30  55  86 119 154 190 233 310 374
#     4  11  25  45  64  83 112 167 221 255 307 356
#     4  11  23  37  60  90 118 164 201 255 308 358
#     4  11  20  30  49  89 130 160 184 234 312 373
#
# _framework density 23.275604000000001
#
# number of rings (size 3 to 8) (size 9 to 14) (size 15 to 20)
#    0.000    1.750    5.000    0.750    5.250    1.000 
#    2.250    0.000    0.000    0.750    0.000    0.000 
#    0.000    0.000    0.000    0.000    0.000    0.000 
#
# Total GULP energy -178490.985622 kJ/mol
# GULP energy per Si atom -5577.843301 kJ/mol
# Density = 2.322263 g / cm^3
# Si number density = 23.275604 Si / 1000 Ang^3
#
#
#
# Elastic Constant Matrix: (Units=GPa)
#
#
# Indices 1 2 3 4 5 6 
#
# 1 40.1865 26.8593 0.3834 0.0000 20.4099 0.0000
# 2 26.8593 98.9280 29.8226 0.0000 24.7176 0.0000
# 3 0.3834 29.8226 70.8372 0.0000 23.1495 0.0000
# 4 0.0000 0.0000 0.0000 41.2298 0.0000 31.7296
# 5 20.4099 24.7176 23.1495 0.0000 28.9206 0.0000
# 6 0.0000 0.0000 0.0000 31.7296 0.0000 44.8519
#
#
#
# Elastic Compliance Matrix: (Units=1/GPa)
#
#
# Indices 1 2 3 4 5 6 
#
# 1 0.053008 -0.008716 0.017840 0.000000 -0.044239 0.000000
# 2 -0.008716 0.014613 -0.005463 0.000000 -0.001965 0.000000
# 3 0.017840 -0.005463 0.025607 0.000000 -0.028419 0.000000
# 4 0.000000 0.000000 0.000000 0.053239 0.000000 -0.037663
# 5 -0.044239 -0.001965 -0.028419 0.000000 0.090225 0.000000
# 6 0.000000 0.000000 0.000000 -0.037663 0.000000 0.048939
#
#
# Mechanical properties :
#
#
# Convention : Reuss Voigt Hill
#
# Bulk Modulus (GPa) = 9.94534 36.00916 22.97725
# Shear Modulus (GPa) = 16.03461 33.19289 24.61375
#
# Velocity S-wave (km/s) = 2.62754 3.78045 3.25544
# Velocity P-wave (km/s) = 3.67252 5.87878 4.90140
#
# Compressibility (1/GPa) = 0.10054962
#
# Stress axis : x y z
#
# Youngs Moduli (GPa) = 18.86517 68.43402 39.05135
#
# Poissons Ratio (x) = 0.59650 -0.69668
# Poissons Ratio (y) = 0.16444 0.21332
# Poissons Ratio (z) = -0.33656 0.37383
#
# Static dielectric constant tensor:
#      x y z
#    x 2.065420 0.000000 0.002620 
#    y 0.000000 1.968410 0.000000 
#    z 0.002620 0.000000 1.903590 
# 
# From -- ./inp_files/52304.got.cif
#   From: 2010.05.17/outbox.cif.g08.bks.cpg/sg14_27_cif.got.tgz:52304.got - 2010.06.03 17:49:19.
