data_PCOD9242661
_publ_section_title
;
Structure prediction by ZEFSAII (Michael W. Deem and Ramdas Pophale) SiO2 
 PCOD9242661
Probable space group: P 21/C
;
_chemical_formula_sum "Si O2"
_cell_formula_units_Z 32
_cell_length_a 11.326511
_cell_length_b 24.699776
_cell_length_c 11.137954
_cell_angle_alpha 90.000000
_cell_angle_beta 33.150921
_cell_angle_gamma 90.000000
_cell_volume 1703.961708
_symmetry_space_group_name_H-M "P 21/C"
_symmetry_group_IT_number 14
_symmetry_cell_setting 'monoclinic'
loop_
_space_group_symop_operation_xyz
x,y,z
-x,1/2+y,1/2-z
-x,-y,-z
x,1/2-y,1/2+z
loop_
_atom_site_type_symbol
_atom_site_label
_atom_site_fract_x
_atom_site_fract_y
_atom_site_fract_z
Si Si1 0.989807 0.058556 0.154042
Si Si2 0.575301 0.385085 0.906725
Si Si3 0.154301 0.775520 0.487129
Si Si4 0.566383 0.309889 0.465985
Si Si5 0.423973 0.207539 0.707776
Si Si6 0.791561 0.650568 0.393175
Si Si7 0.848451 0.559606 0.758303
Si Si8 0.844649 0.343650 0.451964
O O1 0.763696 0.089933 0.328157
O O2 0.136098 0.092451 0.120197
O O3 0.936934 0.996968 0.232712
O O4 0.100096 0.058796 0.928390
O O5 0.688245 0.359502 0.694956
O O6 0.449054 0.339214 0.088019
O O7 0.405753 0.430865 0.012184
O O8 0.263594 0.778179 0.263448
O O9 0.349902 0.786445 0.413413
O O10 0.064932 0.715923 0.593251
O O11 0.979569 0.821630 0.656721
O O12 0.403348 0.265697 0.662726
O O13 0.425837 0.348311 0.500029
O O14 0.701034 0.338812 0.455074
O O15 0.250513 0.188595 0.953674
O O16 0.973734 0.610551 0.707910
#
# Coordination Sequence:
#
# PCOD9242661 Si02
#       8
#     4   4   4   4   4   4   4   4
#     4  10  21  38  57  90 112 146 200 235 289 342
#     4  11  19  36  60  84 115 148 182 243 289 333
#     4  10  21  36  56  84 117 156 185 235 281 343
#     4  10  23  38  55  86 122 156 191 226 284 354
#     4  10  20  35  55  87 117 143 191 228 283 344
#     4  11  22  36  62  85 116 155 187 237 286 341
#     4  10  22  36  60  84 117 149 188 247 289 331
#     4  10  23  37  57  85 119 151 193 233 285 348
#
# _framework density 18.779765000000001
#
# number of rings (size 3 to 8) (size 9 to 14) (size 15 to 20)
#    0.000    1.750    3.750    0.375    1.750    3.000 
#    0.000    0.625    0.000    1.500    0.000    0.000 
#    0.000    0.000    0.000    0.000    0.000    0.000 
#
# Total GULP energy -178712.354474 kJ/mol
# GULP energy per Si atom -5584.761077 kJ/mol
# Density = 1.873702 g / cm^3
# Si number density = 18.779765 Si / 1000 Ang^3
#
#
#
# Elastic Constant Matrix: (Units=GPa)
#
#
# Indices 1 2 3 4 5 6 
#
# 1 74.0204 35.1746 -0.6917 0.0000 1.3901 0.0000
# 2 35.1746 73.8853 -10.2354 0.0000 -1.2736 0.0000
# 3 -0.6917 -10.2354 19.5497 0.0000 0.1086 0.0000
# 4 0.0000 0.0000 0.0000 15.7670 0.0000 1.1172
# 5 1.3901 -1.2736 0.1086 0.0000 13.2499 0.0000
# 6 0.0000 0.0000 0.0000 1.1172 0.0000 29.1872
#
#
#
# Elastic Compliance Matrix: (Units=1/GPa)
#
#
# Indices 1 2 3 4 5 6 
#
# 1 0.017856 -0.009119 -0.004128 0.000000 -0.002716 0.000000
# 2 -0.009119 0.019274 0.009753 0.000000 0.002729 0.000000
# 3 -0.004128 0.009753 0.056107 0.000000 0.000911 0.000000
# 4 0.000000 0.000000 0.000000 0.063596 0.000000 -0.002434
# 5 -0.002716 0.002729 0.000911 0.000000 0.076012 0.000000
# 6 0.000000 0.000000 0.000000 -0.002434 0.000000 0.034355
#
#
# Mechanical properties :
#
#
# Convention : Reuss Voigt Hill
#
# Bulk Modulus (GPa) = 11.59422 23.99447 17.79434
# Shear Modulus (GPa) = 16.50510 21.18802 18.84656
#
# Velocity S-wave (km/s) = 2.96780 3.36257 3.17133
# Velocity P-wave (km/s) = 4.23450 5.28018 4.78598
#
# Compressibility (1/GPa) = 0.08624987
#
# Stress axis : x y z
#
# Youngs Moduli (GPa) = 56.00467 51.88332 17.82308
#
# Poissons Ratio (x) = 0.47313 0.07357
# Poissons Ratio (y) = 0.51071 -0.17383
# Poissons Ratio (z) = 0.23116 -0.50603
#
# Static dielectric constant tensor:
#      x y z
#    x 1.645730 0.000000 -0.005390 
#    y 0.000000 1.648500 0.000000 
#    z -0.005390 0.000000 1.648520 
# 
# From -- ./inp_files/22076.got.cif
#   From: 2010.05.17/outbox.cif.g08.bks.cpg/sg14_12_cif.got.tgz:22076.got - 2010.06.03 17:49:19.
