data_PCOD9242347
_publ_section_title
;
Structure prediction by ZEFSAII (Michael W. Deem and Ramdas Pophale) SiO2 
 PCOD9242347
Probable space group: P 21/C
;
_chemical_formula_sum "Si O2"
_cell_formula_units_Z 24
_cell_length_a 10.381710
_cell_length_b 12.091343
_cell_length_c 8.631414
_cell_angle_alpha 90.000000
_cell_angle_beta 62.880901
_cell_angle_gamma 90.000000
_cell_volume 964.373143
_symmetry_space_group_name_H-M "P 21/C"
_symmetry_group_IT_number 14
_symmetry_cell_setting 'monoclinic'
loop_
_space_group_symop_operation_xyz
x,y,z
-x,1/2+y,1/2-z
-x,-y,-z
x,1/2-y,1/2+z
loop_
_atom_site_type_symbol
_atom_site_label
_atom_site_fract_x
_atom_site_fract_y
_atom_site_fract_z
Si Si1 0.663878 0.858224 0.369076
Si Si2 0.978167 0.901036 0.692233
Si Si3 0.147609 0.251122 0.487122
Si Si4 0.237826 0.945009 0.373436
Si Si5 0.559114 0.179367 0.935899
Si Si6 0.553579 0.484524 0.693995
O O1 0.792285 0.833776 0.418481
O O2 0.517299 0.796656 0.505761
O O3 0.632982 0.974393 0.303715
O O4 0.718698 0.784257 0.193533
O O5 0.924347 0.852973 0.883303
O O6 0.961130 0.807132 0.569649
O O7 0.145221 0.929851 0.578656
O O8 0.869720 0.996435 0.690721
O O9 0.381478 0.018464 0.322902
O O10 0.307561 0.836674 0.254530
O O11 0.600646 0.124460 0.077762
O O12 0.443271 0.088141 0.931499
#
# Coordination Sequence:
#
# PCOD9242347 Si02
#       6
#     4   4   4   4   4   4
#     4  11  18  34  54  82 105 138 172 229 264 309
#     4  10  20  35  54  77 101 147 176 211 254 321
#     4  10  20  31  53  77 107 132 181 213 258 313
#     4   9  18  35  55  73 104 145 177 203 261 336
#     4   9  18  33  55  82 101 141 172 217 269 316
#     4   9  17  32  56  76 102 138 171 218 265 309
#
# _framework density 24.886631000000001
#
# number of rings (size 3 to 8) (size 9 to 14) (size 15 to 20)
#    1.000    1.333    1.667    3.000    0.000    1.333 
#    0.000    3.333    0.000   25.000    0.000    0.000 
#    0.000    0.000    0.000    0.000    0.000    0.000 
#
# Total GULP energy -134032.284762 kJ/mol
# GULP energy per Si atom -5584.678532 kJ/mol
# Density = 2.482999 g / cm^3
# Si number density = 24.886631 Si / 1000 Ang^3
#
#
#
# Elastic Constant Matrix: (Units=GPa)
#
#
# Indices 1 2 3 4 5 6 
#
# 1 59.1275 10.7791 22.9166 0.0000 -7.7864 0.0000
# 2 10.7791 62.7526 18.3615 0.0000 -6.8042 0.0000
# 3 22.9166 18.3615 90.7565 0.0000 -17.5102 0.0000
# 4 0.0000 0.0000 0.0000 49.1669 0.0000 4.5017
# 5 -7.7864 -6.8042 -17.5102 0.0000 39.2825 0.0000
# 6 0.0000 0.0000 0.0000 4.5017 0.0000 34.3491
#
#
#
# Elastic Compliance Matrix: (Units=1/GPa)
#
#
# Indices 1 2 3 4 5 6 
#
# 1 0.019067 -0.001895 -0.004120 0.000000 0.001615 0.000000
# 2 -0.001895 0.017212 -0.002736 0.000000 0.001386 0.000000
# 3 -0.004120 -0.002736 0.013527 0.000000 0.004739 0.000000
# 4 0.000000 0.000000 0.000000 0.020586 0.000000 -0.002698
# 5 0.001615 0.001386 0.004739 0.000000 0.028129 0.000000
# 6 0.000000 0.000000 0.000000 -0.002698 0.000000 0.029466
#
#
# Mechanical properties :
#
#
# Convention : Reuss Voigt Hill
#
# Bulk Modulus (GPa) = 30.95555 35.19456 33.07506
# Shear Modulus (GPa) = 31.99845 35.26498 33.63171
#
# Velocity S-wave (km/s) = 3.58965 3.76842 3.68012
# Velocity P-wave (km/s) = 5.44485 5.75390 5.60151
#
# Compressibility (1/GPa) = 0.03230438
#
# Stress axis : x y z
#
# Youngs Moduli (GPa) = 52.44552 58.09892 73.92790
#
# Poissons Ratio (x) = 0.11008 0.30456
# Poissons Ratio (y) = 0.09937 0.20230
# Poissons Ratio (z) = 0.21606 0.15898
#
# Static dielectric constant tensor:
#      x y z
#    x 2.014390 0.000000 0.036300 
#    y 0.000000 2.073910 0.000000 
#    z 0.036300 0.000000 2.028820 
# 
# From -- ./inp_files/15977.got.cif
#   From: 2010.05.17/outbox.cif.g08.bks.cpg/sg14_8_cif.got.tgz:15977.got - 2010.06.03 17:49:19.
