data_PCOD9242910
_publ_section_title
;
Structure prediction by ZEFSAII (Michael W. Deem and Ramdas Pophale) SiO2 
 PCOD9242910
Probable space group: P 21/C
;
_chemical_formula_sum "Si O2"
_cell_formula_units_Z 24
_cell_length_a 5.574322
_cell_length_b 25.204290
_cell_length_c 8.733031
_cell_angle_alpha 90.000000
_cell_angle_beta 63.226089
_cell_angle_gamma 90.000000
_cell_volume 1095.421698
_symmetry_space_group_name_H-M "P 21/C"
_symmetry_group_IT_number 14
_symmetry_cell_setting 'monoclinic'
loop_
_space_group_symop_operation_xyz
x,y,z
-x,1/2+y,1/2-z
-x,-y,-z
x,1/2-y,1/2+z
loop_
_atom_site_type_symbol
_atom_site_label
_atom_site_fract_x
_atom_site_fract_y
_atom_site_fract_z
Si Si1 0.148208 0.688398 0.700549
Si Si2 0.627620 0.080063 0.925496
Si Si3 0.702437 0.997701 0.149024
Si Si4 0.137396 0.465633 0.091824
Si Si5 0.843225 0.302442 0.953324
Si Si6 0.325056 0.351937 0.973728
O O1 0.319798 0.642042 0.570656
O O2 0.141971 0.742706 0.610785
O O3 0.261508 0.696325 0.840658
O O4 0.845712 0.669190 0.829034
O O5 0.895745 0.059062 0.763648
O O6 0.406266 0.059928 0.869469
O O7 0.564695 0.045743 0.095591
O O8 0.702987 0.000304 0.330042
O O9 0.000000 0.000000 0.000000
O O10 0.291891 0.414850 0.983772
O O11 0.000000 0.500000 0.000000
O O12 0.630717 0.333565 0.907963
O O13 0.142078 0.328033 0.887586
#
# Coordination Sequence:
#
# PCOD9242910 Si02
#       6
#     4   4   4   4   4   4
#     4   9  21  37  60  83 111 155 190 244 287 344
#     4   9  18  38  56  82 110 153 190 236 283 345
#     4   9  18  34  58  80 113 147 192 229 285 344
#     4  10  20  36  57  85 114 154 185 238 293 350
#     4  10  21  38  61  81 115 149 197 235 293 339
#     4   9  22  39  60  84 117 153 187 243 290 343
#
# _framework density 21.909369999999999
#
# number of rings (size 3 to 8) (size 9 to 14) (size 15 to 20)
#    1.000    1.667    0.000    1.000    2.333    0.667 
#    3.000    3.333    0.000    0.000    0.000    0.000 
#    0.000    0.000    0.000    0.000    0.000    0.000 
#
# Total GULP energy -133752.318330 kJ/mol
# GULP energy per Si atom -5573.013264 kJ/mol
# Density = 2.185950 g / cm^3
# Si number density = 21.909370 Si / 1000 Ang^3
#
#
#
# Elastic Constant Matrix: (Units=GPa)
#
#
# Indices 1 2 3 4 5 6 
#
# 1 96.0627 42.4762 30.7939 0.0000 28.0851 0.0000
# 2 42.4762 137.0093 43.2368 0.0000 20.0012 0.0000
# 3 30.7939 43.2368 73.7727 0.0000 23.5984 0.0000
# 4 0.0000 0.0000 0.0000 25.8913 0.0000 -0.7604
# 5 28.0851 20.0012 23.5984 0.0000 38.0814 0.0000
# 6 0.0000 0.0000 0.0000 -0.7604 0.0000 26.1127
#
#
#
# Elastic Compliance Matrix: (Units=1/GPa)
#
#
# Indices 1 2 3 4 5 6 
#
# 1 0.014615 -0.002746 -0.001877 0.000000 -0.008174 0.000000
# 2 -0.002746 0.009572 -0.004370 0.000000 -0.000295 0.000000
# 3 -0.001877 -0.004370 0.019610 0.000000 -0.008473 0.000000
# 4 0.000000 0.000000 0.000000 0.038656 0.000000 0.001126
# 5 -0.008174 -0.000295 -0.008473 0.000000 0.037693 0.000000
# 6 0.000000 0.000000 0.000000 0.001126 0.000000 0.038328
#
#
# Mechanical properties :
#
#
# Convention : Reuss Voigt Hill
#
# Bulk Modulus (GPa) = 38.74056 59.98429 49.36242
# Shear Modulus (GPa) = 27.01791 30.70627 28.86209
#
# Velocity S-wave (km/s) = 3.51546 3.74774 3.63346
# Velocity P-wave (km/s) = 5.84795 6.79450 6.33892
#
# Compressibility (1/GPa) = 0.02581274
#
# Stress axis : x y z
#
# Youngs Moduli (GPa) = 68.42202 104.47216 50.99496
#
# Poissons Ratio (x) = 0.28683 0.09571
# Poissons Ratio (y) = 0.18785 0.22283
# Poissons Ratio (z) = 0.12842 0.45650
#
# Static dielectric constant tensor:
#      x y z
#    x 2.517430 0.000000 -0.232360 
#    y 0.000000 1.780210 0.000000 
#    z -0.232360 0.000000 1.918070 
# 
# From -- ./inp_files/6274.got.cif
#   From: 2010.05.17/outbox.cif.g08.bks.cpg/sg14_4_cif.got.tgz:6274.got - 2010.06.03 17:49:19.
