data_PCOD9242456
_publ_section_title
;
Structure prediction by ZEFSAII (Michael W. Deem and Ramdas Pophale) SiO2 
 PCOD9242456
Probable space group: P 21/C
;
_chemical_formula_sum "Si O2"
_cell_formula_units_Z 32
_cell_length_a 12.226676
_cell_length_b 18.936647
_cell_length_c 11.804490
_cell_angle_alpha 90.000000
_cell_angle_beta 33.144471
_cell_angle_gamma 90.000000
_cell_volume 1494.338893
_symmetry_space_group_name_H-M "P 21/C"
_symmetry_group_IT_number 14
_symmetry_cell_setting 'monoclinic'
loop_
_space_group_symop_operation_xyz
x,y,z
-x,1/2+y,1/2-z
-x,-y,-z
x,1/2-y,1/2+z
loop_
_atom_site_type_symbol
_atom_site_label
_atom_site_fract_x
_atom_site_fract_y
_atom_site_fract_z
Si Si1 0.717272 0.140496 0.196163
Si Si2 0.447837 0.178210 0.103449
Si Si3 0.991432 0.067391 0.774497
Si Si4 0.150760 0.211689 0.527973
Si Si5 0.421258 0.022614 0.441786
Si Si6 0.453334 0.786842 0.219756
Si Si7 0.237774 0.803614 0.612529
Si Si8 0.422689 0.525551 0.442413
O O1 0.504070 0.103089 0.368706
O O2 0.697786 0.222316 0.178606
O O3 0.769174 0.140019 0.282696
O O4 0.876033 0.099030 0.983406
O O5 0.226850 0.201667 0.332684
O O6 0.509883 0.108155 0.115667
O O7 0.479394 0.166929 0.944011
O O8 0.600907 0.241790 0.998012
O O9 0.076173 0.135637 0.634678
O O10 0.182499 0.021811 0.643084
O O11 0.819214 0.026791 0.854080
O O12 0.347394 0.246029 0.413371
O O13 0.973224 0.265446 0.705867
O O14 0.502751 0.995551 0.246153
O O15 0.500000 0.000000 0.500000
O O16 0.332400 0.832055 0.415688
O O17 0.500000 0.500000 0.500000
#
# Coordination Sequence:
#
# PCOD9242456 Si02
#       8
#     4   4   4   4   4   4   4   4
#     4  10  21  35  59  89 119 161 207 257 309 377
#     4  10  21  36  56  86 124 159 202 257 308 373
#     4  11  20  40  66  87 122 166 213 252 320 381
#     4  11  18  34  59  87 117 164 207 241 311 386
#     4  11  24  44  67  89 124 170 218 270 317 370
#     4  10  20  33  55  88 126 159 200 254 309 374
#     4  10  20  34  56  89 124 157 202 251 314 372
#     4  11  24  43  64  94 125 166 217 269 319 378
#
# _framework density 21.414152999999999
#
# number of rings (size 3 to 8) (size 9 to 14) (size 15 to 20)
#    0.000    1.500    5.000    1.500    1.750    4.500 
#    0.000    1.250    0.000    0.000    0.000    0.000 
#    0.000    0.000    0.000    0.000    0.000    0.000 
#
# Total GULP energy -178283.920885 kJ/mol
# GULP energy per Si atom -5571.372528 kJ/mol
# Density = 2.136541 g / cm^3
# Si number density = 21.414153 Si / 1000 Ang^3
#
#
#
# Elastic Constant Matrix: (Units=GPa)
#
#
# Indices 1 2 3 4 5 6 
#
# 1 135.7410 19.1364 84.4851 0.0000 15.9103 0.0000
# 2 19.1364 26.1974 10.2633 0.0000 -1.9405 0.0000
# 3 84.4851 10.2633 166.3502 0.0000 2.7304 0.0000
# 4 0.0000 0.0000 0.0000 6.0607 0.0000 -2.3775
# 5 15.9103 -1.9405 2.7304 0.0000 46.5367 0.0000
# 6 0.0000 0.0000 0.0000 -2.3775 0.0000 31.5217
#
#
#
# Elastic Compliance Matrix: (Units=1/GPa)
#
#
# Indices 1 2 3 4 5 6 
#
# 1 0.012508 -0.007162 -0.005841 0.000000 -0.004232 0.000000
# 2 -0.007162 0.043365 0.000893 0.000000 0.004204 0.000000
# 3 -0.005841 0.000893 0.008898 0.000000 0.001512 0.000000
# 4 0.000000 0.000000 0.000000 0.170028 0.000000 0.012824
# 5 -0.004232 0.004204 0.001512 0.000000 0.023022 0.000000
# 6 0.000000 0.000000 0.000000 0.012824 0.000000 0.032691
#
#
# Mechanical properties :
#
#
# Convention : Reuss Voigt Hill
#
# Bulk Modulus (GPa) = 24.66054 61.78424 43.22239
# Shear Modulus (GPa) = 15.23226 31.11741 23.17484
#
# Velocity S-wave (km/s) = 2.66995 3.81612 3.29328
# Velocity P-wave (km/s) = 4.58757 6.95210 5.88972
#
# Compressibility (1/GPa) = 0.04055062
#
# Stress axis : x y z
#
# Youngs Moduli (GPa) = 79.94631 23.06007 112.38254
#
# Poissons Ratio (x) = 0.16516 0.65647
# Poissons Ratio (y) = 0.57258 -0.10035
# Poissons Ratio (z) = 0.46699 -0.02059
#
# Static dielectric constant tensor:
#      x y z
#    x 1.895220 0.000000 0.086600 
#    y 0.000000 1.791730 0.000000 
#    z 0.086600 0.000000 1.803380 
# 
# From -- ./inp_files/30728.got.cif
#   From: 2010.05.17/outbox.cif.g08.bks.cpg/sg14_16_cif.got.tgz:30728.got - 2010.06.03 17:49:19.
