data_PCOD9242332
_publ_section_title
;
Structure prediction by ZEFSAII (Michael W. Deem and Ramdas Pophale) SiO2 
 PCOD9242332
Probable space group: P 21/C
;
_chemical_formula_sum "Si O2"
_cell_formula_units_Z 30
_cell_length_a 12.803807
_cell_length_b 4.928310
_cell_length_c 20.631947
_cell_angle_alpha 90.000000
_cell_angle_beta 53.339994
_cell_angle_gamma 90.000000
_cell_volume 1044.373891
_symmetry_space_group_name_H-M "P 21/C"
_symmetry_group_IT_number 14
_symmetry_cell_setting 'monoclinic'
loop_
_space_group_symop_operation_xyz
x,y,z
-x,1/2+y,1/2-z
-x,-y,-z
x,1/2-y,1/2+z
loop_
_atom_site_type_symbol
_atom_site_label
_atom_site_fract_x
_atom_site_fract_y
_atom_site_fract_z
Si Si1 0.775312 0.063142 0.309900
Si Si2 0.118348 0.425281 0.667103
Si Si3 0.361873 0.238207 0.248599
Si Si4 0.500000 0.500000 0.000000
Si Si5 0.852381 0.347154 0.027341
Si Si6 0.648417 0.441996 0.515393
Si Si7 0.463530 0.225919 0.342787
Si Si8 0.996010 0.352450 0.582003
O O1 0.835682 0.364554 0.294009
O O2 0.741905 0.894228 0.256789
O O3 0.880662 0.878273 0.307534
O O4 0.643453 0.046267 0.403315
O O5 0.242022 0.472158 0.574351
O O6 0.006073 0.419044 0.653931
O O7 0.350250 0.263977 0.330861
O O8 0.416068 0.939113 0.210575
O O9 0.485942 0.430124 0.189642
O O10 0.533905 0.233156 0.029161
O O11 0.723287 0.228026 0.043247
O O12 0.868114 0.292751 0.098663
O O13 0.891812 0.636111 0.982510
O O14 0.967618 0.145220 0.960493
O O15 0.588501 0.718152 0.566393
#
# Coordination Sequence:
#
# PCOD9242332 Si02
#       8
#     4   4   4   2   4   4   4   4
#     4  11  21  32  47  71 100 132 164 197 245 306
#     4  10  21  30  49  73 101 125 162 198 255 301
#     4  10  21  37  49  70  91 142 174 210 239 284
#     4  10  20  28  48  68 108 126 152 198 244 294
#     4   9  18  29  49  67  99 128 166 193 244 295
#     4  10  20  33  49  79 101 138 162 206 250 305
#     4  10  21  35  54  65 100 131 180 209 239 282
#     4   9  16  32  46  69  97 131 156 202 240 302
#
# _framework density 28.725345000000001
#
# number of rings (size 3 to 8) (size 9 to 14) (size 15 to 20)
#    0.000    2.133    1.333    3.200    1.867    3.200 
#    0.000    0.000    0.000    0.000    0.000    1.867 
#    0.000    0.000    0.000    0.400    0.000    0.000 
#
# Total GULP energy -167460.064595 kJ/mol
# GULP energy per Si atom -5582.002153 kJ/mol
# Density = 2.865996 g / cm^3
# Si number density = 28.725345 Si / 1000 Ang^3
#
#
#
# Elastic Constant Matrix: (Units=GPa)
#
#
# Indices 1 2 3 4 5 6 
#
# 1 127.8795 19.7320 6.5987 0.0000 17.2321 0.0000
# 2 19.7320 122.4610 -5.9743 0.0000 -6.0138 0.0000
# 3 6.5987 -5.9743 76.2287 0.0000 -4.6131 0.0000
# 4 0.0000 0.0000 0.0000 22.9909 0.0000 -3.6031
# 5 17.2321 -6.0138 -4.6131 0.0000 34.7876 0.0000
# 6 0.0000 0.0000 0.0000 -3.6031 0.0000 48.2718
#
#
#
# Elastic Compliance Matrix: (Units=1/GPa)
#
#
# Indices 1 2 3 4 5 6 
#
# 1 0.008793 -0.001711 -0.001186 0.000000 -0.004809 0.000000
# 2 -0.001711 0.008610 0.000972 0.000000 0.002465 0.000000
# 3 -0.001186 0.000972 0.013451 0.000000 0.002539 0.000000
# 4 0.000000 0.000000 0.000000 0.044010 0.000000 0.003285
# 5 -0.004809 0.002465 0.002539 0.000000 0.031891 0.000000
# 6 0.000000 0.000000 0.000000 0.003285 0.000000 0.020961
#
#
# Mechanical properties :
#
#
# Convention : Reuss Voigt Hill
#
# Bulk Modulus (GPa) = 37.03165 40.80911 38.92038
# Shear Modulus (GPa) = 35.57009 41.62425 38.59717
#
# Velocity S-wave (km/s) = 3.52274 3.81076 3.66958
# Velocity P-wave (km/s) = 5.42825 5.79655 5.61542
#
# Compressibility (1/GPa) = 0.02700393
#
# Stress axis : x y z
#
# Youngs Moduli (GPa) = 113.72634 116.14416 74.34413
#
# Poissons Ratio (x) = 0.19870 0.08819
# Poissons Ratio (y) = 0.19457 -0.07227
# Poissons Ratio (z) = 0.13491 -0.11290
#
# Static dielectric constant tensor:
#      x y z
#    x 2.129440 0.000000 -0.091000 
#    y 0.000000 1.991620 0.000000 
#    z -0.091000 0.000000 2.384050 
# 
# From -- ./inp_files/73416.got.cif
#   From: 2010.05.17/outbox.cif.g08.bks.cpg/sg14_37_cif.got.tgz:73416.got - 2010.06.03 17:49:19.
