data_PCOD9242045
_publ_section_title
;
Structure prediction by ZEFSAII (Michael W. Deem and Ramdas Pophale) SiO2 
 PCOD9242045
Probable space group: P 21/C
;
_chemical_formula_sum "Si O2"
_cell_formula_units_Z 32
_cell_length_a 10.727176
_cell_length_b 15.231137
_cell_length_c 9.234253
_cell_angle_alpha 90.000000
_cell_angle_beta 72.157409
_cell_angle_gamma 90.000000
_cell_volume 1436.189307
_symmetry_space_group_name_H-M "P 21/C"
_symmetry_group_IT_number 14
_symmetry_cell_setting 'monoclinic'
loop_
_space_group_symop_operation_xyz
x,y,z
-x,1/2+y,1/2-z
-x,-y,-z
x,1/2-y,1/2+z
loop_
_atom_site_type_symbol
_atom_site_label
_atom_site_fract_x
_atom_site_fract_y
_atom_site_fract_z
Si Si1 0.183015 0.362258 0.743686
Si Si2 0.920769 0.433065 0.923710
Si Si3 0.283656 0.813212 0.347202
Si Si4 0.766606 0.591522 0.965621
Si Si5 0.528599 0.919862 0.379971
Si Si6 0.778252 0.148977 0.960571
Si Si7 0.266508 0.448253 0.435124
Si Si8 0.083760 0.171529 0.808703
O O1 0.267166 0.384282 0.574099
O O2 0.158895 0.262877 0.801040
O O3 0.033426 0.398398 0.777032
O O4 0.246882 0.410223 0.858575
O O5 0.805536 0.493529 0.899974
O O6 0.846742 0.358025 0.038373
O O7 0.000000 0.500000 0.000000
O O8 0.405063 0.862865 0.378727
O O9 0.282658 0.711789 0.395187
O O10 0.281448 0.828251 0.175877
O O11 0.641013 0.630324 0.930958
O O12 0.889626 0.648606 0.869101
O O13 0.602138 0.948939 0.206995
O O14 0.500000 0.000000 0.500000
O O15 0.931934 0.172177 0.895711
O O16 0.763926 0.046361 0.001062
O O17 0.153601 0.404171 0.376742
#
# Coordination Sequence:
#
# PCOD9242045 Si02
#       8
#     4   4   4   4   4   4   4   4
#     4  11  21  41  72 111 148 183 242 310 379 448
#     4  10  19  38  72 102 140 182 237 302 380 437
#     4  12  27  48  73 110 146 205 254 308 380 447
#     4  10  21  41  69 100 137 193 237 298 374 445
#     4  11  26  51  73  97 142 198 262 305 370 450
#     4  12  27  47  74 112 156 192 253 316 387 454
#     4  11  27  47  74 113 151 199 250 313 384 451
#     4  11  23  42  72 112 150 189 242 309 386 454
#
# _framework density 22.281186000000002
#
# number of rings (size 3 to 8) (size 9 to 14) (size 15 to 20)
#    0.000    1.000    2.500    4.875    3.500    1.500 
#    9.000    0.000    0.000    0.000    0.000    0.000 
#    0.000    0.000    0.000    0.000    0.000    0.000 
#
# Total GULP energy -178756.832169 kJ/mol
# GULP energy per Si atom -5586.151005 kJ/mol
# Density = 2.223047 g / cm^3
# Si number density = 22.281186 Si / 1000 Ang^3
#
#
#
# Elastic Constant Matrix: (Units=GPa)
#
#
# Indices 1 2 3 4 5 6 
#
# 1 101.6817 36.8652 34.1883 0.0000 -1.7092 0.0000
# 2 36.8652 106.6692 27.6199 0.0000 10.3139 0.0000
# 3 34.1883 27.6199 126.2149 0.0000 4.2483 0.0000
# 4 0.0000 0.0000 0.0000 39.0835 0.0000 -5.0841
# 5 -1.7092 10.3139 4.2483 0.0000 27.2548 0.0000
# 6 0.0000 0.0000 0.0000 -5.0841 0.0000 19.2665
#
#
#
# Elastic Compliance Matrix: (Units=1/GPa)
#
#
# Indices 1 2 3 4 5 6 
#
# 1 0.012100 -0.003774 -0.002539 0.000000 0.002583 0.000000
# 2 -0.003774 0.011447 -0.001336 0.000000 -0.004360 0.000000
# 3 -0.002539 -0.001336 0.008938 0.000000 -0.001047 0.000000
# 4 0.000000 0.000000 0.000000 0.026496 0.000000 0.006992
# 5 0.002583 -0.004360 -0.001047 0.000000 0.038666 0.000000
# 6 0.000000 0.000000 0.000000 0.006992 0.000000 0.053748
#
#
# Mechanical properties :
#
#
# Convention : Reuss Voigt Hill
#
# Bulk Modulus (GPa) = 58.18149 59.10141 58.64145
# Shear Modulus (GPa) = 28.99877 32.84714 30.92295
#
# Velocity S-wave (km/s) = 3.61153 3.84371 3.72943
# Velocity P-wave (km/s) = 6.60000 6.80306 6.70230
#
# Compressibility (1/GPa) = 0.01718760
#
# Stress axis : x y z
#
# Youngs Moduli (GPa) = 82.64519 87.36206 111.87963
#
# Poissons Ratio (x) = 0.32972 0.28401
# Poissons Ratio (y) = 0.31192 0.14945
# Poissons Ratio (z) = 0.20980 0.11670
#
# Static dielectric constant tensor:
#      x y z
#    x 1.875690 0.000000 -0.003200 
#    y 0.000000 1.878500 0.000000 
#    z -0.003200 0.000000 1.861280 
# 
# From -- ./inp_files/13301.got.cif
#   From: 2010.05.17/outbox.cif.g08.bks.cpg/sg14_7_cif.got.tgz:13301.got - 2010.06.03 17:49:19.
