data_PCOD9242669
_publ_section_title
;
Structure prediction by ZEFSAII (Michael W. Deem and Ramdas Pophale) SiO2 
 PCOD9242669
Probable space group: P 21/C
;
_chemical_formula_sum "Si O2"
_cell_formula_units_Z 32
_cell_length_a 8.829858
_cell_length_b 10.262762
_cell_length_c 20.506224
_cell_angle_alpha 90.000000
_cell_angle_beta 89.999972
_cell_angle_gamma 90.000000
_cell_volume 1858.248000
_symmetry_space_group_name_H-M "P 21/C"
_symmetry_group_IT_number 14
_symmetry_cell_setting 'monoclinic'
loop_
_space_group_symop_operation_xyz
x,y,z
-x,1/2+y,1/2-z
-x,-y,-z
x,1/2-y,1/2+z
loop_
_atom_site_type_symbol
_atom_site_label
_atom_site_fract_x
_atom_site_fract_y
_atom_site_fract_z
Si Si1 0.432727 0.614564 0.199771
Si Si2 0.568533 0.101153 0.449526
Si Si3 0.068533 0.898848 0.550474
Si Si4 0.431943 0.598378 0.552335
Si Si5 0.931943 0.401622 0.447665
Si Si6 0.068289 0.103731 0.805372
Si Si7 0.067272 0.614564 0.199771
Si Si8 0.431711 0.396269 0.305372
O O1 0.476398 0.575902 0.125768
O O2 0.250000 0.631214 0.200315
O O3 0.473196 0.504373 0.251810
O O4 0.507897 0.753652 0.214127
O O5 0.750000 0.092145 0.452872
O O6 0.526573 0.251438 0.463929
O O7 0.500000 0.000000 0.500000
O O8 0.026573 0.748562 0.536071
O O9 0.023602 0.924098 0.625768
O O10 0.000000 0.000000 0.500000
O O11 0.500000 0.500000 0.500000
O O12 0.250000 0.589445 0.553534
O O13 0.496294 0.571721 0.624449
O O14 0.000000 0.500000 0.500000
O O15 0.996295 0.428279 0.375551
O O16 0.250000 0.106957 0.811105
O O17 0.007897 0.246349 0.785874
O O18 0.026804 0.995627 0.751810
#
# Coordination Sequence:
#
# PCOD9242669 Si02
#       8
#     4   4   4   4   4   4   4   4
#     4   9  20  37  53  75 108 139 173 218 262 310
#     4   9  19  35  53  75 104 136 171 214 260 308
#     4   9  19  35  53  75 104 136 171 214 260 308
#     4  10  21  37  55  78 108 139 174 217 264 315
#     4  10  21  37  55  78 108 139 174 217 264 315
#     4  10  20  35  56  80 105 138 179 219 263 313
#     4   9  20  37  53  75 108 139 173 218 262 310
#     4  10  20  35  56  80 105 138 179 219 263 313
#
# _framework density 17.220523
#
# number of rings (size 3 to 8) (size 9 to 14) (size 15 to 20)
#    0.000    2.500    0.000    3.000    0.000    9.000 
#    0.000    5.000    0.000    0.000    0.000    0.000 
#    0.000    0.000    0.000    0.000    0.000    0.000 
#
# Total GULP energy -178541.551731 kJ/mol
# GULP energy per Si atom -5579.423492 kJ/mol
# Density = 1.718133 g / cm^3
# Si number density = 17.220523 Si / 1000 Ang^3
#
#
#
# Elastic Constant Matrix: (Units=GPa)
#
#
# Indices 1 2 3 4 5 6 
#
# 1 42.7613 62.1662 58.7616 0.0000 6.8311 0.0000
# 2 62.1662 162.2027 147.5358 0.0000 7.5446 0.0000
# 3 58.7616 147.5358 154.1079 0.0000 3.0093 0.0000
# 4 0.0000 0.0000 0.0000 43.1906 0.0000 0.7187
# 5 6.8311 7.5446 3.0093 0.0000 30.3106 0.0000
# 6 0.0000 0.0000 0.0000 0.7187 0.0000 35.0586
#
#
#
# Elastic Compliance Matrix: (Units=1/GPa)
#
#
# Indices 1 2 3 4 5 6 
#
# 1 0.055447 -0.013791 -0.007777 0.000000 -0.008291 0.000000
# 2 -0.013791 0.052838 -0.045218 0.000000 -0.005555 0.000000
# 3 -0.007777 -0.045218 0.052592 0.000000 0.007786 0.000000
# 4 0.000000 0.000000 0.000000 0.023161 0.000000 -0.000475
# 5 -0.008291 -0.005555 0.007786 0.000000 0.035470 0.000000
# 6 0.000000 0.000000 0.000000 -0.000475 0.000000 0.028533
#
#
# Mechanical properties :
#
#
# Convention : Reuss Voigt Hill
#
# Bulk Modulus (GPa) = 36.62382 99.55547 68.08964
# Shear Modulus (GPa) = 12.79708 27.75251 20.27480
#
# Velocity S-wave (km/s) = 2.72900 4.01882 3.43499
# Velocity P-wave (km/s) = 5.58960 8.91472 7.44029
#
# Compressibility (1/GPa) = 0.02730463
#
# Stress axis : x y z
#
# Youngs Moduli (GPa) = 18.03540 18.92570 19.01442
#
# Poissons Ratio (x) = 0.26101 0.14787
# Poissons Ratio (y) = 0.24873 0.85979
# Poissons Ratio (z) = 0.14026 0.85578
#
# Static dielectric constant tensor:
#      x y z
#    x 1.579110 0.000000 -0.001180 
#    y 0.000000 1.561150 0.000000 
#    z -0.001180 0.000000 1.565750 
# 
# From -- ./inp_files/64813.got.cif
#   From: 2010.05.17/outbox.cif.g08.bks.cpg/sg14_33_cif.got.tgz:64813.got - 2010.06.03 17:49:19.
