data_PCOD9242839
_publ_section_title
;
Structure prediction by ZEFSAII (Michael W. Deem and Ramdas Pophale) SiO2 
 PCOD9242839
Probable space group: P 21/C
;
_chemical_formula_sum "Si O2"
_cell_formula_units_Z 32
_cell_length_a 6.308358
_cell_length_b 8.404095
_cell_length_c 28.397022
_cell_angle_alpha 90.000000
_cell_angle_beta 88.571218
_cell_angle_gamma 90.000000
_cell_volume 1505.029578
_symmetry_space_group_name_H-M "P 21/C"
_symmetry_group_IT_number 14
_symmetry_cell_setting 'monoclinic'
loop_
_space_group_symop_operation_xyz
x,y,z
-x,1/2+y,1/2-z
-x,-y,-z
x,1/2-y,1/2+z
loop_
_atom_site_type_symbol
_atom_site_label
_atom_site_fract_x
_atom_site_fract_y
_atom_site_fract_z
Si Si1 0.336903 0.431795 0.687685
Si Si2 0.972277 0.860007 0.231992
Si Si3 0.621878 0.729004 0.657969
Si Si4 0.169566 0.332421 0.596457
Si Si5 0.050504 0.678164 0.985601
Si Si6 0.882307 0.616865 0.573368
Si Si7 0.573911 0.133933 0.035100
Si Si8 0.332371 0.601566 0.229241
O O1 0.120853 0.502183 0.710066
O O2 0.476620 0.569471 0.661000
O O3 0.249448 0.310418 0.649107
O O4 0.492663 0.388731 0.730018
O O5 0.805347 0.939734 0.268978
O O6 0.155138 0.733827 0.242643
O O7 0.815361 0.789104 0.193664
O O8 0.749886 0.734608 0.608090
O O9 0.460438 0.860379 0.680382
O O10 0.377327 0.308014 0.564695
O O11 0.012027 0.216870 0.568358
O O12 0.084858 0.517587 0.592680
O O13 0.938842 0.798870 0.023662
O O14 0.296506 0.724197 0.988962
O O15 0.000000 0.500000 0.000000
O O16 0.729076 0.468001 0.566632
O O17 0.500000 0.000000 0.000000
#
# Coordination Sequence:
#
# PCOD9242839 Si02
#       8
#     4   4   4   4   4   4   4   4
#     4  10  20  36  66  93 119 162 218 270 309 370
#     4  10  20  39  63  86 126 168 204 266 316 376
#     4  10  20  35  64  95 121 160 221 265 311 373
#     4  11  20  38  69  94 117 164 220 264 305 371
#     4  11  25  39  62  94 137 167 196 258 346 388
#     4  11  20  37  67  95 120 162 218 262 305 377
#     4  11  19  38  67  94 115 165 224 259 293 379
#     4  10  22  37  64  93 124 171 207 261 328 384
#
# _framework density 21.262039999999999
#
# number of rings (size 3 to 8) (size 9 to 14) (size 15 to 20)
#    0.000    1.500    5.000    1.500    0.000    0.500 
#    0.000    0.000   35.750    0.000    0.000    0.000 
#    0.000    0.000    0.000    0.000    0.000    0.000 
#
# Total GULP energy -178154.612909 kJ/mol
# GULP energy per Si atom -5567.331653 kJ/mol
# Density = 2.121365 g / cm^3
# Si number density = 21.262040 Si / 1000 Ang^3
#
#
#
# Elastic Constant Matrix: (Units=GPa)
#
#
# Indices 1 2 3 4 5 6 
#
# 1 112.5917 15.5061 16.1502 0.0000 -8.0515 0.0000
# 2 15.5061 31.4502 2.1781 0.0000 -0.1492 0.0000
# 3 16.1502 2.1781 53.2805 0.0000 -3.4902 0.0000
# 4 0.0000 0.0000 0.0000 20.3516 0.0000 -6.3853
# 5 -8.0515 -0.1492 -3.4902 0.0000 34.2152 0.0000
# 6 0.0000 0.0000 0.0000 -6.3853 0.0000 39.5570
#
#
#
# Elastic Compliance Matrix: (Units=1/GPa)
#
#
# Indices 1 2 3 4 5 6 
#
# 1 0.010078 -0.004770 -0.002724 0.000000 0.002073 0.000000
# 2 -0.004770 0.034144 -0.000014 0.000000 -0.000975 0.000000
# 3 -0.002724 -0.000014 0.019684 0.000000 0.001367 0.000000
# 4 0.000000 0.000000 0.000000 0.051757 0.000000 0.008355
# 5 0.002073 -0.000975 0.001367 0.000000 0.029850 0.000000
# 6 0.000000 0.000000 0.000000 0.008355 0.000000 0.026629
#
#
# Mechanical properties :
#
#
# Convention : Reuss Voigt Hill
#
# Bulk Modulus (GPa) = 20.45377 29.44347 24.94862
# Shear Modulus (GPa) = 24.57552 29.72398 27.14975
#
# Velocity S-wave (km/s) = 3.40345 3.74302 3.57727
# Velocity P-wave (km/s) = 5.00853 5.70598 5.36859
#
# Compressibility (1/GPa) = 0.04889075
#
# Stress axis : x y z
#
# Youngs Moduli (GPa) = 99.23065 29.28731 50.80179
#
# Poissons Ratio (x) = 0.13970 0.13838
# Poissons Ratio (y) = 0.47334 0.00070
# Poissons Ratio (z) = 0.27029 0.00040
#
# Static dielectric constant tensor:
#      x y z
#    x 1.913210 0.000000 0.091530 
#    y 0.000000 1.833690 0.000000 
#    z 0.091530 0.000000 1.844750 
# 
# From -- ./inp_files/78826.got.cif
#   From: 2010.05.17/outbox.cif.g08.bks.cpg/sg14_40_cif.got.tgz:78826.got - 2010.06.03 17:49:19.
