data_PCOD9242749
_publ_section_title
;
Structure prediction by ZEFSAII (Michael W. Deem and Ramdas Pophale) SiO2 
 PCOD9242749
Probable space group: P 21/C
;
_chemical_formula_sum "Si O2"
_cell_formula_units_Z 28
_cell_length_a 12.409656
_cell_length_b 20.975422
_cell_length_c 5.375288
_cell_angle_alpha 90.000000
_cell_angle_beta 109.080574
_cell_angle_gamma 90.000000
_cell_volume 1322.304507
_symmetry_space_group_name_H-M "P 21/C"
_symmetry_group_IT_number 14
_symmetry_cell_setting 'monoclinic'
loop_
_space_group_symop_operation_xyz
x,y,z
-x,1/2+y,1/2-z
-x,-y,-z
x,1/2-y,1/2+z
loop_
_atom_site_type_symbol
_atom_site_label
_atom_site_fract_x
_atom_site_fract_y
_atom_site_fract_z
Si Si1 0.797946 0.087810 0.834048
Si Si2 0.897522 0.694816 0.099002
Si Si3 0.154983 0.723386 0.392881
Si Si4 0.131849 0.518455 0.105398
Si Si5 0.338686 0.065888 0.846547
Si Si6 0.187665 0.167782 0.966452
Si Si7 0.446084 0.954006 0.257586
O O1 0.828864 0.157052 0.955747
O O2 0.846617 0.068424 0.602516
O O3 0.660712 0.084057 0.717493
O O4 0.842365 0.042851 0.093887
O O5 0.865368 0.651078 0.307776
O O6 0.808416 0.754503 0.013099
O O7 0.018820 0.726495 0.244796
O O8 0.893171 0.658879 0.834843
O O9 0.199555 0.728567 0.142373
O O10 0.226268 0.462834 0.128494
O O11 0.000000 0.500000 0.000000
O O12 0.295630 0.123789 0.986883
O O13 0.447569 0.086448 0.765776
O O14 0.389387 0.003407 0.020438
O O15 0.500000 0.000000 0.500000
#
# Coordination Sequence:
#
# PCOD9242749 Si02
#       7
#     4   4   4   4   4   4   4
#     4  11  25  41  65  89 128 173 209 266 310 378
#     4  10  20  36  56  88 128 155 202 238 311 380
#     4  12  22  40  63  90 121 173 209 252 313 383
#     4  11  24  39  58 102 134 158 202 262 330 392
#     4  10  23  37  68  89 122 167 210 258 317 372
#     4  10  20  35  58  89 117 160 197 249 301 367
#     4  10  21  45  62  90 119 168 223 254 310 376
#
# _framework density 21.175153000000002
#
# number of rings (size 3 to 8) (size 9 to 14) (size 15 to 20)
#    0.000    1.429    4.286    1.286    6.000    0.000 
#    0.000    0.000    6.286    0.000    0.000    0.000 
#    0.000    0.000    0.000    0.000    0.000    0.000 
#
# Total GULP energy -155922.701486 kJ/mol
# GULP energy per Si atom -5568.667910 kJ/mol
# Density = 2.112696 g / cm^3
# Si number density = 21.175153 Si / 1000 Ang^3
#
#
#
# Elastic Constant Matrix: (Units=GPa)
#
#
# Indices 1 2 3 4 5 6 
#
# 1 81.8109 1.1902 28.0923 0.0000 12.2356 0.0000
# 2 1.1902 32.4704 -4.2535 0.0000 13.4969 0.0000
# 3 28.0923 -4.2535 94.0494 0.0000 -9.0274 0.0000
# 4 0.0000 0.0000 0.0000 26.6659 0.0000 1.5456
# 5 12.2356 13.4969 -9.0274 0.0000 32.6405 0.0000
# 6 0.0000 0.0000 0.0000 1.5456 0.0000 28.3324
#
#
#
# Elastic Compliance Matrix: (Units=1/GPa)
#
#
# Indices 1 2 3 4 5 6 
#
# 1 0.015175 0.002083 -0.005206 0.000000 -0.007990 0.000000
# 2 0.002083 0.037479 -0.000503 0.000000 -0.016418 0.000000
# 3 -0.005206 -0.000503 0.012709 0.000000 0.005674 0.000000
# 4 0.000000 0.000000 0.000000 0.037620 0.000000 -0.002052
# 5 -0.007990 -0.016418 0.005674 0.000000 0.041990 0.000000
# 6 0.000000 0.000000 0.000000 -0.002052 0.000000 0.035407
#
#
# Mechanical properties :
#
#
# Convention : Reuss Voigt Hill
#
# Bulk Modulus (GPa) = 17.20784 28.70986 22.95885
# Shear Modulus (GPa) = 24.15416 29.74787 26.95101
#
# Velocity S-wave (km/s) = 3.38107 3.75220 3.57145
# Velocity P-wave (km/s) = 4.83593 5.68856 5.27948
#
# Compressibility (1/GPa) = 0.05811304
#
# Stress axis : x y z
#
# Youngs Moduli (GPa) = 65.89609 26.68132 78.68136
#
# Poissons Ratio (x) = -0.05557 0.40958
# Poissons Ratio (y) = -0.13725 0.03957
# Poissons Ratio (z) = 0.34302 0.01342
#
# Static dielectric constant tensor:
#      x y z
#    x 1.818890 0.000000 -0.046430 
#    y 0.000000 1.868260 0.000000 
#    z -0.046430 0.000000 1.850340 
# 
# From -- ./inp_files/2996.got.cif
#   From: 2010.05.17/outbox.cif.g08.bks.cpg/sg14_2_cif.got.tgz:2996.got - 2010.06.03 17:49:19.
