data_PCOD9242516
_publ_section_title
;
Structure prediction by ZEFSAII (Michael W. Deem and Ramdas Pophale) SiO2 
 PCOD9242516
Probable space group: P 21/C
;
_chemical_formula_sum "Si O2"
_cell_formula_units_Z 20
_cell_length_a 16.256970
_cell_length_b 5.342713
_cell_length_c 18.580003
_cell_angle_alpha 90.000000
_cell_angle_beta 28.451135
_cell_angle_gamma 90.000000
_cell_volume 768.824585
_symmetry_space_group_name_H-M "P 21/C"
_symmetry_group_IT_number 14
_symmetry_cell_setting 'monoclinic'
loop_
_space_group_symop_operation_xyz
x,y,z
-x,1/2+y,1/2-z
-x,-y,-z
x,1/2-y,1/2+z
loop_
_atom_site_type_symbol
_atom_site_label
_atom_site_fract_x
_atom_site_fract_y
_atom_site_fract_z
Si Si1 0.396934 0.158158 0.248361
Si Si2 0.601462 0.308117 0.371228
Si Si3 0.686198 0.081662 0.448052
Si Si4 0.091244 0.025865 0.006409
Si Si5 0.852305 0.020347 0.457031
O O1 0.586815 0.199729 0.070462
O O2 0.292548 0.416974 0.332283
O O3 0.305216 0.976617 0.259744
O O4 0.347736 0.023078 0.360614
O O5 0.500000 0.500000 0.500000
O O6 0.709318 0.149455 0.346391
O O7 0.452735 0.139948 0.450580
O O8 0.844788 0.014147 0.376924
O O9 0.056277 0.281061 0.077940
O O10 0.077141 0.776905 0.064599
O O11 0.000000 0.000000 0.000000
#
# Coordination Sequence:
#
# PCOD9242516 Si02
#       5
#     4   4   4   4   4
#     4   9  21  30  58  81 121 149 190 234 296 342
#     4   9  19  34  52  82 120 157 178 230 283 369
#     4  10  20  34  53  91 118 149 192 228 307 346
#     4  10  22  38  55  84 113 153 197 239 291 332
#     4  10  23  33  61  85 116 147 189 247 282 349
#
# _framework density 26.013736000000002
#
# number of rings (size 3 to 8) (size 9 to 14) (size 15 to 20)
#    1.200    1.200    0.000    1.800   11.200    0.000 
#    0.000    0.000    0.000    0.000   20.800    0.000 
#    0.000    0.000    0.000    0.000    0.000    0.000 
#
# Total GULP energy -111639.273182 kJ/mol
# GULP energy per Si atom -5581.963659 kJ/mol
# Density = 2.595453 g / cm^3
# Si number density = 26.013736 Si / 1000 Ang^3
#
#
#
# Elastic Constant Matrix: (Units=GPa)
#
#
# Indices 1 2 3 4 5 6 
#
# 1 220.0609 88.1003 4.5072 0.0000 4.9671 0.0000
# 2 88.1003 171.1048 11.7698 0.0000 -0.1014 0.0000
# 3 4.5072 11.7698 36.2169 0.0000 5.0483 0.0000
# 4 0.0000 0.0000 0.0000 13.3138 0.0000 1.5427
# 5 4.9671 -0.1014 5.0483 0.0000 28.9465 0.0000
# 6 0.0000 0.0000 0.0000 1.5427 0.0000 33.9341
#
#
#
# Elastic Compliance Matrix: (Units=1/GPa)
#
#
# Indices 1 2 3 4 5 6 
#
# 1 0.005758 -0.002993 0.000405 0.000000 -0.001069 0.000000
# 2 -0.002993 0.007538 -0.002206 0.000000 0.000925 0.000000
# 3 0.000405 -0.002206 0.028994 0.000000 -0.005134 0.000000
# 4 0.000000 0.000000 0.000000 0.075508 0.000000 -0.003433
# 5 -0.001069 0.000925 -0.005134 0.000000 0.035629 0.000000
# 6 0.000000 0.000000 0.000000 -0.003433 0.000000 0.029625
#
#
# Mechanical properties :
#
#
# Convention : Reuss Voigt Hill
#
# Bulk Modulus (GPa) = 30.57977 70.68191 50.63084
# Shear Modulus (GPa) = 24.56515 36.77256 30.66885
#
# Velocity S-wave (km/s) = 3.07630 3.76384 3.43731
# Velocity P-wave (km/s) = 4.93953 6.79107 5.93791
#
# Compressibility (1/GPa) = 0.03270136
#
# Stress axis : x y z
#
# Youngs Moduli (GPa) = 173.65746 132.66139 34.49042
#
# Poissons Ratio (x) = 0.39712 -0.01398
# Poissons Ratio (y) = 0.51984 0.07609
# Poissons Ratio (z) = -0.07037 0.29266
#
# Static dielectric constant tensor:
#      x y z
#    x 2.100470 0.000000 0.006040 
#    y 0.000000 2.064850 0.000000 
#    z 0.006040 0.000000 2.156470 
# 
# From -- ./inp_files/58373.got.cif
#   From: 2010.05.17/outbox.cif.g08.bks.cpg/sg14_30_cif.got.tgz:58373.got - 2010.06.03 17:49:19.
