data_PCOD9242610
_publ_section_title
;
Structure prediction by ZEFSAII (Michael W. Deem and Ramdas Pophale) SiO2 
 PCOD9242610
Probable space group: P 21/C
;
_chemical_formula_sum "Si O2"
_cell_formula_units_Z 32
_cell_length_a 15.649631
_cell_length_b 24.240263
_cell_length_c 9.410439
_cell_angle_alpha 90.000000
_cell_angle_beta 25.580288
_cell_angle_gamma 90.000000
_cell_volume 1541.378391
_symmetry_space_group_name_H-M "P 21/C"
_symmetry_group_IT_number 14
_symmetry_cell_setting 'monoclinic'
loop_
_space_group_symop_operation_xyz
x,y,z
-x,1/2+y,1/2-z
-x,-y,-z
x,1/2-y,1/2+z
loop_
_atom_site_type_symbol
_atom_site_label
_atom_site_fract_x
_atom_site_fract_y
_atom_site_fract_z
Si Si1 0.774580 0.109847 0.757514
Si Si2 0.774581 0.890153 0.918744
Si Si3 0.604290 0.323724 0.056905
Si Si4 0.221716 0.076348 0.770303
Si Si5 0.604292 0.823724 0.630222
Si Si6 0.221717 0.923652 0.564548
Si Si7 0.455416 0.000000 0.816877
Si Si8 0.500001 0.750000 0.542531
O O1 0.769137 0.110353 0.594976
O O2 0.999999 0.115850 0.468077
O O3 0.623305 0.155261 0.041227
O O4 0.684949 0.049979 0.927957
O O5 0.623306 0.844739 0.088858
O O6 0.769137 0.889647 0.097613
O O7 0.684951 0.950021 0.017192
O O8 0.637149 0.284032 0.142198
O O9 0.729160 0.379803 0.884797
O O10 0.615034 0.290808 0.893201
O O11 0.270839 0.120197 0.572279
O O12 0.387857 0.029033 0.525001
O O13 0.999999 0.054269 0.089514
O O14 0.637151 0.784032 0.446352
O O15 0.615036 0.790808 0.761693
O O16 0.387858 0.970966 0.311425
#
# Coordination Sequence:
#
# PCOD9242610 Si02
#       8
#     4   4   4   4   4   4   4   4
#     4  10  20  36  57  86 118 152 192 236 283 341
#     4  10  20  36  57  86 118 152 192 236 283 341
#     4  10  20  38  60  84 116 150 188 240 290 338
#     4  10  20  36  57  86 118 152 192 236 283 341
#     4  10  20  38  60  84 116 150 188 240 290 338
#     4  10  20  36  57  86 118 152 192 236 283 341
#     4  10  20  34  60  82 120 152 194 228 288 338
#     4  10  20  38  62  84 112 152 188 238 298 340
#
# _framework density 20.760636999999999
#
# number of rings (size 3 to 8) (size 9 to 14) (size 15 to 20)
#    0.000    2.000    2.500    1.500    0.000    0.000 
#    0.000    8.750    0.000    0.000    0.000    0.000 
#    0.000    0.000    0.000    0.000    0.000    0.000 
#
# Total GULP energy -178327.747856 kJ/mol
# GULP energy per Si atom -5572.742121 kJ/mol
# Density = 2.071339 g / cm^3
# Si number density = 20.760637 Si / 1000 Ang^3
#
#
#
# Elastic Constant Matrix: (Units=GPa)
#
#
# Indices 1 2 3 4 5 6 
#
# 1 55.4949 18.8430 31.0859 0.0000 9.4742 0.0000
# 2 18.8430 79.8869 17.1612 0.0000 1.2376 0.0000
# 3 31.0859 17.1612 69.8433 0.0000 -20.0395 0.0000
# 4 0.0000 0.0000 0.0000 15.7727 0.0000 10.4857
# 5 9.4742 1.2376 -20.0395 0.0000 27.5005 0.0000
# 6 0.0000 0.0000 0.0000 10.4857 0.0000 30.0146
#
#
#
# Elastic Compliance Matrix: (Units=1/GPa)
#
#
# Indices 1 2 3 4 5 6 
#
# 1 0.039034 -0.003165 -0.025809 0.000000 -0.032112 0.000000
# 2 -0.003165 0.013784 -0.002330 0.000000 -0.001228 0.000000
# 3 -0.025809 -0.002330 0.036614 0.000000 0.035677 0.000000
# 4 0.000000 0.000000 0.000000 0.082580 0.000000 -0.028850
# 5 -0.032112 -0.001228 0.035677 0.000000 0.073479 0.000000
# 6 0.000000 0.000000 0.000000 -0.028850 0.000000 0.043396
#
#
# Mechanical properties :
#
#
# Convention : Reuss Voigt Hill
#
# Bulk Modulus (GPa) = 37.28257 37.71171 37.49714
# Shear Modulus (GPa) = 13.87208 23.86655 18.86931
#
# Velocity S-wave (km/s) = 2.58774 3.39426 3.01807
# Velocity P-wave (km/s) = 5.18901 5.79360 5.49962
#
# Compressibility (1/GPa) = 0.02682218
#
# Stress axis : x y z
#
# Youngs Moduli (GPa) = 25.61889 72.54830 27.31206
#
# Poissons Ratio (x) = 0.22963 0.70490
# Poissons Ratio (y) = 0.08109 0.06365
# Poissons Ratio (z) = 0.66120 0.16907
#
# Static dielectric constant tensor:
#      x y z
#    x 1.763400 0.000000 0.024350 
#    y 0.000000 1.788880 0.000000 
#    z 0.024350 0.000000 1.730330 
# 
# From -- ./inp_files/17079.got.cif
#   From: 2010.05.17/outbox.cif.g08.bks.cpg/sg14_9_cif.got.tgz:17079.got - 2010.06.03 17:49:19.
