data_PCOD9242521
_publ_section_title
;
Structure prediction by ZEFSAII (Michael W. Deem and Ramdas Pophale) SiO2 
 PCOD9242521
Probable space group: P 21/C
;
_chemical_formula_sum "Si O2"
_cell_formula_units_Z 28
_cell_length_a 7.361429
_cell_length_b 15.607963
_cell_length_c 13.214328
_cell_angle_alpha 90.000000
_cell_angle_beta 56.138377
_cell_angle_gamma 90.000000
_cell_volume 1260.762515
_symmetry_space_group_name_H-M "P 21/C"
_symmetry_group_IT_number 14
_symmetry_cell_setting 'monoclinic'
loop_
_space_group_symop_operation_xyz
x,y,z
-x,1/2+y,1/2-z
-x,-y,-z
x,1/2-y,1/2+z
loop_
_atom_site_type_symbol
_atom_site_label
_atom_site_fract_x
_atom_site_fract_y
_atom_site_fract_z
Si Si1 0.961027 0.031671 0.845113
Si Si2 0.497004 0.839914 0.164937
Si Si3 0.359935 0.975917 0.868148
Si Si4 0.210541 0.308986 0.242968
Si Si5 0.608064 0.279784 0.980453
Si Si6 0.986468 0.357054 0.740739
Si Si7 0.241958 0.703910 0.369924
O O1 0.181042 0.006547 0.840285
O O2 0.932160 0.953365 0.777672
O O3 0.018932 0.123192 0.780430
O O4 0.766667 0.033257 0.986026
O O5 0.710620 0.818851 0.166154
O O6 0.494491 0.795401 0.056644
O O7 0.316674 0.786128 0.282797
O O8 0.478931 0.942939 0.170651
O O9 0.410610 0.877562 0.821149
O O10 0.137560 0.213367 0.243422
O O11 0.417955 0.324785 0.104645
O O12 0.748540 0.342670 0.865884
O O13 0.770397 0.236871 0.012274
O O14 0.961728 0.333535 0.628968
#
# Coordination Sequence:
#
# PCOD9242521 Si02
#       7
#     4   4   4   4   4   4   4
#     4   9  18  31  52  79 101 137 183 217 261 315
#     4   9  19  34  52  80 109 139 177 216 265 317
#     4   9  16  31  54  76 105 139 175 220 261 309
#     4  10  20  35  55  78 107 139 179 223 265 318
#     4  10  20  34  54  78 110 144 172 220 270 310
#     4  10  20  35  55  78 107 139 179 223 265 318
#     4   9  19  34  52  80 109 139 177 216 265 317
#
# _framework density 22.208784000000001
#
# number of rings (size 3 to 8) (size 9 to 14) (size 15 to 20)
#    0.000    2.571    0.000    1.714    0.000    4.571 
#    0.000    7.143    0.000    1.714    0.000    0.000 
#    0.000    0.000    0.000    0.000    0.000    0.000 
#
# Total GULP energy -156223.514180 kJ/mol
# GULP energy per Si atom -5579.411221 kJ/mol
# Density = 2.215824 g / cm^3
# Si number density = 22.208784 Si / 1000 Ang^3
#
#
#
# Elastic Constant Matrix: (Units=GPa)
#
#
# Indices 1 2 3 4 5 6 
#
# 1 62.4935 46.4878 20.8758 0.0000 19.7005 0.0000
# 2 46.4878 109.8970 34.8121 0.0000 -2.2339 0.0000
# 3 20.8758 34.8121 94.9701 0.0000 7.5771 0.0000
# 4 0.0000 0.0000 0.0000 32.1338 0.0000 -1.6801
# 5 19.7005 -2.2339 7.5771 0.0000 32.5278 0.0000
# 6 0.0000 0.0000 0.0000 -1.6801 0.0000 36.8662
#
#
#
# Elastic Compliance Matrix: (Units=1/GPa)
#
#
# Indices 1 2 3 4 5 6 
#
# 1 0.033674 -0.014562 -0.000364 0.000000 -0.021310 0.000000
# 2 -0.014562 0.016676 -0.003777 0.000000 0.010845 0.000000
# 3 -0.000364 -0.003777 0.012224 0.000000 -0.002887 0.000000
# 4 0.000000 0.000000 0.000000 0.031194 0.000000 0.001422
# 5 -0.021310 0.010845 -0.002887 0.000000 0.045066 0.000000
# 6 0.000000 0.000000 0.000000 0.001422 0.000000 0.027190
#
#
# Mechanical properties :
#
#
# Convention : Reuss Voigt Hill
#
# Bulk Modulus (GPa) = 39.73308 52.41244 46.07276
# Shear Modulus (GPa) = 23.60489 31.31788 27.46138
#
# Velocity S-wave (km/s) = 3.26369 3.75928 3.52022
# Velocity P-wave (km/s) = 5.66849 6.51874 6.10843
#
# Compressibility (1/GPa) = 0.02516795
#
# Stress axis : x y z
#
# Youngs Moduli (GPa) = 29.69693 59.96511 81.80331
#
# Poissons Ratio (x) = 0.87323 0.02976
# Poissons Ratio (y) = 0.43245 0.30898
# Poissons Ratio (z) = 0.01080 0.22649
#
# Static dielectric constant tensor:
#      x y z
#    x 1.919990 0.000000 -0.026460 
#    y 0.000000 1.845770 0.000000 
#    z -0.026460 0.000000 1.818540 
# 
# From -- ./inp_files/41015.got.cif
#   From: 2010.05.17/outbox.cif.g08.bks.cpg/sg14_21_cif.got.tgz:41015.got - 2010.06.03 17:49:19.
