data_PCOD9242777
_publ_section_title
;
Structure prediction by ZEFSAII (Michael W. Deem and Ramdas Pophale) SiO2 
 PCOD9242777
Probable space group: P 21/C
;
_chemical_formula_sum "Si O2"
_cell_formula_units_Z 32
_cell_length_a 9.763560
_cell_length_b 16.667724
_cell_length_c 9.544290
_cell_angle_alpha 90.000000
_cell_angle_beta 108.089441
_cell_angle_gamma 90.000000
_cell_volume 1476.432469
_symmetry_space_group_name_H-M "P 21/C"
_symmetry_group_IT_number 14
_symmetry_cell_setting 'monoclinic'
loop_
_space_group_symop_operation_xyz
x,y,z
-x,1/2+y,1/2-z
-x,-y,-z
x,1/2-y,1/2+z
loop_
_atom_site_type_symbol
_atom_site_label
_atom_site_fract_x
_atom_site_fract_y
_atom_site_fract_z
Si Si1 0.534755 0.430620 0.677171
Si Si2 0.012653 0.160608 0.421419
Si Si3 0.707467 0.342555 0.952814
Si Si4 0.021059 0.546002 0.304125
Si Si5 0.735823 0.157253 0.015307
Si Si6 0.174623 0.908661 0.232343
Si Si7 0.299909 0.433912 0.388358
Si Si8 0.902475 0.803587 0.235461
O O1 0.572421 0.380374 0.827401
O O2 0.625387 0.386422 0.582577
O O3 0.375770 0.435404 0.563663
O O4 0.598776 0.520817 0.691762
O O5 0.085740 0.217458 0.330312
O O6 0.069242 0.185887 0.590856
O O7 0.839131 0.164876 0.383124
O O8 0.033826 0.071912 0.367093
O O9 0.705840 0.252100 0.013056
O O10 0.752803 0.401993 0.092446
O O11 0.101440 0.623746 0.397332
O O12 0.152996 0.484490 0.335929
O O13 0.890419 0.495684 0.328806
O O14 0.721513 0.127233 0.851710
O O15 0.035192 0.850585 0.203010
O O16 0.250389 0.344442 0.341501
#
# Coordination Sequence:
#
# PCOD9242777 Si02
#       8
#     4   4   4   4   4   4   4   4
#     4  10  21  38  64  79 112 156 205 233 270 347
#     4  11  20  35  56  89 117 150 181 241 296 345
#     4  11  20  34  58  87 113 149 193 241 283 344
#     4  10  20  35  60  87 114 151 192 233 292 348
#     4  11  19  36  54  86 114 147 192 239 291 331
#     4  10  21  31  57  87 115 143 188 244 293 340
#     4   9  20  40  59  85 109 158 198 232 278 342
#     4  10  22  35  59  83 122 147 187 239 298 341
#
# _framework density 21.673866
#
# number of rings (size 3 to 8) (size 9 to 14) (size 15 to 20)
#    0.000    1.750    3.750    2.625    1.750    1.500 
#    2.250    0.000    0.000    6.750    0.000    0.000 
#    0.000    0.000    0.000    0.000    0.000    0.000 
#
# Total GULP energy -178381.163856 kJ/mol
# GULP energy per Si atom -5574.411371 kJ/mol
# Density = 2.162454 g / cm^3
# Si number density = 21.673866 Si / 1000 Ang^3
#
#
#
# Elastic Constant Matrix: (Units=GPa)
#
#
# Indices 1 2 3 4 5 6 
#
# 1 31.8279 25.6054 25.3722 0.0000 4.5487 0.0000
# 2 25.6054 62.2961 40.0502 0.0000 8.4744 0.0000
# 3 25.3722 40.0502 87.8768 0.0000 6.2355 0.0000
# 4 0.0000 0.0000 0.0000 34.8070 0.0000 0.7355
# 5 4.5487 8.4744 6.2355 0.0000 20.8083 0.0000
# 6 0.0000 0.0000 0.0000 0.7355 0.0000 12.4085
#
#
#
# Elastic Compliance Matrix: (Units=1/GPa)
#
#
# Indices 1 2 3 4 5 6 
#
# 1 0.050052 -0.015647 -0.007148 0.000000 -0.002427 0.000000
# 2 -0.015647 0.028429 -0.008031 0.000000 -0.005751 0.000000
# 3 -0.007148 -0.008031 0.017125 0.000000 -0.000298 0.000000
# 4 0.000000 0.000000 0.000000 0.028766 0.000000 -0.001705
# 5 -0.002427 -0.005751 -0.000298 0.000000 0.051020 0.000000
# 6 0.000000 0.000000 0.000000 -0.001705 0.000000 0.080691
#
#
# Mechanical properties :
#
#
# Convention : Reuss Voigt Hill
#
# Bulk Modulus (GPa) = 29.45168 40.45071 34.95119
# Shear Modulus (GPa) = 15.19517 19.66964 17.43241
#
# Velocity S-wave (km/s) = 2.65067 3.01579 2.83910
# Velocity P-wave (km/s) = 4.79438 5.55252 5.18732
#
# Compressibility (1/GPa) = 0.03395392
#
# Stress axis : x y z
#
# Youngs Moduli (GPa) = 19.97927 35.17504 58.39557
#
# Poissons Ratio (x) = 0.55039 0.41739
# Poissons Ratio (y) = 0.31262 0.46897
# Poissons Ratio (z) = 0.14281 0.28249
#
# Static dielectric constant tensor:
#      x y z
#    x 1.768600 0.000000 0.023670 
#    y 0.000000 1.885880 0.000000 
#    z 0.023670 0.000000 1.870210 
# 
# From -- ./inp_files/13787.got.cif
#   From: 2010.05.17/outbox.cif.g08.bks.cpg/sg14_7_cif.got.tgz:13787.got - 2010.06.03 17:49:19.
