data_PCOD9242273
_publ_section_title
;
Structure prediction by ZEFSAII (Michael W. Deem and Ramdas Pophale) SiO2 
 PCOD9242273
Probable space group: P 21/C
;
_chemical_formula_sum "Si O2"
_cell_formula_units_Z 32
_cell_length_a 9.363023
_cell_length_b 17.565619
_cell_length_c 13.878248
_cell_angle_alpha 90.000000
_cell_angle_beta 144.499972
_cell_angle_gamma 90.000000
_cell_volume 1325.465801
_symmetry_space_group_name_H-M "P 21/C"
_symmetry_group_IT_number 14
_symmetry_cell_setting 'monoclinic'
loop_
_space_group_symop_operation_xyz
x,y,z
-x,1/2+y,1/2-z
-x,-y,-z
x,1/2-y,1/2+z
loop_
_atom_site_type_symbol
_atom_site_label
_atom_site_fract_x
_atom_site_fract_y
_atom_site_fract_z
Si Si1 0.458720 0.350060 0.627757
Si Si2 0.959845 0.721093 0.714283
Si Si3 0.302811 0.881864 0.313754
Si Si4 0.874713 0.513476 0.531476
Si Si5 0.844373 0.881876 0.565146
Si Si6 0.782739 0.695092 0.819237
Si Si7 0.264608 0.721763 0.608831
Si Si8 0.293733 0.565141 0.391873
O O1 0.213894 0.303283 0.470705
O O2 0.358861 0.430647 0.610774
O O3 0.642649 0.301547 0.792536
O O4 0.585469 0.364461 0.595273
O O5 0.930488 0.811828 0.683605
O O6 0.231498 0.687930 0.844794
O O7 0.861004 0.674569 0.753127
O O8 0.583288 0.907718 0.465321
O O9 0.277715 0.844024 0.194713
O O10 0.088739 0.943509 0.209417
O O11 0.792938 0.439482 0.545684
O O12 0.000000 0.500000 0.500000
O O13 0.824684 0.853764 0.441909
O O14 0.052008 0.945608 0.692809
O O15 0.490039 0.709448 0.659098
O O16 0.977901 0.765701 0.929909
O O17 0.500000 0.500000 0.500000
#
# Coordination Sequence:
#
# PCOD9242273 Si02
#       8
#     4   4   4   4   4   4   4   4
#     4  10  19  41  69  86 135 165 221 271 336 397
#     4  11  22  38  63 103 131 171 206 274 351 399
#     4  10  21  40  63  89 138 165 211 279 336 384
#     4  10  23  41  63  93 122 176 226 271 317 396
#     4  11  22  40  63  96 134 177 210 280 330 401
#     4  11  23  34  62  96 136 168 210 257 343 405
#     4  11  20  40  62  99 130 172 206 281 339 398
#     4  10  22  40  65  86 123 182 224 255 324 394
#
# _framework density 24.142457
#
# number of rings (size 3 to 8) (size 9 to 14) (size 15 to 20)
#    0.000    1.500    5.000    0.750    1.750    4.500 
#    0.000    0.000    0.000    8.250    0.000    0.000 
#    0.000    0.000    0.000    0.000    0.000    0.000 
#
# Total GULP energy -178241.721246 kJ/mol
# GULP energy per Si atom -5570.053789 kJ/mol
# Density = 2.408751 g / cm^3
# Si number density = 24.142457 Si / 1000 Ang^3
#
#
#
# Elastic Constant Matrix: (Units=GPa)
#
#
# Indices 1 2 3 4 5 6 
#
# 1 156.8326 11.8679 27.1371 0.0000 7.8230 0.0000
# 2 11.8679 35.1754 13.0122 0.0000 3.3648 0.0000
# 3 27.1371 13.0122 61.2309 0.0000 23.9910 0.0000
# 4 0.0000 0.0000 0.0000 29.9501 0.0000 7.6780
# 5 7.8230 3.3648 23.9910 0.0000 45.5030 0.0000
# 6 0.0000 0.0000 0.0000 7.6780 0.0000 22.0470
#
#
#
# Elastic Compliance Matrix: (Units=1/GPa)
#
#
# Indices 1 2 3 4 5 6 
#
# 1 0.006969 -0.001286 -0.003004 0.000000 0.000481 0.000000
# 2 -0.001286 0.031171 -0.006601 0.000000 0.001397 0.000000
# 3 -0.003004 -0.006601 0.023534 0.000000 -0.011403 0.000000
# 4 0.000000 0.000000 0.000000 0.036662 0.000000 -0.012768
# 5 0.000481 0.001397 -0.011403 0.000000 0.027803 0.000000
# 6 0.000000 0.000000 0.000000 -0.012768 0.000000 0.049804
#
#
# Mechanical properties :
#
#
# Convention : Reuss Voigt Hill
#
# Bulk Modulus (GPa) = 25.06792 39.69704 32.38248
# Shear Modulus (GPa) = 23.69407 32.91482 28.30444
#
# Velocity S-wave (km/s) = 3.13617 3.69637 3.42774
# Velocity P-wave (km/s) = 4.84974 5.89034 5.39519
#
# Compressibility (1/GPa) = 0.03989163
#
# Stress axis : x y z
#
# Youngs Moduli (GPa) = 143.48596 32.08075 42.49227
#
# Poissons Ratio (x) = 0.04126 0.12764
# Poissons Ratio (y) = 0.18455 0.28051
# Poissons Ratio (z) = 0.43099 0.21178
#
# Static dielectric constant tensor:
#      x y z
#    x 1.965310 0.000000 -0.026910 
#    y 0.000000 2.043600 0.000000 
#    z -0.026910 0.000000 2.034280 
# 
# From -- ./inp_files/42008.got.cif
#   From: 2010.05.17/outbox.cif.g08.bks.cpg/sg14_22_cif.got.tgz:42008.got - 2010.06.03 17:49:19.
