data_PCOD9242759
_publ_section_title
;
Structure prediction by ZEFSAII (Michael W. Deem and Ramdas Pophale) SiO2 
 PCOD9242759
Probable space group: P 21/C
;
_chemical_formula_sum "Si O2"
_cell_formula_units_Z 28
_cell_length_a 7.898586
_cell_length_b 17.208255
_cell_length_c 9.465712
_cell_angle_alpha 90.000000
_cell_angle_beta 85.478288
_cell_angle_gamma 90.000000
_cell_volume 1282.583458
_symmetry_space_group_name_H-M "P 21/C"
_symmetry_group_IT_number 14
_symmetry_cell_setting 'monoclinic'
loop_
_space_group_symop_operation_xyz
x,y,z
-x,1/2+y,1/2-z
-x,-y,-z
x,1/2-y,1/2+z
loop_
_atom_site_type_symbol
_atom_site_label
_atom_site_fract_x
_atom_site_fract_y
_atom_site_fract_z
Si Si1 0.447484 0.813775 0.248773
Si Si2 0.244909 0.784629 0.544333
Si Si3 0.487627 0.394860 0.523248
Si Si4 0.091353 0.344187 0.859540
Si Si5 0.138223 0.612344 0.492321
Si Si6 0.161943 0.028706 0.161831
Si Si7 0.252718 0.245976 0.612283
O O1 0.332456 0.813046 0.395374
O O2 0.377918 0.742362 0.156011
O O3 0.457016 0.886334 0.143159
O O4 0.637388 0.806087 0.290938
O O5 0.139809 0.704081 0.522718
O O6 0.108593 0.847120 0.601340
O O7 0.671626 0.399828 0.585498
O O8 0.343569 0.455397 0.574672
O O9 0.386654 0.313862 0.559858
O O10 0.166294 0.428228 0.812018
O O11 0.118513 0.287734 0.722735
O O12 0.182089 0.303140 0.986670
O O13 0.120439 0.561140 0.637445
O O14 0.987671 0.576780 0.408950
#
# Coordination Sequence:
#
# PCOD9242759 Si02
#       7
#     4   4   4   4   4   4   4
#     4  11  19  34  55  85 117 145 190 244 298 341
#     4  11  21  35  58  87 114 151 195 249 294 352
#     4  10  20  35  59  84 117 151 192 245 295 344
#     4  11  22  35  58  88 118 150 197 249 306 342
#     4  10  20  37  59  88 116 157 203 245 292 352
#     4  10  22  38  59  89 119 156 201 248 292 360
#     4  11  19  34  54  86 115 147 184 250 296 349
#
# _framework density 21.830938
#
# number of rings (size 3 to 8) (size 9 to 14) (size 15 to 20)
#    0.000    1.429    4.286    3.857    0.000    0.000 
#    0.000    0.000    0.000   11.143    0.000    0.000 
#    0.000    0.000    0.000    0.000    0.000    0.000 
#
# Total GULP energy -156086.865447 kJ/mol
# GULP energy per Si atom -5574.530909 kJ/mol
# Density = 2.178125 g / cm^3
# Si number density = 21.830938 Si / 1000 Ang^3
#
#
#
# Elastic Constant Matrix: (Units=GPa)
#
#
# Indices 1 2 3 4 5 6 
#
# 1 98.9804 4.5300 37.9650 0.0000 -4.6272 0.0000
# 2 4.5300 42.7228 1.4585 0.0000 0.4394 0.0000
# 3 37.9650 1.4585 99.3487 0.0000 -7.2680 0.0000
# 4 0.0000 0.0000 0.0000 9.8661 0.0000 2.5258
# 5 -4.6272 0.4394 -7.2680 0.0000 49.0380 0.0000
# 6 0.0000 0.0000 0.0000 2.5258 0.0000 15.4840
#
#
#
# Elastic Compliance Matrix: (Units=1/GPa)
#
#
# Indices 1 2 3 4 5 6 
#
# 1 0.011901 -0.001113 -0.004497 0.000000 0.000466 0.000000
# 2 -0.001113 0.023526 0.000057 0.000000 -0.000307 0.000000
# 3 -0.004497 0.000057 0.011881 0.000000 0.001336 0.000000
# 4 0.000000 0.000000 0.000000 0.105775 0.000000 -0.017254
# 5 0.000466 -0.000307 0.001336 0.000000 0.020637 0.000000
# 6 0.000000 0.000000 0.000000 -0.017254 0.000000 0.067397
#
#
# Mechanical properties :
#
#
# Convention : Reuss Voigt Hill
#
# Bulk Modulus (GPa) = 27.62287 36.55100 32.08693
# Shear Modulus (GPa) = 18.91863 28.01752 23.46807
#
# Velocity S-wave (km/s) = 2.94700 3.58632 3.28226
# Velocity P-wave (km/s) = 4.92547 5.82478 5.39390
#
# Compressibility (1/GPa) = 0.03620189
#
# Stress axis : x y z
#
# Youngs Moduli (GPa) = 84.02839 42.50632 84.16770
#
# Poissons Ratio (x) = 0.04731 0.37853
# Poissons Ratio (y) = 0.09353 -0.00484
# Poissons Ratio (z) = 0.37790 -0.00244
#
# Static dielectric constant tensor:
#      x y z
#    x 1.867990 0.000000 0.025310 
#    y 0.000000 1.867920 0.000000 
#    z 0.025310 0.000000 1.837460 
# 
# From -- ./inp_files/9943.got.cif
#   From: 2010.05.17/outbox.cif.g08.bks.cpg/sg14_5_cif.got.tgz:9943.got - 2010.06.03 17:49:19.
