data_PCOD9242284
_publ_section_title
;
Structure prediction by ZEFSAII (Michael W. Deem and Ramdas Pophale) SiO2 
 PCOD9242284
Probable space group: P 21/C
;
_chemical_formula_sum "Si O2"
_cell_formula_units_Z 24
_cell_length_a 6.231585
_cell_length_b 14.232522
_cell_length_c 13.317402
_cell_angle_alpha 90.000000
_cell_angle_beta 62.531387
_cell_angle_gamma 90.000000
_cell_volume 1047.979013
_symmetry_space_group_name_H-M "P 21/C"
_symmetry_group_IT_number 14
_symmetry_cell_setting 'monoclinic'
loop_
_space_group_symop_operation_xyz
x,y,z
-x,1/2+y,1/2-z
-x,-y,-z
x,1/2-y,1/2+z
loop_
_atom_site_type_symbol
_atom_site_label
_atom_site_fract_x
_atom_site_fract_y
_atom_site_fract_z
Si Si1 0.363053 0.655789 0.357029
Si Si2 0.807341 0.862725 0.033122
Si Si3 0.053801 0.149120 0.783655
Si Si4 0.593065 0.807268 0.455855
Si Si5 0.249127 0.022423 0.150067
Si Si6 0.180741 0.848366 0.679888
O O1 0.480600 0.739397 0.394977
O O2 0.534976 0.566091 0.332871
O O3 0.325253 0.678793 0.249340
O O4 0.097013 0.638350 0.457300
O O5 0.704085 0.763982 0.014681
O O6 0.721035 0.939222 0.970236
O O7 0.780031 0.879627 0.157267
O O8 0.977640 0.257328 0.814837
O O9 0.195273 0.139559 0.648502
O O10 0.810769 0.086926 0.835102
O O11 0.378750 0.866634 0.551897
O O12 0.004457 0.070783 0.247408
#
# Coordination Sequence:
#
# PCOD9242284 Si02
#       6
#     4   4   4   4   4   4
#     4  10  19  42  62  88 129 162 208 265 305 368
#     4  10  21  41  65  97 125 162 218 265 308 372
#     4  12  22  42  68  93 128 174 211 257 331 373
#     4  11  22  39  68  91 125 175 209 254 323 380
#     4  10  24  42  63 100 131 162 214 266 313 380
#     4  11  23  42  64  93 132 167 212 267 312 379
#
# _framework density 22.901222000000001
#
# number of rings (size 3 to 8) (size 9 to 14) (size 15 to 20)
#    0.000    1.333    6.667    1.500    0.000    1.333 
#   12.000    0.833    0.000    0.000    0.000    0.000 
#    0.000    0.000    0.000    0.000    0.000    0.000 
#
# Total GULP energy -134318.659090 kJ/mol
# GULP energy per Si atom -5596.610795 kJ/mol
# Density = 2.284910 g / cm^3
# Si number density = 22.901222 Si / 1000 Ang^3
#
#
#
# Elastic Constant Matrix: (Units=GPa)
#
#
# Indices 1 2 3 4 5 6 
#
# 1 92.0011 2.5734 7.3501 0.0000 3.8721 0.0000
# 2 2.5734 44.4088 9.0021 0.0000 3.7068 0.0000
# 3 7.3501 9.0021 128.0530 0.0000 -10.4815 0.0000
# 4 0.0000 0.0000 0.0000 28.2051 0.0000 -8.6254
# 5 3.8721 3.7068 -10.4815 0.0000 29.5807 0.0000
# 6 0.0000 0.0000 0.0000 -8.6254 0.0000 28.3616
#
#
#
# Elastic Compliance Matrix: (Units=1/GPa)
#
#
# Indices 1 2 3 4 5 6 
#
# 1 0.011008 -0.000349 -0.000743 0.000000 -0.001661 0.000000
# 2 -0.000349 0.023219 -0.001902 0.000000 -0.003538 0.000000
# 3 -0.000743 -0.001902 0.008252 0.000000 0.003260 0.000000
# 4 0.000000 0.000000 0.000000 0.039090 0.000000 0.011888
# 5 -0.001661 -0.003538 0.003260 0.000000 0.035622 0.000000
# 6 0.000000 0.000000 0.000000 0.011888 0.000000 0.038874
#
#
# Mechanical properties :
#
#
# Convention : Reuss Voigt Hill
#
# Bulk Modulus (GPa) = 27.40295 33.59046 30.49671
# Shear Modulus (GPa) = 28.69973 33.59865 31.14919
#
# Velocity S-wave (km/s) = 3.54389 3.83444 3.69203
# Velocity P-wave (km/s) = 5.36071 5.85691 5.61429
#
# Compressibility (1/GPa) = 0.03649242
#
# Stress axis : x y z
#
# Youngs Moduli (GPa) = 90.83920 43.06801 121.17610
#
# Poissons Ratio (x) = 0.01501 0.09007
# Poissons Ratio (y) = 0.03167 0.23046
# Poissons Ratio (z) = 0.06752 0.08191
#
# Static dielectric constant tensor:
#      x y z
#    x 1.831400 0.000000 -0.023500 
#    y 0.000000 1.863020 0.000000 
#    z -0.023500 0.000000 1.879490 
# 
# From -- ./inp_files/21149.got.cif
#   From: 2010.05.17/outbox.cif.g08.bks.cpg/sg14_11_cif.got.tgz:21149.got - 2010.06.03 17:49:19.
