data_PCOD9242644
_publ_section_title
;
Structure prediction by ZEFSAII (Michael W. Deem and Ramdas Pophale) SiO2 
 PCOD9242644
Probable space group: P 21/C
;
_chemical_formula_sum "Si O2"
_cell_formula_units_Z 32
_cell_length_a 20.523927
_cell_length_b 10.463675
_cell_length_c 8.671838
_cell_angle_alpha 90.000000
_cell_angle_beta 77.803708
_cell_angle_gamma 90.000000
_cell_volume 1820.293140
_symmetry_space_group_name_H-M "P 21/C"
_symmetry_group_IT_number 14
_symmetry_cell_setting 'monoclinic'
loop_
_space_group_symop_operation_xyz
x,y,z
-x,1/2+y,1/2-z
-x,-y,-z
x,1/2-y,1/2+z
loop_
_atom_site_type_symbol
_atom_site_label
_atom_site_fract_x
_atom_site_fract_y
_atom_site_fract_z
Si Si1 0.453521 0.610981 0.458343
Si Si2 0.199112 0.111277 0.714850
Si Si3 0.948528 0.611666 0.840556
Si Si4 0.051472 0.388335 0.789084
Si Si5 0.800888 0.611277 0.413962
Si Si6 0.546479 0.389019 0.911864
Si Si7 0.700841 0.387942 0.463965
Si Si8 0.299159 0.612058 0.164806
O O1 0.500000 0.500000 0.500000
O O2 0.472995 0.750000 0.513502
O O3 0.456992 0.612929 0.271504
O O4 0.376136 0.588946 0.543446
O O5 0.124831 0.084800 0.690040
O O6 0.219035 0.250000 0.640482
O O7 0.250331 0.001293 0.639604
O O8 0.197410 0.116556 0.901295
O O9 0.969589 0.750000 0.765206
O O10 0.000000 0.500000 0.773024
O O11 0.944192 0.619271 0.027904
O O12 0.124831 0.415200 0.685129
O O13 0.749669 0.501293 0.389935
O O14 0.623864 0.411054 0.919583
O O15 0.500000 0.500000 0.000000
O O16 0.721254 0.250000 0.389373
O O17 0.702587 0.382322 0.648706
#
# Coordination Sequence:
#
# PCOD9242644 Si02
#       8
#     4   4   4   4   4   4   4   4
#     4  10  20  36  55  78 107 139 176 217 262 311
#     4  10  20  35  54  77 104 135 171 211 255 303
#     4  10  21  36  54  77 104 135 171 210 254 303
#     4  10  21  36  54  77 104 135 171 210 254 303
#     4  10  20  35  54  77 104 135 171 211 255 303
#     4  10  20  36  55  78 107 139 176 217 262 311
#     4   9  20  36  54  77 105 136 172 213 257 306
#     4   9  20  36  54  77 105 136 172 213 257 306
#
# _framework density 17.579584000000001
#
# number of rings (size 3 to 8) (size 9 to 14) (size 15 to 20)
#    0.000    2.250    0.000    3.750    0.000    7.000 
#    0.000    7.500    0.000    0.000    0.000    0.000 
#    0.000    0.000    0.000    0.000    0.000    0.000 
#
# Total GULP energy -178619.811817 kJ/mol
# GULP energy per Si atom -5581.869119 kJ/mol
# Density = 1.753957 g / cm^3
# Si number density = 17.579584 Si / 1000 Ang^3
#
#
#
# Elastic Constant Matrix: (Units=GPa)
#
#
# Indices 1 2 3 4 5 6 
#
# 1 95.7467 127.7098 39.8430 0.0000 -6.5123 0.0000
# 2 127.7098 204.9357 58.2480 0.0000 -14.2841 0.0000
# 3 39.8430 58.2480 51.5904 0.0000 -2.5682 0.0000
# 4 0.0000 0.0000 0.0000 31.4770 0.0000 -2.5425
# 5 -6.5123 -14.2841 -2.5682 0.0000 12.9289 0.0000
# 6 0.0000 0.0000 0.0000 -2.5425 0.0000 43.8408
#
#
#
# Elastic Compliance Matrix: (Units=1/GPa)
#
#
# Indices 1 2 3 4 5 6 
#
# 1 0.065015 -0.039648 -0.006056 0.000000 -0.012259 0.000000
# 2 -0.039648 0.031928 -0.004713 0.000000 0.014368 0.000000
# 3 -0.006056 -0.004713 0.029260 0.000000 -0.002445 0.000000
# 4 0.000000 0.000000 0.000000 0.031919 0.000000 0.001851
# 5 -0.012259 0.014368 -0.002445 0.000000 0.086559 0.000000
# 6 0.000000 0.000000 0.000000 0.001851 0.000000 0.022917
#
#
# Mechanical properties :
#
#
# Convention : Reuss Voigt Hill
#
# Bulk Modulus (GPa) = 39.41942 89.31937 64.36940
# Shear Modulus (GPa) = 13.26654 26.08081 19.67368
#
# Velocity S-wave (km/s) = 2.75008 3.85591 3.34896
# Velocity P-wave (km/s) = 5.70579 8.41088 7.18676
#
# Compressibility (1/GPa) = 0.02536820
#
# Stress axis : x y z
#
# Youngs Moduli (GPa) = 15.38118 31.32023 34.17651
#
# Poissons Ratio (x) = 1.24180 0.20697
# Poissons Ratio (y) = 0.60984 0.16107
# Poissons Ratio (z) = 0.09315 0.14761
#
# Static dielectric constant tensor:
#      x y z
#    x 1.586530 0.000000 0.001600 
#    y 0.000000 1.573130 0.000000 
#    z 0.001600 0.000000 1.594300 
# 
# From -- ./inp_files/18596.got.cif
#   From: 2010.05.17/outbox.cif.g08.bks.cpg/sg14_10_cif.got.tgz:18596.got - 2010.06.03 17:49:19.
