data_PCOD9242998
_publ_section_title
;
Structure prediction by ZEFSAII (Michael W. Deem and Ramdas Pophale) SiO2 
 PCOD9242998
Probable space group: P 21/C
;
_chemical_formula_sum "Si O2"
_cell_formula_units_Z 32
_cell_length_a 19.085464
_cell_length_b 8.580536
_cell_length_c 13.418743
_cell_angle_alpha 90.000000
_cell_angle_beta 40.612822
_cell_angle_gamma 90.000000
_cell_volume 1430.449997
_symmetry_space_group_name_H-M "P 21/C"
_symmetry_group_IT_number 14
_symmetry_cell_setting 'monoclinic'
loop_
_space_group_symop_operation_xyz
x,y,z
-x,1/2+y,1/2-z
-x,-y,-z
x,1/2-y,1/2+z
loop_
_atom_site_type_symbol
_atom_site_label
_atom_site_fract_x
_atom_site_fract_y
_atom_site_fract_z
Si Si1 0.243456 0.198732 0.946183
Si Si2 0.657836 0.018698 0.407781
Si Si3 0.772016 0.475865 0.143675
Si Si4 0.081518 0.555086 0.642545
Si Si5 0.722029 0.263293 0.014399
Si Si6 0.223930 0.197398 0.205388
Si Si7 0.417431 0.968857 0.725826
Si Si8 0.006754 0.673984 0.097224
O O1 0.210077 0.362072 0.936235
O O2 0.364076 0.140386 0.793102
O O3 0.233807 0.195715 0.075901
O O4 0.159634 0.065925 0.002370
O O5 0.727230 0.862649 0.316908
O O6 0.544813 0.971114 0.581132
O O7 0.711423 0.138506 0.425854
O O8 0.627461 0.088740 0.333092
O O9 0.715726 0.372914 0.119494
O O10 0.721002 0.550474 0.298809
O O11 0.875161 0.373736 0.066515
O O12 0.163240 0.676364 0.606245
O O13 0.016610 0.455487 0.792599
O O14 0.011365 0.657409 0.644166
O O15 0.630590 0.134529 0.133607
O O16 0.095721 0.177720 0.364122
#
# Coordination Sequence:
#
# PCOD9242998 Si02
#       8
#     4   4   4   4   4   4   4   4
#     4  10  20  40  63  89 124 169 202 265 316 371
#     4  11  23  42  66  92 127 167 210 262 325 376
#     4  11  21  39  63  91 129 161 213 260 314 374
#     4   9  20  35  60  90 123 162 210 253 312 372
#     4  10  23  40  66  94 124 165 207 264 313 376
#     4  11  22  37  63  90 123 170 208 254 317 379
#     4  10  24  43  65  93 128 161 213 266 314 382
#     4  10  20  36  59  91 126 165 211 261 307 377
#
# _framework density 22.370583
#
# number of rings (size 3 to 8) (size 9 to 14) (size 15 to 20)
#    0.000    1.750    2.500    1.875    3.500    3.000 
#    0.000    2.500    0.000    0.000    0.000    0.000 
#    0.000    0.000    0.000    0.000    0.000    0.000 
#
# Total GULP energy -178667.222640 kJ/mol
# GULP energy per Si atom -5583.350707 kJ/mol
# Density = 2.231967 g / cm^3
# Si number density = 22.370583 Si / 1000 Ang^3
#
#
#
# Elastic Constant Matrix: (Units=GPa)
#
#
# Indices 1 2 3 4 5 6 
#
# 1 39.4073 15.2454 2.3635 0.0000 3.3128 0.0000
# 2 15.2454 91.0367 0.9546 0.0000 -4.4092 0.0000
# 3 2.3635 0.9546 37.9841 0.0000 6.3135 0.0000
# 4 0.0000 0.0000 0.0000 24.1191 0.0000 6.5752
# 5 3.3128 -4.4092 6.3135 0.0000 20.3402 0.0000
# 6 0.0000 0.0000 0.0000 6.5752 0.0000 20.7969
#
#
#
# Elastic Compliance Matrix: (Units=1/GPa)
#
#
# Indices 1 2 3 4 5 6 
#
# 1 0.027766 -0.004902 -0.000713 0.000000 -0.005364 0.000000
# 2 -0.004902 0.011985 -0.000591 0.000000 0.003580 0.000000
# 3 -0.000713 -0.000591 0.027823 0.000000 -0.008648 0.000000
# 4 0.000000 0.000000 0.000000 0.045372 0.000000 -0.014345
# 5 -0.005364 0.003580 -0.008648 0.000000 0.053498 0.000000
# 6 0.000000 0.000000 0.000000 -0.014345 0.000000 0.052619
#
#
# Mechanical properties :
#
#
# Convention : Reuss Voigt Hill
#
# Bulk Modulus (GPa) = 18.12842 22.83947 20.48394
# Shear Modulus (GPa) = 20.01094 23.04221 21.52658
#
# Velocity S-wave (km/s) = 2.99410 3.21288 3.10542
# Velocity P-wave (km/s) = 4.48041 4.89849 4.69411
#
# Compressibility (1/GPa) = 0.05516200
#
# Stress axis : x y z
#
# Youngs Moduli (GPa) = 36.01508 83.43695 35.94089
#
# Poissons Ratio (x) = 0.40902 0.02563
# Poissons Ratio (y) = 0.17655 0.02125
# Poissons Ratio (z) = 0.02568 0.04933
#
# Static dielectric constant tensor:
#      x y z
#    x 1.843510 0.000000 0.005150 
#    y 0.000000 1.814980 0.000000 
#    z 0.005150 0.000000 1.865850 
# 
# From -- ./inp_files/50076.got.cif
#   From: 2010.05.17/outbox.cif.g08.bks.cpg/sg14_26_cif.got.tgz:50076.got - 2010.06.03 17:49:19.
