data_PCOD9242890
_publ_section_title
;
Structure prediction by ZEFSAII (Michael W. Deem and Ramdas Pophale) SiO2 
 PCOD9242890
Probable space group: P 21/C
;
_chemical_formula_sum "Si O2"
_cell_formula_units_Z 32
_cell_length_a 22.106212
_cell_length_b 10.944960
_cell_length_c 10.692763
_cell_angle_alpha 90.000000
_cell_angle_beta 146.037472
_cell_angle_gamma 90.000000
_cell_volume 1445.302349
_symmetry_space_group_name_H-M "P 21/C"
_symmetry_group_IT_number 14
_symmetry_cell_setting 'monoclinic'
loop_
_space_group_symop_operation_xyz
x,y,z
-x,1/2+y,1/2-z
-x,-y,-z
x,1/2-y,1/2+z
loop_
_atom_site_type_symbol
_atom_site_label
_atom_site_fract_x
_atom_site_fract_y
_atom_site_fract_z
Si Si1 0.389027 0.643557 0.348999
Si Si2 0.973629 0.962533 0.642992
Si Si3 0.814335 0.967816 0.155564
Si Si4 0.767835 0.231640 0.089231
Si Si5 0.908481 0.263797 0.079231
Si Si6 0.444210 0.888168 0.547543
Si Si7 0.592939 0.609824 0.543973
Si Si8 0.359725 0.130259 0.310471
O O1 0.384010 0.757143 0.435924
O O2 0.514667 0.622238 0.531077
O O3 0.343115 0.515925 0.321854
O O4 0.332310 0.684689 0.122707
O O5 0.949596 0.096773 0.655165
O O6 0.082234 0.989734 0.748407
O O7 0.871410 0.928568 0.380753
O O8 0.002378 0.843752 0.772928
O O9 0.739712 0.087947 0.044678
O O10 0.740047 0.873232 0.956238
O O11 0.842380 0.248552 0.093896
O O12 0.836321 0.253850 0.331171
O O13 0.519789 0.907717 0.796382
O O14 0.527377 0.877479 0.572726
O O15 0.364207 0.003616 0.395852
O O16 0.646171 0.743041 0.624826
#
# Coordination Sequence:
#
# PCOD9242890 Si02
#       8
#     4   4   4   4   4   4   4   4
#     4  10  21  37  53  82 117 155 187 237 290 341
#     4   9  20  39  61  84 116 153 186 245 292 347
#     4   9  18  39  61  80 116 157 198 228 291 358
#     4  10  21  37  63  88 113 154 205 231 283 362
#     4  10  22  41  62  90 115 152 194 240 296 347
#     4  10  20  36  59  78 112 155 194 237 279 343
#     4  10  22  35  52  82 122 148 184 245 299 324
#     4  10  20  36  56  85 107 149 202 231 277 353
#
# _framework density 22.140695999999998
#
# number of rings (size 3 to 8) (size 9 to 14) (size 15 to 20)
#    0.000    2.250    1.250    1.500    1.750    2.500 
#    6.750    0.000    0.000    0.000    0.000    0.000 
#    0.000    0.000    0.000    0.000    0.000    0.000 
#
# Total GULP energy -178510.806607 kJ/mol
# GULP energy per Si atom -5578.462706 kJ/mol
# Density = 2.209030 g / cm^3
# Si number density = 22.140696 Si / 1000 Ang^3
#
#
#
# Elastic Constant Matrix: (Units=GPa)
#
#
# Indices 1 2 3 4 5 6 
#
# 1 41.2952 6.0474 5.7205 0.0000 -9.1526 0.0000
# 2 6.0474 134.8209 59.0012 0.0000 -8.0605 0.0000
# 3 5.7205 59.0012 90.6881 0.0000 -7.1767 0.0000
# 4 0.0000 0.0000 0.0000 31.3019 0.0000 -0.4562
# 5 -9.1526 -8.0605 -7.1767 0.0000 22.4061 0.0000
# 6 0.0000 0.0000 0.0000 -0.4562 0.0000 11.3140
#
#
#
# Elastic Compliance Matrix: (Units=1/GPa)
#
#
# Indices 1 2 3 4 5 6 
#
# 1 0.026696 -0.000271 -0.000669 0.000000 0.010593 0.000000
# 2 -0.000271 0.010429 -0.006649 0.000000 0.001512 0.000000
# 3 -0.000669 -0.006649 0.015579 0.000000 0.002325 0.000000
# 4 0.000000 0.000000 0.000000 0.031966 0.000000 0.001289
# 5 0.010593 0.001512 0.002325 0.000000 0.050246 0.000000
# 6 0.000000 0.000000 0.000000 0.001289 0.000000 0.088438
#
#
# Mechanical properties :
#
#
# Convention : Reuss Voigt Hill
#
# Bulk Modulus (GPa) = 26.64823 45.37138 36.00980
# Shear Modulus (GPa) = 19.91706 26.07339 22.99523
#
# Velocity S-wave (km/s) = 3.00253 3.43537 3.22622
# Velocity P-wave (km/s) = 4.90737 6.02267 5.49339
#
# Compressibility (1/GPa) = 0.03752595
#
# Stress axis : x y z
#
# Youngs Moduli (GPa) = 37.45865 95.88304 64.19098
#
# Poissons Ratio (x) = 0.02601 0.04296
# Poissons Ratio (y) = 0.01016 0.42678
# Poissons Ratio (z) = 0.02507 0.63748
#
# Static dielectric constant tensor:
#      x y z
#    x 1.891810 0.000000 0.029890 
#    y 0.000000 1.889970 0.000000 
#    z 0.029890 0.000000 1.800330 
# 
# From -- ./inp_files/36249.got.cif
#   From: 2010.05.17/outbox.cif.g08.bks.cpg/sg14_19_cif.got.tgz:36249.got - 2010.06.03 17:49:19.
