data_PCOD9242699
_publ_section_title
;
Structure prediction by ZEFSAII (Michael W. Deem and Ramdas Pophale) SiO2 
 PCOD9242699
Probable space group: P 21/C
;
_chemical_formula_sum "Si O2"
_cell_formula_units_Z 28
_cell_length_a 29.145536
_cell_length_b 10.338055
_cell_length_c 8.832308
_cell_angle_alpha 90.000000
_cell_angle_beta 29.250838
_cell_angle_gamma 90.000000
_cell_volume 1300.375490
_symmetry_space_group_name_H-M "P 21/C"
_symmetry_group_IT_number 14
_symmetry_cell_setting 'monoclinic'
loop_
_space_group_symop_operation_xyz
x,y,z
-x,1/2+y,1/2-z
-x,-y,-z
x,1/2-y,1/2+z
loop_
_atom_site_type_symbol
_atom_site_label
_atom_site_fract_x
_atom_site_fract_y
_atom_site_fract_z
Si Si1 0.405408 0.400323 0.431102
Si Si2 0.124678 0.942243 0.165796
Si Si3 0.024432 0.007491 0.179427
Si Si4 0.526096 0.635049 0.110803
Si Si5 0.288767 0.067708 0.795989
Si Si6 0.007021 0.195957 0.982939
Si Si7 0.769884 0.696626 0.216494
O O1 0.433006 0.546785 0.399475
O O2 0.450453 0.282543 0.401797
O O3 0.293210 0.386717 0.721739
O O4 0.449412 0.372910 0.137520
O O5 0.112608 0.004843 0.035823
O O6 0.064649 0.813003 0.326437
O O7 0.064502 0.026773 0.459050
O O8 0.228365 0.941550 0.931963
O O9 0.032730 0.910441 0.018084
O O10 0.003762 0.144806 0.163954
O O11 0.603172 0.550985 0.980819
O O12 0.272035 0.162641 0.702236
O O13 0.250078 0.139773 0.059305
O O14 0.118506 0.204476 0.629942
#
# Coordination Sequence:
#
# PCOD9242699 Si02
#       7
#     4   4   4   4   4   4   4
#     4   9  19  37  62  90 118 149 190 240 292 348
#     4  11  21  36  56  80 110 149 187 239 275 330
#     4  10  22  36  52  79 108 149 190 231 284 327
#     4   9  19  38  62  88 118 150 190 239 295 347
#     4  10  21  35  57  84 113 150 194 235 284 333
#     4  11  22  36  56  79 112 148 193 235 276 336
#     4  10  20  35  57  83 110 150 194 237 271 341
#
# _framework density 21.532242
#
# number of rings (size 3 to 8) (size 9 to 14) (size 15 to 20)
#    0.000    2.000    1.429    2.571    4.000    0.571 
#    0.000    2.857    6.286    0.000    0.000    0.000 
#    0.000    0.000    0.000    0.000    0.000    0.000 
#
# Total GULP energy -155963.948062 kJ/mol
# GULP energy per Si atom -5570.141002 kJ/mol
# Density = 2.148323 g / cm^3
# Si number density = 21.532242 Si / 1000 Ang^3
#
#
#
# Elastic Constant Matrix: (Units=GPa)
#
#
# Indices 1 2 3 4 5 6 
#
# 1 107.7433 42.4567 21.5481 0.0000 -1.4829 0.0000
# 2 42.4567 68.0104 16.0186 0.0000 -3.4730 0.0000
# 3 21.5481 16.0186 36.4713 0.0000 -17.9737 0.0000
# 4 0.0000 0.0000 0.0000 27.0683 0.0000 -8.8271
# 5 -1.4829 -3.4730 -17.9737 0.0000 27.4496 0.0000
# 6 0.0000 0.0000 0.0000 -8.8271 0.0000 27.5000
#
#
#
# Elastic Compliance Matrix: (Units=1/GPa)
#
#
# Indices 1 2 3 4 5 6 
#
# 1 0.013392 -0.006888 -0.007323 0.000000 -0.004943 0.000000
# 2 -0.006888 0.020231 -0.005519 0.000000 -0.001426 0.000000
# 3 -0.007323 -0.005519 0.049653 0.000000 0.031418 0.000000
# 4 0.000000 0.000000 0.000000 0.041263 0.000000 0.013245
# 5 -0.004943 -0.001426 0.031418 0.000000 0.056555 0.000000
# 6 0.000000 0.000000 0.000000 0.013245 0.000000 0.040615
#
#
# Mechanical properties :
#
#
# Convention : Reuss Voigt Hill
#
# Bulk Modulus (GPa) = 22.82278 41.36354 32.09316
# Shear Modulus (GPa) = 18.13082 25.21702 21.67392
#
# Velocity S-wave (km/s) = 2.90493 3.42589 3.17611
# Velocity P-wave (km/s) = 4.67695 5.90768 5.32797
#
# Compressibility (1/GPa) = 0.04381587
#
# Stress axis : x y z
#
# Youngs Moduli (GPa) = 74.67101 49.43031 20.13979
#
# Poissons Ratio (x) = 0.34047 0.14749
# Poissons Ratio (y) = 0.51432 0.11115
# Poissons Ratio (z) = 0.54683 0.27279
#
# Static dielectric constant tensor:
#      x y z
#    x 1.791610 0.000000 0.001190 
#    y 0.000000 1.888780 0.000000 
#    z 0.001190 0.000000 1.822020 
# 
# From -- ./inp_files/19822.got.cif
#   From: 2010.05.17/outbox.cif.g08.bks.cpg/sg14_10_cif.got.tgz:19822.got - 2010.06.03 17:49:19.
