data_PCOD9242533
_publ_section_title
;
Structure prediction by ZEFSAII (Michael W. Deem and Ramdas Pophale) SiO2 
 PCOD9242533
Probable space group: P 21/C
;
_chemical_formula_sum "Si O2"
_cell_formula_units_Z 30
_cell_length_a 24.582435
_cell_length_b 7.983198
_cell_length_c 9.404781
_cell_angle_alpha 90.000000
_cell_angle_beta 137.213283
_cell_angle_gamma 90.000000
_cell_volume 1253.700152
_symmetry_space_group_name_H-M "P 21/C"
_symmetry_group_IT_number 14
_symmetry_cell_setting 'monoclinic'
loop_
_space_group_symop_operation_xyz
x,y,z
-x,1/2+y,1/2-z
-x,-y,-z
x,1/2-y,1/2+z
loop_
_atom_site_type_symbol
_atom_site_label
_atom_site_fract_x
_atom_site_fract_y
_atom_site_fract_z
Si Si1 0.871091 0.433585 0.012148
Si Si2 0.380296 0.975911 0.262181
Si Si3 0.743969 0.971602 0.486471
Si Si4 0.486661 0.992265 0.714727
Si Si5 0.576215 0.856013 0.151245
Si Si6 0.795672 0.581688 0.595628
Si Si7 0.000000 0.500000 0.500000
Si Si8 0.141987 0.947106 0.070498
O O1 0.845589 0.551975 0.834311
O O2 0.794551 0.427448 0.968879
O O3 0.945035 0.493341 0.248051
O O4 0.885704 0.245675 0.985113
O O5 0.436453 0.952604 0.231364
O O6 0.392855 0.171791 0.320082
O O7 0.425002 0.901871 0.487176
O O8 0.285084 0.965119 0.056632
O O9 0.650500 0.982076 0.278770
O O10 0.769766 0.775195 0.529963
O O11 0.770331 0.037037 0.690893
O O12 0.445231 0.143672 0.722860
O O13 0.511819 0.896114 0.907495
O O14 0.850735 0.525066 0.570311
O O15 0.918923 0.535843 0.439625
#
# Coordination Sequence:
#
# PCOD9242533 Si02
#       8
#     4   4   4   4   4   4   2   4
#     4  11  24  44  67  98 133 164 206 265 318 371
#     4  10  21  38  57  86 121 159 214 271 314 369
#     4  10  22  42  67  94 127 170 220 261 314 385
#     4  10  20  34  54  82 118 158 206 256 316 362
#     4  10  20  38  59  82 120 168 213 264 316 374
#     4  11  22  41  71  94 123 171 219 261 313 388
#     4  10  26  44  64  90 130 168 196 240 314 388
#     4  11  24  44  67  98 133 164 206 265 318 371
#
# _framework density 23.929165999999999
#
# number of rings (size 3 to 8) (size 9 to 14) (size 15 to 20)
#    0.000    1.600    0.000    4.800    0.000    9.067 
#    0.000   26.667    0.000    0.000    0.000    0.000 
#    0.000    0.000    0.000    0.000    0.000    0.000 
#
# Total GULP energy -167120.680192 kJ/mol
# GULP energy per Si atom -5570.689340 kJ/mol
# Density = 2.387470 g / cm^3
# Si number density = 23.929166 Si / 1000 Ang^3
#
#
#
# Elastic Constant Matrix: (Units=GPa)
#
#
# Indices 1 2 3 4 5 6 
#
# 1 65.7381 -3.9777 39.4887 0.0000 -4.0156 0.0000
# 2 -3.9777 16.2348 12.7130 0.0000 -0.3619 0.0000
# 3 39.4887 12.7130 129.0762 0.0000 -4.8158 0.0000
# 4 0.0000 0.0000 0.0000 17.7628 0.0000 -11.5415
# 5 -4.0156 -0.3619 -4.8158 0.0000 43.0959 0.0000
# 6 0.0000 0.0000 0.0000 -11.5415 0.0000 5.3232
#
#
#
# Elastic Compliance Matrix: (Units=1/GPa)
#
#
# Indices 1 2 3 4 5 6 
#
# 1 0.020250 0.010624 -0.007198 0.000000 0.001172 0.000000
# 2 0.010624 0.072319 -0.010357 0.000000 0.000440 0.000000
# 3 -0.007198 -0.010357 0.010987 0.000000 0.000470 0.000000
# 4 0.000000 0.000000 0.000000 -0.137724 0.000000 -0.298605
# 5 0.001172 0.000440 0.000470 0.000000 0.023369 0.000000
# 6 0.000000 0.000000 0.000000 -0.298605 0.000000 -0.459563
#
#
# Mechanical properties :
#
#
# Convention : Reuss Voigt Hill
#
# Bulk Modulus (GPa) = 11.14891 34.16634 22.65762
# Shear Modulus (GPa) = -11.72051 24.09138 6.18544
#
# Velocity S-wave (km/s) = -2.21554 3.17642 1.60950
# Velocity P-wave (km/s) = 1.36953 5.26896 3.59766
#
# Compressibility (1/GPa) = 0.08969486
#
# Stress axis : x y z
#
# Youngs Moduli (GPa) = 49.38269 13.82766 91.01664
#
# Poissons Ratio (x) = -0.14690 0.65512
# Poissons Ratio (y) = -0.52464 0.94263
# Poissons Ratio (z) = 0.35545 0.14321
#
# Static dielectric constant tensor:
#      x y z
#    x 1.913560 0.000000 0.031580 
#    y 0.000000 2.066560 0.000000 
#    z 0.031580 0.000000 1.910960 
# 
# From -- ./inp_files/19779.got.cif
#   From: 2010.05.17/outbox.cif.g08.bks.cpg/sg14_10_cif.got.tgz:19779.got - 2010.06.03 17:49:19.
