data_PCOD9242908
_publ_section_title
;
Structure prediction by ZEFSAII (Michael W. Deem and Ramdas Pophale) SiO2 
 PCOD9242908
Probable space group: P 21/C
;
_chemical_formula_sum "Si O2"
_cell_formula_units_Z 20
_cell_length_a 19.371661
_cell_length_b 8.133646
_cell_length_c 13.956090
_cell_angle_alpha 90.000000
_cell_angle_beta 21.019158
_cell_angle_gamma 90.000000
_cell_volume 788.720556
_symmetry_space_group_name_H-M "P 21/C"
_symmetry_group_IT_number 14
_symmetry_cell_setting 'monoclinic'
loop_
_space_group_symop_operation_xyz
x,y,z
-x,1/2+y,1/2-z
-x,-y,-z
x,1/2-y,1/2+z
loop_
_atom_site_type_symbol
_atom_site_label
_atom_site_fract_x
_atom_site_fract_y
_atom_site_fract_z
Si Si1 0.561860 0.934680 0.816206
Si Si2 0.858376 0.334675 0.303784
Si Si3 0.560303 0.795360 0.165118
Si Si4 0.016701 0.326717 0.424123
Si Si5 0.005341 0.472378 0.717919
O O1 0.445271 0.032697 0.884152
O O2 0.548349 0.745028 0.795541
O O3 0.783325 0.984849 0.521693
O O4 0.500000 0.000000 0.000000
O O5 0.645037 0.274871 0.604283
O O6 0.894712 0.507761 0.308878
O O7 0.004950 0.201599 0.164395
O O8 0.909346 0.310017 0.126281
O O9 0.755621 0.707201 0.878912
O O10 0.922964 0.378988 0.444241
O O11 0.000000 0.500000 0.500000
#
# Coordination Sequence:
#
# PCOD9242908 Si02
#       5
#     4   4   4   4   4
#     4  10  21  40  61  88 128 165 206 266 316 367
#     4  10  20  36  57  84 116 154 198 252 306 362
#     4  10  22  39  62  92 121 163 218 256 313 391
#     4   9  19  39  59  78 117 160 195 249 307 362
#     4   9  20  36  55  84 118 152 199 249 301 366
#
# _framework density 25.357523
#
# number of rings (size 3 to 8) (size 9 to 14) (size 15 to 20)
#    0.000    2.400    0.000    2.400    0.000    6.400 
#    0.000    8.000    0.000    0.000    0.000    0.000 
#    0.000    0.000    0.000    0.000    0.000    0.000 
#
# Total GULP energy -111550.920124 kJ/mol
# GULP energy per Si atom -5577.546006 kJ/mol
# Density = 2.529981 g / cm^3
# Si number density = 25.357523 Si / 1000 Ang^3
#
#
#
# Elastic Constant Matrix: (Units=GPa)
#
#
# Indices 1 2 3 4 5 6 
#
# 1 115.1816 50.9008 19.4897 0.0000 29.2680 0.0000
# 2 50.9008 92.0649 27.6103 0.0000 20.0319 0.0000
# 3 19.4897 27.6103 102.4673 0.0000 6.2307 0.0000
# 4 0.0000 0.0000 0.0000 34.3709 0.0000 4.5801
# 5 29.2680 20.0319 6.2307 0.0000 39.4327 0.0000
# 6 0.0000 0.0000 0.0000 4.5801 0.0000 67.9792
#
#
#
# Elastic Compliance Matrix: (Units=1/GPa)
#
#
# Indices 1 2 3 4 5 6 
#
# 1 0.012916 -0.005515 -0.000563 0.000000 -0.006696 0.000000
# 2 -0.005515 0.015513 -0.002929 0.000000 -0.003324 0.000000
# 3 -0.000563 -0.002929 0.010642 0.000000 0.000225 0.000000
# 4 0.000000 0.000000 0.000000 0.029358 0.000000 -0.001978
# 5 -0.006696 -0.003324 0.000225 0.000000 0.031983 0.000000
# 6 0.000000 0.000000 0.000000 -0.001978 0.000000 0.014844
#
#
# Mechanical properties :
#
#
# Convention : Reuss Voigt Hill
#
# Bulk Modulus (GPa) = 47.49270 56.19058 51.84164
# Shear Modulus (GPa) = 35.64089 42.47076 39.05582
#
# Velocity S-wave (km/s) = 3.75311 4.09697 3.92880
# Velocity P-wave (km/s) = 6.12789 6.67740 6.40854
#
# Compressibility (1/GPa) = 0.02105587
#
# Stress axis : x y z
#
# Youngs Moduli (GPa) = 77.42380 64.46317 93.96801
#
# Poissons Ratio (x) = 0.35552 0.05295
# Poissons Ratio (y) = 0.42700 0.27522
# Poissons Ratio (z) = 0.04362 0.18880
#
# Static dielectric constant tensor:
#      x y z
#    x 2.131790 0.000000 0.035790 
#    y 0.000000 2.257720 0.000000 
#    z 0.035790 0.000000 1.953630 
# 
# From -- ./inp_files/33699.got.cif
#   From: 2010.05.17/outbox.cif.g08.bks.cpg/sg14_17_cif.got.tgz:33699.got - 2010.06.03 17:49:19.
