data_PCOD9242051
_publ_section_title
;
Structure prediction by ZEFSAII (Michael W. Deem and Ramdas Pophale) SiO2 
 PCOD9242051
Probable space group: P 21/C
;
_chemical_formula_sum "Si O2"
_cell_formula_units_Z 28
_cell_length_a 20.126858
_cell_length_b 6.304231
_cell_length_c 17.076575
_cell_angle_alpha 90.000000
_cell_angle_beta 42.167519
_cell_angle_gamma 90.000000
_cell_volume 1454.540619
_symmetry_space_group_name_H-M "P 21/C"
_symmetry_group_IT_number 14
_symmetry_cell_setting 'monoclinic'
loop_
_space_group_symop_operation_xyz
x,y,z
-x,1/2+y,1/2-z
-x,-y,-z
x,1/2-y,1/2+z
loop_
_atom_site_type_symbol
_atom_site_label
_atom_site_fract_x
_atom_site_fract_y
_atom_site_fract_z
Si Si1 0.604954 0.796602 0.577148
Si Si2 0.598590 0.094121 0.732627
Si Si3 0.752368 0.438688 0.224137
Si Si4 0.735652 0.084329 0.021225
Si Si5 0.117571 0.324413 0.335951
Si Si6 0.726983 0.120379 0.379247
Si Si7 0.896472 0.375513 0.505561
O O1 0.506665 0.666950 0.642551
O O2 0.690265 0.632848 0.528499
O O3 0.582371 0.939804 0.673257
O O4 0.643373 0.950873 0.475577
O O5 0.668789 0.987024 0.736215
O O6 0.657574 0.300459 0.648175
O O7 0.812745 0.620925 0.215485
O O8 0.702726 0.279811 0.329876
O O9 0.832647 0.306199 0.104176
O O10 0.837484 0.061063 0.979360
O O11 0.747865 0.243267 0.938163
O O12 0.176484 0.493232 0.232478
O O13 0.103210 0.425971 0.434966
O O14 0.008001 0.293448 0.397801
#
# Coordination Sequence:
#
# PCOD9242051 Si02
#       7
#     4   4   4   4   4   4   4
#     4  11  20  38  60  83 117 152 192 252 283 345
#     4  10  21  35  63  87 107 152 201 235 297 335
#     4  10  20  38  59  87 118 153 190 241 285 350
#     4  10  20  39  56  85 116 149 192 246 282 348
#     4  10  19  39  58  87 116 152 190 242 284 348
#     4  10  23  37  53  84 125 152 190 232 298 340
#     4   9  20  36  64  86 110 151 200 232 291 341
#
# _framework density 19.250063000000001
#
# number of rings (size 3 to 8) (size 9 to 14) (size 15 to 20)
#    0.000    2.000    1.429    2.143    0.000    0.571 
#    5.143    2.857    0.000    0.000    0.000    0.000 
#    0.000    0.000    0.000    0.000    0.000    0.000 
#
# Total GULP energy -156319.053097 kJ/mol
# GULP energy per Si atom -5582.823325 kJ/mol
# Density = 1.920625 g / cm^3
# Si number density = 19.250063 Si / 1000 Ang^3
#
#
#
# Elastic Constant Matrix: (Units=GPa)
#
#
# Indices 1 2 3 4 5 6 
#
# 1 59.2434 2.1117 29.7701 0.0000 -27.8256 0.0000
# 2 2.1117 58.2997 14.6957 0.0000 -9.8292 0.0000
# 3 29.7701 14.6957 70.2873 0.0000 -3.3431 0.0000
# 4 0.0000 0.0000 0.0000 16.7918 0.0000 0.7699
# 5 -27.8256 -9.8292 -3.3431 0.0000 23.0715 0.0000
# 6 0.0000 0.0000 0.0000 0.7699 0.0000 17.8474
#
#
#
# Elastic Compliance Matrix: (Units=1/GPa)
#
#
# Indices 1 2 3 4 5 6 
#
# 1 0.083048 0.023562 -0.035102 0.000000 0.105113 0.000000
# 2 0.023562 0.026069 -0.013644 0.000000 0.037546 0.000000
# 3 -0.035102 -0.013644 0.029863 0.000000 -0.043820 0.000000
# 4 0.000000 0.000000 0.000000 0.059671 0.000000 -0.002574
# 5 0.105113 0.037546 -0.043820 0.000000 0.179762 0.000000
# 6 0.000000 0.000000 0.000000 -0.002574 0.000000 0.056142
#
#
# Mechanical properties :
#
#
# Convention : Reuss Voigt Hill
#
# Bulk Modulus (GPa) = 11.28521 31.22059 21.25290
# Shear Modulus (GPa) = 9.71894 20.95899 15.33897
#
# Velocity S-wave (km/s) = 2.24939 3.30324 2.82587
# Velocity P-wave (km/s) = 3.55267 5.54997 4.65959
#
# Compressibility (1/GPa) = 0.08861153
#
# Stress axis : x y z
#
# Youngs Moduli (GPa) = 12.04124 38.36013 33.48622
#
# Poissons Ratio (x) = -0.90383 1.17542
# Poissons Ratio (y) = -0.28371 0.45689
# Poissons Ratio (z) = 0.42267 0.52339
#
# Static dielectric constant tensor:
#      x y z
#    x 1.652600 0.000000 0.002670 
#    y 0.000000 1.671440 0.000000 
#    z 0.002670 0.000000 1.659880 
# 
# From -- ./inp_files/60917.got.cif
#   From: 2010.05.17/outbox.cif.g08.bks.cpg/sg14_31_cif.got.tgz:60917.got - 2010.06.03 17:49:19.
