data_PCOD9242473
_publ_section_title
;
Structure prediction by ZEFSAII (Michael W. Deem and Ramdas Pophale) SiO2 
 PCOD9242473
Probable space group: P 21/C
;
_chemical_formula_sum "Si O2"
_cell_formula_units_Z 28
_cell_length_a 7.983480
_cell_length_b 16.762590
_cell_length_c 11.333833
_cell_angle_alpha 90.000000
_cell_angle_beta 127.479832
_cell_angle_gamma 90.000000
_cell_volume 1203.633003
_symmetry_space_group_name_H-M "P 21/C"
_symmetry_group_IT_number 14
_symmetry_cell_setting 'monoclinic'
loop_
_space_group_symop_operation_xyz
x,y,z
-x,1/2+y,1/2-z
-x,-y,-z
x,1/2-y,1/2+z
loop_
_atom_site_type_symbol
_atom_site_label
_atom_site_fract_x
_atom_site_fract_y
_atom_site_fract_z
Si Si1 0.645729 0.866249 0.717665
Si Si2 0.265910 0.961909 0.524427
Si Si3 0.882178 0.308009 0.180187
Si Si4 0.084970 0.924061 0.690277
Si Si5 0.173881 0.282293 0.936310
Si Si6 0.884018 0.141658 0.050996
Si Si7 0.560279 0.219833 0.747176
O O1 0.514751 0.945220 0.628303
O O2 0.707944 0.817998 0.626777
O O3 0.872968 0.881681 0.877819
O O4 0.478916 0.808241 0.714394
O O5 0.157160 0.887620 0.409141
O O6 0.214188 0.964962 0.642287
O O7 0.146110 0.035595 0.414430
O O8 0.681143 0.287016 0.174915
O O9 0.085033 0.303294 0.355278
O O10 0.910492 0.233220 0.105880
O O11 0.036225 0.833398 0.632589
O O12 0.168190 0.914900 0.858968
O O13 0.317677 0.296328 0.110225
O O14 0.687454 0.154940 0.879426
#
# Coordination Sequence:
#
# PCOD9242473 Si02
#       7
#     4   4   4   4   4   4   4
#     4  10  20  33  58  87 112 152 196 242 291 349
#     4  11  19  40  64  83 120 162 200 246 299 351
#     4  10  21  35  57  89 115 149 199 241 293 358
#     4   9  23  38  62  85 117 162 203 242 295 361
#     4  10  22  35  57  89 115 152 196 247 296 356
#     4  10  22  36  57  89 118 149 201 249 292 356
#     4  12  19  36  58  87 118 152 191 252 303 342
#
# _framework density 23.262905
#
# number of rings (size 3 to 8) (size 9 to 14) (size 15 to 20)
#    0.000    2.000    2.857    2.571    4.000    2.286 
#    0.000    0.714    3.143    1.714    0.000    0.000 
#    0.000    0.000    0.000    0.000    0.000    0.000 
#
# Total GULP energy -155891.070849 kJ/mol
# GULP energy per Si atom -5567.538245 kJ/mol
# Density = 2.320996 g / cm^3
# Si number density = 23.262905 Si / 1000 Ang^3
#
#
#
# Elastic Constant Matrix: (Units=GPa)
#
#
# Indices 1 2 3 4 5 6 
#
# 1 94.1347 -2.4360 9.9278 0.0000 0.5488 0.0000
# 2 -2.4360 27.2186 -10.0250 0.0000 -7.6679 0.0000
# 3 9.9278 -10.0250 95.7627 0.0000 28.3704 0.0000
# 4 0.0000 0.0000 0.0000 20.7964 0.0000 4.0553
# 5 0.5488 -7.6679 28.3704 0.0000 24.3516 0.0000
# 6 0.0000 0.0000 0.0000 4.0553 0.0000 21.3360
#
#
#
# Elastic Compliance Matrix: (Units=1/GPa)
#
#
# Indices 1 2 3 4 5 6 
#
# 1 0.010803 0.000916 -0.001584 0.000000 0.001891 0.000000
# 2 0.000916 0.040424 0.000568 0.000000 0.012046 0.000000
# 3 -0.001584 0.000568 0.016191 0.000000 -0.018648 0.000000
# 4 0.000000 0.000000 0.000000 0.049936 0.000000 -0.009491
# 5 0.001891 0.012046 -0.018648 0.000000 0.066541 0.000000
# 6 0.000000 0.000000 0.000000 -0.009491 0.000000 0.048673
#
#
# Mechanical properties :
#
#
# Convention : Reuss Voigt Hill
#
# Bulk Modulus (GPa) = 14.87699 23.56105 19.21902
# Shear Modulus (GPa) = 19.59442 27.94010 23.76726
#
# Velocity S-wave (km/s) = 2.90539 3.46939 3.19984
# Velocity P-wave (km/s) = 4.20287 5.11850 4.68312
#
# Compressibility (1/GPa) = 0.06721790
#
# Stress axis : x y z
#
# Youngs Moduli (GPa) = 92.56838 24.73755 61.76320
#
# Poissons Ratio (x) = -0.02266 0.09784
# Poissons Ratio (y) = -0.08479 -0.03509
# Poissons Ratio (z) = 0.14664 -0.01405
#
# Static dielectric constant tensor:
#      x y z
#    x 1.937480 0.000000 -0.007690 
#    y 0.000000 1.900500 0.000000 
#    z -0.007690 0.000000 2.025260 
# 
# From -- ./inp_files/26675.got.cif
#   From: 2010.05.17/outbox.cif.g08.bks.cpg/sg14_14_cif.got.tgz:26675.got - 2010.06.03 17:49:19.
