data_PCOD9242404
_publ_section_title
;
Structure prediction by ZEFSAII (Michael W. Deem and Ramdas Pophale) SiO2 
 PCOD9242404
Probable space group: P 21/C
;
_chemical_formula_sum "Si O2"
_cell_formula_units_Z 32
_cell_length_a 12.563336
_cell_length_b 17.063673
_cell_length_c 13.457526
_cell_angle_alpha 90.000000
_cell_angle_beta 31.802172
_cell_angle_gamma 90.000000
_cell_volume 1520.349583
_symmetry_space_group_name_H-M "P 21/C"
_symmetry_group_IT_number 14
_symmetry_cell_setting 'monoclinic'
loop_
_space_group_symop_operation_xyz
x,y,z
-x,1/2+y,1/2-z
-x,-y,-z
x,1/2-y,1/2+z
loop_
_atom_site_type_symbol
_atom_site_label
_atom_site_fract_x
_atom_site_fract_y
_atom_site_fract_z
Si Si1 0.573706 0.221567 0.915023
Si Si2 0.583859 0.627416 0.076543
Si Si3 0.607882 0.732307 0.237424
Si Si4 0.038614 0.781723 0.956371
Si Si5 0.337165 0.376981 0.462775
Si Si6 0.900175 0.582629 0.684202
Si Si7 0.089718 0.586891 0.250522
Si Si8 0.538531 0.957121 0.323220
O O1 0.483468 0.301293 0.939499
O O2 0.790148 0.217276 0.690151
O O3 0.444753 0.148399 0.977976
O O4 0.560899 0.231907 0.043395
O O5 0.583282 0.656245 0.189143
O O6 0.456635 0.549410 0.157250
O O7 0.807474 0.604899 0.863931
O O8 0.620282 0.803673 0.147750
O O9 0.820943 0.741699 0.124898
O O10 0.080327 0.838259 0.829351
O O11 0.045428 0.846316 0.038378
O O12 0.423398 0.445037 0.323719
O O13 0.101549 0.395565 0.668063
O O14 0.965601 0.492538 0.643779
O O15 0.713657 0.582303 0.751880
O O16 0.314092 0.573906 0.029432
#
# Coordination Sequence:
#
# PCOD9242404 Si02
#       8
#     4   4   4   4   4   4   4   4
#     4  11  22  39  58  83 116 166 193 240 292 347
#     4  10  21  37  61  87 120 154 190 246 294 348
#     4  10  21  41  54  83 124 151 201 239 281 361
#     4  11  20  34  60  85 116 153 190 240 299 344
#     4  10  22  37  56  86 118 153 202 238 297 352
#     4  11  19  35  61  95 121 142 190 250 309 347
#     4  10  20  32  58  87 123 147 180 249 305 349
#     4  11  20  37  59  92 123 147 193 248 299 349
#
# _framework density 21.047789999999999
#
# number of rings (size 3 to 8) (size 9 to 14) (size 15 to 20)
#    0.000    1.500    3.750    4.125    1.750    1.000 
#    6.750    0.625    0.000    3.750    0.000    0.000 
#    0.000    0.000    0.000    0.000    0.000    0.000 
#
# Total GULP energy -178496.814462 kJ/mol
# GULP energy per Si atom -5578.025452 kJ/mol
# Density = 2.099988 g / cm^3
# Si number density = 21.047790 Si / 1000 Ang^3
#
#
#
# Elastic Constant Matrix: (Units=GPa)
#
#
# Indices 1 2 3 4 5 6 
#
# 1 28.4814 17.2659 15.4809 0.0000 7.6484 0.0000
# 2 17.2659 35.4440 18.4734 0.0000 7.3466 0.0000
# 3 15.4809 18.4734 84.6464 0.0000 1.3156 0.0000
# 4 0.0000 0.0000 0.0000 26.2809 0.0000 0.7394
# 5 7.6484 7.3466 1.3156 0.0000 21.2967 0.0000
# 6 0.0000 0.0000 0.0000 0.7394 0.0000 23.9372
#
#
#
# Elastic Compliance Matrix: (Units=1/GPa)
#
#
# Indices 1 2 3 4 5 6 
#
# 1 0.053829 -0.021164 -0.005044 0.000000 -0.011720 0.000000
# 2 -0.021164 0.042721 -0.005347 0.000000 -0.006806 0.000000
# 3 -0.005044 -0.005347 0.013860 0.000000 0.002800 0.000000
# 4 0.000000 0.000000 0.000000 0.038083 0.000000 -0.001176
# 5 -0.011720 -0.006806 0.002800 0.000000 0.053340 0.000000
# 6 0.000000 0.000000 0.000000 -0.001176 0.000000 0.041812
#
#
# Mechanical properties :
#
#
# Convention : Reuss Voigt Hill
#
# Bulk Modulus (GPa) = 21.14154 27.89022 24.51588
# Shear Modulus (GPa) = 15.50287 20.79308 18.14798
#
# Velocity S-wave (km/s) = 2.71690 3.14650 2.93956
# Velocity P-wave (km/s) = 4.46188 5.14590 4.81605
#
# Compressibility (1/GPa) = 0.04730025
#
# Stress axis : x y z
#
# Youngs Moduli (GPa) = 18.57729 23.40786 72.15153
#
# Poissons Ratio (x) = 0.49540 0.36391
# Poissons Ratio (y) = 0.39317 0.38579
# Poissons Ratio (z) = 0.09370 0.12516
#
# Static dielectric constant tensor:
#      x y z
#    x 1.789170 0.000000 -0.038770 
#    y 0.000000 1.793450 0.000000 
#    z -0.038770 0.000000 1.867570 
# 
# From -- ./inp_files/47528.got.cif
#   From: 2010.05.17/outbox.cif.g08.bks.cpg/sg14_24_cif.got.tgz:47528.got - 2010.06.03 17:49:19.
