data_PCOD9242378
_publ_section_title
;
Structure prediction by ZEFSAII (Michael W. Deem and Ramdas Pophale) SiO2 
 PCOD9242378
Probable space group: P 21/C
;
_chemical_formula_sum "Si O2"
_cell_formula_units_Z 28
_cell_length_a 11.966237
_cell_length_b 5.508973
_cell_length_c 22.582914
_cell_angle_alpha 90.000000
_cell_angle_beta 114.351288
_cell_angle_gamma 90.000000
_cell_volume 1356.260366
_symmetry_space_group_name_H-M "P 21/C"
_symmetry_group_IT_number 14
_symmetry_cell_setting 'monoclinic'
loop_
_space_group_symop_operation_xyz
x,y,z
-x,1/2+y,1/2-z
-x,-y,-z
x,1/2-y,1/2+z
loop_
_atom_site_type_symbol
_atom_site_label
_atom_site_fract_x
_atom_site_fract_y
_atom_site_fract_z
Si Si1 0.699807 0.642311 0.529368
Si Si2 0.306459 0.671675 0.194174
Si Si3 0.484098 0.759650 0.551594
Si Si4 0.514827 0.977278 0.177328
Si Si5 0.328313 0.372062 0.095497
Si Si6 0.142481 0.419746 0.322121
Si Si7 0.150769 0.920206 0.254888
O O1 0.598583 0.827934 0.535544
O O2 0.617567 0.400450 0.504077
O O3 0.737648 0.719020 0.470992
O O4 0.804870 0.608768 0.600246
O O5 0.364219 0.509141 0.258350
O O6 0.250317 0.515706 0.127795
O O7 0.222969 0.867001 0.209505
O O8 0.426391 0.789032 0.190662
O O9 0.543904 0.591101 0.616219
O O10 0.412213 0.949752 0.575342
O O11 0.426488 0.209878 0.152096
O O12 0.176677 0.684260 0.302313
O O13 0.994340 0.417079 0.289712
O O14 0.180178 0.177855 0.292613
#
# Coordination Sequence:
#
# PCOD9242378 Si02
#       7
#     4   4   4   4   4   4   4
#     4  10  20  35  59  81 122 157 200 248 308 358
#     4  11  21  35  58  83 123 159 197 256 304 364
#     4   9  20  34  52  86 116 156 198 246 306 365
#     4  10  20  32  51  83 116 156 196 242 305 367
#     4  10  21  34  51  84 120 150 200 238 296 376
#     4  10  23  43  64  94 116 161 207 263 302 362
#     4  10  24  41  66  91 122 153 215 257 307 352
#
# _framework density 20.645002000000002
#
# number of rings (size 3 to 8) (size 9 to 14) (size 15 to 20)
#    0.000    2.000    1.429    1.286    6.000    0.000 
#    0.000    0.714    0.000    7.714    0.000    0.000 
#    0.000    0.000    0.000    0.000    0.000    0.000 
#
# Total GULP energy -156089.700460 kJ/mol
# GULP energy per Si atom -5574.632159 kJ/mol
# Density = 2.059801 g / cm^3
# Si number density = 20.645002 Si / 1000 Ang^3
#
#
#
# Elastic Constant Matrix: (Units=GPa)
#
#
# Indices 1 2 3 4 5 6 
#
# 1 35.1838 8.6059 26.9783 0.0000 -10.8015 0.0000
# 2 8.6059 71.5511 44.1066 0.0000 4.0481 0.0000
# 3 26.9783 44.1066 150.3607 0.0000 -2.5475 0.0000
# 4 0.0000 0.0000 0.0000 16.4846 0.0000 -9.0647
# 5 -10.8015 4.0481 -2.5475 0.0000 25.8606 0.0000
# 6 0.0000 0.0000 0.0000 -9.0647 0.0000 24.6781
#
#
#
# Elastic Compliance Matrix: (Units=1/GPa)
#
#
# Indices 1 2 3 4 5 6 
#
# 1 0.038343 -0.001736 -0.006105 0.000000 0.015686 0.000000
# 2 -0.001736 0.017403 -0.004860 0.000000 -0.003928 0.000000
# 3 -0.006105 -0.004860 0.009157 0.000000 -0.000887 0.000000
# 4 0.000000 0.000000 0.000000 0.076017 0.000000 0.027922
# 5 0.015686 -0.003928 -0.000887 0.000000 0.045748 0.000000
# 6 0.000000 0.000000 0.000000 0.027922 0.000000 0.050778
#
#
# Mechanical properties :
#
#
# Convention : Reuss Voigt Hill
#
# Bulk Modulus (GPa) = 25.31559 46.27524 35.79541
# Shear Modulus (GPa) = 18.11500 25.23164 21.67332
#
# Velocity S-wave (km/s) = 2.96539 3.49974 3.24359
# Velocity P-wave (km/s) = 4.90038 6.22851 5.60393
#
# Compressibility (1/GPa) = 0.03950135
#
# Stress axis : x y z
#
# Youngs Moduli (GPa) = 26.08011 57.46156 109.21075
#
# Poissons Ratio (x) = 0.09976 0.66670
# Poissons Ratio (y) = 0.04528 0.53077
# Poissons Ratio (z) = 0.15921 0.27926
#
# Static dielectric constant tensor:
#      x y z
#    x 1.736460 0.000000 -0.052880 
#    y 0.000000 1.896020 0.000000 
#    z -0.052880 0.000000 1.802020 
# 
# From -- ./inp_files/66259.got.cif
#   From: 2010.05.17/outbox.cif.g08.bks.cpg/sg14_34_cif.got.tgz:66259.got - 2010.06.03 17:49:19.
