data_PCOD9242642
_publ_section_title
;
Structure prediction by ZEFSAII (Michael W. Deem and Ramdas Pophale) SiO2 
 PCOD9242642
Probable space group: P 21/C
;
_chemical_formula_sum "Si O2"
_cell_formula_units_Z 32
_cell_length_a 9.346633
_cell_length_b 21.931194
_cell_length_c 16.444450
_cell_angle_alpha 90.000000
_cell_angle_beta 29.597919
_cell_angle_gamma 90.000000
_cell_volume 1664.887491
_symmetry_space_group_name_H-M "P 21/C"
_symmetry_group_IT_number 14
_symmetry_cell_setting 'monoclinic'
loop_
_space_group_symop_operation_xyz
x,y,z
-x,1/2+y,1/2-z
-x,-y,-z
x,1/2-y,1/2+z
loop_
_atom_site_type_symbol
_atom_site_label
_atom_site_fract_x
_atom_site_fract_y
_atom_site_fract_z
Si Si1 0.019380 0.539825 0.790949
Si Si2 0.005094 0.737362 0.499049
Si Si3 0.460012 0.824732 0.185450
Si Si4 0.428570 0.070017 0.353899
Si Si5 0.456543 0.971010 0.208506
Si Si6 0.562447 0.670937 0.287711
Si Si7 0.518429 0.628504 0.491554
Si Si8 0.002548 0.453166 0.658845
O O1 0.228318 0.506004 0.753260
O O2 0.241065 0.584513 0.635865
O O3 0.887516 0.498281 0.785562
O O4 0.789385 0.572225 0.962713
O O5 0.771028 0.698668 0.563485
O O6 0.801418 0.776649 0.658807
O O7 0.203018 0.784141 0.349238
O O8 0.240934 0.695950 0.427557
O O9 0.425526 0.896927 0.225881
O O10 0.456168 0.819968 0.089648
O O11 0.373159 0.120215 0.312633
O O12 0.746842 0.076200 0.234279
O O13 0.408767 0.005066 0.316691
O O14 0.774839 0.984334 0.014875
O O15 0.570165 0.647065 0.374831
O O16 0.794481 0.593596 0.392671
#
# Coordination Sequence:
#
# PCOD9242642 Si02
#       8
#     4   4   4   4   4   4   4   4
#     4  10  20  35  53  83 119 154 185 226 283 344
#     4  10  22  40  62  82 114 148 194 238 274 336
#     4   9  20  39  59  85 113 150 189 232 285 331
#     4  12  22  35  60  89 116 149 190 237 288 339
#     4  10  20  36  59  85 115 152 188 232 287 344
#     4  11  22  40  60  86 112 151 192 234 284 336
#     4  10  21  38  59  79 114 152 190 231 283 342
#     4  10  20  35  53  83 119 154 185 226 283 344
#
# _framework density 19.220518999999999
#
# number of rings (size 3 to 8) (size 9 to 14) (size 15 to 20)
#    0.000    2.000    0.000    7.125    0.000    3.000 
#    0.000    2.500    0.000    0.000    0.000    0.000 
#    0.000    0.000    0.000    0.000    0.000    0.000 
#
# Total GULP energy -178549.094140 kJ/mol
# GULP energy per Si atom -5579.659192 kJ/mol
# Density = 1.917677 g / cm^3
# Si number density = 19.220519 Si / 1000 Ang^3
#
#
#
# Elastic Constant Matrix: (Units=GPa)
#
#
# Indices 1 2 3 4 5 6 
#
# 1 36.4990 14.1980 13.8218 0.0000 14.5628 0.0000
# 2 14.1980 54.3891 2.6217 0.0000 9.7062 0.0000
# 3 13.8218 2.6217 54.9794 0.0000 -0.3081 0.0000
# 4 0.0000 0.0000 0.0000 23.9238 0.0000 3.7103
# 5 14.5628 9.7062 -0.3081 0.0000 33.8621 0.0000
# 6 0.0000 0.0000 0.0000 3.7103 0.0000 13.5562
#
#
#
# Elastic Compliance Matrix: (Units=1/GPa)
#
#
# Indices 1 2 3 4 5 6 
#
# 1 0.039999 -0.007255 -0.009795 0.000000 -0.015211 0.000000
# 2 -0.007255 0.020743 0.000819 0.000000 -0.002818 0.000000
# 3 -0.009795 0.000819 0.020635 0.000000 0.004165 0.000000
# 4 0.000000 0.000000 0.000000 0.043652 0.000000 -0.011948
# 5 -0.015211 -0.002818 0.004165 0.000000 0.036919 0.000000
# 6 0.000000 0.000000 0.000000 -0.011948 0.000000 0.077037
#
#
# Mechanical properties :
#
#
# Convention : Reuss Voigt Hill
#
# Bulk Modulus (GPa) = 20.44328 23.01674 21.73001
# Shear Modulus (GPa) = 17.37606 21.95017 19.66311
#
# Velocity S-wave (km/s) = 3.00998 3.38304 3.20195
# Velocity P-wave (km/s) = 4.76857 5.22121 5.00001
#
# Compressibility (1/GPa) = 0.04891583
#
# Stress axis : x y z
#
# Youngs Moduli (GPa) = 25.00093 48.20825 48.46053
#
# Poissons Ratio (x) = 0.34973 0.47467
# Poissons Ratio (y) = 0.18137 -0.03968
# Poissons Ratio (z) = 0.24488 -0.03948
#
# Static dielectric constant tensor:
#      x y z
#    x 1.643800 0.000000 -0.011510 
#    y 0.000000 1.703480 0.000000 
#    z -0.011510 0.000000 1.682430 
# 
# From -- ./inp_files/42212.got.cif
#   From: 2010.05.17/outbox.cif.g08.bks.cpg/sg14_22_cif.got.tgz:42212.got - 2010.06.03 17:49:19.
