data_PCOD9242720
_publ_section_title
;
Structure prediction by ZEFSAII (Michael W. Deem and Ramdas Pophale) SiO2 
 PCOD9242720
Probable space group: P 21/C
;
_chemical_formula_sum "Si O2"
_cell_formula_units_Z 28
_cell_length_a 8.913906
_cell_length_b 8.106773
_cell_length_c 21.171755
_cell_angle_alpha 90.000000
_cell_angle_beta 59.857514
_cell_angle_gamma 90.000000
_cell_volume 1323.055945
_symmetry_space_group_name_H-M "P 21/C"
_symmetry_group_IT_number 14
_symmetry_cell_setting 'monoclinic'
loop_
_space_group_symop_operation_xyz
x,y,z
-x,1/2+y,1/2-z
-x,-y,-z
x,1/2-y,1/2+z
loop_
_atom_site_type_symbol
_atom_site_label
_atom_site_fract_x
_atom_site_fract_y
_atom_site_fract_z
Si Si1 0.975951 0.802251 0.050470
Si Si2 0.568869 0.792667 0.781281
Si Si3 0.915683 0.225415 0.753474
Si Si4 0.252257 0.063145 0.001676
Si Si5 0.246508 0.975541 0.804767
Si Si6 0.359975 0.001720 0.117625
Si Si7 0.914035 0.922028 0.671747
O O1 0.985691 0.636299 0.089255
O O2 0.868112 0.929690 0.118881
O O3 0.867198 0.802963 0.008648
O O4 0.160931 0.889256 0.002488
O O5 0.372115 0.837621 0.807586
O O6 0.624765 0.610656 0.751672
O O7 0.606974 0.842552 0.844840
O O8 0.705264 0.908477 0.713443
O O9 0.864390 0.388091 0.725745
O O10 0.034504 0.284510 0.786172
O O11 0.753952 0.132402 0.820923
O O12 0.977733 0.093092 0.688081
O O13 0.263245 0.058804 0.074876
O O14 0.450730 0.071972 0.937358
#
# Coordination Sequence:
#
# PCOD9242720 Si02
#       7
#     4   4   4   4   4   4   4
#     4  10  20  37  60  88 115 163 200 238 286 350
#     4  10  20  35  57  88 117 147 191 244 300 342
#     4  11  22  37  60  92 116 149 191 253 308 348
#     4  10  20  36  60  84 120 164 210 226 280 360
#     4  11  22  37  60  92 116 149 191 253 308 348
#     4  10  20  37  60  88 115 163 200 238 286 350
#     4  10  20  35  57  88 117 147 191 244 300 342
#
# _framework density 21.163125999999998
#
# number of rings (size 3 to 8) (size 9 to 14) (size 15 to 20)
#    0.000    1.714    2.857    3.429    4.000    0.000 
#    0.000    0.000    0.000   10.286    0.000    0.000 
#    0.000    0.000    0.000    0.000    0.000    0.000 
#
# Total GULP energy -156332.315044 kJ/mol
# GULP energy per Si atom -5583.296966 kJ/mol
# Density = 2.111496 g / cm^3
# Si number density = 21.163126 Si / 1000 Ang^3
#
#
#
# Elastic Constant Matrix: (Units=GPa)
#
#
# Indices 1 2 3 4 5 6 
#
# 1 85.9153 -2.9066 6.4629 0.0000 8.5530 0.0000
# 2 -2.9066 63.7389 3.3064 0.0000 0.7764 0.0000
# 3 6.4629 3.3064 40.9721 0.0000 6.8802 0.0000
# 4 0.0000 0.0000 0.0000 22.2764 0.0000 0.2371
# 5 8.5530 0.7764 6.8802 0.0000 35.0613 0.0000
# 6 0.0000 0.0000 0.0000 0.2371 0.0000 27.5134
#
#
#
# Elastic Compliance Matrix: (Units=1/GPa)
#
#
# Indices 1 2 3 4 5 6 
#
# 1 0.012039 0.000660 -0.001506 0.000000 -0.002656 0.000000
# 2 0.000660 0.015791 -0.001337 0.000000 -0.000248 0.000000
# 3 -0.001506 -0.001337 0.025527 0.000000 -0.004612 0.000000
# 4 0.000000 0.000000 0.000000 0.044895 0.000000 -0.000387
# 5 -0.002656 -0.000248 -0.004612 0.000000 0.030080 0.000000
# 6 0.000000 0.000000 0.000000 -0.000387 0.000000 0.036349
#
#
# Mechanical properties :
#
#
# Convention : Reuss Voigt Hill
#
# Bulk Modulus (GPa) = 20.41202 22.70573 21.55888
# Shear Modulus (GPa) = 26.97179 29.22112 28.09645
#
# Velocity S-wave (km/s) = 3.57385 3.71988 3.64760
# Velocity P-wave (km/s) = 5.16680 5.40391 5.28669
#
# Compressibility (1/GPa) = 0.04899074
#
# Stress axis : x y z
#
# Youngs Moduli (GPa) = 83.06062 63.32541 39.17445
#
# Poissons Ratio (x) = -0.04176 0.05901
# Poissons Ratio (y) = -0.05478 0.05236
# Poissons Ratio (z) = 0.12511 0.08465
#
# Static dielectric constant tensor:
#      x y z
#    x 1.794210 0.000000 0.008070 
#    y 0.000000 1.778320 0.000000 
#    z 0.008070 0.000000 1.792710 
# 
# From -- ./inp_files/18512.got.cif
#   From: 2010.05.17/outbox.cif.g08.bks.cpg/sg14_10_cif.got.tgz:18512.got - 2010.06.03 17:49:19.
