data_PCOD9242814
_publ_section_title
;
Structure prediction by ZEFSAII (Michael W. Deem and Ramdas Pophale) SiO2 
 PCOD9242814
Probable space group: P 21/C
;
_chemical_formula_sum "Si O2"
_cell_formula_units_Z 28
_cell_length_a 11.580256
_cell_length_b 15.925777
_cell_length_c 8.700504
_cell_angle_alpha 90.000000
_cell_angle_beta 58.198274
_cell_angle_gamma 90.000000
_cell_volume 1363.701082
_symmetry_space_group_name_H-M "P 21/C"
_symmetry_group_IT_number 14
_symmetry_cell_setting 'monoclinic'
loop_
_space_group_symop_operation_xyz
x,y,z
-x,1/2+y,1/2-z
-x,-y,-z
x,1/2-y,1/2+z
loop_
_atom_site_type_symbol
_atom_site_label
_atom_site_fract_x
_atom_site_fract_y
_atom_site_fract_z
Si Si1 0.211790 0.219247 0.052657
Si Si2 0.349669 0.356142 0.169930
Si Si3 0.912141 0.090481 0.912215
Si Si4 0.347462 0.846654 0.450045
Si Si5 0.742383 0.318731 0.302681
Si Si6 0.167627 0.989224 0.705952
Si Si7 0.017806 0.275026 0.935373
O O1 0.306010 0.275344 0.097489
O O2 0.090407 0.179946 0.241059
O O3 0.292971 0.158471 0.882748
O O4 0.128737 0.276888 0.991717
O O5 0.510322 0.367176 0.068813
O O6 0.274045 0.435563 0.152583
O O7 0.785403 0.109355 0.891043
O O8 0.987049 0.179051 0.901558
O O9 0.861654 0.051804 0.107139
O O10 0.024691 0.030308 0.757896
O O11 0.366999 0.834405 0.253471
O O12 0.293288 0.762158 0.570153
O O13 0.236919 0.919047 0.553753
O O14 0.878265 0.304077 0.106635
#
# Coordination Sequence:
#
# PCOD9242814 Si02
#       7
#     4   4   4   4   4   4   4
#     4  10  20  35  62  89 114 154 203 258 298 353
#     4  11  23  42  59  90 124 167 212 243 303 369
#     4  11  22  38  65  92 125 151 204 263 315 365
#     4  12  24  39  64  86 128 169 206 248 295 382
#     4  12  22  40  63  97 118 160 212 256 307 355
#     4  11  23  41  61  91 126 165 197 253 326 356
#     4  11  17  35  62  91 116 143 195 265 304 346
#
# _framework density 20.532359
#
# number of rings (size 3 to 8) (size 9 to 14) (size 15 to 20)
#    0.000    0.857    7.143    1.286    0.000    0.571 
#    0.000    3.571    0.000    0.000    0.000    0.000 
#    0.000    0.000    0.000    0.000    0.000    0.000 
#
# Total GULP energy -156340.846279 kJ/mol
# GULP energy per Si atom -5583.601653 kJ/mol
# Density = 2.048563 g / cm^3
# Si number density = 20.532359 Si / 1000 Ang^3
#
#
#
# Elastic Constant Matrix: (Units=GPa)
#
#
# Indices 1 2 3 4 5 6 
#
# 1 54.6551 15.4524 1.7246 0.0000 0.0701 0.0000
# 2 15.4524 49.8667 -1.0162 0.0000 4.0259 0.0000
# 3 1.7246 -1.0162 50.6975 0.0000 9.2825 0.0000
# 4 0.0000 0.0000 0.0000 25.3911 0.0000 1.6190
# 5 0.0701 4.0259 9.2825 0.0000 29.4979 0.0000
# 6 0.0000 0.0000 0.0000 1.6190 0.0000 23.4081
#
#
#
# Elastic Compliance Matrix: (Units=1/GPa)
#
#
# Indices 1 2 3 4 5 6 
#
# 1 0.020122 -0.006348 -0.001020 0.000000 0.001140 0.000000
# 2 -0.006348 0.022325 0.001293 0.000000 -0.003439 0.000000
# 3 -0.001020 0.001293 0.021029 0.000000 -0.006792 0.000000
# 4 0.000000 0.000000 0.000000 0.039558 0.000000 -0.002736
# 5 0.001140 -0.003439 -0.006792 0.000000 0.036505 0.000000
# 6 0.000000 0.000000 0.000000 -0.002736 0.000000 0.042909
#
#
# Mechanical properties :
#
#
# Convention : Reuss Voigt Hill
#
# Bulk Modulus (GPa) = 19.48383 20.83788 20.16086
# Shear Modulus (GPa) = 23.61753 24.92998 24.27375
#
# Velocity S-wave (km/s) = 3.39523 3.48829 3.44207
# Velocity P-wave (km/s) = 4.98799 5.13761 5.06335
#
# Compressibility (1/GPa) = 0.05132460
#
# Stress axis : x y z
#
# Youngs Moduli (GPa) = 49.69665 44.79371 47.55348
#
# Poissons Ratio (x) = 0.28436 0.04853
# Poissons Ratio (y) = 0.31548 -0.06149
# Poissons Ratio (z) = 0.05071 -0.05792
#
# Static dielectric constant tensor:
#      x y z
#    x 1.771790 0.000000 0.010560 
#    y 0.000000 1.732570 0.000000 
#    z 0.010560 0.000000 1.746240 
# 
# From -- ./inp_files/12977.got.cif
#   From: 2010.05.17/outbox.cif.g08.bks.cpg/sg14_7_cif.got.tgz:12977.got - 2010.06.03 17:49:19.
