data_PCOD9242675
_publ_section_title
;
Structure prediction by ZEFSAII (Michael W. Deem and Ramdas Pophale) SiO2 
 PCOD9242675
Probable space group: P 21/C
;
_chemical_formula_sum "Si O2"
_cell_formula_units_Z 32
_cell_length_a 6.549629
_cell_length_b 8.320232
_cell_length_c 27.285845
_cell_angle_alpha 90.000000
_cell_angle_beta 84.361146
_cell_angle_gamma 90.000000
_cell_volume 1479.731404
_symmetry_space_group_name_H-M "P 21/C"
_symmetry_group_IT_number 14
_symmetry_cell_setting 'monoclinic'
loop_
_space_group_symop_operation_xyz
x,y,z
-x,1/2+y,1/2-z
-x,-y,-z
x,1/2-y,1/2+z
loop_
_atom_site_type_symbol
_atom_site_label
_atom_site_fract_x
_atom_site_fract_y
_atom_site_fract_z
Si Si1 0.993183 0.599049 0.401620
Si Si2 0.252600 0.195480 0.923634
Si Si3 0.358413 0.888794 0.037749
Si Si4 0.879979 0.026271 0.807632
Si Si5 0.398537 0.349634 0.750283
Si Si6 0.767603 0.524502 0.782653
Si Si7 0.965607 0.313906 0.011777
Si Si8 0.956793 0.646116 0.158730
O O1 0.806783 0.500320 0.431153
O O2 0.941130 0.609482 0.345754
O O3 0.186668 0.478659 0.404176
O O4 0.027956 0.759228 0.431964
O O5 0.493760 0.197194 0.926508
O O6 0.151458 0.328864 0.890759
O O7 0.145007 0.219836 0.978535
O O8 0.239590 0.757799 0.007976
O O9 0.500000 0.000000 0.000000
O O10 0.664845 0.987128 0.787386
O O11 0.049299 0.029272 0.761074
O O12 0.909729 0.193133 0.834780
O O13 0.617216 0.381737 0.769007
O O14 0.229095 0.354464 0.797577
O O15 0.365269 0.184658 0.721532
O O16 0.882569 0.492967 0.831196
O O17 0.000000 0.500000 0.000000
#
# Coordination Sequence:
#
# PCOD9242675 Si02
#       8
#     4   4   4   4   4   4   4   4
#     4  10  20  37  60  83 113 152 197 237 283 351
#     4  10  20  38  60  83 109 155 199 237 285 353
#     4  11  19  38  65  84 112 153 204 241 287 349
#     4   9  20  36  56  82 111 150 191 234 283 341
#     4  10  20  35  56  82 113 148 190 232 288 339
#     4  10  20  36  57  82 116 150 187 239 285 342
#     4  11  23  37  56  87 123 152 184 243 300 345
#     4   9  20  36  58  81 110 145 194 237 281 334
#
# _framework density 21.625546
#
# number of rings (size 3 to 8) (size 9 to 14) (size 15 to 20)
#    0.000    2.000    2.500    1.500    0.000    8.500 
#    0.000    0.000    0.000    0.000    0.000    0.000 
#    0.000    0.000    0.000    0.000    0.000    0.000 
#
# Total GULP energy -178629.854989 kJ/mol
# GULP energy per Si atom -5582.182968 kJ/mol
# Density = 2.157633 g / cm^3
# Si number density = 21.625546 Si / 1000 Ang^3
#
#
#
# Elastic Constant Matrix: (Units=GPa)
#
#
# Indices 1 2 3 4 5 6 
#
# 1 85.2667 18.9554 -0.4321 0.0000 31.5843 0.0000
# 2 18.9554 63.6752 -9.8706 0.0000 8.9537 0.0000
# 3 -0.4321 -9.8706 31.9631 0.0000 17.4198 0.0000
# 4 0.0000 0.0000 0.0000 23.2319 0.0000 9.0631
# 5 31.5843 8.9537 17.4198 0.0000 29.2019 0.0000
# 6 0.0000 0.0000 0.0000 9.0631 0.0000 22.9538
#
#
#
# Elastic Compliance Matrix: (Units=1/GPa)
#
#
# Indices 1 2 3 4 5 6 
#
# 1 0.029838 0.002568 0.028469 0.000000 -0.050043 0.000000
# 2 0.002568 0.020140 0.016496 0.000000 -0.018793 0.000000
# 3 0.028469 0.016496 0.083426 0.000000 -0.085616 0.000000
# 4 0.000000 0.000000 0.000000 0.050882 0.000000 -0.020090
# 5 -0.050043 -0.018793 -0.085616 0.000000 0.145205 0.000000
# 6 0.000000 0.000000 0.000000 -0.020090 0.000000 0.051498
#
#
# Mechanical properties :
#
#
# Convention : Reuss Voigt Hill
#
# Bulk Modulus (GPa) = 4.37693 22.02336 13.20014
# Shear Modulus (GPa) = 13.80912 26.56100 20.18506
#
# Velocity S-wave (km/s) = 2.52971 3.50840 3.05846
# Velocity P-wave (km/s) = 3.24976 5.15926 4.31155
#
# Compressibility (1/GPa) = 0.22847066
#
# Stress axis : x y z
#
# Youngs Moduli (GPa) = 33.51413 49.65220 11.98667
#
# Poissons Ratio (x) = -0.12748 -0.34125
# Poissons Ratio (y) = -0.08605 -0.19773
# Poissons Ratio (z) = -0.95413 -0.81907
#
# Static dielectric constant tensor:
#      x y z
#    x 1.762910 0.000000 0.030610 
#    y 0.000000 1.869750 0.000000 
#    z 0.030610 0.000000 1.812670 
# 
# From -- ./inp_files/78811.got.cif
#   From: 2010.05.17/outbox.cif.g08.bks.cpg/sg14_40_cif.got.tgz:78811.got - 2010.06.03 17:49:19.
