data_PCOD9242616
_publ_section_title
;
Structure prediction by ZEFSAII (Michael W. Deem and Ramdas Pophale) SiO2 
 PCOD9242616
Probable space group: P 21/C
;
_chemical_formula_sum "Si O2"
_cell_formula_units_Z 30
_cell_length_a 12.259143
_cell_length_b 9.515242
_cell_length_c 9.693129
_cell_angle_alpha 90.000000
_cell_angle_beta 60.006521
_cell_angle_gamma 90.000000
_cell_volume 979.271481
_symmetry_space_group_name_H-M "P 21/C"
_symmetry_group_IT_number 14
_symmetry_cell_setting 'monoclinic'
loop_
_space_group_symop_operation_xyz
x,y,z
-x,1/2+y,1/2-z
-x,-y,-z
x,1/2-y,1/2+z
loop_
_atom_site_type_symbol
_atom_site_label
_atom_site_fract_x
_atom_site_fract_y
_atom_site_fract_z
Si Si1 0.995229 0.947014 0.338662
Si Si2 0.500000 0.000000 0.500000
Si Si3 0.461686 0.329474 0.492584
Si Si4 0.732413 0.395832 0.389960
Si Si5 0.229977 0.881285 0.817365
Si Si6 0.969681 0.800163 0.063830
Si Si7 0.274830 0.993024 0.529796
Si Si8 0.697298 0.772269 0.146354
O O1 0.987280 0.857400 0.486938
O O2 0.871688 0.049330 0.394180
O O3 0.979727 0.833656 0.220454
O O4 0.143415 0.991284 0.221048
O O5 0.505051 0.836454 0.559935
O O6 0.587000 0.063042 0.588424
O O7 0.590398 0.417407 0.428301
O O8 0.375069 0.369655 0.416444
O O9 0.378067 0.299954 0.681996
O O10 0.728613 0.358109 0.553475
O O11 0.759626 0.255921 0.284068
O O12 0.079638 0.890445 0.925096
O O13 0.310502 0.994323 0.674038
O O14 0.829941 0.837749 0.106230
O O15 0.261064 0.142774 0.474015
#
# Coordination Sequence:
#
# PCOD9242616 Si02
#       8
#     4   2   4   4   4   4   4   4
#     4   9  19  34  58  83 119 157 205 255 304 371
#     4  10  20  34  60  90 122 152 214 260 298 372
#     4  11  21  37  62  94 120 171 207 258 316 380
#     4  10  20  35  57  90 119 163 210 248 314 381
#     4  10  20  36  62  84 121 158 210 258 311 377
#     4   9  17  33  54  84 112 157 204 244 302 375
#     4  10  20  36  58  93 117 157 206 265 308 374
#     4  10  21  36  63  91 124 161 215 253 321 379
#
# _framework density 30.635020000000001
#
# number of rings (size 3 to 8) (size 9 to 14) (size 15 to 20)
#    0.000    2.133    1.333    3.200    1.867    2.133 
#    0.000    0.000    0.000   62.400    0.000    0.000 
#    0.000    0.000    0.000    0.000    0.000    0.000 
#
# Total GULP energy -167286.752732 kJ/mol
# GULP energy per Si atom -5576.225091 kJ/mol
# Density = 3.056529 g / cm^3
# Si number density = 30.635020 Si / 1000 Ang^3
#
#
#
# Elastic Constant Matrix: (Units=GPa)
#
#
# Indices 1 2 3 4 5 6 
#
# 1 304.4375 39.5683 71.9008 0.0000 2.9979 0.0000
# 2 39.5683 48.8311 12.8310 0.0000 -11.0757 0.0000
# 3 71.9008 12.8310 188.4214 0.0000 9.5088 0.0000
# 4 0.0000 0.0000 0.0000 56.5382 0.0000 -11.6301
# 5 2.9979 -11.0757 9.5088 0.0000 43.3936 0.0000
# 6 0.0000 0.0000 0.0000 -11.6301 0.0000 68.3073
#
#
#
# Elastic Compliance Matrix: (Units=1/GPa)
#
#
# Indices 1 2 3 4 5 6 
#
# 1 0.003994 -0.003079 -0.001275 0.000000 -0.000782 0.000000
# 2 -0.003079 0.024717 -0.000847 0.000000 0.006707 0.000000
# 3 -0.001275 -0.000847 0.005923 0.000000 -0.001426 0.000000
# 4 0.000000 0.000000 0.000000 0.018329 0.000000 0.003121
# 5 -0.000782 0.006707 -0.001426 0.000000 0.025123 0.000000
# 6 0.000000 0.000000 0.000000 0.003121 0.000000 0.015171
#
#
# Mechanical properties :
#
#
# Convention : Reuss Voigt Hill
#
# Bulk Modulus (GPa) = 41.26500 87.81001 64.53750
# Shear Modulus (GPa) = 44.74830 61.47382 53.11106
#
# Velocity S-wave (km/s) = 3.82605 4.48443 4.16826
# Velocity P-wave (km/s) = 5.74607 7.45245 6.65418
#
# Compressibility (1/GPa) = 0.02423361
#
# Stress axis : x y z
#
# Youngs Moduli (GPa) = 250.39660 40.45773 168.82296
#
# Poissons Ratio (x) = 0.12455 0.21522
# Poissons Ratio (y) = 0.77086 0.14297
# Poissons Ratio (z) = 0.31922 0.03426
#
# Static dielectric constant tensor:
#      x y z
#    x 1.628370 0.000000 1.064000 
#    y 0.000000 2.622620 0.000000 
#    z 1.064000 0.000000 1.195650 
# 
# From -- ./inp_files/13298.got.cif
#   From: 2010.05.17/outbox.cif.g08.bks.cpg/sg14_7_cif.got.tgz:13298.got - 2010.06.03 17:49:19.
