data_PCOD9242797
_publ_section_title
;
Structure prediction by ZEFSAII (Michael W. Deem and Ramdas Pophale) SiO2 
 PCOD9242797
Probable space group: P 21/C
;
_chemical_formula_sum "Si O2"
_cell_formula_units_Z 32
_cell_length_a 29.837354
_cell_length_b 5.999670
_cell_length_c 17.821800
_cell_angle_alpha 90.000000
_cell_angle_beta 149.688120
_cell_angle_gamma 90.000000
_cell_volume 1610.194167
_symmetry_space_group_name_H-M "P 21/C"
_symmetry_group_IT_number 14
_symmetry_cell_setting 'monoclinic'
loop_
_space_group_symop_operation_xyz
x,y,z
-x,1/2+y,1/2-z
-x,-y,-z
x,1/2-y,1/2+z
loop_
_atom_site_type_symbol
_atom_site_label
_atom_site_fract_x
_atom_site_fract_y
_atom_site_fract_z
Si Si1 0.703762 0.509187 0.913217
Si Si2 0.788390 0.663507 0.423283
Si Si3 0.578099 0.269149 0.400092
Si Si4 0.510096 0.374559 0.646615
Si Si5 0.016162 0.281622 0.813417
Si Si6 0.155389 0.865295 0.853255
Si Si7 0.660117 0.883002 0.613095
Si Si8 0.722436 0.876317 0.067626
O O1 0.736070 0.631481 0.885097
O O2 0.610930 0.381803 0.765418
O O3 0.782129 0.350165 0.054969
O O4 0.693123 0.694312 0.963268
O O5 0.880099 0.748466 0.519912
O O6 0.815923 0.503422 0.531236
O O7 0.721687 0.545102 0.270031
O O8 0.525719 0.376659 0.393793
O O9 0.513890 0.202634 0.239557
O O10 0.648587 0.432368 0.463599
O O11 0.632296 0.071337 0.514966
O O12 0.432657 0.233169 0.496122
O O13 0.008889 0.533110 0.761644
O O14 0.946912 0.305028 0.781670
O O15 0.185164 0.017845 0.826659
O O16 0.718304 0.716647 0.645711
#
# Coordination Sequence:
#
# PCOD9242797 Si02
#       8
#     4   4   4   4   4   4   4   4
#     4  11  20  38  61  86 119 152 210 254 294 367
#     4  10  24  39  58  92 124 158 196 258 322 362
#     4  11  19  35  57  83 111 160 208 244 294 361
#     4  11  20  32  58  82 113 164 208 242 291 363
#     4  10  20  41  68  95 122 167 213 258 315 392
#     4  10  20  37  66  90 115 156 208 252 305 375
#     4  11  23  37  56  87 129 158 203 254 305 361
#     4  10  20  35  61  89 114 158 206 248 304 360
#
# _framework density 19.873379
#
# number of rings (size 3 to 8) (size 9 to 14) (size 15 to 20)
#    0.000    1.500    5.000    0.750    0.000    2.500 
#    0.000    1.875    0.000    3.000    0.000    0.000 
#    0.000    0.000    0.000    0.000    0.000    0.000 
#
# Total GULP energy -178226.396727 kJ/mol
# GULP energy per Si atom -5569.574898 kJ/mol
# Density = 1.982815 g / cm^3
# Si number density = 19.873379 Si / 1000 Ang^3
#
#
#
# Elastic Constant Matrix: (Units=GPa)
#
#
# Indices 1 2 3 4 5 6 
#
# 1 51.6734 9.8682 18.9340 0.0000 36.2140 0.0000
# 2 9.8682 59.3303 3.9485 0.0000 12.2175 0.0000
# 3 18.9340 3.9485 61.6199 0.0000 19.7194 0.0000
# 4 0.0000 0.0000 0.0000 8.1738 0.0000 10.6792
# 5 36.2140 12.2175 19.7194 0.0000 28.7103 0.0000
# 6 0.0000 0.0000 0.0000 10.6792 0.0000 14.1419
#
#
#
# Elastic Compliance Matrix: (Units=1/GPa)
#
#
# Indices 1 2 3 4 5 6 
#
# 1 0.218807 0.024810 0.029324 0.000000 -0.306693 0.000000
# 2 0.024810 0.021428 0.005045 0.000000 -0.043878 0.000000
# 3 0.029324 0.005045 0.024890 0.000000 -0.056231 0.000000
# 4 0.000000 0.000000 0.000000 9.128481 0.000000 -6.893295
# 5 -0.306693 -0.043878 -0.056231 0.000000 0.478975 0.000000
# 6 0.000000 0.000000 0.000000 -6.893295 0.000000 5.276125
#
#
# Mechanical properties :
#
#
# Convention : Reuss Voigt Hill
#
# Bulk Modulus (GPa) = 2.60767 26.45833 14.53300
# Shear Modulus (GPa) = 0.32986 19.53008 9.92997
#
# Velocity S-wave (km/s) = 0.40785 3.13825 2.23774
# Velocity P-wave (km/s) = 1.23967 5.14527 3.74236
#
# Compressibility (1/GPa) = 0.38348464
#
# Stress axis : x y z
#
# Youngs Moduli (GPa) = 4.57023 46.66795 40.17754
#
# Poissons Ratio (x) = -1.15784 -1.17818
# Poissons Ratio (y) = -0.11339 -0.20271
# Poissons Ratio (z) = -0.13402 -0.23546
#
# Static dielectric constant tensor:
#      x y z
#    x 1.735430 0.000000 0.016880 
#    y 0.000000 1.797490 0.000000 
#    z 0.016880 0.000000 1.679820 
# 
# From -- ./inp_files/62497.got.cif
#   From: 2010.05.17/outbox.cif.g08.bks.cpg/sg14_32_cif.got.tgz:62497.got - 2010.06.03 17:49:19.
