data_PCOD9242631
_publ_section_title
;
Structure prediction by ZEFSAII (Michael W. Deem and Ramdas Pophale) SiO2 
 PCOD9242631
Probable space group: P 21/C
;
_chemical_formula_sum "Si O2"
_cell_formula_units_Z 32
_cell_length_a 26.235242
_cell_length_b 9.262526
_cell_length_c 18.725785
_cell_angle_alpha 90.000000
_cell_angle_beta 159.453499
_cell_angle_gamma 90.000000
_cell_volume 1597.060638
_symmetry_space_group_name_H-M "P 21/C"
_symmetry_group_IT_number 14
_symmetry_cell_setting 'monoclinic'
loop_
_space_group_symop_operation_xyz
x,y,z
-x,1/2+y,1/2-z
-x,-y,-z
x,1/2-y,1/2+z
loop_
_atom_site_type_symbol
_atom_site_label
_atom_site_fract_x
_atom_site_fract_y
_atom_site_fract_z
Si Si1 0.890888 0.234708 0.354983
Si Si2 0.332686 0.440663 0.558156
Si Si3 0.870219 0.027355 0.948135
Si Si4 0.286698 0.844248 0.126234
Si Si5 0.821056 0.389014 0.124738
Si Si6 0.594871 0.627351 0.861979
Si Si7 0.814831 0.575925 0.779428
Si Si8 0.379918 0.183636 0.435577
O O1 0.910398 0.367516 0.434717
O O2 0.798180 0.294784 0.166966
O O3 0.039842 0.169257 0.517759
O O4 0.826553 0.093733 0.309702
O O5 0.286689 0.525219 0.568278
O O6 0.447808 0.536738 0.664967
O O7 0.405367 0.286892 0.670842
O O8 0.207423 0.413122 0.335948
O O9 0.733754 0.925475 0.749115
O O10 0.817919 0.121548 0.946024
O O11 0.011015 0.934635 0.153682
O O12 0.453889 0.826845 0.370901
O O13 0.232141 0.705947 0.010927
O O14 0.725059 0.532418 0.002896
O O15 0.616842 0.646389 0.975807
O O16 0.686566 0.655920 0.652683
#
# Coordination Sequence:
#
# PCOD9242631 Si02
#       8
#     4   4   4   4   4   4   4   4
#     4  11  22  38  63  95 121 160 219 265 313 377
#     4  10  20  37  59  92 125 160 208 263 323 370
#     4  12  24  41  65  89 129 173 209 259 325 382
#     4  11  26  42  60  92 135 167 211 262 323 389
#     4  12  22  42  62  91 126 165 216 270 313 380
#     4  10  20  34  65  92 121 160 212 268 312 369
#     4  10  20  36  65  91 121 158 212 272 313 368
#     4  10  20  41  64  93 123 164 210 256 322 383
#
# _framework density 20.036811
#
# number of rings (size 3 to 8) (size 9 to 14) (size 15 to 20)
#    0.000    1.250    3.750    4.500    0.000    2.000 
#    0.000    1.875    0.000    0.000    0.000    0.000 
#    0.000    0.000    0.000    0.000    0.000    0.000 
#
# Total GULP energy -178731.067379 kJ/mol
# GULP energy per Si atom -5585.345856 kJ/mol
# Density = 1.999121 g / cm^3
# Si number density = 20.036811 Si / 1000 Ang^3
#
#
#
# Elastic Constant Matrix: (Units=GPa)
#
#
# Indices 1 2 3 4 5 6 
#
# 1 24.6743 7.7759 7.0726 0.0000 12.7216 0.0000
# 2 7.7759 111.9446 37.2200 0.0000 11.2522 0.0000
# 3 7.0726 37.2200 65.5315 0.0000 6.5204 0.0000
# 4 0.0000 0.0000 0.0000 34.1462 0.0000 0.2635
# 5 12.7216 11.2522 6.5204 0.0000 13.3362 0.0000
# 6 0.0000 0.0000 0.0000 0.2635 0.0000 16.8720
#
#
#
# Elastic Compliance Matrix: (Units=1/GPa)
#
#
# Indices 1 2 3 4 5 6 
#
# 1 0.080684 0.003170 -0.002717 0.000000 -0.078312 0.000000
# 2 0.003170 0.011710 -0.006001 0.000000 -0.009970 0.000000
# 3 -0.002717 -0.006001 0.019131 0.000000 -0.001699 0.000000
# 4 0.000000 0.000000 0.000000 0.029289 0.000000 -0.000457
# 5 -0.078312 -0.009970 -0.001699 0.000000 0.158930 0.000000
# 6 0.000000 0.000000 0.000000 -0.000457 0.000000 0.059277
#
#
# Mechanical properties :
#
#
# Convention : Reuss Voigt Hill
#
# Bulk Modulus (GPa) = 9.95719 34.03193 21.99456
# Shear Modulus (GPa) = 12.38874 22.87634 17.63254
#
# Velocity S-wave (km/s) = 2.48926 3.38259 2.96971
# Velocity P-wave (km/s) = 3.63897 5.68133 4.77072
#
# Compressibility (1/GPa) = 0.10042995
#
# Stress axis : x y z
#
# Youngs Moduli (GPa) = 12.39406 85.39510 52.27246
#
# Poissons Ratio (x) = -0.27074 0.14200
# Poissons Ratio (y) = -0.03929 0.31370
# Poissons Ratio (z) = 0.03367 0.51247
#
# Static dielectric constant tensor:
#      x y z
#    x 1.649990 0.000000 -0.018080 
#    y 0.000000 1.745390 0.000000 
#    z -0.018080 0.000000 1.777170 
# 
# From -- ./inp_files/70528.got.cif
#   From: 2010.05.17/outbox.cif.g08.bks.cpg/sg14_36_cif.got.tgz:70528.got - 2010.06.03 17:49:19.
