data_PCOD9242405
_publ_section_title
;
Structure prediction by ZEFSAII (Michael W. Deem and Ramdas Pophale) SiO2 
 PCOD9242405
Probable space group: P 21/C
;
_chemical_formula_sum "Si O2"
_cell_formula_units_Z 28
_cell_length_a 10.034590
_cell_length_b 12.034910
_cell_length_c 17.569716
_cell_angle_alpha 90.000000
_cell_angle_beta 40.557003
_cell_angle_gamma 90.000000
_cell_volume 1379.612189
_symmetry_space_group_name_H-M "P 21/C"
_symmetry_group_IT_number 14
_symmetry_cell_setting 'monoclinic'
loop_
_space_group_symop_operation_xyz
x,y,z
-x,1/2+y,1/2-z
-x,-y,-z
x,1/2-y,1/2+z
loop_
_atom_site_type_symbol
_atom_site_label
_atom_site_fract_x
_atom_site_fract_y
_atom_site_fract_z
Si Si1 0.725362 0.140162 0.395736
Si Si2 0.022857 0.135392 0.623093
Si Si3 0.305960 0.471233 0.703818
Si Si4 0.606876 0.939017 0.341353
Si Si5 0.647176 0.601130 0.145730
Si Si6 0.827633 0.762045 0.798412
Si Si7 0.412317 0.704382 0.677147
O O1 0.589077 0.108006 0.527079
O O2 0.613732 0.231057 0.390835
O O3 0.946114 0.191366 0.317932
O O4 0.719540 0.030437 0.345265
O O5 0.159530 0.093863 0.494846
O O6 0.152294 0.205959 0.627272
O O7 0.818600 0.202057 0.686709
O O8 0.910358 0.034461 0.715271
O O9 0.298603 0.419830 0.791190
O O10 0.322158 0.368209 0.640586
O O11 0.461732 0.575219 0.639476
O O12 0.753805 0.832895 0.272102
O O13 0.517398 0.007710 0.309466
O O14 0.555712 0.723056 0.168411
#
# Coordination Sequence:
#
# PCOD9242405 Si02
#       7
#     4   4   4   4   4   4   4
#     4   9  18  36  55  84 110 141 193 237 271 329
#     4   9  20  37  58  86 110 145 197 233 272 333
#     4  10  22  35  57  87 115 149 188 232 289 336
#     4  10  20  32  59  83 106 148 194 227 279 335
#     4  11  20  38  61  80 117 149 191 236 277 341
#     4  11  19  33  59  85 116 142 186 241 284 326
#     4   8  20  35  55  85 113 146 186 231 285 330
#
# _framework density 20.295556999999999
#
# number of rings (size 3 to 8) (size 9 to 14) (size 15 to 20)
#    0.857    1.429    0.000    4.714    2.000    0.000 
#    0.000    2.857    0.000    0.857    0.000    0.000 
#    0.000    0.000    0.000    0.000    0.000    0.000 
#
# Total GULP energy -156008.987430 kJ/mol
# GULP energy per Si atom -5571.749551 kJ/mol
# Density = 2.024936 g / cm^3
# Si number density = 20.295557 Si / 1000 Ang^3
#
#
#
# Elastic Constant Matrix: (Units=GPa)
#
#
# Indices 1 2 3 4 5 6 
#
# 1 34.2598 29.4004 9.2764 0.0000 -2.6356 0.0000
# 2 29.4004 131.7384 15.6411 0.0000 2.0307 0.0000
# 3 9.2764 15.6411 30.1814 0.0000 -9.7070 0.0000
# 4 0.0000 0.0000 0.0000 30.1449 0.0000 -11.4714
# 5 -2.6356 2.0307 -9.7070 0.0000 24.0705 0.0000
# 6 0.0000 0.0000 0.0000 -11.4714 0.0000 24.9999
#
#
#
# Elastic Compliance Matrix: (Units=1/GPa)
#
#
# Indices 1 2 3 4 5 6 
#
# 1 0.037790 -0.007628 -0.007036 0.000000 0.001944 0.000000
# 2 -0.007628 0.009787 -0.003748 0.000000 -0.003172 0.000000
# 3 -0.007036 -0.003748 0.042620 0.000000 0.016733 0.000000
# 4 0.000000 0.000000 0.000000 0.040191 0.000000 0.018442
# 5 0.001944 -0.003172 0.016733 0.000000 0.048773 0.000000
# 6 0.000000 0.000000 0.000000 0.018442 0.000000 0.048462
#
#
# Mechanical properties :
#
#
# Convention : Reuss Voigt Hill
#
# Bulk Modulus (GPa) = 18.73653 33.86836 26.30245
# Shear Modulus (GPa) = 17.71553 25.30050 21.50802
#
# Velocity S-wave (km/s) = 2.95765 3.53456 3.25890
# Velocity P-wave (km/s) = 4.57335 5.77765 5.21041
#
# Compressibility (1/GPa) = 0.05337166
#
# Stress axis : x y z
#
# Youngs Moduli (GPa) = 26.46226 102.17578 23.46338
#
# Poissons Ratio (x) = 0.77941 0.16510
# Poissons Ratio (y) = 0.20186 0.08794
# Poissons Ratio (z) = 0.18620 0.38293
#
# Static dielectric constant tensor:
#      x y z
#    x 1.729970 0.000000 -0.027480 
#    y 0.000000 1.781160 0.000000 
#    z -0.027480 0.000000 1.711520 
# 
# From -- ./inp_files/67160.got.cif
#   From: 2010.05.17/outbox.cif.g08.bks.cpg/sg14_34_cif.got.tgz:67160.got - 2010.06.03 17:49:19.
