data_PCOD9242107
_publ_section_title
;
Structure prediction by ZEFSAII (Michael W. Deem and Ramdas Pophale) SiO2 
 PCOD9242107
Probable space group: P 21/C
;
_chemical_formula_sum "Si O2"
_cell_formula_units_Z 24
_cell_length_a 9.851858
_cell_length_b 12.393734
_cell_length_c 18.912911
_cell_angle_alpha 90.000000
_cell_angle_beta 150.388304
_cell_angle_gamma 90.000000
_cell_volume 1141.065446
_symmetry_space_group_name_H-M "P 21/C"
_symmetry_group_IT_number 14
_symmetry_cell_setting 'monoclinic'
loop_
_space_group_symop_operation_xyz
x,y,z
-x,1/2+y,1/2-z
-x,-y,-z
x,1/2-y,1/2+z
loop_
_atom_site_type_symbol
_atom_site_label
_atom_site_fract_x
_atom_site_fract_y
_atom_site_fract_z
Si Si1 0.074254 0.987002 0.754288
Si Si2 0.907230 0.240994 0.086177
Si Si3 0.385457 0.360241 0.504533
Si Si4 0.355982 0.331263 0.901946
Si Si5 0.145598 0.067134 0.626414
Si Si6 0.745169 0.023414 0.934308
O O1 0.777845 0.947731 0.645824
O O2 0.206885 0.077681 0.864156
O O3 0.081151 0.021492 0.675954
O O4 0.293586 0.888902 0.861317
O O5 0.153683 0.221521 0.252265
O O6 0.032623 0.311182 0.078900
O O7 0.658665 0.309057 0.008610
O O8 0.801842 0.125018 0.011584
O O9 0.339273 0.235223 0.467910
O O10 0.308578 0.416894 0.542907
O O11 0.472504 0.055143 0.767956
O O12 0.000000 0.000000 0.500000
O O13 0.000000 0.000000 0.000000
#
# Coordination Sequence:
#
# PCOD9242107 Si02
#       6
#     4   4   4   4   4   4
#     4  10  20  39  64  92 125 165 209 263 317 371
#     4  12  23  42  67  96 129 169 212 269 329 387
#     4  10  19  39  64  92 124 163 213 260 314 379
#     4  12  21  39  69  99 126 167 216 268 325 377
#     4  11  26  44  64  96 134 170 219 267 314 392
#     4  11  25  44  67  92 131 179 212 261 331 387
#
# _framework density 21.032973999999999
#
# number of rings (size 3 to 8) (size 9 to 14) (size 15 to 20)
#    0.000    1.000    6.667    1.000    2.333    2.000 
#    3.000    3.333    0.000    0.000    0.000    0.000 
#    0.000    0.000    0.000    0.000    0.000    0.000 
#
# Total GULP energy -134092.811932 kJ/mol
# GULP energy per Si atom -5587.200497 kJ/mol
# Density = 2.098510 g / cm^3
# Si number density = 21.032974 Si / 1000 Ang^3
#
#
#
# Elastic Constant Matrix: (Units=GPa)
#
#
# Indices 1 2 3 4 5 6 
#
# 1 80.1472 1.0893 27.6324 0.0000 29.4198 0.0000
# 2 1.0893 32.6604 14.1658 0.0000 10.4738 0.0000
# 3 27.6324 14.1658 113.0891 0.0000 20.7609 0.0000
# 4 0.0000 0.0000 0.0000 25.2036 0.0000 0.7759
# 5 29.4198 10.4738 20.7609 0.0000 34.1974 0.0000
# 6 0.0000 0.0000 0.0000 0.7759 0.0000 37.5679
#
#
#
# Elastic Compliance Matrix: (Units=1/GPa)
#
#
# Indices 1 2 3 4 5 6 
#
# 1 0.019503 0.005869 -0.002353 0.000000 -0.017147 0.000000
# 2 0.005869 0.036433 -0.003401 0.000000 -0.014142 0.000000
# 3 -0.002353 -0.003401 0.010445 0.000000 -0.003275 0.000000
# 4 0.000000 0.000000 0.000000 0.039702 0.000000 -0.000820
# 5 -0.017147 -0.014142 -0.003275 0.000000 0.050313 0.000000
# 6 0.000000 0.000000 0.000000 -0.000820 0.000000 0.026635
#
#
# Mechanical properties :
#
#
# Convention : Reuss Voigt Hill
#
# Bulk Modulus (GPa) = 15.01275 34.63019 24.82147
# Shear Modulus (GPa) = 24.38964 31.59439 27.99202
#
# Velocity S-wave (km/s) = 3.40897 3.87994 3.65206
# Velocity P-wave (km/s) = 4.75899 6.04751 5.44153
#
# Compressibility (1/GPa) = 0.06661004
#
# Stress axis : x y z
#
# Youngs Moduli (GPa) = 51.27518 27.44764 95.74183
#
# Poissons Ratio (x) = -0.16108 0.22524
# Poissons Ratio (y) = -0.30092 0.32566
# Poissons Ratio (z) = 0.12063 0.09336
#
# Static dielectric constant tensor:
#      x y z
#    x 1.738710 0.000000 0.019210 
#    y 0.000000 1.816880 0.000000 
#    z 0.019210 0.000000 1.744760 
# 
# From -- ./inp_files/16340.got.cif
#   From: 2010.05.17/outbox.cif.g08.bks.cpg/sg14_9_cif.got.tgz:16340.got - 2010.06.03 17:49:19.
