data_PCOD9242073
_publ_section_title
;
Structure prediction by ZEFSAII (Michael W. Deem and Ramdas Pophale) SiO2 
 PCOD9242073
Probable space group: P 21/C
;
_chemical_formula_sum "Si O2"
_cell_formula_units_Z 28
_cell_length_a 7.964684
_cell_length_b 13.780876
_cell_length_c 11.903054
_cell_angle_alpha 90.000000
_cell_angle_beta 85.446643
_cell_angle_gamma 90.000000
_cell_volume 1302.359572
_symmetry_space_group_name_H-M "P 21/C"
_symmetry_group_IT_number 14
_symmetry_cell_setting 'monoclinic'
loop_
_space_group_symop_operation_xyz
x,y,z
-x,1/2+y,1/2-z
-x,-y,-z
x,1/2-y,1/2+z
loop_
_atom_site_type_symbol
_atom_site_label
_atom_site_fract_x
_atom_site_fract_y
_atom_site_fract_z
Si Si1 0.175542 0.509201 0.582626
Si Si2 0.706688 0.534692 0.828710
Si Si3 0.142779 0.804785 0.371703
Si Si4 0.850537 0.408057 0.640798
Si Si5 0.094594 0.175742 0.824976
Si Si6 0.864621 0.869309 0.543087
Si Si7 0.665298 0.488254 0.204312
O O1 0.226897 0.523045 0.451980
O O2 0.324623 0.501099 0.662568
O O3 0.050320 0.418982 0.608228
O O4 0.048056 0.600095 0.619846
O O5 0.812088 0.445432 0.768109
O O6 0.747393 0.617974 0.734685
O O7 0.516762 0.497334 0.838352
O O8 0.763273 0.583318 0.942622
O O9 0.211821 0.698227 0.386977
O O10 0.281876 0.878534 0.323317
O O11 0.004648 0.786951 0.280677
O O12 0.051493 0.857687 0.481009
O O13 0.154809 0.260475 0.904998
O O14 0.808605 0.942172 0.644327
#
# Coordination Sequence:
#
# PCOD9242073 Si02
#       7
#     4   4   4   4   4   4   4
#     4   9  19  37  64  88 115 154 204 251 290 345
#     4  10  24  40  58  90 126 161 193 239 310 365
#     4  10  21  36  63  90 114 151 205 253 290 342
#     4  10  19  39  62  86 117 157 201 250 289 349
#     4   9  19  38  61  91 116 152 203 246 294 350
#     4  11  21  41  63  86 118 162 199 247 294 353
#     4  11  23  39  56  93 126 153 197 243 305 367
#
# _framework density 21.49944
#
# number of rings (size 3 to 8) (size 9 to 14) (size 15 to 20)
#    0.000    2.000    1.429    2.571    0.000    2.857 
#    2.571    0.000    0.000    0.000    0.000    0.000 
#    0.000    0.000    0.000    0.000    0.000    0.000 
#
# Total GULP energy -155913.958969 kJ/mol
# GULP energy per Si atom -5568.355677 kJ/mol
# Density = 2.145051 g / cm^3
# Si number density = 21.499440 Si / 1000 Ang^3
#
#
#
# Elastic Constant Matrix: (Units=GPa)
#
#
# Indices 1 2 3 4 5 6 
#
# 1 34.4558 2.8582 13.0530 0.0000 -0.7842 0.0000
# 2 2.8582 67.5332 5.2004 0.0000 -3.8044 0.0000
# 3 13.0530 5.2004 96.2852 0.0000 11.8384 0.0000
# 4 0.0000 0.0000 0.0000 36.7072 0.0000 2.9702
# 5 -0.7842 -3.8044 11.8384 0.0000 16.4656 0.0000
# 6 0.0000 0.0000 0.0000 2.9702 0.0000 9.6788
#
#
#
# Elastic Compliance Matrix: (Units=1/GPa)
#
#
# Indices 1 2 3 4 5 6 
#
# 1 0.030984 -0.000679 -0.004745 0.000000 0.004730 0.000000
# 2 -0.000679 0.015181 -0.001267 0.000000 0.004386 0.000000
# 3 -0.004745 -0.001267 0.012244 0.000000 -0.009322 0.000000
# 4 0.000000 0.000000 0.000000 0.027936 0.000000 -0.008573
# 5 0.004730 0.004386 -0.009322 0.000000 0.068673 0.000000
# 6 0.000000 0.000000 0.000000 -0.008573 0.000000 0.105950
#
#
# Mechanical properties :
#
#
# Convention : Reuss Voigt Hill
#
# Bulk Modulus (GPa) = 22.20976 26.72193 24.46585
# Shear Modulus (GPa) = 17.27946 24.38116 20.83031
#
# Velocity S-wave (km/s) = 2.83807 3.37120 3.11606
# Velocity P-wave (km/s) = 4.59264 5.25447 4.93466
#
# Compressibility (1/GPa) = 0.04502524
#
# Stress axis : x y z
#
# Youngs Moduli (GPa) = 32.27425 65.87202 81.67485
#
# Poissons Ratio (x) = 0.04476 0.38758
# Poissons Ratio (y) = 0.02193 0.10349
# Poissons Ratio (z) = 0.15315 0.08347
#
# Static dielectric constant tensor:
#      x y z
#    x 1.770400 0.000000 0.022270 
#    y 0.000000 1.856060 0.000000 
#    z 0.022270 0.000000 1.840390 
# 
# From -- ./inp_files/24868.got.cif
#   From: 2010.05.17/outbox.cif.g08.bks.cpg/sg14_13_cif.got.tgz:24868.got - 2010.06.03 17:49:19.
