data_PCOD9242353
_publ_section_title
;
Structure prediction by ZEFSAII (Michael W. Deem and Ramdas Pophale) SiO2 
 PCOD9242353
Probable space group: P 21/C
;
_chemical_formula_sum "Si O2"
_cell_formula_units_Z 24
_cell_length_a 11.517310
_cell_length_b 12.555737
_cell_length_c 12.928115
_cell_angle_alpha 90.000000
_cell_angle_beta 31.227929
_cell_angle_gamma 90.000000
_cell_volume 969.237570
_symmetry_space_group_name_H-M "P 21/C"
_symmetry_group_IT_number 14
_symmetry_cell_setting 'monoclinic'
loop_
_space_group_symop_operation_xyz
x,y,z
-x,1/2+y,1/2-z
-x,-y,-z
x,1/2-y,1/2+z
loop_
_atom_site_type_symbol
_atom_site_label
_atom_site_fract_x
_atom_site_fract_y
_atom_site_fract_z
Si Si1 0.250150 0.041045 0.472859
Si Si2 0.898403 0.872933 0.978094
Si Si3 0.340045 0.308822 0.713124
Si Si4 0.846755 0.180566 0.760989
Si Si5 0.718109 0.089816 0.147374
Si Si6 0.119452 0.814383 0.516309
O O1 0.308682 0.092870 0.316485
O O2 0.460344 0.081956 0.379279
O O3 0.005969 0.087771 0.683029
O O4 0.234877 0.915055 0.479418
O O5 0.725677 0.799250 0.174936
O O6 0.774329 0.981129 0.043279
O O7 0.109585 0.906354 0.888877
O O8 0.018086 0.788493 0.812063
O O9 0.149732 0.316322 0.770559
O O10 0.588354 0.312906 0.482658
O O11 0.854446 0.171804 0.629404
O O12 0.769506 0.199520 0.048300
#
# Coordination Sequence:
#
# PCOD9242353 Si02
#       6
#     4   4   4   4   4   4
#     4  10  20  31  56  81 106 136 172 218 263 303
#     4   8  18  37  58  75 101 146 172 209 262 310
#     4   9  18  35  56  79 106 137 173 211 259 315
#     4   9  18  35  56  79 106 137 173 211 259 315
#     4   9  18  36  56  76 107 137 176 217 257 307
#     4   9  20  34  53  79 103 144 173 211 264 305
#
# _framework density 24.761731000000001
#
# number of rings (size 3 to 8) (size 9 to 14) (size 15 to 20)
#    0.000    3.667    0.000    2.000    4.667    2.667 
#    0.000   21.667    0.000    0.000    0.000    0.000 
#    0.000    0.000    0.000    0.000    0.000    0.000 
#
# Total GULP energy -134099.196848 kJ/mol
# GULP energy per Si atom -5587.466535 kJ/mol
# Density = 2.470537 g / cm^3
# Si number density = 24.761731 Si / 1000 Ang^3
#
#
#
# Elastic Constant Matrix: (Units=GPa)
#
#
# Indices 1 2 3 4 5 6 
#
# 1 46.5737 16.8737 31.2203 0.0000 -20.6273 0.0000
# 2 16.8737 173.6308 52.3477 0.0000 -25.8529 0.0000
# 3 31.2203 52.3477 212.2905 0.0000 -45.8541 0.0000
# 4 0.0000 0.0000 0.0000 29.2034 0.0000 -8.2489
# 5 -20.6273 -25.8529 -45.8541 0.0000 31.6399 0.0000
# 6 0.0000 0.0000 0.0000 -8.2489 0.0000 24.0084
#
#
#
# Elastic Compliance Matrix: (Units=1/GPa)
#
#
# Indices 1 2 3 4 5 6 
#
# 1 0.030199 0.000023 -0.000277 0.000000 0.019305 0.000000
# 2 0.000023 0.006623 -0.000676 0.000000 0.004447 0.000000
# 3 -0.000277 -0.000676 0.006928 0.000000 0.009308 0.000000
# 4 0.000000 0.000000 0.000000 0.037923 0.000000 0.013030
# 5 0.019305 0.004447 0.009308 0.000000 0.061315 0.000000
# 6 0.000000 0.000000 0.000000 0.013030 0.000000 0.046129
#
#
# Mechanical properties :
#
#
# Convention : Reuss Voigt Hill
#
# Bulk Modulus (GPa) = 23.87148 70.37538 47.12343
# Shear Modulus (GPa) = 24.39727 39.10721 31.75224
#
# Velocity S-wave (km/s) = 3.14232 3.97840 3.58482
# Velocity P-wave (km/s) = 4.77776 7.04175 6.01720
#
# Compressibility (1/GPa) = 0.04189099
#
# Stress axis : x y z
#
# Youngs Moduli (GPa) = 33.11377 150.98761 144.33158
#
# Poissons Ratio (x) = -0.00351 0.03998
# Poissons Ratio (y) = -0.00077 0.09757
# Poissons Ratio (z) = 0.00917 0.10207
#
# Static dielectric constant tensor:
#      x y z
#    x 2.043010 0.000000 0.063800 
#    y 0.000000 1.962420 0.000000 
#    z 0.063800 0.000000 1.984210 
# 
# From -- ./inp_files/69201.got.cif
#   From: 2010.05.17/outbox.cif.g08.bks.cpg/sg14_35_cif.got.tgz:69201.got - 2010.06.03 17:49:19.
