data_PCOD9242903
_publ_section_title
;
Structure prediction by ZEFSAII (Michael W. Deem and Ramdas Pophale) SiO2 
 PCOD9242903
Probable space group: P 21/C
;
_chemical_formula_sum "Si O2"
_cell_formula_units_Z 28
_cell_length_a 8.214988
_cell_length_b 12.443580
_cell_length_c 16.350431
_cell_angle_alpha 90.000000
_cell_angle_beta 55.904282
_cell_angle_gamma 90.000000
_cell_volume 1384.093528
_symmetry_space_group_name_H-M "P 21/C"
_symmetry_group_IT_number 14
_symmetry_cell_setting 'monoclinic'
loop_
_space_group_symop_operation_xyz
x,y,z
-x,1/2+y,1/2-z
-x,-y,-z
x,1/2-y,1/2+z
loop_
_atom_site_type_symbol
_atom_site_label
_atom_site_fract_x
_atom_site_fract_y
_atom_site_fract_z
Si Si1 0.298062 0.607061 0.637141
Si Si2 0.974781 0.840835 0.873575
Si Si3 0.103751 0.489956 0.206471
Si Si4 0.865959 0.193557 0.398724
Si Si5 0.738291 0.733048 0.796009
Si Si6 0.708917 0.284268 0.611054
Si Si7 0.295263 0.013300 0.960288
O O1 0.265312 0.731243 0.624331
O O2 0.503836 0.574117 0.616829
O O3 0.298464 0.544871 0.548928
O O4 0.112808 0.562510 0.738979
O O5 0.082087 0.930694 0.789383
O O6 0.144645 0.760345 0.855353
O O7 0.805540 0.793184 0.861299
O O8 0.868567 0.895994 0.980978
O O9 0.153200 0.568830 0.118309
O O10 0.246891 0.392629 0.186977
O O11 0.797809 0.223401 0.507852
O O12 0.088421 0.232856 0.315631
O O13 0.523467 0.761530 0.823582
O O14 0.728544 0.413124 0.592530
#
# Coordination Sequence:
#
# PCOD9242903 Si02
#       7
#     4   4   4   4   4   4   4
#     4   8  14  27  52  77  98 135 178 216 266 315
#     4  10  20  36  57  83 109 139 186 234 273 319
#     4   9  18  35  54  75 112 152 180 217 273 333
#     4   9  18  34  55  80 109 143 186 228 270 326
#     4  10  21  38  56  78 114 149 179 225 277 326
#     4  11  21  35  57  85 112 141 183 231 275 321
#     4   9  15  28  51  78 103 130 172 227 272 305
#
# _framework density 20.229845999999998
#
# number of rings (size 3 to 8) (size 9 to 14) (size 15 to 20)
#    0.000    2.571    0.000    5.571    0.000    0.571 
#    0.000   15.000    0.000    0.000    0.000    0.000 
#    0.000    0.000    0.000    0.000    0.000    0.000 
#
# Total GULP energy -156112.863906 kJ/mol
# GULP energy per Si atom -5575.459425 kJ/mol
# Density = 2.018380 g / cm^3
# Si number density = 20.229846 Si / 1000 Ang^3
#
#
#
# Elastic Constant Matrix: (Units=GPa)
#
#
# Indices 1 2 3 4 5 6 
#
# 1 74.3500 12.7442 12.7000 0.0000 -26.6153 0.0000
# 2 12.7442 70.6308 -4.1761 0.0000 1.4021 0.0000
# 3 12.7000 -4.1761 34.9649 0.0000 -11.7972 0.0000
# 4 0.0000 0.0000 0.0000 23.0013 0.0000 -5.1969
# 5 -26.6153 1.4021 -11.7972 0.0000 24.5642 0.0000
# 6 0.0000 0.0000 0.0000 -5.1969 0.0000 15.9602
#
#
#
# Elastic Compliance Matrix: (Units=1/GPa)
#
#
# Indices 1 2 3 4 5 6 
#
# 1 0.023466 -0.004769 -0.000504 0.000000 0.025455 0.000000
# 2 -0.004769 0.015228 0.001807 0.000000 -0.005169 0.000000
# 3 -0.000504 0.001807 0.034345 0.000000 0.015845 0.000000
# 4 0.000000 0.000000 0.000000 0.046928 0.000000 0.015281
# 5 0.025455 -0.005169 0.015845 0.000000 0.076195 0.000000
# 6 0.000000 0.000000 0.000000 0.015281 0.000000 0.067631
#
#
# Mechanical properties :
#
#
# Convention : Reuss Voigt Hill
#
# Bulk Modulus (GPa) = 15.12704 24.72019 19.92362
# Shear Modulus (GPa) = 17.07870 23.28363 20.18117
#
# Velocity S-wave (km/s) = 2.90872 3.39625 3.16190
# Velocity P-wave (km/s) = 4.33298 5.25600 4.81665
#
# Compressibility (1/GPa) = 0.06610679
#
# Stress axis : x y z
#
# Youngs Moduli (GPa) = 42.61524 65.66811 29.11603
#
# Poissons Ratio (x) = 0.31318 0.01468
# Poissons Ratio (y) = 0.20324 -0.05262
# Poissons Ratio (z) = 0.02149 -0.11867
#
# Static dielectric constant tensor:
#      x y z
#    x 1.788820 0.000000 0.017250 
#    y 0.000000 1.741190 0.000000 
#    z 0.017250 0.000000 1.731690 
# 
# From -- ./inp_files/65377.got.cif
#   From: 2010.05.17/outbox.cif.g08.bks.cpg/sg14_33_cif.got.tgz:65377.got - 2010.06.03 17:49:19.
