data_PCOD9242983
_publ_section_title
;
Structure prediction by ZEFSAII (Michael W. Deem and Ramdas Pophale) SiO2 
 PCOD9242983
Probable space group: P 21/C
;
_chemical_formula_sum "Si O2"
_cell_formula_units_Z 32
_cell_length_a 9.327677
_cell_length_b 13.844401
_cell_length_c 22.071514
_cell_angle_alpha 90.000000
_cell_angle_beta 143.927369
_cell_angle_gamma 90.000000
_cell_volume 1678.244430
_symmetry_space_group_name_H-M "P 21/C"
_symmetry_group_IT_number 14
_symmetry_cell_setting 'monoclinic'
loop_
_space_group_symop_operation_xyz
x,y,z
-x,1/2+y,1/2-z
-x,-y,-z
x,1/2-y,1/2+z
loop_
_atom_site_type_symbol
_atom_site_label
_atom_site_fract_x
_atom_site_fract_y
_atom_site_fract_z
Si Si1 0.653382 0.199622 0.387641
Si Si2 0.787296 0.003271 0.604262
Si Si3 0.833854 0.676913 0.199746
Si Si4 0.123688 0.105151 0.804113
Si Si5 0.949028 0.928332 0.427581
Si Si6 0.390181 0.918243 0.105211
Si Si7 0.535786 0.973307 0.755487
Si Si8 0.949931 0.051649 0.126286
O O1 0.437594 0.177924 0.363059
O O2 0.649540 0.314352 0.375684
O O3 0.589747 0.127718 0.309398
O O4 0.912153 0.168919 0.505371
O O5 0.873811 0.076021 0.686025
O O6 0.919063 0.032751 0.587559
O O7 0.500000 0.000000 0.500000
O O8 0.864007 0.900336 0.657136
O O9 0.877990 0.781410 0.187533
O O10 0.011864 0.642607 0.315184
O O11 0.340555 0.083802 0.831182
O O12 0.163286 0.037015 0.875084
O O13 0.660620 0.940494 0.320650
O O14 0.000000 0.000000 0.500000
O O15 0.378150 0.009117 0.146303
O O16 0.202941 0.924565 0.985438
O O17 0.777496 0.980489 0.798276
#
# Coordination Sequence:
#
# PCOD9242983 Si02
#       8
#     4   4   4   4   4   4   4   4
#     4   9  20  36  62  90 113 155 202 242 299 357
#     4  11  20  36  65  86 114 156 200 248 298 343
#     4   9  20  37  60  86 120 151 198 249 296 356
#     4  10  22  38  59  88 118 156 200 254 297 353
#     4  10  20  36  59  85 119 148 198 245 295 347
#     4  11  21  38  65  84 117 163 201 248 294 364
#     4  10  21  40  58  86 124 156 195 253 295 355
#     4  10  22  38  59  86 121 159 199 242 307 354
#
# _framework density 19.067546
#
# number of rings (size 3 to 8) (size 9 to 14) (size 15 to 20)
#    0.000    2.000    2.500    0.750    3.500    1.000 
#    4.500    0.000    2.750    0.000    0.000    0.000 
#    0.000    0.000    0.000    0.000    0.000    0.000 
#
# Total GULP energy -178330.083874 kJ/mol
# GULP energy per Si atom -5572.815121 kJ/mol
# Density = 1.902415 g / cm^3
# Si number density = 19.067546 Si / 1000 Ang^3
#
#
#
# Elastic Constant Matrix: (Units=GPa)
#
#
# Indices 1 2 3 4 5 6 
#
# 1 29.4298 22.3538 11.0052 0.0000 -6.9752 0.0000
# 2 22.3538 77.2433 25.9629 0.0000 -8.6343 0.0000
# 3 11.0052 25.9629 83.8254 0.0000 0.2793 0.0000
# 4 0.0000 0.0000 0.0000 11.2299 0.0000 -1.9963
# 5 -6.9752 -8.6343 0.2793 0.0000 33.0579 0.0000
# 6 0.0000 0.0000 0.0000 -1.9963 0.0000 21.3662
#
#
#
# Elastic Compliance Matrix: (Units=1/GPa)
#
#
# Indices 1 2 3 4 5 6 
#
# 1 0.045189 -0.011547 -0.002378 0.000000 0.006539 0.000000
# 2 -0.011547 0.017898 -0.004035 0.000000 0.002272 0.000000
# 3 -0.002378 -0.004035 0.013497 0.000000 -0.001670 0.000000
# 4 0.000000 0.000000 0.000000 0.090552 0.000000 0.008460
# 5 0.006539 0.002272 -0.001670 0.000000 0.032237 0.000000
# 6 0.000000 0.000000 0.000000 0.008460 0.000000 0.047593
#
#
# Mechanical properties :
#
#
# Convention : Reuss Voigt Hill
#
# Bulk Modulus (GPa) = 24.59202 34.34914 29.47058
# Shear Modulus (GPa) = 16.86671 21.87593 19.37132
#
# Velocity S-wave (km/s) = 2.97741 3.39084 3.19083
# Velocity P-wave (km/s) = 4.97446 5.77788 5.39116
#
# Compressibility (1/GPa) = 0.04066360
#
# Stress axis : x y z
#
# Youngs Moduli (GPa) = 22.12917 55.87188 74.09008
#
# Poissons Ratio (x) = 0.64517 0.17619
# Poissons Ratio (y) = 0.25553 0.29896
# Poissons Ratio (z) = 0.05262 0.22545
#
# Static dielectric constant tensor:
#      x y z
#    x 1.615240 0.000000 -0.024690 
#    y 0.000000 1.666070 0.000000 
#    z -0.024690 0.000000 1.695030 
# 
# From -- ./inp_files/65850.got.cif
#   From: 2010.05.17/outbox.cif.g08.bks.cpg/sg14_33_cif.got.tgz:65850.got - 2010.06.03 17:49:19.
