data_PCOD9242856
_publ_section_title
;
Structure prediction by ZEFSAII (Michael W. Deem and Ramdas Pophale) SiO2 
 PCOD9242856
Probable space group: P 21/C
;
_chemical_formula_sum "Si O2"
_cell_formula_units_Z 24
_cell_length_a 7.928639
_cell_length_b 23.434976
_cell_length_c 8.468087
_cell_angle_alpha 90.000000
_cell_angle_beta 128.428612
_cell_angle_gamma 90.000000
_cell_volume 1232.601547
_symmetry_space_group_name_H-M "P 21/C"
_symmetry_group_IT_number 14
_symmetry_cell_setting 'monoclinic'
loop_
_space_group_symop_operation_xyz
x,y,z
-x,1/2+y,1/2-z
-x,-y,-z
x,1/2-y,1/2+z
loop_
_atom_site_type_symbol
_atom_site_label
_atom_site_fract_x
_atom_site_fract_y
_atom_site_fract_z
Si Si1 0.373098 0.317666 0.859713
Si Si2 0.460237 0.564930 0.917195
Si Si3 0.651362 0.526282 0.721327
Si Si4 0.895282 0.427420 0.060486
Si Si5 0.835561 0.305505 0.984025
Si Si6 0.112691 0.233270 0.925174
O O1 0.398375 0.384302 0.922237
O O2 0.606908 0.296273 0.935041
O O3 0.277291 0.280633 0.949373
O O4 0.220507 0.305845 0.620910
O O5 0.510039 0.562970 0.761459
O O6 0.220622 0.578495 0.837606
O O7 0.500000 0.500000 0.000000
O O8 0.500000 0.500000 0.500000
O O9 0.853303 0.561605 0.774082
O O10 0.772921 0.477504 0.894914
O O11 0.845219 0.370548 0.933574
O O12 0.908212 0.263839 0.888111
O O13 0.022421 0.300398 0.223594
#
# Coordination Sequence:
#
# PCOD9242856 Si02
#       6
#     4   4   4   4   4   4
#     4  10  20  37  56  80 111 143 183 229 275 327
#     4   9  19  36  56  79 111 144 178 225 275 328
#     4  10  20  36  56  80 107 142 182 221 274 327
#     4   9  20  36  54  78 110 140 177 227 268 323
#     4  10  20  36  54  80 109 140 182 224 271 325
#     4  10  21  35  57  80 108 147 183 225 277 330
#
# _framework density 19.471014
#
# number of rings (size 3 to 8) (size 9 to 14) (size 15 to 20)
#    0.000    2.333    0.000    2.000    0.000    4.667 
#    0.000   16.667    0.000    0.000    0.000    0.000 
#    0.000    0.000    0.000    0.000    0.000    0.000 
#
# Total GULP energy -133704.505221 kJ/mol
# GULP energy per Si atom -5571.021051 kJ/mol
# Density = 1.942670 g / cm^3
# Si number density = 19.471014 Si / 1000 Ang^3
#
#
#
# Elastic Constant Matrix: (Units=GPa)
#
#
# Indices 1 2 3 4 5 6 
#
# 1 96.6755 13.3369 4.2340 0.0000 5.2894 0.0000
# 2 13.3369 60.8463 -13.6726 0.0000 -3.6094 0.0000
# 3 4.2340 -13.6726 24.4257 0.0000 -0.8608 0.0000
# 4 0.0000 0.0000 0.0000 16.6057 0.0000 -1.5278
# 5 5.2894 -3.6094 -0.8608 0.0000 20.5788 0.0000
# 6 0.0000 0.0000 0.0000 -1.5278 0.0000 20.8076
#
#
#
# Elastic Compliance Matrix: (Units=1/GPa)
#
#
# Indices 1 2 3 4 5 6 
#
# 1 0.011221 -0.003597 -0.004088 0.000000 -0.003686 0.000000
# 2 -0.003597 0.020245 0.012131 0.000000 0.004983 0.000000
# 3 -0.004088 0.012131 0.048623 0.000000 0.005212 0.000000
# 4 0.000000 0.000000 0.000000 0.060630 0.000000 0.004452
# 5 -0.003686 0.004983 0.005212 0.000000 0.050633 0.000000
# 6 0.000000 0.000000 0.000000 0.004452 0.000000 0.048386
#
#
# Mechanical properties :
#
#
# Convention : Reuss Voigt Hill
#
# Bulk Modulus (GPa) = 11.23829 21.08270 16.16050
# Shear Modulus (GPa) = 19.19337 23.46834 21.33086
#
# Velocity S-wave (km/s) = 3.14306 3.47550 3.31345
# Velocity P-wave (km/s) = 4.35386 5.19199 4.79129
#
# Compressibility (1/GPa) = 0.08898149
#
# Stress axis : x y z
#
# Youngs Moduli (GPa) = 89.12017 49.39541 20.56620
#
# Poissons Ratio (x) = 0.17767 0.08408
# Poissons Ratio (y) = 0.32055 -0.24950
# Poissons Ratio (z) = 0.36435 -0.59923
#
# Static dielectric constant tensor:
#      x y z
#    x 1.722510 0.000000 -0.013440 
#    y 0.000000 1.625120 0.000000 
#    z -0.013440 0.000000 1.647960 
# 
# From -- ./inp_files/6230.got.cif
#   From: 2010.05.17/outbox.cif.g08.bks.cpg/sg14_4_cif.got.tgz:6230.got - 2010.06.03 17:49:19.
