data_PCOD9242017
_publ_section_title
;
Structure prediction by ZEFSAII (Michael W. Deem and Ramdas Pophale) SiO2 
 PCOD9242017
Probable space group: P 21/C
;
_chemical_formula_sum "Si O2"
_cell_formula_units_Z 32
_cell_length_a 13.954625
_cell_length_b 13.970591
_cell_length_c 17.812680
_cell_angle_alpha 90.000000
_cell_angle_beta 157.604032
_cell_angle_gamma 90.000000
_cell_volume 1323.101760
_symmetry_space_group_name_H-M "P 21/C"
_symmetry_group_IT_number 14
_symmetry_cell_setting 'monoclinic'
loop_
_space_group_symop_operation_xyz
x,y,z
-x,1/2+y,1/2-z
-x,-y,-z
x,1/2-y,1/2+z
loop_
_atom_site_type_symbol
_atom_site_label
_atom_site_fract_x
_atom_site_fract_y
_atom_site_fract_z
Si Si1 0.564631 0.822354 0.306410
Si Si2 0.392008 0.364018 0.417019
Si Si3 0.293976 0.484563 0.205037
Si Si4 0.809649 0.523726 0.596609
Si Si5 0.159459 0.901688 0.126110
Si Si6 0.100369 0.821901 0.758172
Si Si7 0.340675 0.197551 0.257678
Si Si8 0.289670 0.887755 0.384285
O O1 0.683665 0.900451 0.337678
O O2 0.330716 0.867767 0.180488
O O3 0.513109 0.737190 0.209899
O O4 0.804981 0.805929 0.533417
O O5 0.380187 0.450282 0.349244
O O6 0.206550 0.399777 0.346892
O O7 0.686889 0.347239 0.652709
O O8 0.316312 0.273333 0.309885
O O9 0.541445 0.545741 0.361903
O O10 0.000000 0.500000 0.000000
O O11 0.850758 0.412274 0.651588
O O12 0.056221 0.543927 0.728201
O O13 0.329641 0.892533 0.324373
O O14 0.936977 0.823857 0.973185
O O15 0.000000 0.000000 0.000000
O O16 0.198376 0.716414 0.847517
O O17 0.467271 0.103585 0.386948
#
# Coordination Sequence:
#
# PCOD9242017 Si02
#       8
#     4   4   4   4   4   4   4   4
#     4  11  23  45  74 101 145 197 235 313 371 430
#     4   9  20  39  66 102 135 179 235 306 361 432
#     4  10  19  38  66 103 141 174 233 302 359 434
#     4  11  22  40  71 105 140 191 240 302 377 433
#     4  12  28  50  71 109 155 193 251 301 378 462
#     4  10  21  43  67 100 144 178 247 296 360 442
#     4  10  25  49  70 104 145 187 257 298 368 441
#     4  11  26  48  70 106 145 197 251 298 368 455
#
# _framework density 24.185593000000001
#
# number of rings (size 3 to 8) (size 9 to 14) (size 15 to 20)
#    0.000    1.500    1.250    4.500    3.500    2.500 
#   13.500    0.000    0.000    0.000    0.000    0.000 
#    0.000    0.000    0.000    0.000    0.000    0.000 
#
# Total GULP energy -178173.239250 kJ/mol
# GULP energy per Si atom -5567.913727 kJ/mol
# Density = 2.413055 g / cm^3
# Si number density = 24.185593 Si / 1000 Ang^3
#
#
#
# Elastic Constant Matrix: (Units=GPa)
#
#
# Indices 1 2 3 4 5 6 
#
# 1 71.8731 22.6159 23.8580 0.0000 7.6052 0.0000
# 2 22.6159 73.6700 19.5674 0.0000 4.5128 0.0000
# 3 23.8580 19.5674 113.8966 0.0000 -6.0480 0.0000
# 4 0.0000 0.0000 0.0000 32.2314 0.0000 9.8283
# 5 7.6052 4.5128 -6.0480 0.0000 19.8784 0.0000
# 6 0.0000 0.0000 0.0000 9.8283 0.0000 28.0881
#
#
#
# Elastic Compliance Matrix: (Units=1/GPa)
#
#
# Indices 1 2 3 4 5 6 
#
# 1 0.016913 -0.003937 -0.003214 0.000000 -0.006555 0.000000
# 2 -0.003937 0.015466 -0.001971 0.000000 -0.002604 0.000000
# 3 -0.003214 -0.001971 0.010043 0.000000 0.004733 0.000000
# 4 0.000000 0.000000 0.000000 0.034731 0.000000 -0.012153
# 5 -0.006555 -0.002604 0.004733 0.000000 0.054845 0.000000
# 6 0.000000 0.000000 0.000000 -0.012153 0.000000 0.039855
#
#
# Mechanical properties :
#
#
# Convention : Reuss Voigt Hill
#
# Bulk Modulus (GPa) = 41.36033 43.50246 42.43140
# Shear Modulus (GPa) = 25.23271 28.93278 27.08275
#
# Velocity S-wave (km/s) = 3.23351 3.46248 3.34995
# Velocity P-wave (km/s) = 5.57487 5.83190 5.70483
#
# Compressibility (1/GPa) = 0.02417776
#
# Stress axis : x y z
#
# Youngs Moduli (GPa) = 59.12680 64.65985 99.57086
#
# Poissons Ratio (x) = 0.25455 0.32007
# Poissons Ratio (y) = 0.23277 0.19622
# Poissons Ratio (z) = 0.19006 0.12742
#
# Static dielectric constant tensor:
#      x y z
#    x 2.189860 0.000000 -0.164270 
#    y 0.000000 1.921600 0.000000 
#    z -0.164270 0.000000 2.265470 
# 
# From -- ./inp_files/68724.got.cif
#   From: 2010.05.17/outbox.cif.g08.bks.cpg/sg14_35_cif.got.tgz:68724.got - 2010.06.03 17:49:19.
