data_PCOD9242486
_publ_section_title
;
Structure prediction by ZEFSAII (Michael W. Deem and Ramdas Pophale) SiO2 
 PCOD9242486
Probable space group: P 21/C
;
_chemical_formula_sum "Si O2"
_cell_formula_units_Z 32
_cell_length_a 11.259617
_cell_length_b 20.206945
_cell_length_c 7.623272
_cell_angle_alpha 90.000000
_cell_angle_beta 109.787026
_cell_angle_gamma 90.000000
_cell_volume 1632.058334
_symmetry_space_group_name_H-M "P 21/C"
_symmetry_group_IT_number 14
_symmetry_cell_setting 'monoclinic'
loop_
_space_group_symop_operation_xyz
x,y,z
-x,1/2+y,1/2-z
-x,-y,-z
x,1/2-y,1/2+z
loop_
_atom_site_type_symbol
_atom_site_label
_atom_site_fract_x
_atom_site_fract_y
_atom_site_fract_z
Si Si1 0.876053 0.458433 0.223815
Si Si2 0.629952 0.963431 0.025667
Si Si3 0.277054 0.323993 0.849017
Si Si4 0.722946 0.676007 0.571961
Si Si5 0.987018 0.323571 0.703612
Si Si6 0.123947 0.541567 0.347761
Si Si7 0.987018 0.176429 0.783407
Si Si8 0.629952 0.963432 0.604285
O O1 0.871242 0.458574 0.435621
O O2 0.900350 0.383443 0.176250
O O3 0.749299 0.493929 0.098335
O O4 1.000000 0.500000 0.236810
O O5 0.640377 0.960881 0.820189
O O6 0.644595 0.887513 0.096650
O O7 0.500000 0.000000 0.000000
O O8 0.749299 0.006071 0.150964
O O9 0.324240 0.250000 0.912121
O O10 0.271265 0.328237 0.635633
O O11 0.355405 0.387514 0.952056
O O12 0.131795 0.329321 0.842516
O O13 0.868206 0.670680 0.710720
O O14 0.900350 0.383444 0.724100
O O15 0.940798 0.250000 0.720400
O O16 0.994382 0.330100 0.497192
O O17 0.500000 0.000000 0.500000
#
# Coordination Sequence:
#
# PCOD9242486 Si02
#       8
#     4   4   4   4   4   4   4   4
#     4   9  15  29  53  74  93 125 168 203 237 290
#     4  10  20  34  52  75 102 133 169 207 248 296
#     4   9  17  30  50  74  98 126 163 206 248 294
#     4   9  17  30  50  74  98 126 163 206 248 294
#     4   9  16  28  49  75  99 124 160 206 249 291
#     4   9  15  29  53  74  93 125 168 203 237 290
#     4   9  16  28  49  75  99 124 160 206 249 291
#     4  10  20  34  52  75 102 133 169 207 248 296
#
# _framework density 19.607143000000001
#
# number of rings (size 3 to 8) (size 9 to 14) (size 15 to 20)
#    0.000    2.750    2.500    0.000    0.000    1.000 
#    0.000    2.500    0.000    7.500    0.000    0.000 
#    0.000    0.000    0.000    0.000    0.000    0.000 
#
# Total GULP energy -178427.595003 kJ/mol
# GULP energy per Si atom -5575.862344 kJ/mol
# Density = 1.956252 g / cm^3
# Si number density = 19.607143 Si / 1000 Ang^3
#
#
#
# Elastic Constant Matrix: (Units=GPa)
#
#
# Indices 1 2 3 4 5 6 
#
# 1 134.1771 81.4671 -27.5369 0.0000 1.4898 0.0000
# 2 81.4671 242.2554 32.6003 0.0000 42.3102 0.0000
# 3 -27.5369 32.6003 89.8251 0.0000 36.9065 0.0000
# 4 0.0000 0.0000 0.0000 23.6674 0.0000 2.8686
# 5 1.4898 42.3102 36.9065 0.0000 49.3227 0.0000
# 6 0.0000 0.0000 0.0000 2.8686 0.0000 26.9799
#
#
#
# Elastic Compliance Matrix: (Units=1/GPa)
#
#
# Indices 1 2 3 4 5 6 
#
# 1 0.011189 -0.004380 0.005220 0.000000 -0.000486 0.000000
# 2 -0.004380 0.006570 -0.002117 0.000000 -0.003920 0.000000
# 3 0.005220 -0.002117 0.018511 0.000000 -0.012193 0.000000
# 4 0.000000 0.000000 0.000000 0.042804 0.000000 -0.004551
# 5 -0.000486 -0.003920 -0.012193 0.000000 0.032776 0.000000
# 6 0.000000 0.000000 0.000000 -0.004551 0.000000 0.037548
#
#
# Mechanical properties :
#
#
# Convention : Reuss Voigt Hill
#
# Bulk Modulus (GPa) = 29.66017 71.03541 50.34779
# Shear Modulus (GPa) = 30.63894 45.30914 37.97404
#
# Velocity S-wave (km/s) = 3.95732 4.81234 4.40562
# Velocity P-wave (km/s) = 6.00338 8.19672 7.18424
#
# Compressibility (1/GPa) = 0.03371525
#
# Stress axis : x y z
#
# Youngs Moduli (GPa) = 89.37443 152.19903 54.02257
#
# Poissons Ratio (x) = 0.66665 -0.28197
# Poissons Ratio (y) = 0.39147 0.11435
# Poissons Ratio (z) = -0.46649 0.32217
#
# Static dielectric constant tensor:
#      x y z
#    x 1.675230 0.000000 -0.043440 
#    y 0.000000 1.719240 0.000000 
#    z -0.043440 0.000000 1.725390 
# 
# From -- ./inp_files/30203.got.cif
#   From: 2010.05.17/outbox.cif.g08.bks.cpg/sg14_16_cif.got.tgz:30203.got - 2010.06.03 17:49:19.
