data_PCOD9242528
_publ_section_title
;
Structure prediction by ZEFSAII (Michael W. Deem and Ramdas Pophale) SiO2 
 PCOD9242528
Probable space group: P 21/C
;
_chemical_formula_sum "Si O2"
_cell_formula_units_Z 30
_cell_length_a 10.534164
_cell_length_b 14.127865
_cell_length_c 10.050672
_cell_angle_alpha 90.000000
_cell_angle_beta 84.724892
_cell_angle_gamma 90.000000
_cell_volume 1489.458658
_symmetry_space_group_name_H-M "P 21/C"
_symmetry_group_IT_number 14
_symmetry_cell_setting 'monoclinic'
loop_
_space_group_symop_operation_xyz
x,y,z
-x,1/2+y,1/2-z
-x,-y,-z
x,1/2-y,1/2+z
loop_
_atom_site_type_symbol
_atom_site_label
_atom_site_fract_x
_atom_site_fract_y
_atom_site_fract_z
Si Si1 0.176141 0.204396 0.766794
Si Si2 0.665058 0.976121 0.243526
Si Si3 0.931262 0.661757 0.999540
Si Si4 0.317939 0.464060 0.955122
Si Si5 0.779334 0.333140 0.036408
Si Si6 0.500000 0.000000 0.000000
Si Si7 0.306179 0.802580 0.739997
Si Si8 0.582296 0.662473 0.292405
O O1 0.226310 0.100296 0.797691
O O2 0.084208 0.196291 0.649842
O O3 0.299429 0.266087 0.710214
O O4 0.109927 0.256297 0.895141
O O5 0.626241 0.956636 0.400847
O O6 0.559511 0.970771 0.140166
O O7 0.714269 0.084745 0.237474
O O8 0.076983 0.635475 0.011861
O O9 0.824852 0.580381 0.026422
O O10 0.301900 0.573845 0.921839
O O11 0.391985 0.404068 0.838686
O O12 0.780220 0.260637 0.157484
O O13 0.718388 0.284239 0.912397
O O14 0.437129 0.096465 0.077375
O O15 0.450897 0.784093 0.772397
#
# Coordination Sequence:
#
# PCOD9242528 Si02
#       8
#     4   4   4   4   4   2   4   4
#     4  10  20  37  62  84 112 149 192 239 279 333
#     4   9  20  37  54  81 111 147 185 227 279 330
#     4  10  20  37  60  86 110 145 193 238 281 333
#     4   9  21  39  61  80 109 151 196 233 273 337
#     4  11  22  39  57  83 115 151 187 234 288 334
#     4  10  20  34  54  80 120 142 174 236 282 332
#     4  10  24  37  55  82 117 150 186 231 281 346
#     4  10  22  38  57  88 114 150 191 228 287 340
#
# _framework density 20.141546000000002
#
# number of rings (size 3 to 8) (size 9 to 14) (size 15 to 20)
#    0.000    2.133    0.000    2.000    0.000   14.400 
#    0.000    0.667    0.000    0.000    0.000    0.000 
#    0.000    0.000    0.000    0.000    0.000    0.000 
#
# Total GULP energy -167030.037169 kJ/mol
# GULP energy per Si atom -5567.667906 kJ/mol
# Density = 2.009570 g / cm^3
# Si number density = 20.141546 Si / 1000 Ang^3
#
#
#
# Elastic Constant Matrix: (Units=GPa)
#
#
# Indices 1 2 3 4 5 6 
#
# 1 65.1041 -8.3098 -0.8408 0.0000 0.1051 0.0000
# 2 -8.3098 48.9708 25.4710 0.0000 -4.6651 0.0000
# 3 -0.8408 25.4710 75.1581 0.0000 9.1722 0.0000
# 4 0.0000 0.0000 0.0000 28.8492 0.0000 -3.0524
# 5 0.1051 -4.6651 9.1722 0.0000 20.5157 0.0000
# 6 0.0000 0.0000 0.0000 -3.0524 0.0000 21.1400
#
#
#
# Elastic Compliance Matrix: (Units=1/GPa)
#
#
# Indices 1 2 3 4 5 6 
#
# 1 0.015773 0.003365 -0.001108 0.000000 0.001180 0.000000
# 2 0.003365 0.027583 -0.010655 0.000000 0.011018 0.000000
# 3 -0.001108 -0.010655 0.018191 0.000000 -0.010550 0.000000
# 4 0.000000 0.000000 0.000000 0.035201 0.000000 0.005083
# 5 0.001180 0.011018 -0.010550 0.000000 0.055959 0.000000
# 6 0.000000 0.000000 0.000000 0.005083 0.000000 0.048038
#
#
# Mechanical properties :
#
#
# Convention : Reuss Voigt Hill
#
# Bulk Modulus (GPa) = 22.34520 24.65265 23.49892
# Shear Modulus (GPa) = 21.50928 25.62850 23.56889
#
# Velocity S-wave (km/s) = 3.27143 3.57097 3.42448
# Velocity P-wave (km/s) = 5.03863 5.41006 5.22764
#
# Compressibility (1/GPa) = 0.04475235
#
# Stress axis : x y z
#
# Youngs Moduli (GPa) = 63.39814 36.25442 54.97125
#
# Poissons Ratio (x) = -0.12200 0.06091
# Poissons Ratio (y) = -0.21335 0.58571
# Poissons Ratio (z) = 0.07024 0.38628
#
# Static dielectric constant tensor:
#      x y z
#    x 1.754560 0.000000 -0.028930 
#    y 0.000000 1.717220 0.000000 
#    z -0.028930 0.000000 1.692510 
# 
# From -- ./inp_files/13100.got.cif
#   From: 2010.05.17/outbox.cif.g08.bks.cpg/sg14_7_cif.got.tgz:13100.got - 2010.06.03 17:49:19.
