data_PCOD9242924
_publ_section_title
;
Structure prediction by ZEFSAII (Michael W. Deem and Ramdas Pophale) SiO2 
 PCOD9242924
Probable space group: P 21/C
;
_chemical_formula_sum "Si O2"
_cell_formula_units_Z 24
_cell_length_a 14.771459
_cell_length_b 7.657010
_cell_length_c 16.351552
_cell_angle_alpha 90.000000
_cell_angle_beta 144.038634
_cell_angle_gamma 90.000000
_cell_volume 1086.067771
_symmetry_space_group_name_H-M "P 21/C"
_symmetry_group_IT_number 14
_symmetry_cell_setting 'monoclinic'
loop_
_space_group_symop_operation_xyz
x,y,z
-x,1/2+y,1/2-z
-x,-y,-z
x,1/2-y,1/2+z
loop_
_atom_site_type_symbol
_atom_site_label
_atom_site_fract_x
_atom_site_fract_y
_atom_site_fract_z
Si Si1 0.414858 0.707448 0.448531
Si Si2 0.309142 0.416567 0.795492
Si Si3 0.491810 0.345774 0.653860
Si Si4 0.716188 0.077358 0.888328
Si Si5 0.197659 0.125991 0.389661
Si Si6 0.864551 0.221234 0.147809
O O1 0.548016 0.782183 0.605351
O O2 0.471170 0.595387 0.411862
O O3 0.261250 0.643832 0.381374
O O4 0.368168 0.892900 0.369203
O O5 0.239067 0.455118 0.655468
O O6 0.209970 0.351355 0.800015
O O7 0.642959 0.256179 0.801038
O O8 0.423348 0.488553 0.663820
O O9 0.351619 0.207725 0.539642
O O10 0.845992 0.118655 0.049345
O O11 0.039972 0.212268 0.304803
O O12 0.185391 0.921336 0.399163
#
# Coordination Sequence:
#
# PCOD9242924 Si02
#       6
#     4   4   4   4   4   4
#     4   8  16  33  55  77 105 141 177 213 262 323
#     4   8  16  33  55  76 104 144 178 207 261 333
#     4  10  20  36  58  82 108 140 178 220 266 318
#     4  11  20  33  58  84 106 136 180 229 264 305
#     4  10  21  38  56  77 109 146 180 214 265 326
#     4  11  21  35  56  80 108 141 181 223 264 314
#
# _framework density 22.098068000000001
#
# number of rings (size 3 to 8) (size 9 to 14) (size 15 to 20)
#    0.000    2.333    0.000    6.000    0.000    1.333 
#    0.000    3.333    0.000   11.000    0.000    0.000 
#    0.000    0.000    0.000    0.000    0.000    0.000 
#
# Total GULP energy -134033.552884 kJ/mol
# GULP energy per Si atom -5584.731370 kJ/mol
# Density = 2.204777 g / cm^3
# Si number density = 22.098068 Si / 1000 Ang^3
#
#
#
# Elastic Constant Matrix: (Units=GPa)
#
#
# Indices 1 2 3 4 5 6 
#
# 1 78.0190 0.1463 23.3134 0.0000 0.8282 0.0000
# 2 0.1463 29.8422 4.8310 0.0000 -10.3382 0.0000
# 3 23.3134 4.8310 49.4611 0.0000 0.7334 0.0000
# 4 0.0000 0.0000 0.0000 25.5480 0.0000 1.1143
# 5 0.8282 -10.3382 0.7334 0.0000 38.5995 0.0000
# 6 0.0000 0.0000 0.0000 1.1143 0.0000 29.2746
#
#
#
# Elastic Compliance Matrix: (Units=1/GPa)
#
#
# Indices 1 2 3 4 5 6 
#
# 1 0.014954 0.001126 -0.007160 0.000000 0.000117 0.000000
# 2 0.001126 0.037732 -0.004367 0.000000 0.010165 0.000000
# 3 -0.007160 -0.004367 0.024041 0.000000 -0.001473 0.000000
# 4 0.000000 0.000000 0.000000 0.039207 0.000000 -0.001492
# 5 0.000117 0.010165 -0.001473 0.000000 0.028655 0.000000
# 6 0.000000 0.000000 0.000000 -0.001492 0.000000 0.034216
#
#
# Mechanical properties :
#
#
# Convention : Reuss Voigt Hill
#
# Bulk Modulus (GPa) = 17.88093 23.76707 20.82400
# Shear Modulus (GPa) = 22.90964 27.28653 25.09809
#
# Velocity S-wave (km/s) = 3.22332 3.51777 3.37376
# Velocity P-wave (km/s) = 4.68639 5.22286 4.96188
#
# Compressibility (1/GPa) = 0.05592550
#
# Stress axis : x y z
#
# Youngs Moduli (GPa) = 66.87360 26.50245 41.59532
#
# Poissons Ratio (x) = -0.02985 0.29783
# Poissons Ratio (y) = -0.07532 0.18165
# Poissons Ratio (z) = 0.47882 0.11574
#
# Static dielectric constant tensor:
#      x y z
#    x 1.842530 0.000000 -0.024340 
#    y 0.000000 1.873840 0.000000 
#    z -0.024340 0.000000 1.788760 
# 
# From -- ./inp_files/46629.got.cif
#   From: 2010.05.17/outbox.cif.g08.bks.cpg/sg14_24_cif.got.tgz:46629.got - 2010.06.03 17:49:19.
