data_PCOD9242556
_publ_section_title
;
Structure prediction by ZEFSAII (Michael W. Deem and Ramdas Pophale) SiO2 
 PCOD9242556
Probable space group: P 21/C
;
_chemical_formula_sum "Si O2"
_cell_formula_units_Z 28
_cell_length_a 15.528972
_cell_length_b 20.169279
_cell_length_c 9.637406
_cell_angle_alpha 90.000000
_cell_angle_beta 160.447720
_cell_angle_gamma 90.000000
_cell_volume 1010.196641
_symmetry_space_group_name_H-M "P 21/C"
_symmetry_group_IT_number 14
_symmetry_cell_setting 'monoclinic'
loop_
_space_group_symop_operation_xyz
x,y,z
-x,1/2+y,1/2-z
-x,-y,-z
x,1/2-y,1/2+z
loop_
_atom_site_type_symbol
_atom_site_label
_atom_site_fract_x
_atom_site_fract_y
_atom_site_fract_z
Si Si1 0.165356 0.643225 0.352218
Si Si2 0.599488 0.342443 0.735406
Si Si3 0.296271 0.131968 0.504412
Si Si4 0.798561 0.002312 0.066766
Si Si5 0.372505 0.989332 0.647562
Si Si6 0.202633 0.244026 0.172826
Si Si7 0.109442 0.360538 0.345390
O O1 0.435273 0.638611 0.677640
O O2 0.172399 0.575582 0.452374
O O3 0.047735 0.709881 0.236997
O O4 0.944284 0.635730 0.897682
O O5 0.373591 0.353251 0.278702
O O6 0.668658 0.410896 0.915363
O O7 0.461527 0.284159 0.609877
O O8 0.847040 0.335164 0.015169
O O9 0.131195 0.190450 0.185085
O O10 0.201933 0.055602 0.367570
O O11 0.834970 0.936821 0.029657
O O12 0.000000 0.000000 0.500000
O O13 0.542882 0.996461 0.767583
O O14 0.500000 0.000000 0.000000
O O15 0.291981 0.196725 0.179498
#
# Coordination Sequence:
#
# PCOD9242556 Si02
#       7
#     4   4   4   4   4   4   4
#     4   9  19  36  55  77 107 147 185 218 268 334
#     4  10  20  34  56  79 107 148 187 221 270 340
#     4   9  20  36  54  81 112 141 182 231 272 325
#     4   9  16  32  56  78 104 140 185 227 261 320
#     4   9  17  33  57  79 101 141 191 225 260 323
#     4  12  21  34  56  85 113 142 179 234 282 316
#     4  10  21  35  54  83 113 143 183 228 277 328
#
# _framework density 27.717376000000002
#
# number of rings (size 3 to 8) (size 9 to 14) (size 15 to 20)
#    0.000    2.286    0.000    6.000    0.000    1.143 
#    0.000    3.571    0.000    3.429    0.000    0.000 
#    0.000    0.000    0.000    0.000    0.000    0.000 
#
# Total GULP energy -156020.451406 kJ/mol
# GULP energy per Si atom -5572.158979 kJ/mol
# Density = 2.765429 g / cm^3
# Si number density = 27.717376 Si / 1000 Ang^3
#
#
#
# Elastic Constant Matrix: (Units=GPa)
#
#
# Indices 1 2 3 4 5 6 
#
# 1 71.0443 64.9429 19.1888 0.0000 3.1950 0.0000
# 2 64.9429 254.3220 25.6981 0.0000 16.6873 0.0000
# 3 19.1888 25.6981 50.4908 0.0000 3.0613 0.0000
# 4 0.0000 0.0000 0.0000 24.9751 0.0000 -5.1037
# 5 3.1950 16.6873 3.0613 0.0000 36.5702 0.0000
# 6 0.0000 0.0000 0.0000 -5.1037 0.0000 50.0091
#
#
#
# Elastic Compliance Matrix: (Units=1/GPa)
#
#
# Indices 1 2 3 4 5 6 
#
# 1 0.019579 -0.004528 -0.005184 0.000000 0.000789 0.000000
# 2 -0.004528 0.005303 -0.000860 0.000000 -0.001952 0.000000
# 3 -0.005184 -0.000860 0.022275 0.000000 -0.001019 0.000000
# 4 0.000000 0.000000 0.000000 0.040893 0.000000 0.004173
# 5 0.000789 -0.001952 -0.001019 0.000000 0.028252 0.000000
# 6 0.000000 0.000000 0.000000 0.004173 0.000000 0.020422
#
#
# Mechanical properties :
#
#
# Convention : Reuss Voigt Hill
#
# Bulk Modulus (GPa) = 38.44145 66.16855 52.30500
# Shear Modulus (GPa) = 30.02273 40.04603 35.03438
#
# Velocity S-wave (km/s) = 3.29473 3.80517 3.55912
# Velocity P-wave (km/s) = 5.32662 6.57497 5.98344
#
# Compressibility (1/GPa) = 0.02601359
#
# Stress axis : x y z
#
# Youngs Moduli (GPa) = 51.07425 188.56544 44.89244
#
# Poissons Ratio (x) = 0.85376 0.23274
# Poissons Ratio (y) = 0.23125 0.03861
# Poissons Ratio (z) = 0.26479 0.16218
#
# Static dielectric constant tensor:
#      x y z
#    x 2.208170 0.000000 -0.019340 
#    y 0.000000 2.385650 0.000000 
#    z -0.019340 0.000000 2.297340 
# 
# From -- ./inp_files/34442.got.cif
#   From: 2010.05.17/outbox.cif.g08.bks.cpg/sg14_18_cif.got.tgz:34442.got - 2010.06.03 17:49:19.
